# generated using pymatgen
data_Na2CN2
_symmetry_space_group_name_H-M   'P 1'
_cell_length_a   3.50664818
_cell_length_b   3.50664925
_cell_length_c   5.50697489
_cell_angle_alpha   76.12570066
_cell_angle_beta   76.12570170
_cell_angle_gamma   89.52237365
_symmetry_Int_Tables_number   1
_chemical_formula_structural   Na2CN2
_chemical_formula_sum   'Na2 C1 N2'
_cell_volume   63.73633360
_cell_formula_units_Z   1
loop_
 _symmetry_equiv_pos_site_id
 _symmetry_equiv_pos_as_xyz
  1  'x, y, z'
loop_
 _atom_site_type_symbol
 _atom_site_label
 _atom_site_symmetry_multiplicity
 _atom_site_fract_x
 _atom_site_fract_y
 _atom_site_fract_z
 _atom_site_occupancy
  Na  Na0  1  0.32494697  0.32494697  0.30872218  1
  Na  Na1  1  0.67505303  0.67505303  0.69127782  1
  C  C2  1  0.00000000  -0.00000000  0.00000000  1
  N  N3  1  0.15621092  0.15621092  0.77137267  1
  N  N4  1  0.84378908  0.84378908  0.22862733  1
