# generated using pymatgen
data_RbCO2
_symmetry_space_group_name_H-M   'P 1'
_cell_length_a   3.59256883
_cell_length_b   6.29648466
_cell_length_c   11.29576821
_cell_angle_alpha   90.00000000
_cell_angle_beta   90.00000000
_cell_angle_gamma   90.00000000
_symmetry_Int_Tables_number   1
_chemical_formula_structural   RbCO2
_chemical_formula_sum   'Rb4 C4 O8'
_cell_volume   255.51654073
_cell_formula_units_Z   4
loop_
 _symmetry_equiv_pos_site_id
 _symmetry_equiv_pos_as_xyz
  1  'x, y, z'
loop_
 _atom_site_type_symbol
 _atom_site_label
 _atom_site_symmetry_multiplicity
 _atom_site_fract_x
 _atom_site_fract_y
 _atom_site_fract_z
 _atom_site_occupancy
  Rb  Rb0  1  0.50000000  0.09505004  0.15142549  1
  Rb  Rb1  1  0.50000000  0.40494996  0.65142549  1
  Rb  Rb2  1  0.50000000  0.90494996  0.84857451  1
  Rb  Rb3  1  0.50000000  0.59505004  0.34857451  1
  C  C4  1  -0.00000000  0.06802245  0.44108667  1
  C  C5  1  -0.00000000  0.56802245  0.05891333  1
  C  C6  1  0.00000000  0.93197755  0.55891333  1
  C  C7  1  0.00000000  0.43197755  0.94108667  1
  O  O8  1  0.00000000  0.46658303  0.15543074  1
  O  O9  1  -0.00000000  0.26724348  0.45221740  1
  O  O10  1  0.00000000  0.23275652  0.95221740  1
  O  O11  1  0.00000000  0.96658303  0.34456926  1
  O  O12  1  -0.00000000  0.03341697  0.65543074  1
  O  O13  1  0.00000000  0.53341697  0.84456926  1
  O  O14  1  0.00000000  0.73275652  0.54778260  1
  O  O15  1  0.00000000  0.76724348  0.04778260  1
