# generated using pymatgen
data_SrCrF4
_symmetry_space_group_name_H-M   'P 1'
_cell_length_a   6.88698135
_cell_length_b   6.88698135
_cell_length_c   6.88698135
_cell_angle_alpha   134.37571984
_cell_angle_beta   128.95389552
_cell_angle_gamma   70.84921478
_symmetry_Int_Tables_number   1
_chemical_formula_structural   SrCrF4
_chemical_formula_sum   'Sr2 Cr2 F8'
_cell_volume   177.86820195
_cell_formula_units_Z   2
loop_
 _symmetry_equiv_pos_site_id
 _symmetry_equiv_pos_as_xyz
  1  'x, y, z'
loop_
 _atom_site_type_symbol
 _atom_site_label
 _atom_site_symmetry_multiplicity
 _atom_site_fract_x
 _atom_site_fract_y
 _atom_site_fract_z
 _atom_site_occupancy
  Sr  Sr0  1  -0.00000000  0.50000000  0.50000000  1
  Sr  Sr1  1  0.50000000  -0.00000000  0.50000000  1
  Cr  Cr2  1  0.25000000  0.25000000  0.00000000  1
  Cr  Cr3  1  0.75000000  0.75000000  0.00000000  1
  F  F4  1  0.67571118  0.03125851  0.95988700  1
  F  F5  1  0.57137151  0.53125851  0.35554633  1
  F  F6  1  0.42862849  0.46874149  0.64445367  1
  F  F7  1  0.82428882  0.78417483  0.35554633  1
  F  F8  1  0.92862849  0.28417483  0.95988700  1
  F  F9  1  0.07137151  0.71582517  0.04011300  1
  F  F10  1  0.17571118  0.21582517  0.64445367  1
  F  F11  1  0.32428882  0.96874149  0.04011300  1
