# generated using pymatgen
data_Ho2Ge2O7
_symmetry_space_group_name_H-M   'P 1'
_cell_length_a   6.78228808
_cell_length_b   6.78228808
_cell_length_c   12.35276946
_cell_angle_alpha   90.00000000
_cell_angle_beta   90.00000000
_cell_angle_gamma   90.00000000
_symmetry_Int_Tables_number   1
_chemical_formula_structural   Ho2Ge2O7
_chemical_formula_sum   'Ho8 Ge8 O28'
_cell_volume   568.22037385
_cell_formula_units_Z   4
loop_
 _symmetry_equiv_pos_site_id
 _symmetry_equiv_pos_as_xyz
  1  'x, y, z'
loop_
 _atom_site_type_symbol
 _atom_site_label
 _atom_site_symmetry_multiplicity
 _atom_site_fract_x
 _atom_site_fract_y
 _atom_site_fract_z
 _atom_site_occupancy
  Ho  Ho0  1  0.85313784  0.62509952  0.88527360  1
  Ho  Ho1  1  0.35313784  0.87490048  0.86472640  1
  Ho  Ho2  1  0.37490048  0.14686216  0.61472640  1
  Ho  Ho3  1  0.64686216  0.12509952  0.36472640  1
  Ho  Ho4  1  0.14686216  0.37490048  0.38527360  1
  Ho  Ho5  1  0.12509952  0.64686216  0.63527360  1
  Ho  Ho6  1  0.62509952  0.85313784  0.11472640  1
  Ho  Ho7  1  0.87490048  0.35313784  0.13527360  1
  Ge  Ge8  1  0.39998851  0.34768311  0.13108051  1
  Ge  Ge9  1  0.65231689  0.60001149  0.36891949  1
  Ge  Ge10  1  0.60001149  0.65231689  0.63108051  1
  Ge  Ge11  1  0.10001149  0.84768311  0.11891949  1
  Ge  Ge12  1  0.84768311  0.10001149  0.88108051  1
  Ge  Ge13  1  0.15231689  0.89998851  0.38108051  1
  Ge  Ge14  1  0.89998851  0.15231689  0.61891949  1
  Ge  Ge15  1  0.34768311  0.39998851  0.86891949  1
  O  O16  1  0.35660132  0.18225352  0.79433608  1
  O  O17  1  0.07754497  0.96723930  0.62261450  1
  O  O18  1  0.68225352  0.14339868  0.54433608  1
  O  O19  1  0.66141023  0.93602350  0.92881675  1
  O  O20  1  0.33858977  0.06397650  0.42881675  1
  O  O21  1  0.43602350  0.83858977  0.67881675  1
  O  O22  1  0.53276070  0.57754497  0.87261450  1
  O  O23  1  0.42245503  0.46723930  0.62738550  1
  O  O24  1  0.19675068  0.80324932  0.25000000  1
  O  O25  1  0.57754497  0.53276070  0.12738550  1
  O  O26  1  0.30324932  0.30324932  -0.00000000  1
  O  O27  1  0.92245503  0.03276070  0.12261450  1
  O  O28  1  0.14339868  0.68225352  0.45566392  1
  O  O29  1  0.93602350  0.66141023  0.07118325  1
  O  O30  1  0.85660132  0.31774648  0.95566392  1
  O  O31  1  0.03276070  0.92245503  0.87738550  1
  O  O32  1  0.16141023  0.56397650  0.82118325  1
  O  O33  1  0.31774648  0.85660132  0.04433608  1
  O  O34  1  0.64339868  0.81774648  0.29433608  1
  O  O35  1  0.18225352  0.35660132  0.20566392  1
  O  O36  1  0.56397650  0.16141023  0.17881675  1
  O  O37  1  0.81774648  0.64339868  0.70566392  1
  O  O38  1  0.96723930  0.07754497  0.37738550  1
  O  O39  1  0.06397650  0.33858977  0.57118325  1
  O  O40  1  0.69675068  0.69675068  0.50000000  1
  O  O41  1  0.83858977  0.43602350  0.32118325  1
  O  O42  1  0.80324932  0.19675068  0.75000000  1
  O  O43  1  0.46723930  0.42245503  0.37261450  1
