# generated using pymatgen
data_CaZr(PO4)2
_symmetry_space_group_name_H-M   'P 1'
_cell_length_a   6.23406342
_cell_length_b   6.73338395
_cell_length_c   14.56269663
_cell_angle_alpha   90.00000000
_cell_angle_beta   90.00000000
_cell_angle_gamma   90.00000000
_symmetry_Int_Tables_number   1
_chemical_formula_structural   CaZr(PO4)2
_chemical_formula_sum   'Ca4 Zr4 P8 O32'
_cell_volume   611.28874256
_cell_formula_units_Z   4
loop_
 _symmetry_equiv_pos_site_id
 _symmetry_equiv_pos_as_xyz
  1  'x, y, z'
loop_
 _atom_site_type_symbol
 _atom_site_label
 _atom_site_symmetry_multiplicity
 _atom_site_fract_x
 _atom_site_fract_y
 _atom_site_fract_z
 _atom_site_occupancy
  Ca  Ca0  1  0.55301047  0.75000000  0.14796754  1
  Ca  Ca1  1  0.05301047  0.75000000  0.35203246  1
  Ca  Ca2  1  0.94698953  0.25000000  0.64796754  1
  Ca  Ca3  1  0.44698953  0.25000000  0.85203246  1
  Zr  Zr4  1  0.17652474  0.75000000  0.89109727  1
  Zr  Zr5  1  0.82347526  0.25000000  0.10890273  1
  Zr  Zr6  1  0.67652474  0.75000000  0.60890273  1
  Zr  Zr7  1  0.32347526  0.25000000  0.39109727  1
  P  P8  1  0.13288572  0.75000000  0.64731192  1
  P  P9  1  0.86711428  0.25000000  0.35268808  1
  P  P10  1  0.04309601  0.75000000  0.11627786  1
  P  P11  1  0.36711428  0.25000000  0.14731192  1
  P  P12  1  0.54309601  0.75000000  0.38372214  1
  P  P13  1  0.63288572  0.75000000  0.85268808  1
  P  P14  1  0.95690399  0.25000000  0.88372214  1
  P  P15  1  0.45690399  0.25000000  0.61627786  1
  O  O16  1  0.39166721  0.93065243  0.38717312  1
  O  O17  1  0.84274974  0.75000000  0.90426262  1
  O  O18  1  0.34274974  0.75000000  0.59573738  1
  O  O19  1  0.89166721  0.93065243  0.11282688  1
  O  O20  1  0.60833279  0.06934757  0.61282688  1
  O  O21  1  0.39166721  0.56934757  0.38717312  1
  O  O22  1  0.17225015  0.75000000  0.75052378  1
  O  O23  1  0.10833279  0.06934757  0.88717312  1
  O  O24  1  0.51467281  0.07716531  0.11936462  1
  O  O25  1  0.89166721  0.56934757  0.11282688  1
  O  O26  1  0.15725026  0.25000000  0.09573738  1
  O  O27  1  0.19889806  0.75000000  0.03350201  1
  O  O28  1  0.18239398  0.75000000  0.20218460  1
  O  O29  1  0.65725026  0.25000000  0.40426262  1
  O  O30  1  0.01467281  0.42283469  0.38063538  1
  O  O31  1  0.67225015  0.75000000  0.74947622  1
  O  O32  1  0.01467281  0.07716531  0.38063538  1
  O  O33  1  0.82774985  0.25000000  0.24947622  1
  O  O34  1  0.69889806  0.75000000  0.46649799  1
  O  O35  1  0.80110194  0.25000000  0.96649799  1
  O  O36  1  0.98532719  0.57716531  0.61936462  1
  O  O37  1  0.48532719  0.57716531  0.88063538  1
  O  O38  1  0.51467281  0.42283469  0.11936462  1
  O  O39  1  0.31760602  0.25000000  0.70218460  1
  O  O40  1  0.68239398  0.75000000  0.29781540  1
  O  O41  1  0.98532719  0.92283469  0.61936462  1
  O  O42  1  0.32774985  0.25000000  0.25052378  1
  O  O43  1  0.60833279  0.43065243  0.61282688  1
  O  O44  1  0.48532719  0.92283469  0.88063538  1
  O  O45  1  0.81760602  0.25000000  0.79781540  1
  O  O46  1  0.30110194  0.25000000  0.53350201  1
  O  O47  1  0.10833279  0.43065243  0.88717312  1
