# generated using pymatgen
data_ThSe2O7
_symmetry_space_group_name_H-M   'P 1'
_cell_length_a   9.56827660
_cell_length_b   7.05997483
_cell_length_c   9.07830460
_cell_angle_alpha   76.78516763
_cell_angle_beta   90.00000000
_cell_angle_gamma   90.00000000
_symmetry_Int_Tables_number   1
_chemical_formula_structural   ThSe2O7
_chemical_formula_sum   'Th4 Se8 O28'
_cell_volume   597.01658225
_cell_formula_units_Z   4
loop_
 _symmetry_equiv_pos_site_id
 _symmetry_equiv_pos_as_xyz
  1  'x, y, z'
loop_
 _atom_site_type_symbol
 _atom_site_label
 _atom_site_symmetry_multiplicity
 _atom_site_fract_x
 _atom_site_fract_y
 _atom_site_fract_z
 _atom_site_occupancy
  Th  Th0  1  0.46037148  0.20899452  0.13411847  1
  Th  Th1  1  0.03962852  0.20899452  0.63411847  1
  Th  Th2  1  0.53962852  0.79100548  0.86588153  1
  Th  Th3  1  0.96037148  0.79100548  0.36588153  1
  Se  Se4  1  0.59567026  0.67161141  0.24917399  1
  Se  Se5  1  0.90432974  0.67161141  0.74917399  1
  Se  Se6  1  0.18096748  0.87898741  0.01763240  1
  Se  Se7  1  0.68096748  0.12101259  0.48236760  1
  Se  Se8  1  0.40432974  0.32838859  0.75082601  1
  Se  Se9  1  0.31903252  0.87898741  0.51763240  1
  Se  Se10  1  0.81903252  0.12101259  0.98236760  1
  Se  Se11  1  0.09567026  0.32838859  0.25082601  1
  O  O12  1  0.08445704  0.95413927  0.86623636  1
  O  O13  1  0.80922412  0.25280560  0.52523273  1
  O  O14  1  0.93923457  0.89465631  0.62575327  1
  O  O15  1  0.93978885  0.54965224  0.60851981  1
  O  O16  1  0.41554296  0.95413927  0.36623636  1
  O  O17  1  0.06021115  0.45034776  0.39148019  1
  O  O18  1  0.77244854  0.66207162  0.25440541  1
  O  O19  1  0.69077588  0.25280560  0.02523273  1
  O  O20  1  0.91239955  0.26980671  0.85211235  1
  O  O21  1  0.30922412  0.74719440  0.97476727  1
  O  O22  1  0.72755146  0.66207162  0.75440541  1
  O  O23  1  0.27244854  0.33792838  0.24559459  1
  O  O24  1  0.26616852  0.05916568  0.59255481  1
  O  O25  1  0.76616852  0.94083432  0.90744519  1
  O  O26  1  0.06076543  0.10534369  0.37424673  1
  O  O27  1  0.19077588  0.74719440  0.47476727  1
  O  O28  1  0.43978885  0.45034776  0.89148019  1
  O  O29  1  0.08760045  0.73019329  0.14788765  1
  O  O30  1  0.41239955  0.73019329  0.64788765  1
  O  O31  1  0.56076543  0.89465631  0.12575327  1
  O  O32  1  0.58760045  0.26980671  0.35211235  1
  O  O33  1  0.56021115  0.54965224  0.10851981  1
  O  O34  1  0.43923457  0.10534369  0.87424673  1
  O  O35  1  0.58445704  0.04586073  0.63376364  1
  O  O36  1  0.73383148  0.94083432  0.40744519  1
  O  O37  1  0.91554296  0.04586073  0.13376364  1
  O  O38  1  0.23383148  0.05916568  0.09255481  1
  O  O39  1  0.22755146  0.33792838  0.74559459  1
