# generated using pymatgen
data_SrCrO4
_symmetry_space_group_name_H-M   'P 1'
_cell_length_a   7.39811993
_cell_length_b   6.75339517
_cell_length_c   8.60044429
_cell_angle_alpha   53.28021315
_cell_angle_beta   90.00000000
_cell_angle_gamma   90.00000000
_symmetry_Int_Tables_number   1
_chemical_formula_structural   SrCrO4
_chemical_formula_sum   'Sr4 Cr4 O16'
_cell_volume   344.43354633
_cell_formula_units_Z   4
loop_
 _symmetry_equiv_pos_site_id
 _symmetry_equiv_pos_as_xyz
  1  'x, y, z'
loop_
 _atom_site_type_symbol
 _atom_site_label
 _atom_site_symmetry_multiplicity
 _atom_site_fract_x
 _atom_site_fract_y
 _atom_site_fract_z
 _atom_site_occupancy
  Sr  Sr0  1  0.34291027  0.33004268  0.77181295  1
  Sr  Sr1  1  0.84291027  0.66995732  0.72818705  1
  Sr  Sr2  1  0.65708973  0.66995732  0.22818705  1
  Sr  Sr3  1  0.15708973  0.33004268  0.27181295  1
  Cr  Cr4  1  0.33583615  0.81249292  0.80270561  1
  Cr  Cr5  1  0.83583615  0.18750708  0.69729439  1
  Cr  Cr6  1  0.66416385  0.18750708  0.19729439  1
  Cr  Cr7  1  0.16416385  0.81249292  0.30270561  1
  O  O8  1  0.28190384  0.09451088  0.61905659  1
  O  O9  1  0.78190384  0.90548912  0.88094341  1
  O  O10  1  0.71809616  0.90548912  0.38094341  1
  O  O11  1  0.21809616  0.09451088  0.11905659  1
  O  O12  1  0.49708984  0.69823758  0.74512315  1
  O  O13  1  0.99708984  0.30176242  0.75487685  1
  O  O14  1  0.50291016  0.30176242  0.25487685  1
  O  O15  1  0.00291016  0.69823758  0.24512315  1
  O  O16  1  0.39843925  0.83202971  0.97614407  1
  O  O17  1  0.89843925  0.16797029  0.52385593  1
  O  O18  1  0.60156075  0.16797029  0.02385593  1
  O  O19  1  0.10156075  0.83202971  0.47614407  1
  O  O20  1  0.16153395  0.62116752  0.88032472  1
  O  O21  1  0.66153395  0.37883248  0.61967528  1
  O  O22  1  0.83846605  0.37883248  0.11967528  1
  O  O23  1  0.33846605  0.62116752  0.38032472  1
