# generated using pymatgen
data_CsHoS2
_symmetry_space_group_name_H-M   'P 1'
_cell_length_a   8.40670574
_cell_length_b   8.40670608
_cell_length_c   8.40670532
_cell_angle_alpha   27.92095216
_cell_angle_beta   27.92095234
_cell_angle_gamma   27.92094962
_symmetry_Int_Tables_number   1
_chemical_formula_structural   CsHoS2
_chemical_formula_sum   'Cs1 Ho1 S2'
_cell_volume   115.04574962
_cell_formula_units_Z   1
loop_
 _symmetry_equiv_pos_site_id
 _symmetry_equiv_pos_as_xyz
  1  'x, y, z'
loop_
 _atom_site_type_symbol
 _atom_site_label
 _atom_site_symmetry_multiplicity
 _atom_site_fract_x
 _atom_site_fract_y
 _atom_site_fract_z
 _atom_site_occupancy
  Cs  Cs0  1  0.00000000  0.00000000  0.00000000  1
  Ho  Ho1  1  0.50000000  0.50000000  0.50000000  1
  S  S2  1  0.22690901  0.22690901  0.22690901  1
  S  S3  1  0.77309099  0.77309099  0.77309099  1
