# generated using pymatgen
data_NiPH16NO10
_symmetry_space_group_name_H-M   'P 1'
_cell_length_a   6.02107461
_cell_length_b   6.87873997
_cell_length_c   11.09501341
_cell_angle_alpha   90.00000000
_cell_angle_beta   90.00000000
_cell_angle_gamma   90.00000000
_symmetry_Int_Tables_number   1
_chemical_formula_structural   NiPH16NO10
_chemical_formula_sum   'Ni2 P2 H32 N2 O20'
_cell_volume   459.52668144
_cell_formula_units_Z   2
loop_
 _symmetry_equiv_pos_site_id
 _symmetry_equiv_pos_as_xyz
  1  'x, y, z'
loop_
 _atom_site_type_symbol
 _atom_site_label
 _atom_site_symmetry_multiplicity
 _atom_site_fract_x
 _atom_site_fract_y
 _atom_site_fract_z
 _atom_site_occupancy
  Ni  Ni0  1  0.63242901  -0.00000000  0.37239435  1
  Ni  Ni1  1  0.36757099  0.50000000  0.87239435  1
  P  P2  1  0.00150305  -0.00000000  0.00058519  1
  P  P3  1  0.99849695  0.50000000  0.50058519  1
  H  H4  1  0.28525190  -0.00000000  0.20484997  1
  H  H5  1  0.71474810  0.50000000  0.70484997  1
  H  H6  1  0.18194383  -0.00000000  0.33820255  1
  H  H7  1  0.81805617  0.50000000  0.83820255  1
  H  H8  1  0.00703799  0.88186859  0.49023511  1
  H  H9  1  0.99296201  0.61813141  0.99023511  1
  H  H10  1  0.99296201  0.38186859  0.99023511  1
  H  H11  1  0.00703799  0.11813141  0.49023511  1
  H  H12  1  0.79326432  0.80076683  0.17977656  1
  H  H13  1  0.20673568  0.69923317  0.67977656  1
  H  H14  1  0.20673568  0.30076683  0.67977656  1
  H  H15  1  0.79326432  0.19923317  0.17977656  1
  H  H16  1  0.83153439  0.68024584  0.30163972  1
  H  H17  1  0.16846561  0.81975416  0.80163972  1
  H  H18  1  0.16846561  0.18024584  0.80163972  1
  H  H19  1  0.83153439  0.31975416  0.30163972  1
  H  H20  1  0.62231181  0.68160252  0.51569362  1
  H  H21  1  0.37768819  0.81839748  0.01569362  1
  H  H22  1  0.37768819  0.18160252  0.01569362  1
  H  H23  1  0.62231181  0.31839748  0.51569362  1
  H  H24  1  0.37352854  0.75695175  0.50199424  1
  H  H25  1  0.62647146  0.74304825  0.00199424  1
  H  H26  1  0.62647146  0.25695175  0.00199424  1
  H  H27  1  0.37352854  0.24304825  0.50199424  1
  H  H28  1  0.77411431  -0.00000000  0.77857999  1
  H  H29  1  0.22588569  0.50000000  0.27857999  1
  H  H30  1  0.64330738  -0.00000000  0.64023683  1
  H  H31  1  0.35669262  0.50000000  0.14023683  1
  H  H32  1  0.52902656  0.87891325  0.75260649  1
  H  H33  1  0.47097344  0.62108675  0.25260649  1
  H  H34  1  0.47097344  0.37891325  0.25260649  1
  H  H35  1  0.52902656  0.12108675  0.75260649  1
  N  N36  1  0.62338753  -0.00000000  0.73201253  1
  N  N37  1  0.37661247  0.50000000  0.23201253  1
  O  O38  1  0.32093514  -0.00000000  0.29222083  1
  O  O39  1  0.67906486  0.50000000  0.79222083  1
  O  O40  1  0.95281998  -0.00000000  0.44666294  1
  O  O41  1  0.04718002  0.50000000  0.94666294  1
  O  O42  1  0.73108644  0.77629416  0.26199520  1
  O  O43  1  0.26891356  0.72370584  0.76199520  1
  O  O44  1  0.26891356  0.27629416  0.76199520  1
  O  O45  1  0.73108644  0.22370584  0.26199520  1
  O  O46  1  0.53058876  0.79793480  0.49434352  1
  O  O47  1  0.46941124  0.70206520  0.99434352  1
  O  O48  1  0.46941124  0.29793480  0.99434352  1
  O  O49  1  0.53058876  0.20206520  0.49434352  1
  O  O50  1  0.02143954  -0.00000000  0.86212620  1
  O  O51  1  0.97856046  0.50000000  0.36212620  1
  O  O52  1  0.23574105  -0.00000000  0.05704819  1
  O  O53  1  0.76425895  0.50000000  0.55704819  1
  O  O54  1  0.87832726  0.81587703  0.04241477  1
  O  O55  1  0.12167274  0.68412297  0.54241477  1
  O  O56  1  0.12167274  0.31587703  0.54241477  1
  O  O57  1  0.87832726  0.18412297  0.04241477  1
