# generated using pymatgen
data_CdI2
_symmetry_space_group_name_H-M   'P 1'
_cell_length_a   4.28163670
_cell_length_b   4.28163759
_cell_length_c   42.78619517
_cell_angle_alpha   90.00000000
_cell_angle_beta   90.00000000
_cell_angle_gamma   120.00000111
_symmetry_Int_Tables_number   1
_chemical_formula_structural   CdI2
_chemical_formula_sum   'Cd6 I12'
_cell_volume   679.28811177
_cell_formula_units_Z   6
loop_
 _symmetry_equiv_pos_site_id
 _symmetry_equiv_pos_as_xyz
  1  'x, y, z'
loop_
 _atom_site_type_symbol
 _atom_site_label
 _atom_site_symmetry_multiplicity
 _atom_site_fract_x
 _atom_site_fract_y
 _atom_site_fract_z
 _atom_site_occupancy
  Cd  Cd0  1  0.33333300  0.66666700  0.70822684  1
  Cd  Cd1  1  0.66666700  0.33333300  0.04157612  1
  Cd  Cd2  1  0.33333300  0.66666700  0.87523551  1
  Cd  Cd3  1  0.33333300  0.66666700  0.20822386  1
  Cd  Cd4  1  0.33333300  0.66666700  0.54157925  1
  Cd  Cd5  1  0.33333300  0.66666700  0.37522185  1
  I  I6  1  0.33333300  0.66666700  0.08186434  1
  I  I7  1  0.00000000  0.00000000  0.16783916  1
  I  I8  1  0.00000000  0.00000000  0.66783697  1
  I  I9  1  0.00000000  -0.00000000  0.33495323  1
  I  I10  1  0.66666700  0.33333300  0.91546180  1
  I  I11  1  0.66666700  0.33333300  0.41540001  1
  I  I12  1  0.00000000  0.00000000  0.00119443  1
  I  I13  1  0.66666700  0.33333300  0.58187177  1
  I  I14  1  0.66666700  0.33333300  0.24852965  1
  I  I15  1  0.00000000  -0.00000000  0.83496159  1
  I  I16  1  0.00000000  0.00000000  0.50119737  1
  I  I17  1  0.66666700  0.33333300  0.74852925  1
