# generated using pymatgen
data_Cs2Sn2O3
_symmetry_space_group_name_H-M   'P 1'
_cell_length_a   6.13044384
_cell_length_b   8.98808637
_cell_length_c   13.93983580
_cell_angle_alpha   90.00000000
_cell_angle_beta   90.00000000
_cell_angle_gamma   90.00000000
_symmetry_Int_Tables_number   1
_chemical_formula_structural   Cs2Sn2O3
_chemical_formula_sum   'Cs8 Sn8 O12'
_cell_volume   768.09831698
_cell_formula_units_Z   4
loop_
 _symmetry_equiv_pos_site_id
 _symmetry_equiv_pos_as_xyz
  1  'x, y, z'
loop_
 _atom_site_type_symbol
 _atom_site_label
 _atom_site_symmetry_multiplicity
 _atom_site_fract_x
 _atom_site_fract_y
 _atom_site_fract_z
 _atom_site_occupancy
  Cs  Cs0  1  0.25000000  0.53536073  0.36764627  1
  Cs  Cs1  1  0.75000000  0.46463927  0.63235373  1
  Cs  Cs2  1  0.75000000  0.03536073  0.13235373  1
  Cs  Cs3  1  0.25000000  0.96463927  0.86764627  1
  Cs  Cs4  1  0.25000000  0.33631009  0.09569502  1
  Cs  Cs5  1  0.75000000  0.66368991  0.90430498  1
  Cs  Cs6  1  0.75000000  0.83631009  0.40430498  1
  Cs  Cs7  1  0.25000000  0.16368991  0.59569502  1
  Sn  Sn8  1  0.25000000  0.78462607  0.13539982  1
  Sn  Sn9  1  0.75000000  0.21537393  0.86460018  1
  Sn  Sn10  1  0.75000000  0.28462607  0.36460018  1
  Sn  Sn11  1  0.25000000  0.71537393  0.63539982  1
  Sn  Sn12  1  0.25000000  0.08536202  0.30358199  1
  Sn  Sn13  1  0.75000000  0.91463798  0.69641801  1
  Sn  Sn14  1  0.75000000  0.58536202  0.19641801  1
  Sn  Sn15  1  0.25000000  0.41463798  0.80358199  1
  O  O16  1  0.00229538  0.23490608  0.27267406  1
  O  O17  1  0.50229538  0.76509392  0.72732594  1
  O  O18  1  0.99770462  0.73490608  0.22732594  1
  O  O19  1  0.49770462  0.26509392  0.77267406  1
  O  O20  1  0.99770462  0.76509392  0.72732594  1
  O  O21  1  0.49770462  0.23490608  0.27267406  1
  O  O22  1  0.00229538  0.26509392  0.77267406  1
  O  O23  1  0.50229538  0.73490608  0.22732594  1
  O  O24  1  0.25000000  0.00874275  0.16356472  1
  O  O25  1  0.75000000  0.99125725  0.83643528  1
  O  O26  1  0.75000000  0.50874275  0.33643528  1
  O  O27  1  0.25000000  0.49125725  0.66356472  1
