# generated using pymatgen
data_Cs2Ge2S5
_symmetry_space_group_name_H-M   'P 1'
_cell_length_a   11.31602457
_cell_length_b   11.31602457
_cell_length_c   9.57354286
_cell_angle_alpha   79.31031049
_cell_angle_beta   79.31031049
_cell_angle_gamma   90.39076557
_symmetry_Int_Tables_number   1
_chemical_formula_structural   Cs2Ge2S5
_chemical_formula_sum   'Cs8 Ge8 S20'
_cell_volume   1182.65643342
_cell_formula_units_Z   4
loop_
 _symmetry_equiv_pos_site_id
 _symmetry_equiv_pos_as_xyz
  1  'x, y, z'
loop_
 _atom_site_type_symbol
 _atom_site_label
 _atom_site_symmetry_multiplicity
 _atom_site_fract_x
 _atom_site_fract_y
 _atom_site_fract_z
 _atom_site_occupancy
  Cs  Cs0  1  0.94108110  0.79333956  0.13737170  1
  Cs  Cs1  1  0.05891890  0.20666044  0.86262830  1
  Cs  Cs2  1  0.48100474  0.21063426  0.86860532  1
  Cs  Cs3  1  0.78936574  0.51899526  0.63139468  1
  Cs  Cs4  1  0.20666044  0.05891890  0.36262830  1
  Cs  Cs5  1  0.79333956  0.94108110  0.63737170  1
  Cs  Cs6  1  0.21063426  0.48100474  0.36860532  1
  Cs  Cs7  1  0.51899526  0.78936574  0.13139468  1
  Ge  Ge8  1  0.14074952  0.73081987  0.61959437  1
  Ge  Ge9  1  0.53017323  0.26532404  0.39428061  1
  Ge  Ge10  1  0.85925048  0.26918013  0.38040563  1
  Ge  Ge11  1  0.26918013  0.85925048  0.88040563  1
  Ge  Ge12  1  0.46982677  0.73467596  0.60571939  1
  Ge  Ge13  1  0.26532404  0.53017323  0.89428061  1
  Ge  Ge14  1  0.73467596  0.46982677  0.10571939  1
  Ge  Ge15  1  0.73081987  0.14074952  0.11959437  1
  S  S16  1  0.54784496  0.11882402  0.25987638  1
  S  S17  1  0.36127999  0.24216466  0.53751725  1
  S  S18  1  0.87896128  0.12103872  0.25000000  1
  S  S19  1  0.75783534  0.63872001  0.96248275  1
  S  S20  1  0.98673741  0.24656552  0.51972841  1
  S  S21  1  0.24379636  0.67712884  0.02655621  1
  S  S22  1  0.55186140  0.44813860  0.25000000  1
  S  S23  1  0.44813860  0.55186140  0.75000000  1
  S  S24  1  0.11882402  0.54784496  0.75987638  1
  S  S25  1  0.32287116  0.75620364  0.47344379  1
  S  S26  1  0.01326259  0.75343448  0.48027159  1
  S  S27  1  0.88117598  0.45215504  0.24012362  1
  S  S28  1  0.24656552  0.98673741  0.01972841  1
  S  S29  1  0.12103872  0.87896128  0.75000000  1
  S  S30  1  0.24216466  0.36127999  0.03751725  1
  S  S31  1  0.75343448  0.01326259  0.98027159  1
  S  S32  1  0.45215504  0.88117598  0.74012362  1
  S  S33  1  0.63872001  0.75783534  0.46248275  1
  S  S34  1  0.75620364  0.32287116  0.97344379  1
  S  S35  1  0.67712884  0.24379636  0.52655621  1
