# generated using pymatgen
data_Li3Gd(BO3)2
_symmetry_space_group_name_H-M   'P 1'
_cell_length_a   6.37827123
_cell_length_b   8.73462071
_cell_length_c   10.06821180
_cell_angle_alpha   62.91631781
_cell_angle_beta   90.00000000
_cell_angle_gamma   90.00000000
_symmetry_Int_Tables_number   1
_chemical_formula_structural   Li3Gd(BO3)2
_chemical_formula_sum   'Li12 Gd4 B8 O24'
_cell_volume   499.40913876
_cell_formula_units_Z   4
loop_
 _symmetry_equiv_pos_site_id
 _symmetry_equiv_pos_as_xyz
  1  'x, y, z'
loop_
 _atom_site_type_symbol
 _atom_site_label
 _atom_site_symmetry_multiplicity
 _atom_site_fract_x
 _atom_site_fract_y
 _atom_site_fract_z
 _atom_site_occupancy
  Li  Li0  1  0.56252770  0.29503332  0.66567289  1
  Li  Li1  1  0.25694807  0.39496648  0.47882486  1
  Li  Li2  1  0.24305193  0.39496648  0.97882486  1
  Li  Li3  1  0.75694807  0.60503352  0.02117514  1
  Li  Li4  1  0.77956660  0.16414137  0.54122984  1
  Li  Li5  1  0.06252770  0.70496668  0.83432711  1
  Li  Li6  1  0.43747230  0.70496668  0.33432711  1
  Li  Li7  1  0.22043340  0.83585863  0.45877016  1
  Li  Li8  1  0.74305193  0.60503352  0.52117514  1
  Li  Li9  1  0.27956660  0.83585863  0.95877016  1
  Li  Li10  1  0.72043340  0.16414137  0.04122984  1
  Li  Li11  1  0.93747230  0.29503332  0.16567289  1
  Gd  Gd12  1  0.97277818  0.81761811  0.20026764  1
  Gd  Gd13  1  0.47277818  0.18238189  0.29973236  1
  Gd  Gd14  1  0.02722182  0.18238189  0.79973236  1
  Gd  Gd15  1  0.52722182  0.81761811  0.70026764  1
  B  B16  1  0.66279011  0.45951363  0.32332438  1
  B  B17  1  0.67010381  0.94795749  0.89331739  1
  B  B18  1  0.33720989  0.54048637  0.67667562  1
  B  B19  1  0.83720989  0.45951363  0.82332438  1
  B  B20  1  0.17010381  0.05204251  0.60668261  1
  B  B21  1  0.32989619  0.05204251  0.10668261  1
  B  B22  1  0.16279011  0.54048637  0.17667562  1
  B  B23  1  0.82989619  0.94795749  0.39331739  1
  O  O24  1  0.70880329  0.61830735  0.31243644  1
  O  O25  1  0.44053820  0.66433542  0.55113252  1
  O  O26  1  0.78289411  0.99131940  0.98727861  1
  O  O27  1  0.29119671  0.38169265  0.68756356  1
  O  O28  1  0.82063864  0.05960822  0.24183360  1
  O  O29  1  0.20880329  0.38169265  0.18756356  1
  O  O30  1  0.55946180  0.33566458  0.44886748  1
  O  O31  1  0.71108065  0.41097741  0.21329854  1
  O  O32  1  0.94053820  0.33566458  0.94886748  1
  O  O33  1  0.05946180  0.66433542  0.05113252  1
  O  O34  1  0.28289411  0.00868060  0.51272139  1
  O  O35  1  0.21710589  0.00868060  0.01272139  1
  O  O36  1  0.43611107  0.20394655  0.05925916  1
  O  O37  1  0.79119671  0.61830735  0.81243644  1
  O  O38  1  0.78891935  0.41097741  0.71329854  1
  O  O39  1  0.93611107  0.79605345  0.44074084  1
  O  O40  1  0.32063864  0.94039178  0.25816640  1
  O  O41  1  0.56388893  0.79605345  0.94074084  1
  O  O42  1  0.17936136  0.94039178  0.75816640  1
  O  O43  1  0.28891935  0.58902259  0.78670146  1
  O  O44  1  0.21108065  0.58902259  0.28670146  1
  O  O45  1  0.71710589  0.99131940  0.48727861  1
  O  O46  1  0.06388893  0.20394655  0.55925916  1
  O  O47  1  0.67936136  0.05960822  0.74183360  1
