# generated using pymatgen
data_Hg3(SBr)2
_symmetry_space_group_name_H-M   'P 1'
_cell_length_a   9.42041971
_cell_length_b   9.56240160
_cell_length_c   10.05814271
_cell_angle_alpha   90.38040070
_cell_angle_beta   117.92388768
_cell_angle_gamma   90.00000261
_symmetry_Int_Tables_number   1
_chemical_formula_structural   Hg3(SBr)2
_chemical_formula_sum   'Hg12 S8 Br8'
_cell_volume   800.54169117
_cell_formula_units_Z   4
loop_
 _symmetry_equiv_pos_site_id
 _symmetry_equiv_pos_as_xyz
  1  'x, y, z'
loop_
 _atom_site_type_symbol
 _atom_site_label
 _atom_site_symmetry_multiplicity
 _atom_site_fract_x
 _atom_site_fract_y
 _atom_site_fract_z
 _atom_site_occupancy
  Hg  Hg0  1  0.34953764  0.20366882  0.24648663  1
  Hg  Hg1  1  0.89694899  0.20366882  0.24648663  1
  Hg  Hg2  1  0.23729119  0.50000000  0.00000000  1
  Hg  Hg3  1  0.65046236  0.79633118  0.75351337  1
  Hg  Hg4  1  0.76585523  0.21741322  0.53170846  1
  Hg  Hg5  1  0.47797238  0.23061317  0.95594475  1
  Hg  Hg6  1  0.76270881  0.50000000  1.00000000  1
  Hg  Hg7  1  0.23414477  0.78258678  0.46829154  1
  Hg  Hg8  1  0.52202762  0.76938683  0.04405525  1
  Hg  Hg9  1  0.10305101  0.79633118  0.75351337  1
  Hg  Hg10  1  0.50000000  0.50000000  0.50000000  1
  Hg  Hg11  1  -0.00000000  0.50000000  0.50000000  1
  S  S12  1  0.23473957  0.24965586  0.97850753  1
  S  S13  1  0.01057381  0.24831095  0.51562867  1
  S  S14  1  0.50505487  0.24831095  0.51562867  1
  S  S15  1  0.49494513  0.75168905  0.48437133  1
  S  S16  1  0.76526043  0.75034414  0.02149247  1
  S  S17  1  0.25623203  0.75034414  0.02149247  1
  S  S18  1  0.98942619  0.75168905  0.48437133  1
  S  S19  1  0.74376797  0.24965586  0.97850753  1
  Br  Br20  1  0.11985591  0.00492060  0.23971282  1
  Br  Br21  1  0.12556263  0.47947373  0.25112425  1
  Br  Br22  1  0.88014409  0.99507940  0.76028718  1
  Br  Br23  1  0.37687947  0.98336750  0.75375793  1
  Br  Br24  1  0.62610885  0.49549590  0.25221670  1
  Br  Br25  1  0.37389115  0.50450410  0.74778330  1
  Br  Br26  1  0.87443737  0.52052627  0.74887575  1
  Br  Br27  1  0.62312053  0.01663250  0.24624207  1
