# generated using pymatgen
data_Nd4GeO8
_symmetry_space_group_name_H-M   'P 1'
_cell_length_a   5.75248136
_cell_length_b   7.48288881
_cell_length_c   18.05234084
_cell_angle_alpha   90.00000000
_cell_angle_beta   90.00000000
_cell_angle_gamma   90.00000000
_symmetry_Int_Tables_number   1
_chemical_formula_structural   Nd4GeO8
_chemical_formula_sum   'Nd16 Ge4 O32'
_cell_volume   777.06623197
_cell_formula_units_Z   4
loop_
 _symmetry_equiv_pos_site_id
 _symmetry_equiv_pos_as_xyz
  1  'x, y, z'
loop_
 _atom_site_type_symbol
 _atom_site_label
 _atom_site_symmetry_multiplicity
 _atom_site_fract_x
 _atom_site_fract_y
 _atom_site_fract_z
 _atom_site_occupancy
  Nd  Nd0  1  0.02254127  0.49114277  0.39718210  1
  Nd  Nd1  1  0.45777004  0.75000000  0.71797874  1
  Nd  Nd2  1  0.48116955  0.75000000  0.51411791  1
  Nd  Nd3  1  0.52254127  0.99114277  0.10281790  1
  Nd  Nd4  1  0.95777004  0.25000000  0.78202126  1
  Nd  Nd5  1  0.97745873  0.50885723  0.60281790  1
  Nd  Nd6  1  0.47745873  0.00885723  0.89718210  1
  Nd  Nd7  1  0.97745873  0.99114277  0.60281790  1
  Nd  Nd8  1  0.98116955  0.25000000  0.98588209  1
  Nd  Nd9  1  0.47745873  0.49114277  0.89718210  1
  Nd  Nd10  1  0.01883045  0.75000000  0.01411791  1
  Nd  Nd11  1  0.54222996  0.25000000  0.28202126  1
  Nd  Nd12  1  0.04222996  0.75000000  0.21797874  1
  Nd  Nd13  1  0.02254127  0.00885723  0.39718210  1
  Nd  Nd14  1  0.52254127  0.50885723  0.10281790  1
  Nd  Nd15  1  0.51883045  0.25000000  0.48588209  1
  Ge  Ge16  1  0.50874442  0.75000000  0.30869386  1
  Ge  Ge17  1  0.49125558  0.25000000  0.69130614  1
  Ge  Ge18  1  0.00874442  0.25000000  0.19130614  1
  Ge  Ge19  1  0.99125558  0.75000000  0.80869386  1
  O  O20  1  0.22194354  0.25000000  0.87422284  1
  O  O21  1  0.19787760  0.25000000  0.66187590  1
  O  O22  1  0.27110564  0.75000000  0.11627536  1
  O  O23  1  0.42527900  0.93884354  0.25598470  1
  O  O24  1  0.75865023  0.98071688  0.49385579  1
  O  O25  1  0.22889436  0.75000000  0.61627536  1
  O  O26  1  0.25865023  0.01928312  0.00614421  1
  O  O27  1  0.69264869  0.25000000  0.61624494  1
  O  O28  1  0.27805646  0.25000000  0.37422284  1
  O  O29  1  0.24134977  0.01928312  0.50614421  1
  O  O30  1  0.77110564  0.25000000  0.38372464  1
  O  O31  1  0.07472100  0.56115646  0.75598470  1
  O  O32  1  0.30735131  0.75000000  0.38375506  1
  O  O33  1  0.72194354  0.75000000  0.62577716  1
  O  O34  1  0.57472100  0.43884354  0.74401530  1
  O  O35  1  0.74134977  0.98071688  0.99385579  1
  O  O36  1  0.74134977  0.51928312  0.99385579  1
  O  O37  1  0.42527900  0.56115646  0.25598470  1
  O  O38  1  0.72889436  0.25000000  0.88372464  1
  O  O39  1  0.07472100  0.93884354  0.75598470  1
  O  O40  1  0.69787760  0.75000000  0.83812410  1
  O  O41  1  0.24134977  0.48071688  0.50614421  1
  O  O42  1  0.75865023  0.51928312  0.49385579  1
  O  O43  1  0.92527900  0.06115646  0.24401530  1
  O  O44  1  0.19264869  0.75000000  0.88375506  1
  O  O45  1  0.77805646  0.75000000  0.12577716  1
  O  O46  1  0.80735131  0.25000000  0.11624494  1
  O  O47  1  0.92527900  0.43884354  0.24401530  1
  O  O48  1  0.80212240  0.75000000  0.33812410  1
  O  O49  1  0.25865023  0.48071688  0.00614421  1
  O  O50  1  0.57472100  0.06115646  0.74401530  1
  O  O51  1  0.30212240  0.25000000  0.16187590  1
