# generated using pymatgen
data_NaAlSiO4
_symmetry_space_group_name_H-M   'P 1'
_cell_length_a   5.14028806
_cell_length_b   10.22889757
_cell_length_c   13.92659557
_cell_angle_alpha   90.00000000
_cell_angle_beta   90.00000000
_cell_angle_gamma   90.00000000
_symmetry_Int_Tables_number   1
_chemical_formula_structural   NaAlSiO4
_chemical_formula_sum   'Na8 Al8 Si8 O32'
_cell_volume   732.25315388
_cell_formula_units_Z   8
loop_
 _symmetry_equiv_pos_site_id
 _symmetry_equiv_pos_as_xyz
  1  'x, y, z'
loop_
 _atom_site_type_symbol
 _atom_site_label
 _atom_site_symmetry_multiplicity
 _atom_site_fract_x
 _atom_site_fract_y
 _atom_site_fract_z
 _atom_site_occupancy
  Na  Na0  1  0.94795519  0.47494549  0.74737654  1
  Na  Na1  1  0.94795519  0.02505451  0.24737654  1
  Na  Na2  1  0.44544110  0.28607255  0.49929388  1
  Na  Na3  1  0.05204481  0.97494549  0.74737654  1
  Na  Na4  1  0.55455890  0.78607255  0.49929388  1
  Na  Na5  1  0.05204481  0.52505451  0.24737654  1
  Na  Na6  1  0.44544110  0.21392745  0.99929388  1
  Na  Na7  1  0.55455890  0.71392745  0.99929388  1
  Al  Al8  1  0.54772273  0.72019315  0.24957779  1
  Al  Al9  1  0.93694105  0.52788339  0.49760261  1
  Al  Al10  1  0.93694105  0.97211661  0.99760261  1
  Al  Al11  1  0.45227727  0.27980685  0.74957779  1
  Al  Al12  1  0.06305895  0.47211661  0.99760261  1
  Al  Al13  1  0.45227727  0.22019315  0.24957779  1
  Al  Al14  1  0.06305895  0.02788339  0.49760261  1
  Al  Al15  1  0.54772273  0.77980685  0.74957779  1
  Si  Si16  1  0.56226849  0.03127429  0.62412945  1
  Si  Si17  1  0.56226849  0.46872571  0.12412945  1
  Si  Si18  1  0.95318712  0.27816070  0.37256516  1
  Si  Si19  1  0.04681288  0.77816070  0.37256516  1
  Si  Si20  1  0.95318712  0.22183930  0.87256516  1
  Si  Si21  1  0.43773151  0.53127429  0.62412945  1
  Si  Si22  1  0.04681288  0.72183930  0.87256516  1
  Si  Si23  1  0.43773151  0.96872571  0.12412945  1
  O  O24  1  0.12359095  0.23701629  0.27942898  1
  O  O25  1  0.48127369  0.81597001  0.14883979  1
  O  O26  1  0.12359095  0.26298371  0.77942898  1
  O  O27  1  0.61929930  0.00755111  0.03330760  1
  O  O28  1  0.51068049  0.05720542  0.21715432  1
  O  O29  1  0.64755533  0.25542767  0.34907387  1
  O  O30  1  0.98866464  0.93015807  0.39818129  1
  O  O31  1  0.87640905  0.76298371  0.77942898  1
  O  O32  1  0.96020359  0.69163224  0.46446222  1
  O  O33  1  0.51068049  0.44279458  0.71715432  1
  O  O34  1  0.96020359  0.80836776  0.96446222  1
  O  O35  1  0.35244467  0.74457233  0.84907387  1
  O  O36  1  0.86091275  0.99790796  0.59600851  1
  O  O37  1  0.48931951  0.94279458  0.71715432  1
  O  O38  1  0.64755533  0.24457233  0.84907387  1
  O  O39  1  0.48931951  0.55720542  0.21715432  1
  O  O40  1  0.51872631  0.18402999  0.64883979  1
  O  O41  1  0.38070070  0.50755111  0.03330760  1
  O  O42  1  0.87640905  0.73701629  0.27942898  1
  O  O43  1  0.48127369  0.68402999  0.64883979  1
  O  O44  1  0.38070070  0.99244889  0.53330760  1
  O  O45  1  0.13908725  0.49790796  0.59600851  1
  O  O46  1  0.13908725  0.00209204  0.09600951  1
  O  O47  1  0.51872631  0.31597001  0.14883979  1
  O  O48  1  0.61929930  0.49244889  0.53330760  1
  O  O49  1  0.86091275  0.50209204  0.09600951  1
  O  O50  1  0.01133536  0.06984193  0.89818129  1
  O  O51  1  0.03979641  0.30836776  0.96446222  1
  O  O52  1  0.35244467  0.75542767  0.34907387  1
  O  O53  1  0.03979641  0.19163224  0.46446222  1
  O  O54  1  0.98866464  0.56984193  0.89818129  1
  O  O55  1  0.01133536  0.43015807  0.39818129  1
