# generated using pymatgen
data_SnO2
_symmetry_space_group_name_H-M   'P 1'
_cell_length_a   4.72669443
_cell_length_b   5.76327256
_cell_length_c   15.92617370
_cell_angle_alpha   90.00000000
_cell_angle_beta   90.00000000
_cell_angle_gamma   90.00000000
_symmetry_Int_Tables_number   1
_chemical_formula_structural   SnO2
_chemical_formula_sum   'Sn12 O24'
_cell_volume   433.84853383
_cell_formula_units_Z   12
loop_
 _symmetry_equiv_pos_site_id
 _symmetry_equiv_pos_as_xyz
  1  'x, y, z'
loop_
 _atom_site_type_symbol
 _atom_site_label
 _atom_site_symmetry_multiplicity
 _atom_site_fract_x
 _atom_site_fract_y
 _atom_site_fract_z
 _atom_site_occupancy
  Sn  Sn0  1  0.99737590  0.34652705  0.41607551  1
  Sn  Sn1  1  0.50262410  0.15347295  0.91607551  1
  Sn  Sn2  1  0.00262410  0.34652705  0.08392449  1
  Sn  Sn3  1  -0.00000000  0.02814368  0.25000000  1
  Sn  Sn4  1  0.99737590  0.65347295  0.91607551  1
  Sn  Sn5  1  0.49737590  0.84652705  0.08392449  1
  Sn  Sn6  1  0.49737590  0.15347295  0.58392449  1
  Sn  Sn7  1  0.50000000  0.47185632  0.75000000  1
  Sn  Sn8  1  0.50262410  0.84652705  0.41607551  1
  Sn  Sn9  1  0.50000000  0.52814368  0.25000000  1
  Sn  Sn10  1  0.00262410  0.65347295  0.58392449  1
  Sn  Sn11  1  -0.00000000  0.97185632  0.75000000  1
  O  O12  1  0.21293725  0.92969370  0.86219401  1
  O  O13  1  0.27294992  0.19801547  0.69486920  1
  O  O14  1  0.78706275  0.92969370  0.63780599  1
  O  O15  1  0.70859061  0.12486117  0.47054916  1
  O  O16  1  0.22705008  0.30198453  0.19486920  1
  O  O17  1  0.28706275  0.42969370  0.86219401  1
  O  O18  1  0.71293725  0.57030630  0.13780599  1
  O  O19  1  0.79140939  0.37513883  0.97054916  1
  O  O20  1  0.70859061  0.87513883  0.97054916  1
  O  O21  1  0.20859061  0.62486117  0.02945084  1
  O  O22  1  0.28706275  0.57030630  0.36219401  1
  O  O23  1  0.71293725  0.42969370  0.63780599  1
  O  O24  1  0.29140939  0.12486117  0.02945084  1
  O  O25  1  0.29140939  0.87513883  0.52945084  1
  O  O26  1  0.77294992  0.69801547  0.80513080  1
  O  O27  1  0.21293725  0.07030630  0.36219401  1
  O  O28  1  0.78706275  0.07030630  0.13780599  1
  O  O29  1  0.27294992  0.80198453  0.19486920  1
  O  O30  1  0.72705008  0.19801547  0.80513080  1
  O  O31  1  0.77294992  0.30198453  0.30513080  1
  O  O32  1  0.72705008  0.80198453  0.30513080  1
  O  O33  1  0.20859061  0.37513883  0.52945084  1
  O  O34  1  0.79140939  0.62486117  0.47054916  1
  O  O35  1  0.22705008  0.69801547  0.69486920  1
