# generated using pymatgen
data_KPSe3
_symmetry_space_group_name_H-M   'P 1'
_cell_length_a   7.30874671
_cell_length_b   7.30874691
_cell_length_c   18.97090961
_cell_angle_alpha   90.00000000
_cell_angle_beta   90.00000000
_cell_angle_gamma   120.00000769
_symmetry_Int_Tables_number   1
_chemical_formula_structural   KPSe3
_chemical_formula_sum   'K6 P6 Se18'
_cell_volume   877.61611077
_cell_formula_units_Z   6
loop_
 _symmetry_equiv_pos_site_id
 _symmetry_equiv_pos_as_xyz
  1  'x, y, z'
loop_
 _atom_site_type_symbol
 _atom_site_label
 _atom_site_symmetry_multiplicity
 _atom_site_fract_x
 _atom_site_fract_y
 _atom_site_fract_z
 _atom_site_occupancy
  K  K0  1  0.28355962  0.73548840  0.41230000  1
  K  K1  1  0.73548840  0.28355962  0.58770000  1
  K  K2  1  0.71644038  0.45192978  0.92103400  1
  K  K3  1  0.45192978  0.71644038  0.07896600  1
  K  K4  1  0.26451160  0.54806922  0.74563300  1
  K  K5  1  0.54806922  0.26451160  0.25436700  1
  P  P6  1  0.93564630  0.06987266  0.38754396  1
  P  P7  1  0.06987266  0.93564630  0.61245604  1
  P  P8  1  0.86577465  0.93012734  0.27912204  1
  P  P9  1  0.93012734  0.86577465  0.72087796  1
  P  P10  1  0.13422535  0.06435370  0.05421096  1
  P  P11  1  0.06435370  0.13422535  0.94578904  1
  Se  Se12  1  0.00105798  0.72925534  0.05996167  1
  Se  Se13  1  0.92521970  0.18049032  0.10987057  1
  Se  Se14  1  0.81950968  0.74472938  0.44320457  1
  Se  Se15  1  0.25527062  0.07478030  0.77653757  1
  Se  Se16  1  0.99894202  0.72819636  0.27337233  1
  Se  Se17  1  0.53880749  0.79585683  0.25302469  1
  Se  Se18  1  0.18049032  0.92521970  0.89012943  1
  Se  Se19  1  0.27180364  0.27074466  0.60670533  1
  Se  Se20  1  0.74472938  0.81950968  0.55679543  1
  Se  Se21  1  0.27074466  0.27180364  0.39329467  1
  Se  Se22  1  0.46119251  0.25704834  0.08030831  1
  Se  Se23  1  0.25704834  0.46119251  0.91969169  1
  Se  Se24  1  0.20414317  0.74295166  0.58635869  1
  Se  Se25  1  0.79585683  0.53880749  0.74697531  1
  Se  Se26  1  0.72925534  0.00105798  0.94003833  1
  Se  Se27  1  0.07478030  0.25527062  0.22346243  1
  Se  Se28  1  0.74295166  0.20414317  0.41364131  1
  Se  Se29  1  0.72819636  0.99894202  0.72662767  1
