# generated using pymatgen
data_In3SnI5
_symmetry_space_group_name_H-M   'P 1'
_cell_length_a   9.00277060
_cell_length_b   8.96407249
_cell_length_c   17.76076752
_cell_angle_alpha   80.65824948
_cell_angle_beta   90.00000000
_cell_angle_gamma   90.00000000
_symmetry_Int_Tables_number   1
_chemical_formula_structural   In3SnI5
_chemical_formula_sum   'In12 Sn4 I20'
_cell_volume   1414.31124121
_cell_formula_units_Z   4
loop_
 _symmetry_equiv_pos_site_id
 _symmetry_equiv_pos_as_xyz
  1  'x, y, z'
loop_
 _atom_site_type_symbol
 _atom_site_label
 _atom_site_symmetry_multiplicity
 _atom_site_fract_x
 _atom_site_fract_y
 _atom_site_fract_z
 _atom_site_occupancy
  In  In0  1  0.82254035  0.61875353  0.25229463  1
  In  In1  1  0.67745965  0.61875353  0.75229463  1
  In  In2  1  0.60448070  0.10899911  0.24872274  1
  In  In3  1  0.10448070  0.89100089  0.25127726  1
  In  In4  1  0.32254035  0.38124647  0.24770537  1
  In  In5  1  0.54629458  0.22394847  0.97590070  1
  In  In6  1  0.45370542  0.77605153  0.02409930  1
  In  In7  1  0.89551930  0.10899911  0.74872274  1
  In  In8  1  0.04629458  0.77605153  0.52409930  1
  In  In9  1  0.39551930  0.89100089  0.75127726  1
  In  In10  1  0.17745965  0.38124647  0.74770537  1
  In  In11  1  0.95370542  0.22394847  0.47590070  1
  Sn  Sn12  1  0.53630693  0.29606259  0.58691704  1
  Sn  Sn13  1  0.03630693  0.70393741  0.91308296  1
  Sn  Sn14  1  0.46369307  0.70393741  0.41308296  1
  Sn  Sn15  1  0.96369307  0.29606259  0.08691704  1
  I  I16  1  0.37483840  0.61442695  0.60482692  1
  I  I17  1  0.12516160  0.61442695  0.10482692  1
  I  I18  1  0.53848789  0.25216207  0.75988013  1
  I  I19  1  0.64747043  0.45570174  0.10241533  1
  I  I20  1  0.21148107  0.00950573  0.89349097  1
  I  I21  1  0.27612037  0.13029931  0.11308190  1
  I  I22  1  0.78851893  0.99049427  0.10650903  1
  I  I23  1  0.28851893  0.00950573  0.39349097  1
  I  I24  1  0.96151211  0.25216207  0.25988013  1
  I  I25  1  0.77612037  0.86970069  0.38691810  1
  I  I26  1  0.87483840  0.38557305  0.89517308  1
  I  I27  1  0.35252957  0.54429826  0.89758467  1
  I  I28  1  0.72387963  0.86970069  0.88691810  1
  I  I29  1  0.71148107  0.99049427  0.60650903  1
  I  I30  1  0.46151211  0.74783793  0.24011987  1
  I  I31  1  0.03848789  0.74783793  0.74011987  1
  I  I32  1  0.62516160  0.38557305  0.39517308  1
  I  I33  1  0.22387963  0.13029931  0.61308190  1
  I  I34  1  0.14747043  0.54429826  0.39758467  1
  I  I35  1  0.85252957  0.45570174  0.60241533  1
