# generated using pymatgen
data_AgTeO3
_symmetry_space_group_name_H-M   'P 1'
_cell_length_a   6.92440761
_cell_length_b   6.51862949
_cell_length_c   13.29551785
_cell_angle_alpha   88.99666929
_cell_angle_beta   90.00000000
_cell_angle_gamma   90.00000000
_symmetry_Int_Tables_number   1
_chemical_formula_structural   AgTeO3
_chemical_formula_sum   'Ag8 Te8 O24'
_cell_volume   600.03638801
_cell_formula_units_Z   8
loop_
 _symmetry_equiv_pos_site_id
 _symmetry_equiv_pos_as_xyz
  1  'x, y, z'
loop_
 _atom_site_type_symbol
 _atom_site_label
 _atom_site_symmetry_multiplicity
 _atom_site_fract_x
 _atom_site_fract_y
 _atom_site_fract_z
 _atom_site_occupancy
  Ag  Ag0  1  0.17091818  0.48242182  0.92696000  1
  Ag  Ag1  1  0.32908182  0.48242182  0.42696000  1
  Ag  Ag2  1  0.45307570  0.52880807  0.18969229  1
  Ag  Ag3  1  0.67091818  0.51757818  0.57304000  1
  Ag  Ag4  1  0.54692430  0.47119193  0.81030771  1
  Ag  Ag5  1  0.04692430  0.52880807  0.68969229  1
  Ag  Ag6  1  0.82908182  0.51757818  0.07304000  1
  Ag  Ag7  1  0.95307570  0.47119193  0.31030771  1
  Te  Te8  1  0.13700132  0.99395852  0.41048967  1
  Te  Te9  1  0.84348838  0.86611856  0.85655375  1
  Te  Te10  1  0.65651162  0.86611856  0.35655375  1
  Te  Te11  1  0.36299868  0.99395852  0.91048967  1
  Te  Te12  1  0.34348838  0.13388144  0.64344625  1
  Te  Te13  1  0.63700132  0.00604148  0.08951033  1
  Te  Te14  1  0.86299868  0.00604148  0.58951033  1
  Te  Te15  1  0.15651162  0.13388144  0.14344625  1
  O  O16  1  0.91875445  0.15990148  0.46434380  1
  O  O17  1  0.68299883  0.83977387  0.51447594  1
  O  O18  1  0.08124555  0.84009852  0.53565620  1
  O  O19  1  0.64776646  0.58153980  0.35951692  1
  O  O20  1  0.85223354  0.58153980  0.85951692  1
  O  O21  1  0.34555200  0.19083111  0.80374831  1
  O  O22  1  0.66993542  0.19123323  0.63019723  1
  O  O23  1  0.33006458  0.80876677  0.36980277  1
  O  O24  1  0.05251395  0.16594444  0.66112280  1
  O  O25  1  0.65444800  0.80916889  0.19625169  1
  O  O26  1  0.55251395  0.83405556  0.83887720  1
  O  O27  1  0.44748605  0.16594444  0.16112280  1
  O  O28  1  0.84555200  0.80916889  0.69625169  1
  O  O29  1  0.14776646  0.41846020  0.14048308  1
  O  O30  1  0.41875445  0.84009852  0.03565620  1
  O  O31  1  0.18299883  0.16022613  0.98552406  1
  O  O32  1  0.81700117  0.83977387  0.01447594  1
  O  O33  1  0.83006458  0.19123323  0.13019723  1
  O  O34  1  0.94748605  0.83405556  0.33887720  1
  O  O35  1  0.15444800  0.19083111  0.30374831  1
  O  O36  1  0.31700117  0.16022613  0.48552406  1
  O  O37  1  0.35223354  0.41846020  0.64048308  1
  O  O38  1  0.16993542  0.80876677  0.86980277  1
  O  O39  1  0.58124555  0.15990148  0.96434380  1
