# generated using pymatgen
data_Rb2(ReSe2)3
_symmetry_space_group_name_H-M   'P 1'
_cell_length_a   10.25817991
_cell_length_b   10.25817991
_cell_length_c   12.55656746
_cell_angle_alpha   88.85386304
_cell_angle_beta   88.85386304
_cell_angle_gamma   59.83148276
_symmetry_Int_Tables_number   1
_chemical_formula_structural   Rb2(ReSe2)3
_chemical_formula_sum   'Rb8 Re12 Se24'
_cell_volume   1142.05372445
_cell_formula_units_Z   4
loop_
 _symmetry_equiv_pos_site_id
 _symmetry_equiv_pos_as_xyz
  1  'x, y, z'
loop_
 _atom_site_type_symbol
 _atom_site_label
 _atom_site_symmetry_multiplicity
 _atom_site_fract_x
 _atom_site_fract_y
 _atom_site_fract_z
 _atom_site_occupancy
  Rb  Rb0  1  0.61819635  0.38180365  0.25000000  1
  Rb  Rb1  1  0.38180365  0.61819635  0.75000000  1
  Rb  Rb2  1  0.22064274  0.77935726  0.25000000  1
  Rb  Rb3  1  0.77935726  0.22064274  0.75000000  1
  Rb  Rb4  1  0.36305138  0.85969938  0.98116800  1
  Rb  Rb5  1  0.14030062  0.63694862  0.51883200  1
  Rb  Rb6  1  0.63694862  0.14030062  0.01883200  1
  Rb  Rb7  1  0.85969938  0.36305138  0.48116800  1
  Re  Re8  1  0.68186689  0.99682654  0.47759737  1
  Re  Re9  1  0.00317346  0.31813311  0.02240263  1
  Re  Re10  1  0.31813311  0.00317346  0.52240263  1
  Re  Re11  1  0.99682654  0.68186689  0.97759737  1
  Re  Re12  1  0.53653713  0.88420858  0.37732990  1
  Re  Re13  1  0.11579142  0.46346287  0.12267010  1
  Re  Re14  1  0.46346287  0.11579142  0.62267010  1
  Re  Re15  1  0.88420858  0.53653713  0.87732990  1
  Re  Re16  1  0.40084384  0.17649423  0.41657064  1
  Re  Re17  1  0.82350577  0.59915616  0.08342936  1
  Re  Re18  1  0.59915616  0.82350577  0.58342936  1
  Re  Re19  1  0.17649423  0.40084384  0.91657064  1
  Se  Se20  1  0.73662438  0.93476956  0.67267382  1
  Se  Se21  1  0.06523044  0.26337562  0.82732618  1
  Se  Se22  1  0.26337562  0.06523044  0.32732618  1
  Se  Se23  1  0.93476956  0.73662438  0.17267382  1
  Se  Se24  1  0.28274824  0.19738343  0.06137372  1
  Se  Se25  1  0.80261657  0.71725176  0.43862628  1
  Se  Se26  1  0.71725176  0.80261657  0.93862628  1
  Se  Se27  1  0.19738343  0.28274824  0.56137372  1
  Se  Se28  1  0.38377544  0.94892368  0.71763596  1
  Se  Se29  1  0.05107632  0.61622456  0.78236404  1
  Se  Se30  1  0.61622456  0.05107632  0.28236404  1
  Se  Se31  1  0.94892368  0.38377544  0.21763596  1
  Se  Se32  1  0.45672090  0.71934603  0.48247556  1
  Se  Se33  1  0.28065397  0.54327910  0.01752444  1
  Se  Se34  1  0.54327910  0.28065397  0.51752444  1
  Se  Se35  1  0.71934603  0.45672090  0.98247556  1
  Se  Se36  1  0.00395350  0.92750113  0.92244681  1
  Se  Se37  1  0.07249887  0.99604650  0.57755319  1
  Se  Se38  1  0.99604650  0.07249887  0.07755319  1
  Se  Se39  1  0.92750113  0.00395350  0.42244681  1
  Se  Se40  1  0.57429690  0.72911892  0.20183015  1
  Se  Se41  1  0.27088108  0.42570310  0.29816985  1
  Se  Se42  1  0.42570310  0.27088108  0.79816985  1
  Se  Se43  1  0.72911892  0.57429690  0.70183015  1
