# generated using pymatgen
data_MoO3
_symmetry_space_group_name_H-M   'P 1'
_cell_length_a   3.68097252
_cell_length_b   3.91675112
_cell_length_c   7.28153329
_cell_angle_alpha   103.18296661
_cell_angle_beta   90.00000000
_cell_angle_gamma   90.00000000
_symmetry_Int_Tables_number   1
_chemical_formula_structural   MoO3
_chemical_formula_sum   'Mo2 O6'
_cell_volume   102.21457045
_cell_formula_units_Z   2
loop_
 _symmetry_equiv_pos_site_id
 _symmetry_equiv_pos_as_xyz
  1  'x, y, z'
loop_
 _atom_site_type_symbol
 _atom_site_label
 _atom_site_symmetry_multiplicity
 _atom_site_fract_x
 _atom_site_fract_y
 _atom_site_fract_z
 _atom_site_occupancy
  Mo  Mo0  1  0.25000000  0.33532906  0.29509342  1
  Mo  Mo1  1  0.75000000  0.66467094  0.70490758  1
  O  O2  1  0.25000000  0.90780163  0.32573745  1
  O  O3  1  0.75000000  0.09219837  0.67426255  1
  O  O4  1  0.75000000  0.44563352  0.37029634  1
  O  O5  1  0.25000000  0.55436548  0.62970266  1
  O  O6  1  0.25000000  0.27731902  0.06155782  1
  O  O7  1  0.75000000  0.72268098  0.93844318  1
