# generated using pymatgen
data_BaZr(PO4)2
_symmetry_space_group_name_H-M   'P 1'
_cell_length_a   5.05636859
_cell_length_b   5.05636859
_cell_length_c   7.91823479
_cell_angle_alpha   87.27196828
_cell_angle_beta   87.27196828
_cell_angle_gamma   63.60727421
_symmetry_Int_Tables_number   1
_chemical_formula_structural   BaZr(PO4)2
_chemical_formula_sum   'Ba1 Zr1 P2 O8'
_cell_volume   181.05867414
_cell_formula_units_Z   1
loop_
 _symmetry_equiv_pos_site_id
 _symmetry_equiv_pos_as_xyz
  1  'x, y, z'
loop_
 _atom_site_type_symbol
 _atom_site_label
 _atom_site_symmetry_multiplicity
 _atom_site_fract_x
 _atom_site_fract_y
 _atom_site_fract_z
 _atom_site_occupancy
  Ba  Ba0  1  -0.00000000  0.00000000  0.50000000  1
  Zr  Zr1  1  -0.00000000  0.00000000  0.00000000  1
  P  P2  1  0.63741115  0.63741115  0.22130146  1
  P  P3  1  0.36258885  0.36258885  0.77869854  1
  O  O4  1  0.31359760  0.31359760  0.59884702  1
  O  O5  1  0.68640240  0.68640240  0.40115298  1
  O  O6  1  0.30253347  0.77238360  0.18936856  1
  O  O7  1  0.77238360  0.30253347  0.18936856  1
  O  O8  1  0.77350738  0.77350738  0.08818975  1
  O  O9  1  0.69746653  0.22761640  0.81063144  1
  O  O10  1  0.22649262  0.22649262  0.91181025  1
  O  O11  1  0.22761640  0.69746653  0.81063144  1
