# generated using pymatgen
data_Cs3GaAs2
_symmetry_space_group_name_H-M   'P 1'
_cell_length_a   8.94368068
_cell_length_b   11.43859545
_cell_length_c   19.56785241
_cell_angle_alpha   80.50015248
_cell_angle_beta   90.00000000
_cell_angle_gamma   90.00000000
_symmetry_Int_Tables_number   1
_chemical_formula_structural   Cs3GaAs2
_chemical_formula_sum   'Cs24 Ga8 As16'
_cell_volume   1974.39951715
_cell_formula_units_Z   8
loop_
 _symmetry_equiv_pos_site_id
 _symmetry_equiv_pos_as_xyz
  1  'x, y, z'
loop_
 _atom_site_type_symbol
 _atom_site_label
 _atom_site_symmetry_multiplicity
 _atom_site_fract_x
 _atom_site_fract_y
 _atom_site_fract_z
 _atom_site_occupancy
  Cs  Cs0  1  0.92392121  0.37570493  0.88987339  1
  Cs  Cs1  1  0.42392121  0.62429507  0.61012661  1
  Cs  Cs2  1  0.07607879  0.62429507  0.11012661  1
  Cs  Cs3  1  0.57607879  0.37570493  0.38987339  1
  Cs  Cs4  1  0.37881101  0.29279540  0.83968458  1
  Cs  Cs5  1  0.87881101  0.70720460  0.66031542  1
  Cs  Cs6  1  0.62118899  0.70720460  0.16031542  1
  Cs  Cs7  1  0.12118899  0.29279540  0.33968458  1
  Cs  Cs8  1  0.52606867  0.15395335  0.03123285  1
  Cs  Cs9  1  0.02606867  0.84604665  0.46876715  1
  Cs  Cs10  1  0.47393133  0.84604665  0.96876715  1
  Cs  Cs11  1  0.97393133  0.15395335  0.53123285  1
  Cs  Cs12  1  0.40858022  0.25882767  0.57607594  1
  Cs  Cs13  1  0.90858022  0.74117233  0.92392406  1
  Cs  Cs14  1  0.59141978  0.74117233  0.42392406  1
  Cs  Cs15  1  0.09141978  0.25882767  0.07607594  1
  Cs  Cs16  1  0.04794427  0.07926870  0.75771259  1
  Cs  Cs17  1  0.54794427  0.92073130  0.74228741  1
  Cs  Cs18  1  0.95205573  0.92073130  0.24228741  1
  Cs  Cs19  1  0.45205573  0.07926870  0.25771259  1
  Cs  Cs20  1  0.74236195  0.35988761  0.70849616  1
  Cs  Cs21  1  0.24236195  0.64011239  0.79150384  1
  Cs  Cs22  1  0.25763805  0.64011239  0.29150384  1
  Cs  Cs23  1  0.75763805  0.35988761  0.20849616  1
  Ga  Ga24  1  0.88110133  0.04643226  0.94396831  1
  Ga  Ga25  1  0.38110133  0.95356774  0.55603169  1
  Ga  Ga26  1  0.11889867  0.95356774  0.05603169  1
  Ga  Ga27  1  0.61889867  0.04643226  0.44396831  1
  Ga  Ga28  1  0.05551519  0.46126125  0.57595632  1
  Ga  Ga29  1  0.55551519  0.53873875  0.92404368  1
  Ga  Ga30  1  0.94448481  0.53873875  0.42404368  1
  Ga  Ga31  1  0.44448481  0.46126125  0.07595632  1
  As  As32  1  0.70117089  0.10461797  0.85893820  1
  As  As33  1  0.20117089  0.89538203  0.64106180  1
  As  As34  1  0.29882911  0.89538203  0.14106180  1
  As  As35  1  0.79882911  0.10461797  0.35893820  1
  As  As36  1  0.84508600  0.95328516  0.06487418  1
  As  As37  1  0.34508600  0.04671484  0.43512582  1
  As  As38  1  0.15491400  0.04671484  0.93512582  1
  As  As39  1  0.65491400  0.95328516  0.56487418  1
  As  As40  1  0.79756235  0.49231476  0.53124016  1
  As  As41  1  0.29756235  0.50768524  0.96875984  1
  As  As42  1  0.20243765  0.50768524  0.46875984  1
  As  As43  1  0.70243765  0.49231476  0.03124016  1
  As  As44  1  0.14255856  0.40034700  0.68989283  1
  As  As45  1  0.64255856  0.59965300  0.81010717  1
  As  As46  1  0.85744144  0.59965300  0.31010717  1
  As  As47  1  0.35744144  0.40034700  0.18989283  1
