# generated using pymatgen
data_Nd(IO3)3
_symmetry_space_group_name_H-M   'P 1'
_cell_length_a   5.90656486
_cell_length_b   8.83708986
_cell_length_c   16.76078042
_cell_angle_alpha   65.41310597
_cell_angle_beta   90.00000000
_cell_angle_gamma   90.00000000
_symmetry_Int_Tables_number   1
_chemical_formula_structural   Nd(IO3)3
_chemical_formula_sum   'Nd4 I12 O36'
_cell_volume   795.53744881
_cell_formula_units_Z   4
loop_
 _symmetry_equiv_pos_site_id
 _symmetry_equiv_pos_as_xyz
  1  'x, y, z'
loop_
 _atom_site_type_symbol
 _atom_site_label
 _atom_site_symmetry_multiplicity
 _atom_site_fract_x
 _atom_site_fract_y
 _atom_site_fract_z
 _atom_site_occupancy
  Nd  Nd0  1  0.23356096  0.13860804  0.90077780  1
  Nd  Nd1  1  0.26643904  0.13860804  0.40077780  1
  Nd  Nd2  1  0.73356096  0.86139196  0.59922220  1
  Nd  Nd3  1  0.76643904  0.86139196  0.09922220  1
  I  I4  1  0.18771991  0.07062201  0.65010023  1
  I  I5  1  0.64012997  0.36024674  0.47711721  1
  I  I6  1  0.09138408  0.58356921  0.30053715  1
  I  I7  1  0.14012997  0.63975326  0.02288279  1
  I  I8  1  0.81228009  0.92937799  0.34989977  1
  I  I9  1  0.35987003  0.63975326  0.52288279  1
  I  I10  1  0.90861592  0.41643079  0.69946285  1
  I  I11  1  0.59138408  0.41643079  0.19946285  1
  I  I12  1  0.31228009  0.07062201  0.15010023  1
  I  I13  1  0.68771991  0.92937799  0.84989977  1
  I  I14  1  0.40861592  0.58356921  0.80053715  1
  I  I15  1  0.85987003  0.36024674  0.97711721  1
  O  O16  1  0.41029945  0.66743778  0.88260455  1
  O  O17  1  0.46859057  0.40383484  0.38005423  1
  O  O18  1  0.08970055  0.66743778  0.38260455  1
  O  O19  1  0.53140943  0.59616516  0.61994577  1
  O  O20  1  0.08808330  0.36078889  0.05251141  1
  O  O21  1  0.31381779  0.34277198  0.24486955  1
  O  O22  1  0.91307184  0.90874584  0.45687189  1
  O  O23  1  0.03140943  0.40383484  0.88005423  1
  O  O24  1  0.89081444  0.09677555  0.82964785  1
  O  O25  1  0.39081444  0.90322445  0.67035215  1
  O  O26  1  0.41307184  0.09125416  0.04312811  1
  O  O27  1  0.96859057  0.59616516  0.11994577  1
  O  O28  1  0.00238334  0.62946899  0.63253231  1
  O  O29  1  0.99761666  0.37053101  0.36746769  1
  O  O30  1  0.41191670  0.36078889  0.55251141  1
  O  O31  1  0.55226425  0.93924868  0.20478591  1
  O  O32  1  0.58808330  0.63921111  0.44748859  1
  O  O33  1  0.49761666  0.62946899  0.13253231  1
  O  O34  1  0.59471806  0.13556917  0.50919590  1
  O  O35  1  0.58970055  0.33256222  0.11739545  1
  O  O36  1  0.91191670  0.63921111  0.94748859  1
  O  O37  1  0.09471806  0.86443083  0.99080410  1
  O  O38  1  0.18618221  0.34277198  0.74486955  1
  O  O39  1  0.81381779  0.65722802  0.25513045  1
  O  O40  1  0.05226425  0.06075132  0.29521409  1
  O  O41  1  0.44773575  0.06075132  0.79521409  1
  O  O42  1  0.94773575  0.93924868  0.70478591  1
  O  O43  1  0.90528194  0.13556917  0.00919590  1
  O  O44  1  0.40528194  0.86443083  0.49080410  1
  O  O45  1  0.60918556  0.09677555  0.32964785  1
  O  O46  1  0.68618221  0.65722802  0.75513045  1
  O  O47  1  0.08692816  0.09125416  0.54312811  1
  O  O48  1  0.50238334  0.37053101  0.86746769  1
  O  O49  1  0.10918556  0.90322445  0.17035215  1
  O  O50  1  0.91029945  0.33256222  0.61739545  1
  O  O51  1  0.58692816  0.90874584  0.95687189  1
