# generated using pymatgen
data_Rb2CO3
_symmetry_space_group_name_H-M   'P 1'
_cell_length_a   5.96912097
_cell_length_b   7.39850153
_cell_length_c   9.98051416
_cell_angle_alpha   90.00000000
_cell_angle_beta   90.00000000
_cell_angle_gamma   90.00000000
_symmetry_Int_Tables_number   1
_chemical_formula_structural   Rb2CO3
_chemical_formula_sum   'Rb8 C4 O12'
_cell_volume   440.76496190
_cell_formula_units_Z   4
loop_
 _symmetry_equiv_pos_site_id
 _symmetry_equiv_pos_as_xyz
  1  'x, y, z'
loop_
 _atom_site_type_symbol
 _atom_site_label
 _atom_site_symmetry_multiplicity
 _atom_site_fract_x
 _atom_site_fract_y
 _atom_site_fract_z
 _atom_site_occupancy
  Rb  Rb0  1  0.75000000  0.30965013  0.41887043  1
  Rb  Rb1  1  0.25000000  0.19034987  0.91887043  1
  Rb  Rb2  1  0.25000000  0.03744219  0.27078698  1
  Rb  Rb3  1  0.75000000  0.80965013  0.08112957  1
  Rb  Rb4  1  0.75000000  0.46255781  0.77078698  1
  Rb  Rb5  1  0.25000000  0.53744219  0.22921302  1
  Rb  Rb6  1  0.25000000  0.69034987  0.58112957  1
  Rb  Rb7  1  0.75000000  0.96255781  0.72921302  1
  C  C8  1  0.75000000  0.24725491  0.08377120  1
  C  C9  1  0.25000000  0.75274509  0.91622880  1
  C  C10  1  0.25000000  0.25274509  0.58377120  1
  C  C11  1  0.75000000  0.74725491  0.41622880  1
  O  O12  1  0.56167839  0.78125632  0.35664389  1
  O  O13  1  0.43832161  0.71874368  0.85664389  1
  O  O14  1  0.43832161  0.21874368  0.64335611  1
  O  O15  1  0.93832161  0.28125632  0.14335611  1
  O  O16  1  0.75000000  0.67633234  0.53550125  1
  O  O17  1  0.25000000  0.32366766  0.46449875  1
  O  O18  1  0.56167839  0.28125632  0.14335611  1
  O  O19  1  0.75000000  0.17633234  0.96449875  1
  O  O20  1  0.93832161  0.78125632  0.35664389  1
  O  O21  1  0.25000000  0.82366766  0.03550125  1
  O  O22  1  0.06167839  0.21874368  0.64335611  1
  O  O23  1  0.06167839  0.71874368  0.85664389  1
