# generated using pymatgen
data_ZnS
_symmetry_space_group_name_H-M   'P 1'
_cell_length_a   3.80791267
_cell_length_b   3.80791340
_cell_length_c   56.04075940
_cell_angle_alpha   89.99966302
_cell_angle_beta   90.00033973
_cell_angle_gamma   119.99938532
_symmetry_Int_Tables_number   1
_chemical_formula_structural   ZnS
_chemical_formula_sum   'Zn18 S18'
_cell_volume   703.73860553
_cell_formula_units_Z   18
loop_
 _symmetry_equiv_pos_site_id
 _symmetry_equiv_pos_as_xyz
  1  'x, y, z'
loop_
 _atom_site_type_symbol
 _atom_site_label
 _atom_site_symmetry_multiplicity
 _atom_site_fract_x
 _atom_site_fract_y
 _atom_site_fract_z
 _atom_site_occupancy
  Zn  Zn0  1  -0.00000048  0.00000048  0.16669311  1
  Zn  Zn1  1  0.33333309  0.66666691  0.72221798  1
  Zn  Zn2  1  0.66666592  0.33333408  0.27779718  1
  Zn  Zn3  1  0.33333317  0.66666683  0.55557086  1
  Zn  Zn4  1  0.33333318  0.66666682  0.05558106  1
  Zn  Zn5  1  0.66666594  0.33333406  0.61111961  1
  Zn  Zn6  1  -0.00000046  0.00000046  0.66667706  1
  Zn  Zn7  1  0.66666590  0.33333410  0.11113125  1
  Zn  Zn8  1  0.66666590  0.33333410  0.44445600  1
  Zn  Zn9  1  0.33333309  0.66666691  0.22224986  1
  Zn  Zn10  1  0.66666587  0.33333413  0.77778754  1
  Zn  Zn11  1  0.66666654  0.33333346  0.94446263  1
  Zn  Zn12  1  0.33333319  0.66666681  0.38890943  1
  Zn  Zn13  1  -0.00000048  0.00000048  0.33335488  1
  Zn  Zn14  1  0.33333231  0.66666769  0.83339018  1
  Zn  Zn15  1  -0.00000045  0.00000045  0.00005169  1
  Zn  Zn16  1  0.99999926  0.00000074  0.88889671  1
  Zn  Zn17  1  -0.00000050  0.00000050  0.50001473  1
  S  S18  1  0.66666811  0.33333189  0.98613581  1
  S  S19  1  0.00000121  -0.00000121  0.04166480  1
  S  S20  1  0.66666817  0.33333183  0.48608473  1
  S  S21  1  0.33333494  0.66666506  0.43053301  1
  S  S22  1  0.66666815  0.33333185  0.65275279  1
  S  S23  1  0.66666815  0.33333185  0.15276181  1
  S  S24  1  0.00000122  -0.00000122  0.54164794  1
  S  S25  1  0.33333495  0.66666505  0.09720964  1
  S  S26  1  0.33333490  0.66666510  0.76382274  1
  S  S27  1  0.00000122  -0.00000122  0.70831018  1
  S  S28  1  0.66666315  0.33333685  0.81946851  1
  S  S29  1  0.00000120  -0.00000120  0.37498218  1
  S  S30  1  0.99999728  0.00000272  0.93049221  1
  S  S31  1  0.33333495  0.66666505  0.59720046  1
  S  S32  1  0.33333495  0.66666505  0.26387084  1
  S  S33  1  0.66666816  0.33333184  0.31942105  1
  S  S34  1  0.00000122  -0.00000122  0.20832135  1
  S  S35  1  0.33333008  0.66666992  0.87499120  1
