# generated using pymatgen
data_Te10Mo3I10
_symmetry_space_group_name_H-M   'P 1'
_cell_length_a   11.00912794
_cell_length_b   11.02589667
_cell_length_c   17.88197874
_cell_angle_alpha   84.27788142
_cell_angle_beta   76.17616128
_cell_angle_gamma   67.22970743
_symmetry_Int_Tables_number   1
_chemical_formula_structural   Te10Mo3I10
_chemical_formula_sum   'Te20 Mo6 I20'
_cell_volume   1943.40883186
_cell_formula_units_Z   2
loop_
 _symmetry_equiv_pos_site_id
 _symmetry_equiv_pos_as_xyz
  1  'x, y, z'
loop_
 _atom_site_type_symbol
 _atom_site_label
 _atom_site_symmetry_multiplicity
 _atom_site_fract_x
 _atom_site_fract_y
 _atom_site_fract_z
 _atom_site_occupancy
  Te  Te0  1  0.94216108  0.76320825  0.72547925  1
  Te  Te1  1  0.05783892  0.23679175  0.27452075  1
  Te  Te2  1  0.71934836  0.48819857  0.71856857  1
  Te  Te3  1  0.28065164  0.51180143  0.28143143  1
  Te  Te4  1  0.87673390  0.57127237  0.59994499  1
  Te  Te5  1  0.12326610  0.42872763  0.40005501  1
  Te  Te6  1  0.82328441  0.47041400  0.89987263  1
  Te  Te7  1  0.17671559  0.52958600  0.10012737  1
  Te  Te8  1  0.05078784  0.52649951  0.87349602  1
  Te  Te9  1  0.94921216  0.47350049  0.12650398  1
  Te  Te10  1  0.53423324  0.74997107  0.85979505  1
  Te  Te11  1  0.46576676  0.25002893  0.14020495  1
  Te  Te12  1  0.60374697  0.96317298  0.82151408  1
  Te  Te13  1  0.39625303  0.03682702  0.17848592  1
  Te  Te14  1  0.66212852  0.96862405  0.62730775  1
  Te  Te15  1  0.33787148  0.03137595  0.37269225  1
  Te  Te16  1  0.18495503  0.43338559  0.64461958  1
  Te  Te17  1  0.81504497  0.56661441  0.35538042  1
  Te  Te18  1  0.92506215  0.84450728  0.92827407  1
  Te  Te19  1  0.07493785  0.15549272  0.07172593  1
  Mo  Mo20  1  0.71071035  0.74232831  0.72081193  1
  Mo  Mo21  1  0.28928965  0.25767169  0.27918807  1
  Mo  Mo22  1  0.93610174  0.52281059  0.75036596  1
  Mo  Mo23  1  0.06389826  0.47718941  0.24963404  1
  Mo  Mo24  1  0.79411483  0.72550662  0.86070152  1
  Mo  Mo25  1  0.20588517  0.27449338  0.13929848  1
  I  I26  1  0.47897222  0.81672018  0.64985171  1
  I  I27  1  0.52102778  0.18327982  0.35014829  1
  I  I28  1  0.79611667  0.89821551  0.47571898  1
  I  I29  1  0.20388333  0.10178449  0.52428102  1
  I  I30  1  0.82254561  0.10783579  0.65119510  1
  I  I31  1  0.17745439  0.89216421  0.34880490  1
  I  I32  1  0.07445124  0.23706148  0.73643755  1
  I  I33  1  0.92554876  0.76293852  0.26356245  1
  I  I34  1  0.39108181  0.38194729  0.72272010  1
  I  I35  1  0.60891819  0.61805271  0.27727990  1
  I  I36  1  0.22790000  0.64689976  0.55468174  1
  I  I37  1  0.77210000  0.35310024  0.44531826  1
  I  I38  1  0.68864724  0.78334061  0.02496103  1
  I  I39  1  0.31135276  0.21665939  0.97503897  1
  I  I40  1  0.78229304  0.11633121  0.92665174  1
  I  I41  1  0.21770696  0.88366879  0.07334826  1
  I  I42  1  0.16370967  0.84637615  0.82210346  1
  I  I43  1  0.83629033  0.15362385  0.17789654  1
  I  I44  1  0.53800541  0.44457561  0.88661455  1
  I  I45  1  0.46199459  0.55542439  0.11338545  1
