# generated using pymatgen
data_NbPO5
_symmetry_space_group_name_H-M   'P 1'
_cell_length_a   5.38312510
_cell_length_b   6.74596963
_cell_length_c   11.38292381
_cell_angle_alpha   90.00000000
_cell_angle_beta   90.00000000
_cell_angle_gamma   90.00000000
_symmetry_Int_Tables_number   1
_chemical_formula_structural   NbPO5
_chemical_formula_sum   'Nb4 P4 O20'
_cell_volume   413.36403064
_cell_formula_units_Z   4
loop_
 _symmetry_equiv_pos_site_id
 _symmetry_equiv_pos_as_xyz
  1  'x, y, z'
loop_
 _atom_site_type_symbol
 _atom_site_label
 _atom_site_symmetry_multiplicity
 _atom_site_fract_x
 _atom_site_fract_y
 _atom_site_fract_z
 _atom_site_occupancy
  Nb  Nb0  1  0.48960666  0.33093902  0.93699896  1
  Nb  Nb1  1  0.98960666  0.83093902  0.56300104  1
  Nb  Nb2  1  0.48960666  0.16906098  0.43699896  1
  Nb  Nb3  1  0.98960666  0.66906098  0.06300104  1
  P  P4  1  0.48111629  0.52772234  0.65396583  1
  P  P5  1  0.48111629  0.97227766  0.15396583  1
  P  P6  1  0.98111629  0.47227766  0.34603417  1
  P  P7  1  0.98111629  0.02772234  0.84603417  1
  O  O8  1  0.23532891  0.86833039  0.13259675  1
  O  O9  1  0.20011297  0.34018785  0.37665248  1
  O  O10  1  0.23532891  0.63166961  0.63259675  1
  O  O11  1  0.99551190  0.97168191  0.71593090  1
  O  O12  1  0.76026826  0.01509089  0.49575582  1
  O  O13  1  0.26026826  0.98490911  0.50424418  1
  O  O14  1  0.70011297  0.84018785  0.12334752  1
  O  O15  1  0.99045500  0.83630854  0.91788409  1
  O  O16  1  0.49551190  0.02831809  0.28406910  1
  O  O17  1  0.73532891  0.36833039  0.36740325  1
  O  O18  1  0.99551190  0.52831809  0.21593090  1
  O  O19  1  0.20011297  0.15981215  0.87665248  1
  O  O20  1  0.99045500  0.66369146  0.41788409  1
  O  O21  1  0.73532891  0.13166961  0.86740325  1
  O  O22  1  0.26026826  0.51509089  0.00424418  1
  O  O23  1  0.70011297  0.65981215  0.62334752  1
  O  O24  1  0.49045500  0.16369146  0.08211591  1
  O  O25  1  0.49551190  0.47168191  0.78406910  1
  O  O26  1  0.49045500  0.33630854  0.58211591  1
  O  O27  1  0.76026826  0.48490911  0.99575582  1
