# generated using pymatgen
data_K6Se2O9
_symmetry_space_group_name_H-M   'P 1'
_cell_length_a   8.11316167
_cell_length_b   8.11316167
_cell_length_c   17.41616739
_cell_angle_alpha   90.00000000
_cell_angle_beta   90.00000000
_cell_angle_gamma   90.00000000
_symmetry_Int_Tables_number   1
_chemical_formula_structural   K6Se2O9
_chemical_formula_sum   'K24 Se8 O36'
_cell_volume   1146.39121819
_cell_formula_units_Z   4
loop_
 _symmetry_equiv_pos_site_id
 _symmetry_equiv_pos_as_xyz
  1  'x, y, z'
loop_
 _atom_site_type_symbol
 _atom_site_label
 _atom_site_symmetry_multiplicity
 _atom_site_fract_x
 _atom_site_fract_y
 _atom_site_fract_z
 _atom_site_occupancy
  K  K0  1  0.45874672  0.49927837  0.64712737  1
  K  K1  1  0.79364933  0.77650999  0.25425139  1
  K  K2  1  0.29364933  0.72349001  0.49574861  1
  K  K3  1  0.00273526  0.47764006  0.37274068  1
  K  K4  1  0.50273526  0.02235994  0.37725932  1
  K  K5  1  0.22349001  0.20635067  0.24574861  1
  K  K6  1  0.27650999  0.70635067  0.00425139  1
  K  K7  1  0.97764006  0.49726474  0.12274068  1
  K  K8  1  0.04125328  0.99927837  0.60287263  1
  K  K9  1  0.95874672  0.00072163  0.10287263  1
  K  K10  1  0.99927837  0.04125328  0.39712737  1
  K  K11  1  0.49927837  0.45874672  0.35287263  1
  K  K12  1  0.47764006  0.00273526  0.62725932  1
  K  K13  1  0.77650999  0.79364933  0.74574861  1
  K  K14  1  0.02235994  0.50273526  0.62274068  1
  K  K15  1  0.50072163  0.54125328  0.85287263  1
  K  K16  1  0.49726474  0.97764006  0.87725932  1
  K  K17  1  0.99726474  0.52235994  0.87274068  1
  K  K18  1  0.54125328  0.50072163  0.14712737  1
  K  K19  1  0.72349001  0.29364933  0.50425139  1
  K  K20  1  0.00072163  0.95874672  0.89712737  1
  K  K21  1  0.70635067  0.27650999  0.99574861  1
  K  K22  1  0.20635067  0.22349001  0.75425139  1
  K  K23  1  0.52235994  0.99726474  0.12725932  1
  Se  Se24  1  0.24551517  0.75448483  0.75000000  1
  Se  Se25  1  0.73415762  0.26584238  0.75000000  1
  Se  Se26  1  0.76584238  0.76584238  0.50000000  1
  Se  Se27  1  0.75448483  0.24551517  0.25000000  1
  Se  Se28  1  0.74551517  0.74551517  0.00000000  1
  Se  Se29  1  0.23415762  0.23415762  0.00000000  1
  Se  Se30  1  0.25448483  0.25448483  0.50000000  1
  Se  Se31  1  0.26584238  0.73415762  0.25000000  1
  O  O32  1  0.96532428  0.73493940  0.48545598  1
  O  O33  1  0.40573703  0.40573703  0.50000000  1
  O  O34  1  0.75864660  0.24756735  0.14617180  1
  O  O35  1  0.09426297  0.90573703  0.75000000  1
  O  O36  1  0.54579288  0.19988367  0.24810128  1
  O  O37  1  0.03467572  0.26506060  0.98545598  1
  O  O38  1  0.53467572  0.23493940  0.76454402  1
  O  O39  1  0.20918754  0.83890552  0.17285198  1
  O  O40  1  0.24135340  0.75243265  0.64617180  1
  O  O41  1  0.74756735  0.74135340  0.89617180  1
  O  O42  1  0.23493940  0.53467572  0.23545598  1
  O  O43  1  0.83890552  0.20918754  0.82714802  1
  O  O44  1  0.24756735  0.75864660  0.85382820  1
  O  O45  1  0.33890552  0.29081246  0.92285198  1
  O  O46  1  0.25864660  0.25243265  0.60382820  1
  O  O47  1  0.76506060  0.46532428  0.73545598  1
  O  O48  1  0.70918754  0.66109448  0.57714802  1
  O  O49  1  0.26506060  0.03467572  0.01454402  1
  O  O50  1  0.79081246  0.16109448  0.67285198  1
  O  O51  1  0.45420712  0.80011633  0.74810128  1
  O  O52  1  0.30011633  0.04579288  0.49810128  1
  O  O53  1  0.04579288  0.30011633  0.50189872  1
  O  O54  1  0.59426297  0.59426297  0.00000000  1
  O  O55  1  0.25243265  0.25864660  0.39617180  1
  O  O56  1  0.69988367  0.95420712  0.99810128  1
  O  O57  1  0.46532428  0.76506060  0.26454402  1
  O  O58  1  0.73493940  0.96532428  0.51454402  1
  O  O59  1  0.29081246  0.33890552  0.07714802  1
  O  O60  1  0.74135340  0.74756735  0.10382820  1
  O  O61  1  0.80011633  0.45420712  0.25189872  1
  O  O62  1  0.16109448  0.79081246  0.32714802  1
  O  O63  1  0.75243265  0.24135340  0.35382820  1
  O  O64  1  0.19988367  0.54579288  0.75189872  1
  O  O65  1  0.66109448  0.70918754  0.42285198  1
  O  O66  1  0.90573703  0.09426297  0.25000000  1
  O  O67  1  0.95420712  0.69988367  0.00189872  1
