# generated using pymatgen
data_Ga2Te2Br7
_symmetry_space_group_name_H-M   'P 1'
_cell_length_a   11.15550191
_cell_length_b   10.25533316
_cell_length_c   14.18768155
_cell_angle_alpha   81.38424347
_cell_angle_beta   90.00000000
_cell_angle_gamma   90.00000000
_symmetry_Int_Tables_number   1
_chemical_formula_structural   Ga2Te2Br7
_chemical_formula_sum   'Ga8 Te8 Br28'
_cell_volume   1604.80230874
_cell_formula_units_Z   4
loop_
 _symmetry_equiv_pos_site_id
 _symmetry_equiv_pos_as_xyz
  1  'x, y, z'
loop_
 _atom_site_type_symbol
 _atom_site_label
 _atom_site_symmetry_multiplicity
 _atom_site_fract_x
 _atom_site_fract_y
 _atom_site_fract_z
 _atom_site_occupancy
  Ga  Ga0  1  0.31464095  0.90520588  0.68165917  1
  Ga  Ga1  1  0.10720284  0.28345867  0.16314689  1
  Ga  Ga2  1  0.81464095  0.09479412  0.81834083  1
  Ga  Ga3  1  0.60720284  0.71654133  0.33685311  1
  Ga  Ga4  1  0.89279716  0.71654133  0.83685311  1
  Ga  Ga5  1  0.39279716  0.28345867  0.66314689  1
  Ga  Ga6  1  0.68535905  0.09479412  0.31834083  1
  Ga  Ga7  1  0.18535905  0.90520588  0.18165917  1
  Te  Te8  1  0.53574061  0.41878103  0.12726286  1
  Te  Te9  1  0.44286418  0.65344247  0.04812847  1
  Te  Te10  1  0.46425939  0.58121897  0.87273714  1
  Te  Te11  1  0.55713582  0.34655753  0.95187153  1
  Te  Te12  1  0.05713582  0.65344247  0.54812847  1
  Te  Te13  1  0.03574061  0.58121897  0.37273714  1
  Te  Te14  1  0.94286418  0.34655753  0.45187153  1
  Te  Te15  1  0.96425939  0.41878103  0.62726286  1
  Br  Br16  1  0.17525215  0.38628783  0.01868839  1
  Br  Br17  1  0.13762069  0.98886916  0.61482294  1
  Br  Br18  1  0.06831569  0.61604105  0.78913535  1
  Br  Br19  1  0.11890247  0.72005727  0.12194240  1
  Br  Br20  1  0.63762069  0.01113084  0.88517706  1
  Br  Br21  1  0.93168431  0.38395895  0.21086465  1
  Br  Br22  1  0.61890247  0.27994273  0.37805760  1
  Br  Br23  1  0.52783364  0.93166753  0.36787838  1
  Br  Br24  1  0.02783364  0.06833247  0.13212162  1
  Br  Br25  1  0.24551359  0.25556525  0.28448407  1
  Br  Br26  1  0.56831569  0.38395895  0.71086465  1
  Br  Br27  1  0.75448641  0.74443475  0.71551593  1
  Br  Br28  1  0.68173243  0.12705348  0.15129685  1
  Br  Br29  1  0.25448641  0.25556525  0.78448407  1
  Br  Br30  1  0.74551359  0.74443475  0.21551593  1
  Br  Br31  1  0.31826757  0.87294652  0.84870315  1
  Br  Br32  1  0.18173243  0.87294652  0.34870315  1
  Br  Br33  1  0.43168431  0.61604105  0.28913535  1
  Br  Br34  1  0.67525215  0.61371217  0.48131161  1
  Br  Br35  1  0.32474785  0.38628783  0.51868839  1
  Br  Br36  1  0.81826757  0.12705348  0.65129685  1
  Br  Br37  1  0.36237931  0.98886916  0.11482294  1
  Br  Br38  1  0.82474785  0.61371217  0.98131161  1
  Br  Br39  1  0.97216636  0.93166753  0.86787838  1
  Br  Br40  1  0.38109753  0.72005727  0.62194240  1
  Br  Br41  1  0.88109753  0.27994273  0.87805760  1
  Br  Br42  1  0.86237931  0.01113084  0.38517706  1
  Br  Br43  1  0.47216636  0.06833247  0.63212162  1
