# generated using pymatgen
data_MoPO5
_symmetry_space_group_name_H-M   'P 1'
_cell_length_a   6.20613117
_cell_length_b   6.20612987
_cell_length_c   4.21419894
_cell_angle_alpha   89.99999748
_cell_angle_beta   90.00000242
_cell_angle_gamma   89.99993002
_symmetry_Int_Tables_number   1
_chemical_formula_structural   MoPO5
_chemical_formula_sum   'Mo2 P2 O10'
_cell_volume   162.31432250
_cell_formula_units_Z   2
loop_
 _symmetry_equiv_pos_site_id
 _symmetry_equiv_pos_as_xyz
  1  'x, y, z'
loop_
 _atom_site_type_symbol
 _atom_site_label
 _atom_site_symmetry_multiplicity
 _atom_site_fract_x
 _atom_site_fract_y
 _atom_site_fract_z
 _atom_site_occupancy
  Mo  Mo0  1  0.50000131  -0.00000025  0.80537264  1
  Mo  Mo1  1  0.00000128  0.49999977  0.19462737  1
  P  P2  1  0.00000027  0.00000044  0.49999969  1
  P  P3  1  0.50000026  0.50000041  0.50000030  1
  O  O4  1  0.19291449  0.05586209  0.70942399  1
  O  O5  1  0.55586165  0.30708574  0.70942487  1
  O  O6  1  0.44413691  0.69291451  0.70942503  1
  O  O7  1  0.80708584  0.94413745  0.70942440  1
  O  O8  1  -0.00000045  0.50000000  0.79686134  1
  O  O9  1  0.49999956  -0.00000003  0.20313865  1
  O  O10  1  0.69291448  0.55586213  0.29057602  1
  O  O11  1  0.05586164  0.80708577  0.29057510  1
  O  O12  1  0.94413689  0.19291450  0.29057499  1
  O  O13  1  0.30708587  0.44413747  0.29057560  1
