# generated using pymatgen
data_Y(IO3)3
_symmetry_space_group_name_H-M   'P 1'
_cell_length_a   7.05218871
_cell_length_b   8.45036165
_cell_length_c   13.28004632
_cell_angle_alpha   90.00000000
_cell_angle_beta   99.64129462
_cell_angle_gamma   90.00000000
_symmetry_Int_Tables_number   1
_chemical_formula_structural   Y(IO3)3
_chemical_formula_sum   'Y4 I12 O36'
_cell_volume   780.22690606
_cell_formula_units_Z   4
loop_
 _symmetry_equiv_pos_site_id
 _symmetry_equiv_pos_as_xyz
  1  'x, y, z'
loop_
 _atom_site_type_symbol
 _atom_site_label
 _atom_site_symmetry_multiplicity
 _atom_site_fract_x
 _atom_site_fract_y
 _atom_site_fract_z
 _atom_site_occupancy
  Y  Y0  1  0.82761453  0.75761423  0.85505995  1
  Y  Y1  1  0.17238547  0.25761423  0.64494005  1
  Y  Y2  1  0.82761453  0.74238577  0.35505995  1
  Y  Y3  1  0.17238547  0.24238577  0.14494005  1
  I  I4  1  0.66955084  0.45860559  0.14173521  1
  I  I5  1  0.27101345  0.47958860  0.38893444  1
  I  I6  1  0.27101345  0.02041140  0.88893444  1
  I  I7  1  0.33044916  0.95860559  0.35826479  1
  I  I8  1  0.72898655  0.97958860  0.11106556  1
  I  I9  1  0.83392345  0.20863340  0.38792827  1
  I  I10  1  0.16607655  0.70863340  0.11207173  1
  I  I11  1  0.33044916  0.54139441  0.85826479  1
  I  I12  1  0.72898655  0.52041140  0.61106556  1
  I  I13  1  0.66955084  0.04139441  0.64173521  1
  I  I14  1  0.83392345  0.29136660  0.88792827  1
  I  I15  1  0.16607655  0.79136660  0.61207173  1
  O  O16  1  0.34163613  0.47014407  0.73023503  1
  O  O17  1  0.32334430  0.42217231  0.52160259  1
  O  O18  1  0.85082705  0.30490872  0.17607985  1
  O  O19  1  0.63373494  0.16434810  0.45326582  1
  O  O20  1  0.85082705  0.19509128  0.67607985  1
  O  O21  1  0.46809392  0.32780272  0.13562971  1
  O  O22  1  0.15383280  0.97402041  0.68307764  1
  O  O23  1  0.65836387  0.52985593  0.26976497  1
  O  O24  1  0.67665570  0.57782769  0.47839741  1
  O  O25  1  0.84616720  0.47402041  0.81692236  1
  O  O26  1  0.32334430  0.07782769  0.02160259  1
  O  O27  1  0.03271929  0.16788690  0.48943124  1
  O  O28  1  0.77107934  0.71172953  0.67576991  1
  O  O29  1  0.98031130  0.02478548  0.11236992  1
  O  O30  1  0.34163613  0.02985593  0.23023503  1
  O  O31  1  0.01968870  0.97521452  0.88763008  1
  O  O32  1  0.67665570  0.92217231  0.97839741  1
  O  O33  1  0.46809392  0.17219728  0.63562971  1
  O  O34  1  0.22892066  0.21172953  0.82423009  1
  O  O35  1  0.98031130  0.47521452  0.61236992  1
  O  O36  1  0.14917295  0.80490872  0.32392015  1
  O  O37  1  0.84616720  0.02597959  0.31692236  1
  O  O38  1  0.14917295  0.69509128  0.82392015  1
  O  O39  1  0.96728071  0.66788690  0.01056876  1
  O  O40  1  0.01968870  0.52478548  0.38763008  1
  O  O41  1  0.22892066  0.28827047  0.32423009  1
  O  O42  1  0.65836387  0.97014407  0.76976497  1
  O  O43  1  0.15383280  0.52597959  0.18307764  1
  O  O44  1  0.03271929  0.33211310  0.98943124  1
  O  O45  1  0.53190608  0.67219728  0.86437029  1
  O  O46  1  0.63373494  0.33565190  0.95326582  1
  O  O47  1  0.53190608  0.82780272  0.36437029  1
  O  O48  1  0.96728071  0.83211310  0.51056876  1
  O  O49  1  0.36626506  0.66434810  0.04673418  1
  O  O50  1  0.77107934  0.78827047  0.17576991  1
  O  O51  1  0.36626506  0.83565190  0.54673418  1
