# generated using pymatgen
data_NaAsS2
_symmetry_space_group_name_H-M   'P 1'
_cell_length_a   5.60396237
_cell_length_b   5.83896293
_cell_length_c   11.52781333
_cell_angle_alpha   90.00000000
_cell_angle_beta   90.00000000
_cell_angle_gamma   89.81028756
_symmetry_Int_Tables_number   1
_chemical_formula_structural   NaAsS2
_chemical_formula_sum   'Na4 As4 S8'
_cell_volume   377.20329964
_cell_formula_units_Z   4
loop_
 _symmetry_equiv_pos_site_id
 _symmetry_equiv_pos_as_xyz
  1  'x, y, z'
loop_
 _atom_site_type_symbol
 _atom_site_label
 _atom_site_symmetry_multiplicity
 _atom_site_fract_x
 _atom_site_fract_y
 _atom_site_fract_z
 _atom_site_occupancy
  Na  Na0  1  0.76411981  0.49499322  0.37500073  1
  Na  Na1  1  0.23588019  0.50500678  0.62499927  1
  Na  Na2  1  0.26411981  0.49499322  0.12499927  1
  Na  Na3  1  0.73588019  0.50500678  0.87500073  1
  As  As4  1  0.75793943  0.06342483  0.64435203  1
  As  As5  1  0.74206057  0.93657517  0.14435203  1
  As  As6  1  0.24206057  0.93657517  0.35564797  1
  As  As7  1  0.25793943  0.06342483  0.85564797  1
  S  S8  1  0.66968523  -0.00039295  0.83933138  1
  S  S9  1  0.16968523  -0.00039295  0.66066862  1
  S  S10  1  0.83031477  0.00039295  0.33933138  1
  S  S11  1  0.33031477  0.00039295  0.16066862  1
  S  S12  1  0.23707031  0.43389065  0.87421399  1
  S  S13  1  0.26292969  0.56610935  0.37421399  1
  S  S14  1  0.76292969  0.56610935  0.12578601  1
  S  S15  1  0.73707031  0.43389065  0.62578601  1
