# generated using pymatgen
data_SiO2
_symmetry_space_group_name_H-M   'P 1'
_cell_length_a   10.78283308
_cell_length_b   10.78283308
_cell_length_c   10.78283247
_cell_angle_alpha   115.24566339
_cell_angle_beta   115.24566339
_cell_angle_gamma   115.24566234
_symmetry_Int_Tables_number   1
_chemical_formula_structural   SiO2
_chemical_formula_sum   'Si12 O24'
_cell_volume   685.69081659
_cell_formula_units_Z   12
loop_
 _symmetry_equiv_pos_site_id
 _symmetry_equiv_pos_as_xyz
  1  'x, y, z'
loop_
 _atom_site_type_symbol
 _atom_site_label
 _atom_site_symmetry_multiplicity
 _atom_site_fract_x
 _atom_site_fract_y
 _atom_site_fract_z
 _atom_site_occupancy
  Si  Si0  1  0.62950018  0.78980458  0.23044462  1
  Si  Si1  1  0.78980458  0.23044462  0.62950018  1
  Si  Si2  1  0.78980458  0.62950018  0.23044462  1
  Si  Si3  1  0.37049982  0.76955538  0.21019542  1
  Si  Si4  1  0.23044462  0.78980458  0.62950018  1
  Si  Si5  1  0.76955538  0.37049982  0.21019542  1
  Si  Si6  1  0.23044462  0.62950018  0.78980458  1
  Si  Si7  1  0.21019542  0.76955538  0.37049982  1
  Si  Si8  1  0.76955538  0.21019542  0.37049982  1
  Si  Si9  1  0.62950018  0.23044462  0.78980458  1
  Si  Si10  1  0.37049982  0.21019542  0.76955538  1
  Si  Si11  1  0.21019542  0.37049982  0.76955538  1
  O  O12  1  0.18764711  0.67339246  0.18764711  1
  O  O13  1  0.28462653  0.71537347  -0.00000000  1
  O  O14  1  1.00000000  0.28462653  0.71537347  1
  O  O15  1  0.43603487  0.56396513  -0.00000000  1
  O  O16  1  0.71537347  0.00000000  0.28462653  1
  O  O17  1  0.67339246  0.18764711  0.18764711  1
  O  O18  1  0.32660754  0.81235289  0.81235289  1
  O  O19  1  0.27526681  0.72473319  0.50000000  1
  O  O20  1  0.72473319  0.50000000  0.27526681  1
  O  O21  1  0.81235289  0.81235289  0.32660754  1
  O  O22  1  0.81235289  0.32660754  0.81235289  1
  O  O23  1  1.00000000  0.56396513  0.43603487  1
  O  O24  1  0.56396513  0.43603487  -0.00000000  1
  O  O25  1  0.72473319  0.27526681  0.50000000  1
  O  O26  1  0.43603487  0.00000000  0.56396513  1
  O  O27  1  0.28462653  1.00000000  0.71537347  1
  O  O28  1  0.50000000  0.72473319  0.27526681  1
  O  O29  1  0.56396513  1.00000000  0.43603487  1
  O  O30  1  0.50000000  0.27526681  0.72473319  1
  O  O31  1  0.18764711  0.18764711  0.67339246  1
  O  O32  1  0.71537347  0.28462653  -0.00000000  1
  O  O33  1  0.00000000  0.71537347  0.28462653  1
  O  O34  1  0.27526681  0.50000000  0.72473319  1
  O  O35  1  0.00000000  0.43603487  0.56396513  1
