# generated using pymatgen
data_Tl2Ge2Se5
_symmetry_space_group_name_H-M   'P 1'
_cell_length_a   11.17155027
_cell_length_b   11.17155027
_cell_length_c   9.12595111
_cell_angle_alpha   78.15865084
_cell_angle_beta   78.15865084
_cell_angle_gamma   89.72956838
_symmetry_Int_Tables_number   1
_chemical_formula_structural   Tl2Ge2Se5
_chemical_formula_sum   'Tl8 Ge8 Se20'
_cell_volume   1090.16061026
_cell_formula_units_Z   4
loop_
 _symmetry_equiv_pos_site_id
 _symmetry_equiv_pos_as_xyz
  1  'x, y, z'
loop_
 _atom_site_type_symbol
 _atom_site_label
 _atom_site_symmetry_multiplicity
 _atom_site_fract_x
 _atom_site_fract_y
 _atom_site_fract_z
 _atom_site_occupancy
  Tl  Tl0  1  0.45570691  0.19804388  0.90226408  1
  Tl  Tl1  1  0.80195612  0.54429309  0.59773592  1
  Tl  Tl2  1  0.54429309  0.80195612  0.09773592  1
  Tl  Tl3  1  0.19804388  0.45570691  0.40226408  1
  Tl  Tl4  1  0.79891014  0.92080598  0.59563851  1
  Tl  Tl5  1  0.07919402  0.20108986  0.90436149  1
  Tl  Tl6  1  0.20108986  0.07919402  0.40436149  1
  Tl  Tl7  1  0.92080598  0.79891014  0.09563851  1
  Ge  Ge8  1  0.52082646  0.26631952  0.40988427  1
  Ge  Ge9  1  0.73368048  0.47917354  0.09011573  1
  Ge  Ge10  1  0.47917354  0.73368048  0.59011573  1
  Ge  Ge11  1  0.26631952  0.52082646  0.90988427  1
  Ge  Ge12  1  0.26948352  0.86441933  0.89090741  1
  Ge  Ge13  1  0.13558067  0.73051648  0.60909259  1
  Ge  Ge14  1  0.73051648  0.13558067  0.10909259  1
  Ge  Ge15  1  0.86441933  0.26948352  0.39090741  1
  Se  Se16  1  0.53196510  0.10605847  0.26906411  1
  Se  Se17  1  0.89394153  0.46803490  0.23093589  1
  Se  Se18  1  0.46803490  0.89394153  0.73093589  1
  Se  Se19  1  0.10605847  0.53196510  0.76906411  1
  Se  Se20  1  0.32901751  0.76182134  0.43645108  1
  Se  Se21  1  0.23817866  0.67098249  0.06354892  1
  Se  Se22  1  0.67098249  0.23817866  0.56354892  1
  Se  Se23  1  0.76182134  0.32901751  0.93645108  1
  Se  Se24  1  0.33206787  0.24048713  0.57475883  1
  Se  Se25  1  0.75951287  0.66793213  0.92524117  1
  Se  Se26  1  0.66793213  0.75951287  0.42524117  1
  Se  Se27  1  0.24048713  0.33206787  0.07475883  1
  Se  Se28  1  0.75623786  0.00025101  0.94945603  1
  Se  Se29  1  -0.00025101  0.24376214  0.55054397  1
  Se  Se30  1  0.24376214  -0.00025101  0.05054397  1
  Se  Se31  1  0.00025101  0.75623786  0.44945603  1
  Se  Se32  1  0.89219101  0.10780899  0.25000000  1
  Se  Se33  1  0.10780899  0.89219101  0.75000000  1
  Se  Se34  1  0.53490621  0.46509379  0.25000000  1
  Se  Se35  1  0.46509379  0.53490621  0.75000000  1
