# generated using pymatgen
data_KMnF4
_symmetry_space_group_name_H-M   'P 1'
_cell_length_a   7.64616513
_cell_length_b   5.73302484
_cell_length_c   7.70204492
_cell_angle_alpha   89.37407082
_cell_angle_beta   90.00000000
_cell_angle_gamma   90.00000000
_symmetry_Int_Tables_number   1
_chemical_formula_structural   KMnF4
_chemical_formula_sum   'K4 Mn4 F16'
_cell_volume   337.60403413
_cell_formula_units_Z   4
loop_
 _symmetry_equiv_pos_site_id
 _symmetry_equiv_pos_as_xyz
  1  'x, y, z'
loop_
 _atom_site_type_symbol
 _atom_site_label
 _atom_site_symmetry_multiplicity
 _atom_site_fract_x
 _atom_site_fract_y
 _atom_site_fract_z
 _atom_site_occupancy
  K  K0  1  0.30685436  0.48605589  0.25295813  1
  K  K1  1  0.80685436  0.51394411  0.24704187  1
  K  K2  1  0.69314564  0.51394411  0.74704187  1
  K  K3  1  0.19314564  0.48605589  0.75295813  1
  Mn  Mn4  1  -0.00000000  0.00000000  0.50000000  1
  Mn  Mn5  1  0.50000000  0.00000000  -0.00000000  1
  Mn  Mn6  1  0.50000000  0.00000000  0.50000000  1
  Mn  Mn7  1  -0.00000000  0.00000000  -0.00000000  1
  F  F8  1  0.92264950  0.29149155  0.94393470  1
  F  F9  1  0.43614741  0.70739681  0.93519356  1
  F  F10  1  0.06385259  0.70739681  0.43519356  1
  F  F11  1  0.56385259  0.29260319  0.06480644  1
  F  F12  1  0.23206699  0.11946203  0.99854646  1
  F  F13  1  0.73206699  0.88053797  0.50145354  1
  F  F14  1  0.76793301  0.88053797  0.00145354  1
  F  F15  1  0.26793301  0.11946203  0.49854646  1
  F  F16  1  0.01981802  0.90451641  0.73488676  1
  F  F17  1  0.57735050  0.29149155  0.44393470  1
  F  F18  1  0.98018198  0.09548359  0.26511324  1
  F  F19  1  0.48018198  0.90451641  0.23488676  1
  F  F20  1  0.51981802  0.09548359  0.76511324  1
  F  F21  1  0.42264950  0.70850845  0.55606530  1
  F  F22  1  0.07735050  0.70850845  0.05606530  1
  F  F23  1  0.93614741  0.29260319  0.56480644  1
