# generated using pymatgen
data_La2Si2O7
_symmetry_space_group_name_H-M   'P 1'
_cell_length_a   6.82970456
_cell_length_b   6.82970456
_cell_length_c   24.87659261
_cell_angle_alpha   90.00000000
_cell_angle_beta   90.00000000
_cell_angle_gamma   90.00000000
_symmetry_Int_Tables_number   1
_chemical_formula_structural   La2Si2O7
_chemical_formula_sum   'La16 Si16 O56'
_cell_volume   1160.36528929
_cell_formula_units_Z   8
loop_
 _symmetry_equiv_pos_site_id
 _symmetry_equiv_pos_as_xyz
  1  'x, y, z'
loop_
 _atom_site_type_symbol
 _atom_site_label
 _atom_site_symmetry_multiplicity
 _atom_site_fract_x
 _atom_site_fract_y
 _atom_site_fract_z
 _atom_site_occupancy
  La  La0  1  0.82584702  0.47445251  0.10170732  1
  La  La1  1  0.52554749  0.82584702  0.35170732  1
  La  La2  1  0.47445251  0.17415298  0.85170732  1
  La  La3  1  0.17415298  0.52554749  0.60170732  1
  La  La4  1  0.23579792  0.30176658  0.00005667  1
  La  La5  1  0.69823342  0.23579792  0.25005667  1
  La  La6  1  0.30176658  0.76420208  0.75005667  1
  La  La7  1  0.76420208  0.69823342  0.50005667  1
  La  La8  1  0.22885973  0.87946088  0.10958367  1
  La  La9  1  0.12053912  0.22885973  0.35958367  1
  La  La10  1  0.87946088  0.77114027  0.85958367  1
  La  La11  1  0.77114027  0.12053912  0.60958367  1
  La  La12  1  0.33929998  0.08240297  0.49936595  1
  La  La13  1  0.91759703  0.33929998  0.74936595  1
  La  La14  1  0.08240297  0.66070002  0.24936595  1
  La  La15  1  0.66070002  0.91759703  0.99936595  1
  Si  Si16  1  0.29743162  0.39922949  0.13589297  1
  Si  Si17  1  0.60077051  0.29743162  0.38589297  1
  Si  Si18  1  0.39922949  0.70256838  0.88589297  1
  Si  Si19  1  0.70256838  0.60077051  0.63589297  1
  Si  Si20  1  0.14661529  0.76780794  0.98359138  1
  Si  Si21  1  0.23219206  0.14661529  0.23359138  1
  Si  Si22  1  0.76780794  0.85338471  0.73359138  1
  Si  Si23  1  0.85338471  0.23219206  0.48359138  1
  Si  Si24  1  0.73544629  0.37833285  0.97691264  1
  Si  Si25  1  0.62166715  0.73544629  0.22691264  1
  Si  Si26  1  0.37833285  0.26455371  0.72691264  1
  Si  Si27  1  0.26455371  0.62166715  0.47691264  1
  Si  Si28  1  0.98822779  0.29871219  0.87895914  1
  Si  Si29  1  0.70128781  0.98822779  0.12895914  1
  Si  Si30  1  0.29871219  0.01177221  0.62895914  1
  Si  Si31  1  0.01177221  0.70128781  0.37895914  1
  O  O32  1  0.13702955  0.56488102  0.15465183  1
  O  O33  1  0.43511898  0.13702955  0.40465183  1
  O  O34  1  0.56488102  0.86297045  0.90465183  1
  O  O35  1  0.86297045  0.43511898  0.65465183  1
  O  O36  1  0.17951742  0.24760652  0.09710370  1
  O  O37  1  0.75239348  0.17951742  0.34710370  1
  O  O38  1  0.24760652  0.82048258  0.84710370  1
  O  O39  1  0.82048258  0.75239348  0.59710370  1
  O  O40  1  0.47775654  0.50981497  0.10871166  1
  O  O41  1  0.49018503  0.47775654  0.35871166  1
  O  O42  1  0.50981497  0.52224346  0.85871166  1
  O  O43  1  0.52224346  0.49018503  0.60871166  1
  O  O44  1  0.27899297  0.63501068  0.94115080  1
  O  O45  1  0.36498932  0.27899297  0.19115080  1
  O  O46  1  0.63501068  0.72100703  0.69115080  1
  O  O47  1  0.72100703  0.36498932  0.44115080  1
  O  O48  1  0.10557426  0.61866141  0.03323471  1
  O  O49  1  0.38133859  0.10557426  0.28323471  1
  O  O50  1  0.61866141  0.89442574  0.78323471  1
  O  O51  1  0.89442574  0.38133859  0.53323471  1
  O  O52  1  0.27740652  0.94426726  0.00841021  1
  O  O53  1  0.87092085  0.24547929  0.01694835  1
  O  O54  1  0.05573274  0.27740652  0.25841021  1
  O  O55  1  0.72259348  0.05573274  0.50841021  1
  O  O56  1  0.15219696  0.95693072  0.20240872  1
  O  O57  1  0.04306928  0.15219696  0.45240872  1
  O  O58  1  0.95693072  0.84780304  0.95240872  1
  O  O59  1  0.84780304  0.04306928  0.70240872  1
  O  O60  1  0.55549157  0.23922037  0.95770138  1
  O  O61  1  0.76077963  0.55549157  0.20770138  1
  O  O62  1  0.23922037  0.44450843  0.70770138  1
  O  O63  1  0.44450843  0.76077963  0.45770138  1
  O  O64  1  0.21257375  0.81856600  0.65684198  1
  O  O65  1  0.18143400  0.21257375  0.90684198  1
  O  O66  1  0.81856600  0.78742625  0.40684198  1
  O  O67  1  0.78742625  0.18143400  0.15684198  1
  O  O68  1  0.46049611  0.96485332  0.58336347  1
  O  O69  1  0.03514668  0.46049611  0.83336347  1
  O  O70  1  0.96485332  0.53950389  0.33336347  1
  O  O71  1  0.53950389  0.03514668  0.08336347  1
  O  O72  1  0.13751695  0.15532327  0.60189888  1
  O  O73  1  0.84467673  0.13751695  0.85189888  1
  O  O74  1  0.15532327  0.86248305  0.35189888  1
  O  O75  1  0.86248305  0.84467673  0.10189888  1
  O  O76  1  0.12800271  0.56563237  0.42451294  1
  O  O77  1  0.43436763  0.12800271  0.67451294  1
  O  O78  1  0.56563237  0.87199729  0.17451294  1
  O  O79  1  0.87199729  0.43436763  0.92451294  1
  O  O80  1  0.33507723  0.43008621  0.50862963  1
  O  O81  1  0.56991379  0.33507723  0.75862963  1
  O  O82  1  0.43008621  0.66492277  0.25862963  1
  O  O83  1  0.66492277  0.56991379  0.00862963  1
  O  O84  1  0.12907915  0.75452071  0.51694835  1
  O  O85  1  0.24547929  0.12907915  0.76694835  1
  O  O86  1  0.75452071  0.87092085  0.26694835  1
  O  O87  1  0.94426726  0.72259348  0.75841021  1
