# generated using pymatgen
data_KSb2PO8
_symmetry_space_group_name_H-M   'P 1'
_cell_length_a   7.10557089
_cell_length_b   7.10557089
_cell_length_c   15.05748184
_cell_angle_alpha   84.97241010
_cell_angle_beta   84.97241010
_cell_angle_gamma   60.02515725
_symmetry_Int_Tables_number   1
_chemical_formula_structural   KSb2PO8
_chemical_formula_sum   'K4 Sb8 P4 O32'
_cell_volume   655.17204594
_cell_formula_units_Z   4
loop_
 _symmetry_equiv_pos_site_id
 _symmetry_equiv_pos_as_xyz
  1  'x, y, z'
loop_
 _atom_site_type_symbol
 _atom_site_label
 _atom_site_symmetry_multiplicity
 _atom_site_fract_x
 _atom_site_fract_y
 _atom_site_fract_z
 _atom_site_occupancy
  K  K0  1  0.14796022  0.90724462  0.11607014  1
  K  K1  1  0.90724462  0.14796022  0.61607014  1
  K  K2  1  0.85203978  0.09275538  0.88392986  1
  K  K3  1  0.09275538  0.85203978  0.38392986  1
  Sb  Sb4  1  0.62133759  0.87504249  0.24670464  1
  Sb  Sb5  1  0.19189021  0.45482496  0.93705144  1
  Sb  Sb6  1  0.45482496  0.19189021  0.43705144  1
  Sb  Sb7  1  0.37866241  0.12495751  0.75329536  1
  Sb  Sb8  1  0.80810979  0.54517504  0.06294856  1
  Sb  Sb9  1  0.87504249  0.62133759  0.74670464  1
  Sb  Sb10  1  0.12495751  0.37866241  0.25329536  1
  Sb  Sb11  1  0.54517504  0.80810979  0.56294856  1
  P  P12  1  0.71461694  0.48827551  0.39418892  1
  P  P13  1  0.51172449  0.28538306  0.10581108  1
  P  P14  1  0.48827551  0.71461694  0.89418892  1
  P  P15  1  0.28538306  0.51172449  0.60581108  1
  O  O16  1  0.40210399  0.24551358  0.03214945  1
  O  O17  1  0.25718936  0.41284576  0.35465348  1
  O  O18  1  0.67254725  0.07057355  0.15326786  1
  O  O19  1  0.32745275  0.92942645  0.84673214  1
  O  O20  1  0.98057497  0.34101923  0.15808893  1
  O  O21  1  0.56182934  0.66087318  0.32653094  1
  O  O22  1  0.99915314  0.33355204  0.97129083  1
  O  O23  1  0.66087318  0.56182934  0.82653094  1
  O  O24  1  0.43817066  0.33912682  0.67346906  1
  O  O25  1  0.24551358  0.40210399  0.53214945  1
  O  O26  1  0.92942645  0.32745275  0.34673214  1
  O  O27  1  0.06162062  0.30570647  0.75309361  1
  O  O28  1  0.01942503  0.65898077  0.84191107  1
  O  O29  1  0.33912682  0.43817066  0.17346906  1
  O  O30  1  0.00084686  0.66644796  0.02870917  1
  O  O31  1  0.30570647  0.06162062  0.25309361  1
  O  O32  1  0.38159723  0.64738280  0.56168005  1
  O  O33  1  0.66644796  0.00084686  0.52870917  1
  O  O34  1  0.33355204  0.99915314  0.47129083  1
  O  O35  1  0.35261720  0.61840277  0.93831995  1
  O  O36  1  0.69429353  0.93837938  0.74690639  1
  O  O37  1  0.65898077  0.01942503  0.34191107  1
  O  O38  1  0.74281064  0.58715424  0.64534652  1
  O  O39  1  0.64738280  0.38159723  0.06168005  1
  O  O40  1  0.59789601  0.75448642  0.96785055  1
  O  O41  1  0.34101923  0.98057497  0.65808893  1
  O  O42  1  0.75448642  0.59789601  0.46785055  1
  O  O43  1  0.61840277  0.35261720  0.43831995  1
  O  O44  1  0.58715424  0.74281064  0.14534652  1
  O  O45  1  0.07057355  0.67254725  0.65326786  1
  O  O46  1  0.93837938  0.69429353  0.24690639  1
  O  O47  1  0.41284576  0.25718936  0.85465348  1
