# generated using pymatgen
data_Sr(Si3N4)2
_symmetry_space_group_name_H-M   'P 1'
_cell_length_a   4.81194240
_cell_length_b   6.54738524
_cell_length_c   6.54738333
_cell_angle_alpha   73.97619708
_cell_angle_beta   68.44030830
_cell_angle_gamma   68.44030152
_symmetry_Int_Tables_number   1
_chemical_formula_structural   Sr(Si3N4)2
_chemical_formula_sum   'Sr1 Si6 N8'
_cell_volume   176.03798115
_cell_formula_units_Z   1
loop_
 _symmetry_equiv_pos_site_id
 _symmetry_equiv_pos_as_xyz
  1  'x, y, z'
loop_
 _atom_site_type_symbol
 _atom_site_label
 _atom_site_symmetry_multiplicity
 _atom_site_fract_x
 _atom_site_fract_y
 _atom_site_fract_z
 _atom_site_occupancy
  Sr  Sr0  1  0.34347384  0.50000000  0.50000000  1
  Si  Si1  1  0.01235939  0.04268758  0.63632757  1
  Si  Si2  1  0.69137554  0.36367243  0.95731242  1
  Si  Si3  1  0.01235939  0.63632757  0.04268758  1
  Si  Si4  1  0.69137554  0.95731242  0.36367243  1
  Si  Si5  1  0.48647556  0.87278133  0.87278133  1
  Si  Si6  1  0.23203722  0.12721867  0.12721867  1
  N  N7  1  0.78598327  0.29072637  0.70927363  1
  N  N8  1  0.40389139  0.98372726  0.62037686  1
  N  N9  1  0.88817151  0.81683157  0.81683157  1
  N  N10  1  0.00799551  0.01627274  0.37962314  1
  N  N11  1  0.78598327  0.70927363  0.29072637  1
  N  N12  1  0.40389139  0.62037686  0.98372726  1
  N  N13  1  0.00799551  0.37962314  0.01627274  1
  N  N14  1  0.52183465  0.18316843  0.18316843  1
