# generated using pymatgen
data_CsPr9Nb(Br5N2)3
_symmetry_space_group_name_H-M   'P 1'
_cell_length_a   12.25557137
_cell_length_b   12.25557137
_cell_length_c   13.92276881
_cell_angle_alpha   90.00000000
_cell_angle_beta   90.00000000
_cell_angle_gamma   120.00000203
_symmetry_Int_Tables_number   1
_chemical_formula_structural   CsPr9Nb(Br5N2)3
_chemical_formula_sum   'Cs2 Pr18 Nb2 Br30 N12'
_cell_volume   1811.02047774
_cell_formula_units_Z   2
loop_
 _symmetry_equiv_pos_site_id
 _symmetry_equiv_pos_as_xyz
  1  'x, y, z'
loop_
 _atom_site_type_symbol
 _atom_site_label
 _atom_site_symmetry_multiplicity
 _atom_site_fract_x
 _atom_site_fract_y
 _atom_site_fract_z
 _atom_site_occupancy
  Cs  Cs0  1  0.00000000  0.00000000  0.25000000  1
  Cs  Cs1  1  0.00000000  0.00000000  0.75000000  1
  Pr  Pr2  1  0.97961079  0.41790904  0.25000000  1
  Pr  Pr3  1  0.72208671  0.18066943  0.06616813  1
  Pr  Pr4  1  0.18066943  0.45858272  0.56616813  1
  Pr  Pr5  1  0.81933057  0.54141728  0.43383187  1
  Pr  Pr6  1  0.27791329  0.81933057  0.93383187  1
  Pr  Pr7  1  0.58209096  0.56170174  0.25000000  1
  Pr  Pr8  1  0.54141728  0.72208671  0.93383187  1
  Pr  Pr9  1  0.54141728  0.72208671  0.56616813  1
  Pr  Pr10  1  0.81933057  0.54141728  0.06616813  1
  Pr  Pr11  1  0.27791329  0.81933057  0.56616813  1
  Pr  Pr12  1  0.45858272  0.27791329  0.43383187  1
  Pr  Pr13  1  0.18066943  0.45858272  0.93383187  1
  Pr  Pr14  1  0.43829826  0.02038921  0.25000000  1
  Pr  Pr15  1  0.56170174  0.97961079  0.75000000  1
  Pr  Pr16  1  0.45858272  0.27791329  0.06616813  1
  Pr  Pr17  1  0.02038921  0.58209096  0.75000000  1
  Pr  Pr18  1  0.41790904  0.43829826  0.75000000  1
  Pr  Pr19  1  0.72208671  0.18066943  0.43383187  1
  Nb  Nb20  1  0.66666700  0.33333300  0.25000000  1
  Nb  Nb21  1  0.33333300  0.66666700  0.75000000  1
  Br  Br22  1  0.13542353  0.61433867  0.09001666  1
  Br  Br23  1  0.05384112  0.32243301  0.75000000  1
  Br  Br24  1  0.86457647  0.38566133  0.59001666  1
  Br  Br25  1  0.76091946  0.01466355  0.59601455  1
  Br  Br26  1  0.67756699  0.73140711  0.75000000  1
  Br  Br27  1  0.01466355  0.25374509  0.09601455  1
  Br  Br28  1  0.98533645  0.74625491  0.90398545  1
  Br  Br29  1  0.61433867  0.47891514  0.59001666  1
  Br  Br30  1  0.73140711  0.05384112  0.25000000  1
  Br  Br31  1  0.32243301  0.26859289  0.25000000  1
  Br  Br32  1  0.86457647  0.38566133  0.90998334  1
  Br  Br33  1  0.98533645  0.74625491  0.59601455  1
  Br  Br34  1  0.38566133  0.52108486  0.09001666  1
  Br  Br35  1  0.26859289  0.94615888  0.75000000  1
  Br  Br36  1  0.13542353  0.61433867  0.40998334  1
  Br  Br37  1  0.94615888  0.67756699  0.25000000  1
  Br  Br38  1  0.23908054  0.98533645  0.09601455  1
  Br  Br39  1  0.01466355  0.25374509  0.40398545  1
  Br  Br40  1  0.25374509  0.23908054  0.59601455  1
  Br  Br41  1  0.52108486  0.13542353  0.59001666  1
  Br  Br42  1  0.61433867  0.47891514  0.90998334  1
  Br  Br43  1  0.74625491  0.76091946  0.09601455  1
  Br  Br44  1  0.23908054  0.98533645  0.40398545  1
  Br  Br45  1  0.38566133  0.52108486  0.40998334  1
  Br  Br46  1  0.47891514  0.86457647  0.09001666  1
  Br  Br47  1  0.76091946  0.01466355  0.90398545  1
  Br  Br48  1  0.25374509  0.23908054  0.90398545  1
  Br  Br49  1  0.47891514  0.86457647  0.40998334  1
  Br  Br50  1  0.74625491  0.76091946  0.40398545  1
  Br  Br51  1  0.52108486  0.13542353  0.90998334  1
  N  N52  1  0.37233518  0.55811796  0.85047700  1
  N  N53  1  0.37233518  0.55811796  0.64952300  1
  N  N54  1  0.44188204  0.81421622  0.85047700  1
  N  N55  1  0.81421622  0.37233518  0.35047700  1
  N  N56  1  0.55811796  0.18578378  0.35047700  1
  N  N57  1  0.55811796  0.18578378  0.14952300  1
  N  N58  1  0.18578378  0.62766482  0.85047700  1
  N  N59  1  0.62766482  0.44188204  0.35047700  1
  N  N60  1  0.81421622  0.37233518  0.14952300  1
  N  N61  1  0.18578378  0.62766482  0.64952300  1
  N  N62  1  0.62766482  0.44188204  0.14952300  1
  N  N63  1  0.44188204  0.81421622  0.64952300  1
