# generated using pymatgen
data_RbVBr3
_symmetry_space_group_name_H-M   'P 1'
_cell_length_a   12.89200448
_cell_length_b   12.89195418
_cell_length_c   6.45834038
_cell_angle_alpha   90.00080995
_cell_angle_beta   89.99957500
_cell_angle_gamma   119.99995016
_symmetry_Int_Tables_number   1
_chemical_formula_structural   RbVBr3
_chemical_formula_sum   'Rb6 V6 Br18'
_cell_volume   929.58901081
_cell_formula_units_Z   6
loop_
 _symmetry_equiv_pos_site_id
 _symmetry_equiv_pos_as_xyz
  1  'x, y, z'
loop_
 _atom_site_type_symbol
 _atom_site_label
 _atom_site_symmetry_multiplicity
 _atom_site_fract_x
 _atom_site_fract_y
 _atom_site_fract_z
 _atom_site_occupancy
  Rb  Rb0  1  0.99999068  0.33222396  0.74999606  1
  Rb  Rb1  1  0.33223419  0.33222384  0.24999713  1
  Rb  Rb2  1  0.66777491  0.66776459  0.74999620  1
  Rb  Rb3  1  0.99999073  0.66776459  0.24999735  1
  Rb  Rb4  1  0.33223426  0.00000817  0.74999647  1
  Rb  Rb5  1  0.66777483  0.00000818  0.24999704  1
  V  V6  1  0.33333357  0.66666669  0.52700008  1
  V  V7  1  0.66666637  0.33333057  0.47298429  1
  V  V8  1  0.00000049  -0.00000048  -0.00000175  1
  V  V9  1  0.00000029  -0.00000064  0.49999562  1
  V  V10  1  0.66666717  0.33333096  0.97298943  1
  V  V11  1  0.33333309  0.66666607  0.02700437  1
  Br  Br12  1  0.82935797  0.49558464  0.72227359  1
  Br  Br13  1  0.33379596  0.50442660  0.77772617  1
  Br  Br14  1  0.17063087  0.66620332  0.77772628  1
  Br  Br15  1  0.82936392  0.33378833  0.22229316  1
  Br  Br16  1  0.17063143  0.50442618  0.27772798  1
  Br  Br17  1  0.16280118  0.00000384  0.24999793  1
  Br  Br18  1  0.33379565  0.82936832  0.27772751  1
  Br  Br19  1  0.49557364  0.82936832  0.77772687  1
  Br  Br20  1  0.66620825  0.17063300  0.72229117  1
  Br  Br21  1  0.66622959  0.49558403  0.22227626  1
  Br  Br22  1  0.99999513  0.16279532  0.24999799  1
  Br  Br23  1  0.16280176  0.16279583  0.74999657  1
  Br  Br24  1  0.83720463  0.00000402  0.74999670  1
  Br  Br25  1  0.99999504  0.83719846  0.74999667  1
  Br  Br26  1  0.83720424  0.83719820  0.24999809  1
  Br  Br27  1  0.50441256  0.17064110  0.22227699  1
  Br  Br28  1  0.49557298  0.66620314  0.27772731  1
  Br  Br29  1  0.50442660  0.33378885  0.72229146  1
