# generated using pymatgen
data_BaCu(SeO3)2
_symmetry_space_group_name_H-M   'P 1'
_cell_length_a   5.28402230
_cell_length_b   8.90802192
_cell_length_c   13.25862627
_cell_angle_alpha   90.00000000
_cell_angle_beta   90.00000000
_cell_angle_gamma   89.85950459
_symmetry_Int_Tables_number   1
_chemical_formula_structural   BaCu(SeO3)2
_chemical_formula_sum   'Ba4 Cu4 Se8 O24'
_cell_volume   624.08413462
_cell_formula_units_Z   4
loop_
 _symmetry_equiv_pos_site_id
 _symmetry_equiv_pos_as_xyz
  1  'x, y, z'
loop_
 _atom_site_type_symbol
 _atom_site_label
 _atom_site_symmetry_multiplicity
 _atom_site_fract_x
 _atom_site_fract_y
 _atom_site_fract_z
 _atom_site_occupancy
  Ba  Ba0  1  0.73060731  0.69058873  0.20074838  1
  Ba  Ba1  1  0.73060731  0.19058873  0.29925162  1
  Ba  Ba2  1  0.26939269  0.80941027  0.70074938  1
  Ba  Ba3  1  0.26939269  0.30941127  0.79925062  1
  Cu  Cu4  1  0.27376263  0.90018732  0.36683167  1
  Cu  Cu5  1  0.72623737  0.09981368  0.63316833  1
  Cu  Cu6  1  0.72623737  0.59981368  0.86683167  1
  Cu  Cu7  1  0.27376263  0.40018732  0.13316833  1
  Se  Se8  1  0.18958259  0.71027930  0.99109806  1
  Se  Se9  1  0.23469227  0.53527952  0.36269959  1
  Se  Se10  1  0.81041741  0.78972070  0.49109806  1
  Se  Se11  1  0.23469227  0.03527952  0.13730041  1
  Se  Se12  1  0.76530773  0.96472048  0.86269959  1
  Se  Se13  1  0.81041741  0.28972070  0.00890194  1
  Se  Se14  1  0.18958259  0.21027930  0.50890194  1
  Se  Se15  1  0.76530773  0.46472048  0.63730041  1
  O  O16  1  0.28654212  0.62326611  0.88500675  1
  O  O17  1  0.21695379  0.70868718  0.30481342  1
  O  O18  1  0.71345788  0.37673389  0.11499325  1
  O  O19  1  0.21695379  0.20868718  0.19518658  1
  O  O20  1  0.86951173  0.17071291  0.50532894  1
  O  O21  1  0.06005348  0.52752850  0.65894942  1
  O  O22  1  0.13048827  0.82928709  0.49467106  1
  O  O23  1  0.29360278  0.60881058  0.09351692  1
  O  O24  1  0.06005348  0.02752850  0.84105058  1
  O  O25  1  0.13048827  0.32928709  0.00532894  1
  O  O26  1  0.70639722  0.89118942  0.59351692  1
  O  O27  1  0.58649329  0.55010609  0.72942338  1
  O  O28  1  0.58649329  0.05010609  0.77057662  1
  O  O29  1  0.78304521  0.29131282  0.69518658  1
  O  O30  1  0.70639722  0.39118942  0.90648308  1
  O  O31  1  0.93994652  0.47247150  0.34105058  1
  O  O32  1  0.71345788  0.87673389  0.38500675  1
  O  O33  1  0.41350671  0.44989391  0.27057662  1
  O  O34  1  0.86951173  0.67071391  0.99467106  1
  O  O35  1  0.28654212  0.12326611  0.61499325  1
  O  O36  1  0.29360278  0.10881058  0.40648308  1
  O  O37  1  0.78304521  0.79131282  0.80481342  1
  O  O38  1  0.41350671  0.94989391  0.22942338  1
  O  O39  1  0.93994652  0.97247150  0.15894942  1
