# generated using pymatgen
data_TePbO3
_symmetry_space_group_name_H-M   'P 1'
_cell_length_a   5.35030789
_cell_length_b   5.35030789
_cell_length_c   11.96787127
_cell_angle_alpha   90.00000000
_cell_angle_beta   90.00000000
_cell_angle_gamma   90.00000000
_symmetry_Int_Tables_number   1
_chemical_formula_structural   TePbO3
_chemical_formula_sum   'Te4 Pb4 O12'
_cell_volume   342.58982379
_cell_formula_units_Z   4
loop_
 _symmetry_equiv_pos_site_id
 _symmetry_equiv_pos_as_xyz
  1  'x, y, z'
loop_
 _atom_site_type_symbol
 _atom_site_label
 _atom_site_symmetry_multiplicity
 _atom_site_fract_x
 _atom_site_fract_y
 _atom_site_fract_z
 _atom_site_occupancy
  Te  Te0  1  0.25224562  0.25669835  0.48959557  1
  Te  Te1  1  0.25669835  0.74775438  0.23959557  1
  Te  Te2  1  0.74775438  0.74330165  0.98959557  1
  Te  Te3  1  0.74330165  0.25224562  0.73959557  1
  Pb  Pb4  1  0.75403419  0.24308002  0.25038627  1
  Pb  Pb5  1  0.24308002  0.24596581  0.00038627  1
  Pb  Pb6  1  0.24596581  0.75691998  0.75038627  1
  Pb  Pb7  1  0.75691998  0.75403419  0.50038627  1
  O  O8  1  0.38824464  0.01929185  0.58798618  1
  O  O9  1  0.52215970  0.12357431  0.84639535  1
  O  O10  1  0.47784030  0.87642569  0.34639535  1
  O  O11  1  0.11915801  0.06133465  0.20083563  1
  O  O12  1  0.06133465  0.88084199  0.95083563  1
  O  O13  1  0.01929185  0.61175536  0.33798618  1
  O  O14  1  0.12357431  0.47784030  0.59639535  1
  O  O15  1  0.87642569  0.52215970  0.09639535  1
  O  O16  1  0.98070815  0.38824464  0.83798618  1
  O  O17  1  0.61175536  0.98070815  0.08798618  1
  O  O18  1  0.88084199  0.93866535  0.70083563  1
  O  O19  1  0.93866535  0.11915801  0.45083563  1
