# generated using pymatgen
data_Cs2SiO3
_symmetry_space_group_name_H-M   'P 1'
_cell_length_a   13.89768069
_cell_length_b   6.87784533
_cell_length_c   17.13067884
_cell_angle_alpha   71.58809516
_cell_angle_beta   90.00000000
_cell_angle_gamma   90.00000000
_symmetry_Int_Tables_number   1
_chemical_formula_structural   Cs2SiO3
_chemical_formula_sum   'Cs24 Si12 O36'
_cell_volume   1553.63410603
_cell_formula_units_Z   12
loop_
 _symmetry_equiv_pos_site_id
 _symmetry_equiv_pos_as_xyz
  1  'x, y, z'
loop_
 _atom_site_type_symbol
 _atom_site_label
 _atom_site_symmetry_multiplicity
 _atom_site_fract_x
 _atom_site_fract_y
 _atom_site_fract_z
 _atom_site_occupancy
  Cs  Cs0  1  0.65635592  0.45248357  0.50852979  1
  Cs  Cs1  1  0.15635592  0.54751643  0.99147021  1
  Cs  Cs2  1  0.19075890  0.86631969  0.30796901  1
  Cs  Cs3  1  0.58649003  0.28270837  0.96737749  1
  Cs  Cs4  1  0.89251030  0.01478775  0.91430496  1
  Cs  Cs5  1  0.60748970  0.01478775  0.41430496  1
  Cs  Cs6  1  0.69075890  0.13368031  0.19203099  1
  Cs  Cs7  1  0.62231425  0.88099680  0.86462096  1
  Cs  Cs8  1  0.41350997  0.71729163  0.03262251  1
  Cs  Cs9  1  0.87768575  0.88099680  0.36462096  1
  Cs  Cs10  1  0.30924110  0.86631969  0.80796901  1
  Cs  Cs11  1  0.98764773  0.34363965  0.21793653  1
  Cs  Cs12  1  0.91350997  0.28270837  0.46737749  1
  Cs  Cs13  1  0.01235227  0.65636035  0.78206347  1
  Cs  Cs14  1  0.12231425  0.11900320  0.63537904  1
  Cs  Cs15  1  0.10748970  0.98521225  0.08569504  1
  Cs  Cs16  1  0.39251030  0.98521225  0.58569504  1
  Cs  Cs17  1  0.37768575  0.11900320  0.13537904  1
  Cs  Cs18  1  0.84364408  0.45248357  0.00852979  1
  Cs  Cs19  1  0.08649003  0.71729163  0.53262251  1
  Cs  Cs20  1  0.51235227  0.34363965  0.71793653  1
  Cs  Cs21  1  0.48764773  0.65636035  0.28206347  1
  Cs  Cs22  1  0.80924110  0.13368031  0.69203099  1
  Cs  Cs23  1  0.34364408  0.54751643  0.49147021  1
  Si  Si24  1  0.65464847  0.72392043  0.10613253  1
  Si  Si25  1  0.25375072  0.45269100  0.72134729  1
  Si  Si26  1  0.15464847  0.27607957  0.39386747  1
  Si  Si27  1  0.86586976  0.83032343  0.13438034  1
  Si  Si28  1  0.75375072  0.54730900  0.77865271  1
  Si  Si29  1  0.74624928  0.54730900  0.27865271  1
  Si  Si30  1  0.24624928  0.45269100  0.22134729  1
  Si  Si31  1  0.84535153  0.72392043  0.60613253  1
  Si  Si32  1  0.63413024  0.83032343  0.63438034  1
  Si  Si33  1  0.13413024  0.16967657  0.86561966  1
  Si  Si34  1  0.34535153  0.27607957  0.89386747  1
  Si  Si35  1  0.36586976  0.16967657  0.36561966  1
  O  O36  1  0.22660890  0.68824515  0.67443625  1
  O  O37  1  0.29838566  0.32349483  0.66615584  1
  O  O38  1  0.86188501  0.59471409  0.54375795  1
  O  O39  1  0.84410854  0.67192495  0.22961931  1
  O  O40  1  0.27339110  0.68824515  0.17443625  1
  O  O41  1  0.34410854  0.32807505  0.27038069  1
  O  O42  1  0.75910157  0.85349027  0.08582073  1
  O  O43  1  0.65589146  0.67192495  0.72961931  1
  O  O44  1  0.15589146  0.32807505  0.77038069  1
  O  O45  1  0.17126318  0.44204650  0.29920382  1
  O  O46  1  0.57067162  0.88354558  0.10824600  1
  O  O47  1  0.07067162  0.11645442  0.39175400  1
  O  O48  1  0.44081336  0.27331830  0.41215422  1
  O  O49  1  0.10295295  0.94976537  0.85975351  1
  O  O50  1  0.82873682  0.55795350  0.70079618  1
  O  O51  1  0.77339110  0.31175485  0.32556375  1
  O  O52  1  0.74089843  0.85349027  0.58582073  1
  O  O53  1  0.24089843  0.14650973  0.91417927  1
  O  O54  1  0.13811499  0.40528591  0.45624205  1
  O  O55  1  0.20161434  0.32349483  0.16615584  1
  O  O56  1  0.60295295  0.05023463  0.64024649  1
  O  O57  1  0.32873682  0.44204650  0.79920382  1
  O  O58  1  0.39704705  0.94976537  0.35975351  1
  O  O59  1  0.72660890  0.31175485  0.82556375  1
  O  O60  1  0.25910157  0.14650973  0.41417927  1
  O  O61  1  0.79838566  0.67650517  0.83384416  1
  O  O62  1  0.67126318  0.55795350  0.20079618  1
  O  O63  1  0.70161434  0.67650517  0.33384416  1
  O  O64  1  0.36188501  0.40528591  0.95624205  1
  O  O65  1  0.55918664  0.72668170  0.58784578  1
  O  O66  1  0.63811499  0.59471409  0.04375795  1
  O  O67  1  0.89704705  0.05023463  0.14024649  1
  O  O68  1  0.92932838  0.88354558  0.60824600  1
  O  O69  1  0.05918664  0.27331830  0.91215422  1
  O  O70  1  0.94081336  0.72668170  0.08784578  1
  O  O71  1  0.42932838  0.11645442  0.89175400  1
