# generated using pymatgen
data_LaErS3
_symmetry_space_group_name_H-M   'P 1'
_cell_length_a   3.99160695
_cell_length_b   16.45025474
_cell_length_c   21.40339030
_cell_angle_alpha   90.00000000
_cell_angle_beta   90.00000000
_cell_angle_gamma   90.00000000
_symmetry_Int_Tables_number   1
_chemical_formula_structural   LaErS3
_chemical_formula_sum   'La12 Er12 S36'
_cell_volume   1405.40977170
_cell_formula_units_Z   12
loop_
 _symmetry_equiv_pos_site_id
 _symmetry_equiv_pos_as_xyz
  1  'x, y, z'
loop_
 _atom_site_type_symbol
 _atom_site_label
 _atom_site_symmetry_multiplicity
 _atom_site_fract_x
 _atom_site_fract_y
 _atom_site_fract_z
 _atom_site_occupancy
  La  La0  1  0.75000000  0.67014211  0.91283088  1
  La  La1  1  0.75000000  0.84096127  0.75414126  1
  La  La2  1  0.25000000  0.15903873  0.24585874  1
  La  La3  1  0.25000000  0.32985789  0.08716912  1
  La  La4  1  0.75000000  0.80640412  0.07911408  1
  La  La5  1  0.75000000  0.34096127  0.74585874  1
  La  La6  1  0.25000000  0.19359588  0.92088592  1
  La  La7  1  0.25000000  0.82985789  0.41283088  1
  La  La8  1  0.75000000  0.17014211  0.58716912  1
  La  La9  1  0.75000000  0.30640412  0.42088592  1
  La  La10  1  0.25000000  0.65903873  0.25414126  1
  La  La11  1  0.25000000  0.69359588  0.57911408  1
  Er  Er12  1  0.25000000  0.59447131  0.75022502  1
  Er  Er13  1  0.75000000  0.05712621  0.06923599  1
  Er  Er14  1  0.25000000  0.06560574  0.42063665  1
  Er  Er15  1  0.25000000  0.56560574  0.07936335  1
  Er  Er16  1  0.25000000  0.09447131  0.74977498  1
  Er  Er17  1  0.25000000  0.44287379  0.56923599  1
  Er  Er18  1  0.75000000  0.55712621  0.43076401  1
  Er  Er19  1  0.75000000  0.40552869  0.24977498  1
  Er  Er20  1  0.25000000  0.94287379  0.93076401  1
  Er  Er21  1  0.75000000  0.43439426  0.92063665  1
  Er  Er22  1  0.75000000  0.93439426  0.57936335  1
  Er  Er23  1  0.75000000  0.90552869  0.25022502  1
  S  S24  1  0.25000000  0.65828977  0.43670465  1
  S  S25  1  0.25000000  0.20824171  0.48258629  1
  S  S26  1  0.25000000  0.70824171  0.01741371  1
  S  S27  1  0.25000000  0.44113342  0.44243441  1
  S  S28  1  0.75000000  0.64557263  0.14807066  1
  S  S29  1  0.75000000  0.05117089  0.19286841  1
  S  S30  1  0.75000000  0.05886658  0.94243441  1
  S  S31  1  0.25000000  0.32405561  0.31524191  1
  S  S32  1  0.75000000  0.53654887  0.81750194  1
  S  S33  1  0.75000000  0.45798098  0.05232449  1
  S  S34  1  0.75000000  0.17594439  0.81524191  1
  S  S35  1  0.75000000  0.55117089  0.30713159  1
  S  S36  1  0.25000000  0.96345113  0.31750194  1
  S  S37  1  0.75000000  0.27020647  0.17880173  1
  S  S38  1  0.75000000  0.67594439  0.68475809  1
  S  S39  1  0.25000000  0.46345113  0.18249806  1
  S  S40  1  0.75000000  0.77020647  0.32119827  1
  S  S41  1  0.25000000  0.72979353  0.82119827  1
  S  S42  1  0.75000000  0.34171023  0.56329535  1
  S  S43  1  0.25000000  0.04201902  0.55232449  1
  S  S44  1  0.75000000  0.14557263  0.35192934  1
  S  S45  1  0.75000000  0.95798098  0.44767551  1
  S  S46  1  0.25000000  0.22979353  0.67880173  1
  S  S47  1  0.25000000  0.44882911  0.69286841  1
  S  S48  1  0.25000000  0.94113342  0.05756559  1
  S  S49  1  0.75000000  0.03654887  0.68249806  1
  S  S50  1  0.25000000  0.82405561  0.18475809  1
  S  S51  1  0.75000000  0.79175829  0.51741371  1
  S  S52  1  0.25000000  0.54201902  0.94767551  1
  S  S53  1  0.25000000  0.15828977  0.06329535  1
  S  S54  1  0.75000000  0.84171023  0.93670465  1
  S  S55  1  0.75000000  0.29175829  0.98258629  1
  S  S56  1  0.25000000  0.94882911  0.80713159  1
  S  S57  1  0.75000000  0.55886658  0.55756559  1
  S  S58  1  0.25000000  0.35442737  0.85192934  1
  S  S59  1  0.25000000  0.85442737  0.64807066  1
