# generated using pymatgen
data_Tl3PbBr5
_symmetry_space_group_name_H-M   'P 1'
_cell_length_a   8.83430342
_cell_length_b   8.83430342
_cell_length_c   15.50117348
_cell_angle_alpha   90.00000000
_cell_angle_beta   90.00000000
_cell_angle_gamma   90.00000000
_symmetry_Int_Tables_number   1
_chemical_formula_structural   Tl3PbBr5
_chemical_formula_sum   'Tl12 Pb4 Br20'
_cell_volume   1209.78779636
_cell_formula_units_Z   4
loop_
 _symmetry_equiv_pos_site_id
 _symmetry_equiv_pos_as_xyz
  1  'x, y, z'
loop_
 _atom_site_type_symbol
 _atom_site_label
 _atom_site_symmetry_multiplicity
 _atom_site_fract_x
 _atom_site_fract_y
 _atom_site_fract_z
 _atom_site_occupancy
  Tl  Tl0  1  0.99836952  0.81257691  0.80236027  1
  Tl  Tl1  1  0.88085084  0.68519666  0.38224298  1
  Tl  Tl2  1  0.18742309  0.99836952  0.05236027  1
  Tl  Tl3  1  0.17480022  0.36138237  0.56722196  1
  Tl  Tl4  1  0.68519666  0.11914916  0.13224298  1
  Tl  Tl5  1  0.36138237  0.82519978  0.31722196  1
  Tl  Tl6  1  0.11914916  0.31480334  0.88224298  1
  Tl  Tl7  1  0.00163048  0.18742309  0.30236027  1
  Tl  Tl8  1  0.63861763  0.17480022  0.81722196  1
  Tl  Tl9  1  0.82519978  0.63861763  0.06722196  1
  Tl  Tl10  1  0.31480334  0.88085084  0.63224298  1
  Tl  Tl11  1  0.81257691  0.00163048  0.55236027  1
  Pb  Pb12  1  0.69513255  0.51283573  0.64606231  1
  Pb  Pb13  1  0.48716427  0.69513255  0.89606231  1
  Pb  Pb14  1  0.51283573  0.30486745  0.39606231  1
  Pb  Pb15  1  0.30486745  0.48716427  0.14606231  1
  Br  Br16  1  0.35984674  0.51642234  0.75575230  1
  Br  Br17  1  0.49286982  0.80134778  0.10302504  1
  Br  Br18  1  0.19865222  0.49286982  0.35302504  1
  Br  Br19  1  0.67013360  0.01625329  0.35032206  1
  Br  Br20  1  0.64909858  0.82559036  0.72422766  1
  Br  Br21  1  0.50713018  0.19865222  0.60302504  1
  Br  Br22  1  0.64015326  0.48357766  0.25575230  1
  Br  Br23  1  0.48357766  0.35984674  0.00575230  1
  Br  Br24  1  0.01625329  0.32986640  0.10032206  1
  Br  Br25  1  0.97393628  0.17425772  0.70578641  1
  Br  Br26  1  0.80134778  0.50713018  0.85302504  1
  Br  Br27  1  0.82574228  0.97393628  0.95578641  1
  Br  Br28  1  0.17425772  0.02606372  0.45578641  1
  Br  Br29  1  0.17440964  0.64909858  0.97422766  1
  Br  Br30  1  0.32986640  0.98374671  0.85032206  1
  Br  Br31  1  0.82559036  0.35090142  0.47422766  1
  Br  Br32  1  0.98374671  0.67013360  0.60032206  1
  Br  Br33  1  0.51642234  0.64015326  0.50575230  1
  Br  Br34  1  0.35090142  0.17440964  0.22422766  1
  Br  Br35  1  0.02606372  0.82574228  0.20578641  1
