# generated using pymatgen
data_K2(MoSe6)3
_symmetry_space_group_name_H-M   'P 1'
_cell_length_a   12.83116301
_cell_length_b   10.49294619
_cell_length_c   10.75009091
_cell_angle_alpha   63.27956378
_cell_angle_beta   90.00000000
_cell_angle_gamma   90.00000000
_symmetry_Int_Tables_number   1
_chemical_formula_structural   K2(MoSe6)3
_chemical_formula_sum   'K4 Mo6 Se36'
_cell_volume   1292.79511152
_cell_formula_units_Z   2
loop_
 _symmetry_equiv_pos_site_id
 _symmetry_equiv_pos_as_xyz
  1  'x, y, z'
loop_
 _atom_site_type_symbol
 _atom_site_label
 _atom_site_symmetry_multiplicity
 _atom_site_fract_x
 _atom_site_fract_y
 _atom_site_fract_z
 _atom_site_occupancy
  K  K0  1  0.34428708  0.73506776  0.33616692  1
  K  K1  1  0.84428708  0.26493224  0.66383308  1
  K  K2  1  0.81324239  0.58472721  0.99515990  1
  K  K3  1  0.31324239  0.41527279  0.00484010  1
  Mo  Mo4  1  0.76863848  0.91117972  0.48859241  1
  Mo  Mo5  1  0.26863848  0.08882028  0.51140759  1
  Mo  Mo6  1  0.76121234  0.75711475  0.33858961  1
  Mo  Mo7  1  0.26121234  0.24288525  0.66141039  1
  Mo  Mo8  1  0.74942142  0.05223873  0.20158661  1
  Mo  Mo9  1  0.24942142  0.94776127  0.79841339  1
  Se  Se10  1  0.60968823  0.89656258  0.36352596  1
  Se  Se11  1  0.10968823  0.10343742  0.63647404  1
  Se  Se12  1  0.84244708  0.91097424  0.72102958  1
  Se  Se13  1  0.34244708  0.08902576  0.27897042  1
  Se  Se14  1  0.66193522  0.89487727  0.70317237  1
  Se  Se15  1  0.16193522  0.10512273  0.29682763  1
  Se  Se16  1  0.09150477  0.88775370  0.31666434  1
  Se  Se17  1  0.59150477  0.11224630  0.68333566  1
  Se  Se18  1  0.89835414  0.09662008  0.33539479  1
  Se  Se19  1  0.39835414  0.90337992  0.66460521  1
  Se  Se20  1  0.73834116  0.18661937  0.35962780  1
  Se  Se21  1  0.23834116  0.81338063  0.64037220  1
  Se  Se22  1  0.71999027  0.89438827  0.07185002  1
  Se  Se23  1  0.21999027  0.10561173  0.92814998  1
  Se  Se24  1  0.88916842  0.90801101  0.14854627  1
  Se  Se25  1  0.38916842  0.09198899  0.85145373  1
  Se  Se26  1  0.91214252  0.73752452  0.50480672  1
  Se  Se27  1  0.41214252  0.26247548  0.49519328  1
  Se  Se28  1  0.75198945  0.63014790  0.61196371  1
  Se  Se29  1  0.25198945  0.36985210  0.38803629  1
  Se  Se30  1  0.56777527  0.17159474  0.10313214  1
  Se  Se31  1  0.06777527  0.82840526  0.89686786  1
  Se  Se32  1  0.57067150  0.41317272  0.92999144  1
  Se  Se33  1  0.07067150  0.58682728  0.07000856  1
  Se  Se34  1  0.03430441  0.56534884  0.29559299  1
  Se  Se35  1  0.53430441  0.43465116  0.70440701  1
  Se  Se36  1  0.84995895  0.53203476  0.32765982  1
  Se  Se37  1  0.34995895  0.46796524  0.67234018  1
  Se  Se38  1  0.81133946  0.27892246  0.97102276  1
  Se  Se39  1  0.31133946  0.72107754  0.02897724  1
  Se  Se40  1  0.99569781  0.23705004  0.98459997  1
  Se  Se41  1  0.49569781  0.76294996  0.01540003  1
  Se  Se42  1  0.57634946  0.54804836  0.16540888  1
  Se  Se43  1  0.07634946  0.45195164  0.83459112  1
  Se  Se44  1  0.61614117  0.56038764  0.37437742  1
  Se  Se45  1  0.11614117  0.43961236  0.62562258  1
