# generated using pymatgen
data_LiTaSiO5
_symmetry_space_group_name_H-M   'P 1'
_cell_length_a   7.88454521
_cell_length_b   7.44971708
_cell_length_c   7.47260290
_cell_angle_alpha   60.53596247
_cell_angle_beta   90.00000000
_cell_angle_gamma   90.00000000
_symmetry_Int_Tables_number   1
_chemical_formula_structural   LiTaSiO5
_chemical_formula_sum   'Li4 Ta4 Si4 O20'
_cell_volume   382.15471226
_cell_formula_units_Z   4
loop_
 _symmetry_equiv_pos_site_id
 _symmetry_equiv_pos_as_xyz
  1  'x, y, z'
loop_
 _atom_site_type_symbol
 _atom_site_label
 _atom_site_symmetry_multiplicity
 _atom_site_fract_x
 _atom_site_fract_y
 _atom_site_fract_z
 _atom_site_occupancy
  Li  Li0  1  0.43319916  0.24810077  0.30911448  1
  Li  Li1  1  0.56680084  0.75189923  0.69088552  1
  Li  Li2  1  0.06680084  0.24810077  0.80911448  1
  Li  Li3  1  0.93319916  0.75189923  0.19088552  1
  Ta  Ta4  1  0.73986122  0.25192458  0.00695461  1
  Ta  Ta5  1  0.76013878  0.25192458  0.50695461  1
  Ta  Ta6  1  0.26013878  0.74807542  0.99304539  1
  Ta  Ta7  1  0.23986122  0.74807542  0.49304539  1
  Si  Si8  1  0.61057474  0.74958749  0.25946746  1
  Si  Si9  1  0.88942526  0.74958749  0.75946746  1
  Si  Si10  1  0.11057474  0.25041251  0.24053254  1
  Si  Si11  1  0.38942526  0.25041251  0.74053254  1
  O  O12  1  0.75668356  0.55778588  0.85327008  1
  O  O13  1  0.32827950  0.75105439  0.74753158  1
  O  O14  1  0.26084010  0.05534328  0.85217313  1
  O  O15  1  0.67172050  0.24894561  0.25246842  1
  O  O16  1  0.51174710  0.26399273  0.90855849  1
  O  O17  1  0.99264627  0.24249013  0.06624099  1
  O  O18  1  0.48825290  0.73600727  0.09144151  1
  O  O19  1  0.23915990  0.05534328  0.35217313  1
  O  O20  1  0.74331644  0.55778588  0.35327008  1
  O  O21  1  0.98825290  0.26399273  0.40855849  1
  O  O22  1  0.76084010  0.94465672  0.64782687  1
  O  O23  1  0.49264627  0.75750987  0.43375901  1
  O  O24  1  0.82827950  0.24894561  0.75246842  1
  O  O25  1  0.50735373  0.24249013  0.56624099  1
  O  O26  1  0.17172050  0.75105439  0.24753158  1
  O  O27  1  0.01174710  0.73600727  0.59144151  1
  O  O28  1  0.73915990  0.94465672  0.14782687  1
  O  O29  1  0.00735373  0.75750987  0.93375901  1
  O  O30  1  0.24331644  0.44221412  0.14672992  1
  O  O31  1  0.25668356  0.44221412  0.64672992  1
