# generated using pymatgen
data_Sr4Al14O25
_symmetry_space_group_name_H-M   'P 1'
_cell_length_a   4.88226272
_cell_length_b   8.48064830
_cell_length_c   24.76965040
_cell_angle_alpha   90.00000000
_cell_angle_beta   90.00000000
_cell_angle_gamma   90.00000000
_symmetry_Int_Tables_number   1
_chemical_formula_structural   Sr4Al14O25
_chemical_formula_sum   'Sr8 Al28 O50'
_cell_volume   1025.58125761
_cell_formula_units_Z   2
loop_
 _symmetry_equiv_pos_site_id
 _symmetry_equiv_pos_as_xyz
  1  'x, y, z'
loop_
 _atom_site_type_symbol
 _atom_site_label
 _atom_site_symmetry_multiplicity
 _atom_site_fract_x
 _atom_site_fract_y
 _atom_site_fract_z
 _atom_site_occupancy
  Sr  Sr0  1  0.11115595  0.00000000  0.62064294  1
  Sr  Sr1  1  0.11115595  0.00000000  0.87935706  1
  Sr  Sr2  1  0.88884405  0.00000000  0.37935706  1
  Sr  Sr3  1  0.88884405  0.00000000  0.12064294  1
  Sr  Sr4  1  0.03600047  0.50000000  0.63808357  1
  Sr  Sr5  1  0.03600047  0.50000000  0.86191643  1
  Sr  Sr6  1  0.96399953  0.50000000  0.36191643  1
  Sr  Sr7  1  0.96399953  0.50000000  0.13808357  1
  Al  Al8  1  -0.00000000  0.50000000  0.50000000  1
  Al  Al9  1  -0.00000000  0.50000000  -0.00000000  1
  Al  Al10  1  0.50000000  0.00000000  0.50000000  1
  Al  Al11  1  0.50000000  0.00000000  -0.00000000  1
  Al  Al12  1  -0.00000000  0.83228503  0.50000000  1
  Al  Al13  1  -0.00000000  0.16771497  0.00000000  1
  Al  Al14  1  -0.00000000  0.16771497  0.50000000  1
  Al  Al15  1  -0.00000000  0.83228503  -0.00000000  1
  Al  Al16  1  0.12984354  0.29630101  0.75000000  1
  Al  Al17  1  0.12984354  0.70369899  0.75000000  1
  Al  Al18  1  0.87015646  0.29630101  0.25000000  1
  Al  Al19  1  0.87015646  0.70369899  0.25000000  1
  Al  Al20  1  0.49315603  0.67798623  0.43384276  1
  Al  Al21  1  0.49315603  0.32201377  0.06615724  1
  Al  Al22  1  0.50684397  0.67798623  0.56615724  1
  Al  Al23  1  0.50684397  0.32201377  0.93384276  1
  Al  Al24  1  0.50684397  0.32201377  0.56615724  1
  Al  Al25  1  0.50684397  0.67798623  0.93384276  1
  Al  Al26  1  0.49315603  0.32201377  0.43384276  1
  Al  Al27  1  0.49315603  0.67798623  0.06615724  1
  Al  Al28  1  0.37432881  0.80519249  0.31446203  1
  Al  Al29  1  0.37432881  0.19480751  0.18553797  1
  Al  Al30  1  0.62567119  0.80519249  0.68553797  1
  Al  Al31  1  0.62567119  0.19480751  0.81446203  1
  Al  Al32  1  0.62567119  0.19480751  0.68553797  1
  Al  Al33  1  0.62567119  0.80519249  0.81446203  1
  Al  Al34  1  0.37432881  0.19480751  0.31446203  1
  Al  Al35  1  0.37432881  0.80519249  0.18553797  1
  O  O36  1  0.11050176  0.50000000  0.75000000  1
  O  O37  1  0.88949824  0.50000000  0.25000000  1
  O  O38  1  0.15191355  0.66288561  0.45713313  1
  O  O39  1  0.15191355  0.33711439  0.04286687  1
  O  O40  1  0.84808645  0.66288561  0.54286687  1
  O  O41  1  0.84808645  0.33711439  0.95713313  1
  O  O42  1  0.84808645  0.33711439  0.54286687  1
  O  O43  1  0.84808645  0.66288561  0.95713313  1
  O  O44  1  0.15191355  0.33711439  0.45713313  1
  O  O45  1  0.15191355  0.66288561  0.04286687  1
  O  O46  1  0.57759813  0.00000000  0.66601786  1
  O  O47  1  0.57759813  0.00000000  0.83398214  1
  O  O48  1  0.42240187  0.00000000  0.33398214  1
  O  O49  1  0.42240187  0.00000000  0.16601786  1
  O  O50  1  0.32529388  0.50000000  0.54974170  1
  O  O51  1  0.32529388  0.50000000  0.95025830  1
  O  O52  1  0.67470612  0.50000000  0.45025830  1
  O  O53  1  0.67470612  0.50000000  0.04974170  1
  O  O54  1  0.82847052  0.00000000  0.53877549  1
  O  O55  1  0.82847052  0.00000000  0.96122451  1
  O  O56  1  0.17152948  0.00000000  0.46122451  1
  O  O57  1  0.17152948  0.00000000  0.03877549  1
  O  O58  1  0.47614894  0.23205043  0.75000000  1
  O  O59  1  0.47614894  0.76794957  0.75000000  1
  O  O60  1  0.52385106  0.23205043  0.25000000  1
  O  O61  1  0.52385106  0.76794957  0.25000000  1
  O  O62  1  0.02082386  0.77219977  0.30956700  1
  O  O63  1  0.02082386  0.22780023  0.19043300  1
  O  O64  1  0.97917614  0.77219977  0.69043300  1
  O  O65  1  0.97917614  0.22780023  0.80956700  1
  O  O66  1  0.97917614  0.22780023  0.69043300  1
  O  O67  1  0.97917614  0.77219977  0.80956700  1
  O  O68  1  0.02082386  0.22780023  0.30956700  1
  O  O69  1  0.02082386  0.77219977  0.19043300  1
  O  O70  1  0.49930636  0.67711043  0.36314470  1
  O  O71  1  0.49930636  0.32288957  0.13685530  1
  O  O72  1  0.67679839  0.84054179  0.04279209  1
  O  O73  1  0.67679839  0.15945821  0.45720791  1
  O  O74  1  0.32320161  0.84054179  0.95720791  1
  O  O75  1  0.32320161  0.15945821  0.54279209  1
  O  O76  1  0.32320161  0.15945821  0.95720791  1
  O  O77  1  0.32320161  0.84054179  0.54279209  1
  O  O78  1  0.67679839  0.15945821  0.04279209  1
  O  O79  1  0.67679839  0.84054179  0.45720791  1
  O  O80  1  0.49930636  0.67711043  0.13685530  1
  O  O81  1  0.49930636  0.32288957  0.36314470  1
  O  O82  1  0.50069364  0.67711043  0.86314470  1
  O  O83  1  0.50069364  0.32288957  0.63685530  1
  O  O84  1  0.50069364  0.32288957  0.86314470  1
  O  O85  1  0.50069364  0.67711043  0.63685530  1
