# generated using pymatgen
data_Cs2Cd3Te4
_symmetry_space_group_name_H-M   'P 1'
_cell_length_a   6.80774038
_cell_length_b   10.82520503
_cell_length_c   10.82520490
_cell_angle_alpha   76.08082524
_cell_angle_beta   71.67302491
_cell_angle_gamma   71.67302642
_symmetry_Int_Tables_number   1
_chemical_formula_structural   Cs2Cd3Te4
_chemical_formula_sum   'Cs4 Cd6 Te8'
_cell_volume   709.94762915
_cell_formula_units_Z   2
loop_
 _symmetry_equiv_pos_site_id
 _symmetry_equiv_pos_as_xyz
  1  'x, y, z'
loop_
 _atom_site_type_symbol
 _atom_site_label
 _atom_site_symmetry_multiplicity
 _atom_site_fract_x
 _atom_site_fract_y
 _atom_site_fract_z
 _atom_site_occupancy
  Cs  Cs0  1  0.73090614  0.87762396  0.12237604  1
  Cs  Cs1  1  0.76909386  0.37762396  0.62237604  1
  Cs  Cs2  1  0.23090614  0.62237604  0.37762396  1
  Cs  Cs3  1  0.26909386  0.12237604  0.87762396  1
  Cd  Cd4  1  0.75000000  0.97794827  0.52205173  1
  Cd  Cd5  1  0.25000000  0.75000000  0.75000000  1
  Cd  Cd6  1  0.25000000  0.47794827  0.02205173  1
  Cd  Cd7  1  0.75000000  0.52205173  0.97794827  1
  Cd  Cd8  1  0.75000000  0.25000000  0.25000000  1
  Cd  Cd9  1  0.25000000  0.02205173  0.47794827  1
  Te  Te10  1  0.63252562  0.27350924  0.01145669  1
  Te  Te11  1  0.41749355  0.22649076  0.48854331  1
  Te  Te12  1  0.58250645  0.77350924  0.51145669  1
  Te  Te13  1  0.08250645  0.01145669  0.27350924  1
  Te  Te14  1  0.36747438  0.72649076  0.98854331  1
  Te  Te15  1  0.13252562  0.51145669  0.77350924  1
  Te  Te16  1  0.86747438  0.48854331  0.22649076  1
  Te  Te17  1  0.91749355  0.98854331  0.72649076  1
