# generated using pymatgen
data_K2Ti(Si2O5)3
_symmetry_space_group_name_H-M   'P 1'
_cell_length_a   6.90204762
_cell_length_b   7.65160533
_cell_length_c   12.80581980
_cell_angle_alpha   90.00000000
_cell_angle_beta   90.00000000
_cell_angle_gamma   106.30692620
_symmetry_Int_Tables_number   1
_chemical_formula_structural   K2Ti(Si2O5)3
_chemical_formula_sum   'K4 Ti2 Si12 O30'
_cell_volume   649.09114332
_cell_formula_units_Z   2
loop_
 _symmetry_equiv_pos_site_id
 _symmetry_equiv_pos_as_xyz
  1  'x, y, z'
loop_
 _atom_site_type_symbol
 _atom_site_label
 _atom_site_symmetry_multiplicity
 _atom_site_fract_x
 _atom_site_fract_y
 _atom_site_fract_z
 _atom_site_occupancy
  K  K0  1  0.80191579  0.85129203  0.89166391  1
  K  K1  1  0.81330717  0.57812328  0.59291893  1
  K  K2  1  0.18669283  0.42187672  0.09291893  1
  K  K3  1  0.19808421  0.14870797  0.39166391  1
  Ti  Ti4  1  0.24388388  0.75132133  0.75089560  1
  Ti  Ti5  1  0.75611612  0.24867867  0.25089560  1
  Si  Si6  1  0.30518215  0.93080122  0.99328846  1
  Si  Si7  1  0.45213295  0.44448349  0.83363419  1
  Si  Si8  1  0.54786705  0.55551651  0.33363419  1
  Si  Si9  1  0.69481785  0.06919878  0.49328846  1
  Si  Si10  1  0.32768109  0.70797999  0.49088779  1
  Si  Si11  1  0.54233997  0.83398652  0.16551918  1
  Si  Si12  1  0.01270905  0.04303212  0.65746611  1
  Si  Si13  1  0.67231891  0.29202001  0.99088779  1
  Si  Si14  1  0.99238864  0.67022112  0.32192261  1
  Si  Si15  1  0.00761136  0.32977888  0.82192261  1
  Si  Si16  1  0.45765903  0.16601348  0.66551918  1
  Si  Si17  1  0.98729095  0.95696788  0.15746611  1
  O  O18  1  0.46070370  0.65641990  0.24012358  1
  O  O19  1  0.79713052  0.17174367  0.39173688  1
  O  O20  1  0.44198602  0.97756942  0.72195325  1
  O  O21  1  0.97542899  0.47576695  0.27363129  1
  O  O22  1  0.50011750  0.89829313  0.47152590  1
  O  O23  1  0.02333303  0.85587876  0.70744340  1
  O  O24  1  0.49988250  0.10170687  0.97152590  1
  O  O25  1  0.54722165  0.35488389  0.30108234  1
  O  O26  1  0.61576081  0.20893296  0.56797776  1
  O  O27  1  0.20286948  0.82825633  0.89173688  1
  O  O28  1  0.45277835  0.64511611  0.80108234  1
  O  O29  1  0.38423919  0.79106704  0.06797776  1
  O  O30  1  0.59189457  0.45335571  0.93738831  1
  O  O31  1  0.22766014  0.31882901  0.86425241  1
  O  O32  1  0.97666697  0.14412224  0.20744340  1
  O  O33  1  0.53929630  0.34358010  0.74012358  1
  O  O34  1  0.13165057  0.72326092  0.42536630  1
  O  O35  1  0.92437451  0.16283996  0.73994912  1
  O  O36  1  0.55801398  0.02243058  0.22195325  1
  O  O37  1  0.86834943  0.27673908  0.92536630  1
  O  O38  1  0.77233986  0.68117099  0.36425241  1
  O  O39  1  0.40810543  0.54664429  0.43738831  1
  O  O40  1  0.07562549  0.83716004  0.23994912  1
  O  O41  1  0.02457101  0.52423305  0.77363129  1
  O  O42  1  0.26673344  0.66561154  0.60903652  1
  O  O43  1  0.73326656  0.33438846  0.10903652  1
  O  O44  1  0.23577102  0.16357553  0.61770185  1
  O  O45  1  0.76422898  0.83642447  0.11770185  1
  O  O46  1  0.13537385  -0.00008934  0.05673431  1
  O  O47  1  0.86462615  0.00008934  0.55673431  1
