# generated using pymatgen
data_As2P2S7
_symmetry_space_group_name_H-M   'P 1'
_cell_length_a   8.43784178
_cell_length_b   11.51137924
_cell_length_c   12.19585330
_cell_angle_alpha   85.10424502
_cell_angle_beta   90.00000000
_cell_angle_gamma   90.00000000
_symmetry_Int_Tables_number   1
_chemical_formula_structural   As2P2S7
_chemical_formula_sum   'As8 P8 S28'
_cell_volume   1180.27596596
_cell_formula_units_Z   4
loop_
 _symmetry_equiv_pos_site_id
 _symmetry_equiv_pos_as_xyz
  1  'x, y, z'
loop_
 _atom_site_type_symbol
 _atom_site_label
 _atom_site_symmetry_multiplicity
 _atom_site_fract_x
 _atom_site_fract_y
 _atom_site_fract_z
 _atom_site_occupancy
  As  As0  1  0.11430318  0.67499907  0.66255923  1
  As  As1  1  0.61430318  0.82500093  0.33744077  1
  As  As2  1  0.88569682  0.32500093  0.33744077  1
  As  As3  1  0.38569682  0.17499907  0.66255923  1
  As  As4  1  0.91926935  0.64109538  0.82428873  1
  As  As5  1  0.41926935  0.85890462  0.17571127  1
  As  As6  1  0.08073065  0.35890462  0.17571127  1
  As  As7  1  0.58073065  0.14109538  0.82428873  1
  P  P8  1  0.14611738  0.88348452  0.84265869  1
  P  P9  1  0.64611738  0.61651548  0.15734131  1
  P  P10  1  0.85388262  0.11651548  0.15734131  1
  P  P11  1  0.35388262  0.38348452  0.84265869  1
  P  P12  1  0.83032570  0.88657522  0.65753623  1
  P  P13  1  0.33032570  0.61342478  0.34246377  1
  P  P14  1  0.16967430  0.11342478  0.34246377  1
  P  P15  1  0.66967430  0.38657522  0.65753623  1
  S  S16  1  0.97950882  0.98852230  0.75044202  1
  S  S17  1  0.47950882  0.51147770  0.24955798  1
  S  S18  1  0.02049118  0.01147770  0.24955798  1
  S  S19  1  0.52049118  0.48852230  0.75044202  1
  S  S20  1  0.28621565  0.79779588  0.73584307  1
  S  S21  1  0.78621565  0.70220412  0.26415693  1
  S  S22  1  0.71378435  0.20220412  0.26415693  1
  S  S23  1  0.21378435  0.29779588  0.73584307  1
  S  S24  1  0.96890692  0.79956631  0.54955087  1
  S  S25  1  0.46890692  0.70043369  0.45044913  1
  S  S26  1  0.03109308  0.20043369  0.45044913  1
  S  S27  1  0.53109308  0.29956631  0.54955087  1
  S  S28  1  0.03081512  0.75729497  0.94432170  1
  S  S29  1  0.53081512  0.74270503  0.05567830  1
  S  S30  1  0.96918488  0.24270503  0.05567830  1
  S  S31  1  0.46918488  0.25729497  0.94432170  1
  S  S32  1  0.71922576  0.75934789  0.75996078  1
  S  S33  1  0.21922576  0.74065211  0.24003922  1
  S  S34  1  0.28077424  0.24065211  0.24003922  1
  S  S35  1  0.78077424  0.25934789  0.75996078  1
  S  S36  1  0.26458742  0.99151205  0.92413253  1
  S  S37  1  0.76458742  0.50848795  0.07586747  1
  S  S38  1  0.73541258  0.00848795  0.07586747  1
  S  S39  1  0.23541258  0.49151205  0.92413253  1
  S  S40  1  0.68064899  0.99244361  0.58243224  1
  S  S41  1  0.18064899  0.50755639  0.41756776  1
  S  S42  1  0.31935101  0.00755639  0.41756776  1
  S  S43  1  0.81935101  0.49244361  0.58243224  1
