# generated using pymatgen
data_V5O9
_symmetry_space_group_name_H-M   'P 1'
_cell_length_a   5.49466712
_cell_length_b   6.99947487
_cell_length_c   8.38323055
_cell_angle_alpha   69.39883636
_cell_angle_beta   74.98751319
_cell_angle_gamma   70.60447418
_symmetry_Int_Tables_number   1
_chemical_formula_structural   V5O9
_chemical_formula_sum   'V10 O18'
_cell_volume   280.95663139
_cell_formula_units_Z   2
loop_
 _symmetry_equiv_pos_site_id
 _symmetry_equiv_pos_as_xyz
  1  'x, y, z'
loop_
 _atom_site_type_symbol
 _atom_site_label
 _atom_site_symmetry_multiplicity
 _atom_site_fract_x
 _atom_site_fract_y
 _atom_site_fract_z
 _atom_site_occupancy
  V  V0  1  0.72036765  0.82309663  0.42179036  1
  V  V1  1  0.28033324  0.17635834  0.57741550  1
  V  V2  1  0.72124590  0.32233209  0.42316650  1
  V  V3  1  0.27819901  0.67767308  0.57698698  1
  V  V4  1  0.35023541  0.65772109  0.20502338  1
  V  V5  1  0.65091583  0.34176277  0.79515265  1
  V  V6  1  0.34124780  0.16586098  0.20248319  1
  V  V7  1  0.65759219  0.83440293  0.79782229  1
  V  V8  1  0.00024428  0.50021593  0.00003492  1
  V  V9  1  0.99948801  0.00077901  0.99953225  1
  O  O10  1  0.05970542  0.20489586  0.41888620  1
  O  O11  1  0.94002491  0.79480279  0.58111147  1
  O  O12  1  0.71569073  0.50944557  0.19973182  1
  O  O13  1  0.28527225  0.49072294  0.80021259  1
  O  O14  1  0.62419559  0.15109201  0.02251807  1
  O  O15  1  0.37470436  0.84904740  0.97779595  1
  O  O16  1  0.91145119  0.80797781  0.92071304  1
  O  O17  1  0.08767372  0.19252557  0.07922310  1
  O  O18  1  0.25862737  0.46587386  0.13876103  1
  O  O19  1  0.74157114  0.53439747  0.86143971  1
  O  O20  1  0.31260638  0.46924904  0.45954975  1
  O  O21  1  0.68770698  0.53055855  0.54053340  1
  O  O22  1  0.02654370  0.18663943  0.75959490  1
  O  O23  1  0.97370807  0.81337274  0.24047491  1
  O  O24  1  0.58037870  0.13430659  0.36592676  1
  O  O25  1  0.41992017  0.86522006  0.63384615  1
  O  O26  1  0.40668666  0.85051042  0.32383662  1
  O  O27  1  0.59366534  0.14915804  0.67643348  1
