# generated using pymatgen
data_PdSeO3
_symmetry_space_group_name_H-M   'P 1'
_cell_length_a   4.94391530
_cell_length_b   4.94377634
_cell_length_c   7.04674511
_cell_angle_alpha   109.44137619
_cell_angle_beta   109.44782366
_cell_angle_gamma   90.67431604
_symmetry_Int_Tables_number   1
_chemical_formula_structural   PdSeO3
_chemical_formula_sum   'Pd2 Se2 O6'
_cell_volume   151.68456218
_cell_formula_units_Z   2
loop_
 _symmetry_equiv_pos_site_id
 _symmetry_equiv_pos_as_xyz
  1  'x, y, z'
loop_
 _atom_site_type_symbol
 _atom_site_label
 _atom_site_symmetry_multiplicity
 _atom_site_fract_x
 _atom_site_fract_y
 _atom_site_fract_z
 _atom_site_occupancy
  Pd  Pd0  1  0.50000234  -0.00001002  -0.00000453  1
  Pd  Pd1  1  0.00000552  0.49998386  0.00000279  1
  Se  Se2  1  0.33400290  0.33403456  0.64712011  1
  Se  Se3  1  0.66598769  0.66599186  0.35288543  1
  O  O4  1  0.95895548  0.57042151  0.28646034  1
  O  O5  1  0.57044632  0.95894893  0.28644974  1
  O  O6  1  0.39099503  0.39097319  0.13451602  1
  O  O7  1  0.04103802  0.42957574  0.71355539  1
  O  O8  1  0.60900876  0.60901055  0.86547737  1
  O  O9  1  0.42955594  0.04106783  0.71353733  1
