# generated using pymatgen
data_CoSeO4
_symmetry_space_group_name_H-M   'P 1'
_cell_length_a   4.83592906
_cell_length_b   6.56917879
_cell_length_c   8.90494383
_cell_angle_alpha   89.99868969
_cell_angle_beta   89.99456325
_cell_angle_gamma   89.99829736
_symmetry_Int_Tables_number   1
_chemical_formula_structural   CoSeO4
_chemical_formula_sum   'Co4 Se4 O16'
_cell_volume   282.89298947
_cell_formula_units_Z   4
loop_
 _symmetry_equiv_pos_site_id
 _symmetry_equiv_pos_as_xyz
  1  'x, y, z'
loop_
 _atom_site_type_symbol
 _atom_site_label
 _atom_site_symmetry_multiplicity
 _atom_site_fract_x
 _atom_site_fract_y
 _atom_site_fract_z
 _atom_site_occupancy
  Co  Co0  1  0.49999752  -0.00000383  0.49999875  1
  Co  Co1  1  -0.00000748  0.00000529  -0.00000073  1
  Co  Co2  1  -0.00000402  0.50000232  -0.00000017  1
  Co  Co3  1  0.49999932  0.50000386  0.50000281  1
  Se  Se4  1  0.96603116  0.74997782  0.31721722  1
  Se  Se5  1  0.46594518  0.24995692  0.18273881  1
  Se  Se6  1  0.53404043  0.75004009  0.81726828  1
  Se  Se7  1  0.03398403  0.25002113  0.68278364  1
  O  O8  1  0.79203485  0.24996560  0.12399160  1
  O  O9  1  0.70789223  0.25002698  0.62404522  1
  O  O10  1  0.29211888  0.74997001  0.37595521  1
  O  O11  1  0.20795564  0.75004312  0.87600777  1
  O  O12  1  0.57807020  0.75002482  0.62733429  1
  O  O13  1  0.42192558  0.24997532  0.37266870  1
  O  O14  1  0.92197950  0.74998791  0.12726053  1
  O  O15  1  0.07803122  0.25001465  0.87273941  1
  O  O16  1  0.81750898  0.96353467  0.37409691  1
  O  O17  1  0.18250013  0.46357692  0.62591168  1
  O  O18  1  0.18249634  0.03646119  0.62589901  1
  O  O19  1  0.68251944  0.96358718  0.87416097  1
  O  O20  1  0.81750235  0.53642230  0.37408556  1
  O  O21  1  0.68252569  0.53645727  0.87416948  1
  O  O22  1  0.31747173  0.46354174  0.12582799  1
  O  O23  1  0.31747908  0.03640673  0.12583606  1
