# generated using pymatgen
data_CsBO2
_symmetry_space_group_name_H-M   'P 1'
_cell_length_a   8.38039840
_cell_length_b   8.38039840
_cell_length_c   8.38039942
_cell_angle_alpha   109.47538418
_cell_angle_beta   109.47538418
_cell_angle_gamma   109.47539762
_symmetry_Int_Tables_number   1
_chemical_formula_structural   CsBO2
_chemical_formula_sum   'Cs6 B6 O12'
_cell_volume   453.00721671
_cell_formula_units_Z   6
loop_
 _symmetry_equiv_pos_site_id
 _symmetry_equiv_pos_as_xyz
  1  'x, y, z'
loop_
 _atom_site_type_symbol
 _atom_site_label
 _atom_site_symmetry_multiplicity
 _atom_site_fract_x
 _atom_site_fract_y
 _atom_site_fract_z
 _atom_site_occupancy
  Cs  Cs0  1  0.25000000  0.80948974  0.69051026  1
  Cs  Cs1  1  0.80948974  0.69051026  0.25000000  1
  Cs  Cs2  1  0.75000000  0.19051026  0.30948974  1
  Cs  Cs3  1  0.30948974  0.75000000  0.19051026  1
  Cs  Cs4  1  0.69051026  0.25000000  0.80948974  1
  Cs  Cs5  1  0.19051026  0.30948974  0.75000000  1
  B  B6  1  0.14403860  0.35596140  0.25000000  1
  B  B7  1  0.64403860  0.75000000  0.85596140  1
  B  B8  1  0.75000000  0.85596140  0.64403860  1
  B  B9  1  0.85596140  0.64403860  0.75000000  1
  B  B10  1  0.25000000  0.14403860  0.35596140  1
  B  B11  1  0.35596140  0.25000000  0.14403860  1
  O  O12  1  0.25000000  0.35092089  0.14907911  1
  O  O13  1  0.64907911  0.85092089  0.75000000  1
  O  O14  1  0.75000000  0.64907911  0.85092089  1
  O  O15  1  0.75000000  0.95232085  0.54767915  1
  O  O16  1  0.04767915  0.45232085  0.25000000  1
  O  O17  1  0.45232085  0.25000000  0.04767915  1
  O  O18  1  0.95232085  0.54767915  0.75000000  1
  O  O19  1  0.35092089  0.14907911  0.25000000  1
  O  O20  1  0.85092089  0.75000000  0.64907911  1
  O  O21  1  0.14907911  0.25000000  0.35092089  1
  O  O22  1  0.25000000  0.04767915  0.45232085  1
  O  O23  1  0.54767915  0.75000000  0.95232085  1
