# generated using pymatgen
data_Bi2WO6
_symmetry_space_group_name_H-M   'P 1'
_cell_length_a   8.31958214
_cell_length_b   8.31958214
_cell_length_c   8.24255817
_cell_angle_alpha   78.15407661
_cell_angle_beta   78.15407661
_cell_angle_gamma   26.49691594
_symmetry_Int_Tables_number   1
_chemical_formula_structural   Bi2WO6
_chemical_formula_sum   'Bi4 W2 O12'
_cell_volume   248.80917461
_cell_formula_units_Z   2
loop_
 _symmetry_equiv_pos_site_id
 _symmetry_equiv_pos_as_xyz
  1  'x, y, z'
loop_
 _atom_site_type_symbol
 _atom_site_label
 _atom_site_symmetry_multiplicity
 _atom_site_fract_x
 _atom_site_fract_y
 _atom_site_fract_z
 _atom_site_occupancy
  Bi  Bi0  1  0.32019372  0.32019372  0.60351506  1
  Bi  Bi1  1  0.67980628  0.67980628  0.39648494  1
  Bi  Bi2  1  0.66701211  0.66701211  0.92869777  1
  Bi  Bi3  1  0.33298789  0.33298789  0.07130223  1
  W  W4  1  0.99671984  0.99671984  0.70367434  1
  W  W5  1  0.00328016  0.00328016  0.29632566  1
  O  O6  1  0.24835049  0.24835049  0.88092941  1
  O  O7  1  0.26779183  0.26779183  0.36464634  1
  O  O8  1  0.07838260  0.07838260  0.48659471  1
  O  O9  1  0.73220817  0.73220817  0.63535366  1
  O  O10  1  0.92603437  0.92603437  0.17119889  1
  O  O11  1  0.10753411  0.10753411  0.15657123  1
  O  O12  1  0.92161740  0.92161740  0.51340529  1
  O  O13  1  0.89246589  0.89246589  0.84342877  1
  O  O14  1  0.75164951  0.75164951  0.11907059  1
  O  O15  1  0.07396563  0.07396563  0.82880111  1
  O  O16  1  0.49396816  0.49396816  0.68456479  1
  O  O17  1  0.50603184  0.50603184  0.31543521  1
