# generated using pymatgen
data_K2AgI3
_symmetry_space_group_name_H-M   'P 1'
_cell_length_a   4.81663795
_cell_length_b   10.07334798
_cell_length_c   19.63722340
_cell_angle_alpha   90.00000000
_cell_angle_beta   90.00000000
_cell_angle_gamma   90.00000000
_symmetry_Int_Tables_number   1
_chemical_formula_structural   K2AgI3
_chemical_formula_sum   'K8 Ag4 I12'
_cell_volume   952.79160231
_cell_formula_units_Z   4
loop_
 _symmetry_equiv_pos_site_id
 _symmetry_equiv_pos_as_xyz
  1  'x, y, z'
loop_
 _atom_site_type_symbol
 _atom_site_label
 _atom_site_symmetry_multiplicity
 _atom_site_fract_x
 _atom_site_fract_y
 _atom_site_fract_z
 _atom_site_occupancy
  K  K0  1  0.75000000  0.25132288  0.03928412  1
  K  K1  1  0.25000000  0.74867712  0.96071588  1
  K  K2  1  0.75000000  0.75132288  0.46071588  1
  K  K3  1  0.25000000  0.24867712  0.53928412  1
  K  K4  1  0.75000000  0.92198349  0.71297719  1
  K  K5  1  0.25000000  0.57801651  0.21297719  1
  K  K6  1  0.75000000  0.42198349  0.78702281  1
  K  K7  1  0.25000000  0.07801651  0.28702281  1
  Ag  Ag8  1  0.25000000  0.12680597  0.86418072  1
  Ag  Ag9  1  0.25000000  0.62680597  0.63581928  1
  Ag  Ag10  1  0.75000000  0.87319403  0.13581928  1
  Ag  Ag11  1  0.75000000  0.37319403  0.36418072  1
  I  I12  1  0.75000000  0.48909092  0.59836055  1
  I  I13  1  0.25000000  0.01090908  0.09836055  1
  I  I14  1  0.25000000  0.68861236  0.77762547  1
  I  I15  1  0.75000000  0.81138764  0.27762547  1
  I  I16  1  0.25000000  0.88036713  0.57197469  1
  I  I17  1  0.75000000  0.11963287  0.42802531  1
  I  I18  1  0.25000000  0.51090908  0.40163945  1
  I  I19  1  0.75000000  0.61963287  0.07197469  1
  I  I20  1  0.25000000  0.38036713  0.92802531  1
  I  I21  1  0.75000000  0.31138764  0.22237453  1
  I  I22  1  0.25000000  0.18861236  0.72237453  1
  I  I23  1  0.75000000  0.98909092  0.90163945  1
