# generated using pymatgen
data_RbFeF4
_symmetry_space_group_name_H-M   'P 1'
_cell_length_a   6.16375800
_cell_length_b   7.64878006
_cell_length_c   7.70423055
_cell_angle_alpha   90.00000000
_cell_angle_beta   90.00000000
_cell_angle_gamma   90.00000000
_symmetry_Int_Tables_number   1
_chemical_formula_structural   RbFeF4
_chemical_formula_sum   'Rb4 Fe4 F16'
_cell_volume   363.21771574
_cell_formula_units_Z   4
loop_
 _symmetry_equiv_pos_site_id
 _symmetry_equiv_pos_as_xyz
  1  'x, y, z'
loop_
 _atom_site_type_symbol
 _atom_site_label
 _atom_site_symmetry_multiplicity
 _atom_site_fract_x
 _atom_site_fract_y
 _atom_site_fract_z
 _atom_site_occupancy
  Rb  Rb0  1  0.48254400  0.29585531  0.25000000  1
  Rb  Rb1  1  0.48254400  0.20414469  0.75000000  1
  Rb  Rb2  1  0.51745600  0.79585531  0.25000000  1
  Rb  Rb3  1  0.51745600  0.70414469  0.75000000  1
  Fe  Fe4  1  0.00000000  -0.00000000  -0.00000000  1
  Fe  Fe5  1  0.00000000  0.50000000  -0.00000000  1
  Fe  Fe6  1  0.00000000  0.50000000  0.50000000  1
  Fe  Fe7  1  0.00000000  -0.00000000  0.50000000  1
  F  F8  1  0.71336155  0.06024349  0.45067578  1
  F  F9  1  0.71336155  0.43975651  0.54932422  1
  F  F10  1  0.28663845  0.56024349  0.04932422  1
  F  F11  1  0.28663845  0.93975651  0.95067578  1
  F  F12  1  0.28663845  0.93975651  0.54932422  1
  F  F13  1  0.28663845  0.56024349  0.45067578  1
  F  F14  1  0.71336155  0.43975651  0.95067578  1
  F  F15  1  0.71336155  0.06024349  0.04932422  1
  F  F16  1  0.09555460  0.25000000  -0.00000000  1
  F  F17  1  0.90444540  0.75000000  0.50000000  1
  F  F18  1  0.90444540  0.75000000  -0.00000000  1
  F  F19  1  0.09555460  0.25000000  0.50000000  1
  F  F20  1  0.07625142  0.98409398  0.25000000  1
  F  F21  1  0.07625142  0.51590602  0.75000000  1
  F  F22  1  0.92374858  0.48409398  0.25000000  1
  F  F23  1  0.92374858  0.01590602  0.75000000  1
