# generated using pymatgen
data_VOF3
_symmetry_space_group_name_H-M   'P 1'
_cell_length_a   5.06642859
_cell_length_b   5.57441146
_cell_length_c   9.31507320
_cell_angle_alpha   91.01902994
_cell_angle_beta   90.00000000
_cell_angle_gamma   90.00000000
_symmetry_Int_Tables_number   1
_chemical_formula_structural   VOF3
_chemical_formula_sum   'V4 O4 F12'
_cell_volume   263.03802071
_cell_formula_units_Z   4
loop_
 _symmetry_equiv_pos_site_id
 _symmetry_equiv_pos_as_xyz
  1  'x, y, z'
loop_
 _atom_site_type_symbol
 _atom_site_label
 _atom_site_symmetry_multiplicity
 _atom_site_fract_x
 _atom_site_fract_y
 _atom_site_fract_z
 _atom_site_occupancy
  V  V0  1  0.58715358  0.67149237  0.87613246  1
  V  V1  1  0.91284642  0.67149237  0.37613246  1
  V  V2  1  0.08715358  0.32850763  0.62386754  1
  V  V3  1  0.41284642  0.32850763  0.12386754  1
  O  O4  1  0.16561795  0.19941832  0.05612205  1
  O  O5  1  0.66561795  0.80058168  0.44387795  1
  O  O6  1  0.33438205  0.19941832  0.55612205  1
  O  O7  1  0.83438205  0.80058168  0.94387795  1
  F  F8  1  0.39800589  0.90518069  0.81183288  1
  F  F9  1  0.60199411  0.09481931  0.18816712  1
  F  F10  1  0.21745998  0.45439864  0.78697042  1
  F  F11  1  0.28254002  0.45439864  0.28697042  1
  F  F12  1  0.36400901  0.65163823  0.04348587  1
  F  F13  1  0.78254002  0.54560136  0.21302958  1
  F  F14  1  0.86400901  0.34836177  0.45651413  1
  F  F15  1  0.13599099  0.65163823  0.54348587  1
  F  F16  1  0.89800589  0.09481931  0.68816712  1
  F  F17  1  0.71745998  0.54560136  0.71302958  1
  F  F18  1  0.63599099  0.34836177  0.95651413  1
  F  F19  1  0.10199411  0.90518069  0.31183288  1
