# generated using pymatgen
data_Rb8Fe2O7
_symmetry_space_group_name_H-M   'P 1'
_cell_length_a   17.40947717
_cell_length_b   6.91011833
_cell_length_c   6.97264993
_cell_angle_alpha   61.04336821
_cell_angle_beta   90.00000000
_cell_angle_gamma   90.00000000
_symmetry_Int_Tables_number   1
_chemical_formula_structural   Rb8Fe2O7
_chemical_formula_sum   'Rb16 Fe4 O14'
_cell_volume   733.95660959
_cell_formula_units_Z   2
loop_
 _symmetry_equiv_pos_site_id
 _symmetry_equiv_pos_as_xyz
  1  'x, y, z'
loop_
 _atom_site_type_symbol
 _atom_site_label
 _atom_site_symmetry_multiplicity
 _atom_site_fract_x
 _atom_site_fract_y
 _atom_site_fract_z
 _atom_site_occupancy
  Rb  Rb0  1  0.71119800  0.55064033  0.23556221  1
  Rb  Rb1  1  0.58039134  0.00452855  0.63896305  1
  Rb  Rb2  1  0.78880200  0.05064033  0.23556221  1
  Rb  Rb3  1  0.28880200  0.44935967  0.76443779  1
  Rb  Rb4  1  0.69038606  0.45367094  0.78105866  1
  Rb  Rb5  1  0.41960866  0.99547145  0.36103695  1
  Rb  Rb6  1  0.30961394  0.54632906  0.21894134  1
  Rb  Rb7  1  0.50488689  0.54210148  0.22856182  1
  Rb  Rb8  1  0.80961394  0.95367094  0.78105866  1
  Rb  Rb9  1  0.99511311  0.04210148  0.22856182  1
  Rb  Rb10  1  0.08039134  0.49547145  0.36103695  1
  Rb  Rb11  1  0.00488689  0.95789852  0.77143818  1
  Rb  Rb12  1  0.49511311  0.45789852  0.77143818  1
  Rb  Rb13  1  0.91960866  0.50452855  0.63896305  1
  Rb  Rb14  1  0.19038606  0.04632906  0.21894134  1
  Rb  Rb15  1  0.21119800  0.94935967  0.76443779  1
  Fe  Fe16  1  0.09720075  0.50036838  0.85697245  1
  Fe  Fe17  1  0.40279925  0.00036838  0.85697245  1
  Fe  Fe18  1  0.59720075  0.99963162  0.14302755  1
  Fe  Fe19  1  0.90279925  0.49963162  0.14302755  1
  O  O20  1  0.32346852  0.00324276  0.04164531  1
  O  O21  1  0.39935947  0.25719569  0.58049069  1
  O  O22  1  0.89935947  0.24280431  0.41950931  1
  O  O23  1  0.10064053  0.75719569  0.58049069  1
  O  O24  1  0.17653148  0.50324276  0.04164531  1
  O  O25  1  0.39528043  0.73985056  0.83348087  1
  O  O26  1  0.89528043  0.76014944  0.16651913  1
  O  O27  1  0.60064053  0.74280431  0.41950931  1
  O  O28  1  -0.00000000  0.50000000  -0.00000000  1
  O  O29  1  0.60471957  0.26014944  0.16651913  1
  O  O30  1  0.67653148  0.99675724  0.95835469  1
  O  O31  1  0.82346852  0.49675724  0.95835469  1
  O  O32  1  0.50000000  0.00000000  -0.00000000  1
  O  O33  1  0.10471957  0.23985056  0.83348087  1
