# generated using pymatgen
data_SrBi6(PO5)4
_symmetry_space_group_name_H-M   'P 1'
_cell_length_a   6.96594112
_cell_length_b   7.61112091
_cell_length_c   9.14701203
_cell_angle_alpha   107.14877840
_cell_angle_beta   93.45929597
_cell_angle_gamma   112.00609274
_symmetry_Int_Tables_number   1
_chemical_formula_structural   SrBi6(PO5)4
_chemical_formula_sum   'Sr1 Bi6 P4 O20'
_cell_volume   421.57766569
_cell_formula_units_Z   1
loop_
 _symmetry_equiv_pos_site_id
 _symmetry_equiv_pos_as_xyz
  1  'x, y, z'
loop_
 _atom_site_type_symbol
 _atom_site_label
 _atom_site_symmetry_multiplicity
 _atom_site_fract_x
 _atom_site_fract_y
 _atom_site_fract_z
 _atom_site_occupancy
  Sr  Sr0  1  -0.00000000  0.50000000  0.00000000  1
  Bi  Bi1  1  0.19185568  0.19650771  0.67114847  1
  Bi  Bi2  1  0.56329237  0.71016374  0.91411755  1
  Bi  Bi3  1  0.33074433  0.62659636  0.50728244  1
  Bi  Bi4  1  0.80814432  0.80349229  0.32885153  1
  Bi  Bi5  1  0.43670763  0.28983626  0.08588245  1
  Bi  Bi6  1  0.66925567  0.37340364  0.49271756  1
  P  P7  1  0.04814740  0.76930432  0.75620457  1
  P  P8  1  0.65347238  0.10057345  0.74148421  1
  P  P9  1  0.95185260  0.23069568  0.24379543  1
  P  P10  1  0.34652762  0.89942655  0.25851579  1
  O  O11  1  0.35266960  0.82795850  0.08446433  1
  O  O12  1  0.44591479  0.47201586  0.63628978  1
  O  O13  1  0.86938293  0.23759256  0.71982479  1
  O  O14  1  0.21386659  0.67948250  0.75876416  1
  O  O15  1  0.62599654  0.87950288  0.68450530  1
  O  O16  1  0.87665521  0.67184796  0.84054900  1
  O  O17  1  0.85187248  -0.00057609  0.16803097  1
  O  O18  1  0.32012567  0.40702361  0.90255347  1
  O  O19  1  0.12334479  0.32815204  0.15945100  1
  O  O20  1  0.52040167  0.87866429  0.35558037  1
  O  O21  1  0.37400346  0.12049712  0.31549470  1
  O  O22  1  0.67987433  0.59297639  0.09744653  1
  O  O23  1  0.95410696  0.71094088  0.58199666  1
  O  O24  1  0.14812752  0.00057609  0.83196903  1
  O  O25  1  0.13061707  0.76240744  0.28017521  1
  O  O26  1  0.55408521  0.52798414  0.36371022  1
  O  O27  1  0.64733040  0.17204150  0.91553567  1
  O  O28  1  0.78613341  0.32051750  0.24123584  1
  O  O29  1  0.47959833  0.12133571  0.64441963  1
  O  O30  1  0.04589304  0.28905912  0.41800334  1
