# generated using pymatgen
data_Dy5C2Br9
_symmetry_space_group_name_H-M   'P 1'
_cell_length_a   16.40206965
_cell_length_b   9.98956207
_cell_length_c   13.36665831
_cell_angle_alpha   58.44736334
_cell_angle_beta   90.00000000
_cell_angle_gamma   90.00000000
_symmetry_Int_Tables_number   1
_chemical_formula_structural   Dy5C2Br9
_chemical_formula_sum   'Dy20 C8 Br36'
_cell_volume   1866.33236626
_cell_formula_units_Z   4
loop_
 _symmetry_equiv_pos_site_id
 _symmetry_equiv_pos_as_xyz
  1  'x, y, z'
loop_
 _atom_site_type_symbol
 _atom_site_label
 _atom_site_symmetry_multiplicity
 _atom_site_fract_x
 _atom_site_fract_y
 _atom_site_fract_z
 _atom_site_occupancy
  Dy  Dy0  1  0.54070264  0.66244284  0.96457000  1
  Dy  Dy1  1  0.44177420  0.86005768  0.68732105  1
  Dy  Dy2  1  0.18663048  0.71456862  0.44494699  1
  Dy  Dy3  1  0.55611023  0.50696552  0.73688811  1
  Dy  Dy4  1  0.83793602  0.48876735  0.72129425  1
  Dy  Dy5  1  0.31336952  0.71456862  0.94494699  1
  Dy  Dy6  1  0.95929736  0.66244284  0.46457000  1
  Dy  Dy7  1  0.94388977  0.50696552  0.23688811  1
  Dy  Dy8  1  0.66206398  0.48876735  0.22129425  1
  Dy  Dy9  1  0.05822580  0.86005768  0.18732105  1
  Dy  Dy10  1  0.44388977  0.49303448  0.26311189  1
  Dy  Dy11  1  0.45929736  0.33755716  0.03543000  1
  Dy  Dy12  1  0.04070264  0.33755716  0.53543000  1
  Dy  Dy13  1  0.94177420  0.13994232  0.81267895  1
  Dy  Dy14  1  0.81336952  0.28543138  0.55505301  1
  Dy  Dy15  1  0.55822580  0.13994232  0.31267895  1
  Dy  Dy16  1  0.16206398  0.51123265  0.27870575  1
  Dy  Dy17  1  0.33793602  0.51123265  0.77870575  1
  Dy  Dy18  1  0.68663048  0.28543138  0.05505301  1
  Dy  Dy19  1  0.05611023  0.49303448  0.76311189  1
  C  C20  1  0.03002854  0.57335004  0.33013988  1
  C  C21  1  0.46997146  0.57335004  0.83013988  1
  C  C22  1  0.96997146  0.42664996  0.66986012  1
  C  C23  1  0.53002854  0.42664996  0.16986012  1
  C  C24  1  0.91109986  0.37188989  0.61948483  1
  C  C25  1  0.41109986  0.62811011  0.88051517  1
  C  C26  1  0.58890014  0.37188989  0.11948483  1
  C  C27  1  0.08890014  0.62811011  0.38051517  1
  Br  Br28  1  0.06886687  0.80196018  0.55804237  1
  Br  Br29  1  0.19188266  0.59798451  0.85876778  1
  Br  Br30  1  0.18123698  0.00746330  0.24667023  1
  Br  Br31  1  0.93235538  0.59042932  0.84789942  1
  Br  Br32  1  0.56764462  0.59042932  0.34789942  1
  Br  Br33  1  0.56886687  0.19803982  0.94195763  1
  Br  Br34  1  0.32613027  0.21569423  0.96829952  1
  Br  Br35  1  0.81759632  0.19594963  0.93912545  1
  Br  Br36  1  0.19957337  0.41633936  0.67087359  1
  Br  Br37  1  0.06396362  0.03095722  0.73733716  1
  Br  Br38  1  0.05868490  0.18072628  0.95984797  1
  Br  Br39  1  0.55868490  0.81927372  0.54015203  1
  Br  Br40  1  0.31759632  0.80405037  0.56087455  1
  Br  Br41  1  0.69957337  0.58366064  0.82912641  1
  Br  Br42  1  0.81876302  0.99253670  0.75332977  1
  Br  Br43  1  0.17386973  0.21569423  0.46829952  1
  Br  Br44  1  0.68123698  0.99253670  0.25332977  1
  Br  Br45  1  0.82613027  0.78430577  0.53170048  1
  Br  Br46  1  0.93113313  0.19803982  0.44195763  1
  Br  Br47  1  0.56396362  0.96904278  0.76266284  1
  Br  Br48  1  0.06764462  0.40957068  0.15210058  1
  Br  Br49  1  0.30811734  0.59798451  0.35876778  1
  Br  Br50  1  0.30042663  0.41633936  0.17087359  1
  Br  Br51  1  0.80042663  0.58366064  0.32912641  1
  Br  Br52  1  0.43113313  0.80196018  0.05804237  1
  Br  Br53  1  0.93603638  0.96904278  0.26266284  1
  Br  Br54  1  0.43603638  0.03095722  0.23733716  1
  Br  Br55  1  0.80811734  0.40201549  0.14123222  1
  Br  Br56  1  0.31876302  0.00746330  0.74667023  1
  Br  Br57  1  0.44131510  0.18072628  0.45984797  1
  Br  Br58  1  0.18240368  0.80405037  0.06087455  1
  Br  Br59  1  0.68240368  0.19594963  0.43912545  1
  Br  Br60  1  0.69188266  0.40201549  0.64123222  1
  Br  Br61  1  0.94131510  0.81927372  0.04015203  1
  Br  Br62  1  0.67386973  0.78430577  0.03170048  1
  Br  Br63  1  0.43235538  0.40957068  0.65210058  1
