# generated using pymatgen
data_Ba2CuIO2
_symmetry_space_group_name_H-M   'P 1'
_cell_length_a   4.44409499
_cell_length_b   11.08544927
_cell_length_c   14.13062202
_cell_angle_alpha   88.26392372
_cell_angle_beta   90.00000000
_cell_angle_gamma   90.00000000
_symmetry_Int_Tables_number   1
_chemical_formula_structural   Ba2CuIO2
_chemical_formula_sum   'Ba8 Cu4 I4 O8'
_cell_volume   695.82257890
_cell_formula_units_Z   4
loop_
 _symmetry_equiv_pos_site_id
 _symmetry_equiv_pos_as_xyz
  1  'x, y, z'
loop_
 _atom_site_type_symbol
 _atom_site_label
 _atom_site_symmetry_multiplicity
 _atom_site_fract_x
 _atom_site_fract_y
 _atom_site_fract_z
 _atom_site_occupancy
  Ba  Ba0  1  0.75000000  0.09098597  0.67872029  1
  Ba  Ba1  1  0.25000000  0.29678841  0.89321807  1
  Ba  Ba2  1  0.75000000  0.16833679  0.14269117  1
  Ba  Ba3  1  0.75000000  0.70321159  0.10678193  1
  Ba  Ba4  1  0.25000000  0.90901403  0.32127971  1
  Ba  Ba5  1  0.25000000  0.41938775  0.40434146  1
  Ba  Ba6  1  0.75000000  0.58061225  0.59565854  1
  Ba  Ba7  1  0.25000000  0.83166321  0.85730883  1
  Cu  Cu8  1  0.25000000  0.33151376  0.65245454  1
  Cu  Cu9  1  0.75000000  0.66848624  0.34754546  1
  Cu  Cu10  1  0.25000000  0.93371563  0.09197155  1
  Cu  Cu11  1  0.75000000  0.06628437  0.90802845  1
  I  I12  1  0.75000000  0.15162390  0.41214320  1
  I  I13  1  0.25000000  0.43565499  0.14240305  1
  I  I14  1  0.75000000  0.56434501  0.85759695  1
  I  I15  1  0.25000000  0.84837610  0.58785680  1
  O  O16  1  0.75000000  0.94402412  0.82712376  1
  O  O17  1  0.75000000  0.53325471  0.41893437  1
  O  O18  1  0.75000000  0.80229027  0.27270211  1
  O  O19  1  0.25000000  0.79062264  0.03522773  1
  O  O20  1  0.25000000  0.46674529  0.58106563  1
  O  O21  1  0.25000000  0.19770973  0.72729789  1
  O  O22  1  0.75000000  0.20937736  0.96477227  1
  O  O23  1  0.25000000  0.05597588  0.17287624  1
