# generated using pymatgen
data_Rb2ZnO2
_symmetry_space_group_name_H-M   'P 1'
_cell_length_a   6.32907365
_cell_length_b   9.56232784
_cell_length_c   15.93645086
_cell_angle_alpha   60.90164795
_cell_angle_beta   90.00000000
_cell_angle_gamma   90.00000000
_symmetry_Int_Tables_number   1
_chemical_formula_structural   Rb2ZnO2
_chemical_formula_sum   'Rb16 Zn8 O16'
_cell_volume   842.75351651
_cell_formula_units_Z   8
loop_
 _symmetry_equiv_pos_site_id
 _symmetry_equiv_pos_as_xyz
  1  'x, y, z'
loop_
 _atom_site_type_symbol
 _atom_site_label
 _atom_site_symmetry_multiplicity
 _atom_site_fract_x
 _atom_site_fract_y
 _atom_site_fract_z
 _atom_site_occupancy
  Rb  Rb0  1  0.58374070  0.68051972  0.23856669  1
  Rb  Rb1  1  0.36868654  0.92030954  0.33622585  1
  Rb  Rb2  1  0.63131346  0.07969046  0.66377415  1
  Rb  Rb3  1  0.86868654  0.07969046  0.16377415  1
  Rb  Rb4  1  0.32353889  0.14259506  0.02750404  1
  Rb  Rb5  1  0.41625930  0.31948028  0.76143331  1
  Rb  Rb6  1  0.56564780  0.43340442  0.12026918  1
  Rb  Rb7  1  0.17646111  0.14259506  0.52750404  1
  Rb  Rb8  1  0.06564780  0.56659558  0.37973082  1
  Rb  Rb9  1  0.93435220  0.43340442  0.62026918  1
  Rb  Rb10  1  0.67646111  0.85740494  0.97249596  1
  Rb  Rb11  1  0.08374070  0.31948028  0.26143331  1
  Rb  Rb12  1  0.13131346  0.92030954  0.83622585  1
  Rb  Rb13  1  0.82353889  0.85740494  0.47249596  1
  Rb  Rb14  1  0.43435220  0.56659558  0.87973082  1
  Rb  Rb15  1  0.91625930  0.68051972  0.73856669  1
  Zn  Zn16  1  0.55236430  0.41271818  0.45986730  1
  Zn  Zn17  1  0.87359545  0.24138914  0.87055871  1
  Zn  Zn18  1  0.44763570  0.58728182  0.54013270  1
  Zn  Zn19  1  0.12640455  0.75861086  0.12944129  1
  Zn  Zn20  1  0.62640455  0.24138914  0.37055871  1
  Zn  Zn21  1  0.94763570  0.41271818  0.95986730  1
  Zn  Zn22  1  0.05236430  0.58728182  0.04013270  1
  Zn  Zn23  1  0.37359545  0.75861086  0.62944129  1
  O  O24  1  0.86723210  0.63447695  0.92733406  1
  O  O25  1  0.22121273  0.74187160  0.52831397  1
  O  O26  1  0.19281765  0.85906121  0.19944828  1
  O  O27  1  0.30718235  0.85906121  0.69944828  1
  O  O28  1  0.72121273  0.25812840  0.97168603  1
  O  O29  1  0.39730791  0.38288925  0.35842359  1
  O  O30  1  0.60269209  0.61711075  0.64157641  1
  O  O31  1  0.13276790  0.36552305  0.07266594  1
  O  O32  1  0.27878727  0.74187160  0.02831397  1
  O  O33  1  0.80718235  0.14093879  0.80055172  1
  O  O34  1  0.89730791  0.61711075  0.14157641  1
  O  O35  1  0.69281765  0.14093879  0.30055172  1
  O  O36  1  0.10269209  0.38288925  0.85842359  1
  O  O37  1  0.77878727  0.25812840  0.47168603  1
  O  O38  1  0.36723210  0.36552305  0.57266594  1
  O  O39  1  0.63276790  0.63447695  0.42733406  1
