# generated using pymatgen
data_K3Sc(MoO4)3
_symmetry_space_group_name_H-M   'P 1'
_cell_length_a   9.38062564
_cell_length_b   10.91916168
_cell_length_c   13.68100805
_cell_angle_alpha   90.00000000
_cell_angle_beta   90.00000000
_cell_angle_gamma   90.00000000
_symmetry_Int_Tables_number   1
_chemical_formula_structural   K3Sc(MoO4)3
_chemical_formula_sum   'K12 Sc4 Mo12 O48'
_cell_volume   1401.32606367
_cell_formula_units_Z   4
loop_
 _symmetry_equiv_pos_site_id
 _symmetry_equiv_pos_as_xyz
  1  'x, y, z'
loop_
 _atom_site_type_symbol
 _atom_site_label
 _atom_site_symmetry_multiplicity
 _atom_site_fract_x
 _atom_site_fract_y
 _atom_site_fract_z
 _atom_site_occupancy
  K  K0  1  0.47390499  0.51284897  0.25000000  1
  K  K1  1  0.54129044  0.25000000  -0.00000000  1
  K  K2  1  0.18208479  0.27539300  0.75000000  1
  K  K3  1  0.45870956  0.75000000  0.50000000  1
  K  K4  1  0.47390499  0.98715103  0.75000000  1
  K  K5  1  0.45870956  0.75000000  -0.00000000  1
  K  K6  1  0.81791521  0.77539300  0.75000000  1
  K  K7  1  0.18208479  0.22460700  0.25000000  1
  K  K8  1  0.52609501  0.48715103  0.75000000  1
  K  K9  1  0.54129044  0.25000000  0.50000000  1
  K  K10  1  0.81791521  0.72460700  0.25000000  1
  K  K11  1  0.52609501  0.01284897  0.25000000  1
  Sc  Sc12  1  0.06477727  0.75000000  0.50000000  1
  Sc  Sc13  1  0.06477727  0.75000000  -0.00000000  1
  Sc  Sc14  1  0.93522273  0.25000000  0.50000000  1
  Sc  Sc15  1  0.93522273  0.25000000  -0.00000000  1
  Mo  Mo16  1  0.18328350  0.83050904  0.25000000  1
  Mo  Mo17  1  0.74780022  0.54776496  0.99454937  1
  Mo  Mo18  1  0.25219978  0.04776496  0.99454937  1
  Mo  Mo19  1  0.81671650  0.33050904  0.25000000  1
  Mo  Mo20  1  0.74780022  0.95223504  0.49454937  1
  Mo  Mo21  1  0.25219978  0.45223504  0.00545063  1
  Mo  Mo22  1  0.18328350  0.66949096  0.75000000  1
  Mo  Mo23  1  0.74780022  0.95223504  0.00545063  1
  Mo  Mo24  1  0.25219978  0.45223504  0.49454937  1
  Mo  Mo25  1  0.25219978  0.04776496  0.50545063  1
  Mo  Mo26  1  0.74780022  0.54776496  0.50545063  1
  Mo  Mo27  1  0.81671650  0.16949096  0.75000000  1
  O  O28  1  0.69121876  0.88562865  0.38513176  1
  O  O29  1  0.61079047  0.57087258  0.07859655  1
  O  O30  1  0.61079047  0.57087258  0.42140345  1
  O  O31  1  0.65585934  0.24996430  0.75000000  1
  O  O32  1  0.30878124  0.38562865  0.11486824  1
  O  O33  1  0.07339597  0.70543428  0.64682942  1
  O  O34  1  0.22287700  0.51462676  0.75000000  1
  O  O35  1  0.90462331  0.87628463  0.96385398  1
  O  O36  1  0.22354668  0.61400203  0.02115681  1
  O  O37  1  0.22354668  0.88599797  0.97884319  1
  O  O38  1  0.77645332  0.38599797  0.52115681  1
  O  O39  1  0.90462331  0.62371537  0.03614602  1
  O  O40  1  0.92660403  0.20543428  0.64682942  1
  O  O41  1  0.92660403  0.20543428  0.85317058  1
  O  O42  1  0.38920953  0.42912742  0.57859655  1
  O  O43  1  0.34414066  0.74996430  0.75000000  1
  O  O44  1  0.34414066  0.75003570  0.25000000  1
  O  O45  1  0.65585934  0.25003570  0.25000000  1
  O  O46  1  0.09537669  0.12371537  0.03614602  1
  O  O47  1  0.22287700  0.98537324  0.25000000  1
  O  O48  1  0.69121876  0.88562865  0.11486824  1
  O  O49  1  0.30878124  0.11437135  0.61486824  1
  O  O50  1  0.09537669  0.37628463  0.96385398  1
  O  O51  1  0.09537669  0.37628463  0.53614602  1
  O  O52  1  0.77645332  0.11400203  0.02115681  1
  O  O53  1  0.77712300  0.48537324  0.25000000  1
  O  O54  1  0.77645332  0.11400203  0.47884319  1
  O  O55  1  0.90462331  0.62371537  0.46385398  1
  O  O56  1  0.61079047  0.92912742  0.92140345  1
  O  O57  1  0.92660403  0.29456572  0.14682942  1
  O  O58  1  0.22354668  0.61400203  0.47884319  1
  O  O59  1  0.38920953  0.42912742  0.92140345  1
  O  O60  1  0.30878124  0.38562865  0.38513176  1
  O  O61  1  0.09537669  0.12371537  0.46385398  1
  O  O62  1  0.77645332  0.38599797  0.97884319  1
  O  O63  1  0.77712300  0.01462676  0.75000000  1
  O  O64  1  0.22354668  0.88599797  0.52115681  1
  O  O65  1  0.30878124  0.11437135  0.88513176  1
  O  O66  1  0.69121876  0.61437135  0.61486824  1
  O  O67  1  0.61079047  0.92912742  0.57859655  1
  O  O68  1  0.90462331  0.87628463  0.53614602  1
  O  O69  1  0.07339597  0.79456572  0.35317058  1
  O  O70  1  0.07339597  0.70543428  0.85317058  1
  O  O71  1  0.38920953  0.07087258  0.07859655  1
  O  O72  1  0.07339597  0.79456572  0.14682942  1
  O  O73  1  0.38920953  0.07087258  0.42140345  1
  O  O74  1  0.69121876  0.61437135  0.88513176  1
  O  O75  1  0.92660403  0.29456572  0.35317058  1
