# generated using pymatgen
data_BaSr4U3O14
_symmetry_space_group_name_H-M   'P 1'
_cell_length_a   8.06465950
_cell_length_b   8.06465950
_cell_length_c   11.00993014
_cell_angle_alpha   90.00000000
_cell_angle_beta   90.00000000
_cell_angle_gamma   89.93867669
_symmetry_Int_Tables_number   1
_chemical_formula_structural   BaSr4U3O14
_chemical_formula_sum   'Ba2 Sr8 U6 O28'
_cell_volume   716.07149523
_cell_formula_units_Z   2
loop_
 _symmetry_equiv_pos_site_id
 _symmetry_equiv_pos_as_xyz
  1  'x, y, z'
loop_
 _atom_site_type_symbol
 _atom_site_label
 _atom_site_symmetry_multiplicity
 _atom_site_fract_x
 _atom_site_fract_y
 _atom_site_fract_z
 _atom_site_occupancy
  Ba  Ba0  1  0.00000000  0.00000000  0.50000000  1
  Ba  Ba1  1  0.50000000  0.50000000  0.00000000  1
  Sr  Sr2  1  0.77082582  0.27082582  0.75000000  1
  Sr  Sr3  1  0.24868937  0.24868937  0.77552523  1
  Sr  Sr4  1  0.25131063  0.25131063  0.27552523  1
  Sr  Sr5  1  0.74868937  0.74868937  0.72447477  1
  Sr  Sr6  1  0.75131063  0.75131063  0.22447477  1
  Sr  Sr7  1  0.72917418  0.22917418  0.25000000  1
  Sr  Sr8  1  0.27082582  0.77082582  0.75000000  1
  Sr  Sr9  1  0.22917418  0.72917418  0.25000000  1
  U  U10  1  0.50000000  0.50000000  0.50000000  1
  U  U11  1  0.00000000  0.00000000  0.00000000  1
  U  U12  1  0.00000000  0.50000000  0.50000000  1
  U  U13  1  0.50000000  0.00000000  0.00000000  1
  U  U14  1  0.50000000  0.00000000  0.50000000  1
  U  U15  1  0.00000000  0.50000000  0.00000000  1
  O  O16  1  0.53248437  0.19182149  0.88244774  1
  O  O17  1  0.69182149  0.03248437  0.61755226  1
  O  O18  1  0.03248437  0.69182149  0.61755226  1
  O  O19  1  0.24618844  0.99318338  0.92643849  1
  O  O20  1  0.43553991  0.43553991  0.66417315  1
  O  O21  1  0.46722501  0.18493747  0.12431849  1
  O  O22  1  0.30817851  0.96751563  0.38244774  1
  O  O23  1  0.46751563  0.80817851  0.11755226  1
  O  O24  1  0.18493747  0.46722501  0.12431849  1
  O  O25  1  0.31506253  0.03277499  0.62431849  1
  O  O26  1  0.75381156  0.00681662  0.07356151  1
  O  O27  1  0.80817851  0.46751563  0.11755226  1
  O  O28  1  0.53277499  0.81506253  0.87568151  1
  O  O29  1  0.03277499  0.31506253  0.62431849  1
  O  O30  1  0.56446009  0.56446009  0.33582685  1
  O  O31  1  0.00681662  0.75381156  0.07356151  1
  O  O32  1  0.93553991  0.93553991  0.83582685  1
  O  O33  1  0.06446009  0.06446009  0.16417315  1
  O  O34  1  0.49318338  0.74618844  0.57356151  1
  O  O35  1  0.99318338  0.24618844  0.92643849  1
  O  O36  1  0.25381156  0.50681662  0.42643849  1
  O  O37  1  0.74618844  0.49318338  0.57356151  1
  O  O38  1  0.96751563  0.30817851  0.38244774  1
  O  O39  1  0.50681662  0.25381156  0.42643849  1
  O  O40  1  0.96722501  0.68493747  0.37568151  1
  O  O41  1  0.81506253  0.53277499  0.87568151  1
  O  O42  1  0.19182149  0.53248437  0.88244774  1
  O  O43  1  0.68493747  0.96722501  0.37568151  1
