# generated using pymatgen
data_Rb2Te
_symmetry_space_group_name_H-M   'P 1'
_cell_length_a   6.09333071
_cell_length_b   7.98326386
_cell_length_c   10.60336590
_cell_angle_alpha   90.00000000
_cell_angle_beta   90.00000000
_cell_angle_gamma   90.00000000
_symmetry_Int_Tables_number   1
_chemical_formula_structural   Rb2Te
_chemical_formula_sum   'Rb8 Te4'
_cell_volume   515.79720163
_cell_formula_units_Z   4
loop_
 _symmetry_equiv_pos_site_id
 _symmetry_equiv_pos_as_xyz
  1  'x, y, z'
loop_
 _atom_site_type_symbol
 _atom_site_label
 _atom_site_symmetry_multiplicity
 _atom_site_fract_x
 _atom_site_fract_y
 _atom_site_fract_z
 _atom_site_occupancy
  Rb  Rb0  1  0.25000000  0.00231699  0.24196358  1
  Rb  Rb1  1  0.75000000  0.99768301  0.75803642  1
  Rb  Rb2  1  0.75000000  0.26038456  0.08280751  1
  Rb  Rb3  1  0.25000000  0.23961544  0.58280751  1
  Rb  Rb4  1  0.25000000  0.73961544  0.91719249  1
  Rb  Rb5  1  0.25000000  0.50231699  0.25803642  1
  Rb  Rb6  1  0.75000000  0.76038456  0.41719249  1
  Rb  Rb7  1  0.75000000  0.49768301  0.74196358  1
  Te  Te8  1  0.25000000  0.24755981  0.91575628  1
  Te  Te9  1  0.75000000  0.25244019  0.41575628  1
  Te  Te10  1  0.25000000  0.74755981  0.58424372  1
  Te  Te11  1  0.75000000  0.75244019  0.08424372  1
