# generated using pymatgen
data_CsFeI4
_symmetry_space_group_name_H-M   'P 1'
_cell_length_a   18.61025117
_cell_length_b   7.37783444
_cell_length_c   8.46307975
_cell_angle_alpha   72.27172592
_cell_angle_beta   90.00000000
_cell_angle_gamma   90.00000000
_symmetry_Int_Tables_number   1
_chemical_formula_structural   CsFeI4
_chemical_formula_sum   'Cs4 Fe4 I16'
_cell_volume   1106.82694910
_cell_formula_units_Z   4
loop_
 _symmetry_equiv_pos_site_id
 _symmetry_equiv_pos_as_xyz
  1  'x, y, z'
loop_
 _atom_site_type_symbol
 _atom_site_label
 _atom_site_symmetry_multiplicity
 _atom_site_fract_x
 _atom_site_fract_y
 _atom_site_fract_z
 _atom_site_occupancy
  Cs  Cs0  1  0.36816645  0.18171244  0.70205158  1
  Cs  Cs1  1  0.63183355  0.81828756  0.29794842  1
  Cs  Cs2  1  0.13183355  0.18171244  0.20205158  1
  Cs  Cs3  1  0.86816645  0.81828756  0.79794842  1
  Fe  Fe4  1  0.12701725  0.81189754  0.79711215  1
  Fe  Fe5  1  0.62701725  0.18810246  0.70288785  1
  Fe  Fe6  1  0.87298275  0.18810246  0.20288785  1
  Fe  Fe7  1  0.37298275  0.81189754  0.29711215  1
  I  I8  1  0.94655066  0.27036843  0.42482117  1
  I  I9  1  0.34725779  0.17098375  0.20359711  1
  I  I10  1  0.74590744  0.36397873  0.65132211  1
  I  I11  1  0.65274221  0.82901625  0.79640289  1
  I  I12  1  0.24590744  0.63602127  0.84867789  1
  I  I13  1  0.44588627  0.72826390  0.56673753  1
  I  I14  1  0.84725779  0.82901625  0.29640289  1
  I  I15  1  0.55411373  0.27173610  0.43326247  1
  I  I16  1  0.05411373  0.72826390  0.06673753  1
  I  I17  1  0.94588627  0.27173610  0.93326247  1
  I  I18  1  0.15274221  0.17098375  0.70359711  1
  I  I19  1  0.55344934  0.27036843  0.92482117  1
  I  I20  1  0.05344934  0.72963157  0.57517883  1
  I  I21  1  0.75409256  0.36397873  0.15132211  1
  I  I22  1  0.44655066  0.72963157  0.07517883  1
  I  I23  1  0.25409256  0.63602127  0.34867789  1
