# generated using pymatgen
data_BaCO3
_symmetry_space_group_name_H-M   'P 1'
_cell_length_a   5.35922589
_cell_length_b   6.41636356
_cell_length_c   8.97996254
_cell_angle_alpha   90.00000000
_cell_angle_beta   90.00000000
_cell_angle_gamma   90.00000000
_symmetry_Int_Tables_number   1
_chemical_formula_structural   BaCO3
_chemical_formula_sum   'Ba4 C4 O12'
_cell_volume   308.79165243
_cell_formula_units_Z   4
loop_
 _symmetry_equiv_pos_site_id
 _symmetry_equiv_pos_as_xyz
  1  'x, y, z'
loop_
 _atom_site_type_symbol
 _atom_site_label
 _atom_site_symmetry_multiplicity
 _atom_site_fract_x
 _atom_site_fract_y
 _atom_site_fract_z
 _atom_site_occupancy
  Ba  Ba0  1  0.25000000  0.25397622  0.08388727  1
  Ba  Ba1  1  0.75000000  0.74602378  0.91611273  1
  Ba  Ba2  1  0.25000000  0.75397622  0.41611273  1
  Ba  Ba3  1  0.75000000  0.24602378  0.58388727  1
  C  C4  1  0.25000000  0.41949677  0.74380641  1
  C  C5  1  0.75000000  0.58050323  0.25619359  1
  C  C6  1  0.25000000  0.91949677  0.75619359  1
  C  C7  1  0.75000000  0.08050323  0.24380641  1
  O  O8  1  0.45920741  0.91968651  0.68405205  1
  O  O9  1  0.95920741  0.08031349  0.31594795  1
  O  O10  1  0.04079259  0.41968651  0.81594795  1
  O  O11  1  0.54079259  0.58031349  0.18405205  1
  O  O12  1  0.75000000  0.08799359  0.09977621  1
  O  O13  1  0.25000000  0.91200641  0.90022379  1
  O  O14  1  0.75000000  0.58799359  0.40022379  1
  O  O15  1  0.25000000  0.41200641  0.59977621  1
  O  O16  1  0.54079259  0.08031349  0.31594795  1
  O  O17  1  0.04079259  0.91968651  0.68405205  1
  O  O18  1  0.95920741  0.58031349  0.18405205  1
  O  O19  1  0.45920741  0.41968651  0.81594795  1
