# generated using pymatgen
data_ZnS
_symmetry_space_group_name_H-M   'P 1'
_cell_length_a   3.80974212
_cell_length_b   3.80974113
_cell_length_c   68.48836297
_cell_angle_alpha   90.00000000
_cell_angle_beta   90.00000000
_cell_angle_gamma   119.99998207
_symmetry_Int_Tables_number   1
_chemical_formula_structural   ZnS
_chemical_formula_sum   'Zn22 S22'
_cell_volume   860.87191899
_cell_formula_units_Z   22
loop_
 _symmetry_equiv_pos_site_id
 _symmetry_equiv_pos_as_xyz
  1  'x, y, z'
loop_
 _atom_site_type_symbol
 _atom_site_label
 _atom_site_symmetry_multiplicity
 _atom_site_fract_x
 _atom_site_fract_y
 _atom_site_fract_z
 _atom_site_occupancy
  Zn  Zn0  1  0.66666700  0.33333300  0.40902498  1
  Zn  Zn1  1  0.33333300  0.66666700  0.68182300  1
  Zn  Zn2  1  -0.00000000  0.00000000  0.86368502  1
  Zn  Zn3  1  0.33333300  0.66666700  0.31815818  1
  Zn  Zn4  1  0.33333300  0.66666700  0.95443804  1
  Zn  Zn5  1  0.33333300  0.66666700  0.04552449  1
  Zn  Zn6  1  0.00000000  -0.00000000  0.27271535  1
  Zn  Zn7  1  -0.00000000  0.00000000  0.13637917  1
  Zn  Zn8  1  0.66666700  0.33333300  0.90902677  1
  Zn  Zn9  1  0.33333300  0.66666700  0.18181563  1
  Zn  Zn10  1  0.66666700  0.33333300  0.09100720  1
  Zn  Zn11  1  0.66666700  0.33333300  0.77275574  1
  Zn  Zn12  1  0.33333300  0.66666700  0.45443578  1
  Zn  Zn13  1  0.66666700  0.33333300  0.59100225  1
  Zn  Zn14  1  0.00000000  -0.00000000  0.99997747  1
  Zn  Zn15  1  0.66666700  0.33333300  0.22727880  1
  Zn  Zn16  1  0.33333300  0.66666700  0.54552224  1
  Zn  Zn17  1  0.00000000  -0.00000000  0.63635479  1
  Zn  Zn18  1  0.33333300  0.66666700  0.81821670  1
  Zn  Zn19  1  0.00000000  -0.00000000  0.49997504  1
  Zn  Zn20  1  -0.00000000  0.00000000  0.72732845  1
  Zn  Zn21  1  0.00000000  -0.00000000  0.36369470  1
  S  S22  1  0.00000000  -0.00000000  0.76139047  1
  S  S23  1  0.00000000  -0.00000000  0.53411197  1
  S  S24  1  0.00000000  -0.00000000  0.30675375  1
  S  S25  1  0.33333300  0.66666700  0.07960181  1
  S  S26  1  0.33333300  0.66666700  0.35228353  1
  S  S27  1  0.33333300  0.66666700  0.48850909  1
  S  S28  1  0.66666700  0.33333300  0.94308040  1
  S  S29  1  0.00000000  -0.00000000  0.67039964  1
  S  S30  1  0.33333300  0.66666700  0.85229108  1
  S  S31  1  0.00000000  -0.00000000  0.89772715  1
  S  S32  1  0.33333300  0.66666700  0.71595311  1
  S  S33  1  0.33333300  0.66666700  0.57959835  1
  S  S34  1  0.66666700  0.33333300  0.26134886  1
  S  S35  1  0.66666700  0.33333300  0.62504251  1
  S  S36  1  0.00000000  -0.00000000  0.17044279  1
  S  S37  1  0.66666700  0.33333300  0.44307845  1
  S  S38  1  0.33333300  0.66666700  0.21590138  1
  S  S39  1  0.33333300  0.66666700  0.98851096  1
  S  S40  1  0.00000000  -0.00000000  0.39772621  1
  S  S41  1  0.66666700  0.33333300  0.12505167  1
  S  S42  1  0.00000000  -0.00000000  0.03411396  1
  S  S43  1  0.66666700  0.33333300  0.80683709  1
