# generated using pymatgen
data_BaGa2(GeO4)2
_symmetry_space_group_name_H-M   'P 1'
_cell_length_a   8.94324924
_cell_length_b   9.68324373
_cell_length_c   9.68325291
_cell_angle_alpha   88.85266587
_cell_angle_beta   82.10511093
_cell_angle_gamma   82.10540792
_symmetry_Int_Tables_number   1
_chemical_formula_structural   BaGa2(GeO4)2
_chemical_formula_sum   'Ba4 Ga8 Ge8 O32'
_cell_volume   822.74544810
_cell_formula_units_Z   4
loop_
 _symmetry_equiv_pos_site_id
 _symmetry_equiv_pos_as_xyz
  1  'x, y, z'
loop_
 _atom_site_type_symbol
 _atom_site_label
 _atom_site_symmetry_multiplicity
 _atom_site_fract_x
 _atom_site_fract_y
 _atom_site_fract_z
 _atom_site_occupancy
  Ba  Ba0  1  0.79092818  0.93360891  0.93307326  1
  Ba  Ba1  1  0.70907182  0.56692674  0.56639109  1
  Ba  Ba2  1  0.20907182  0.06639209  0.06692674  1
  Ba  Ba3  1  0.29092818  0.43307326  0.43360791  1
  Ga  Ga4  1  0.61504926  0.56619442  0.20206800  1
  Ga  Ga5  1  0.88495074  0.29793200  0.93380558  1
  Ga  Ga6  1  0.38495074  0.43380558  0.79793200  1
  Ga  Ga7  1  0.11504926  0.70206800  0.06619442  1
  Ga  Ga8  1  0.47315869  0.94878573  0.70396274  1
  Ga  Ga9  1  0.02684131  0.79603726  0.55121427  1
  Ga  Ga10  1  0.52684131  0.05121427  0.29603726  1
  Ga  Ga11  1  0.97315869  0.20396274  0.44878573  1
  Ge  Ge12  1  0.10290648  0.07206663  0.71235673  1
  Ge  Ge13  1  0.39709452  0.78764327  0.42793337  1
  Ge  Ge14  1  0.89709352  0.92793337  0.28764327  1
  Ge  Ge15  1  0.60290548  0.21235673  0.57206663  1
  Ge  Ge16  1  0.98169410  0.44229244  0.21167445  1
  Ge  Ge17  1  0.51830590  0.28832655  0.05770656  1
  Ge  Ge18  1  0.01830590  0.55770756  0.78832555  1
  Ge  Ge19  1  0.48169410  0.71167345  0.94229344  1
  O  O20  1  0.99699387  0.13079592  0.87205790  1
  O  O21  1  0.50300613  0.62794210  0.36920408  1
  O  O22  1  0.00300613  0.86920408  0.12794210  1
  O  O23  1  0.49699387  0.37205790  0.63079592  1
  O  O24  1  0.54672688  0.85556600  0.85279498  1
  O  O25  1  0.95327312  0.64720502  0.64443400  1
  O  O26  1  0.45327312  0.14443400  0.14720502  1
  O  O27  1  0.04672688  0.35279498  0.35556600  1
  O  O28  1  0.27890786  0.02265869  0.76998960  1
  O  O29  1  0.22109114  0.73000940  0.47734131  1
  O  O30  1  0.72109214  0.97734131  0.23001040  1
  O  O31  1  0.77890886  0.26999060  0.52265869  1
  O  O32  1  0.79815748  0.52502611  0.26750868  1
  O  O33  1  0.70184252  0.23249032  0.97497389  1
  O  O34  1  0.20184252  0.47497389  0.73249132  1
  O  O35  1  0.29815748  0.76750968  0.02502611  1
  O  O36  1  0.11220819  0.18777896  0.57353878  1
  O  O37  1  0.38779181  0.92646122  0.31222104  1
  O  O38  1  0.88779181  0.81222104  0.42646122  1
  O  O39  1  0.61220819  0.07353878  0.68777896  1
  O  O40  1  0.62012766  0.68475618  0.05533012  1
  O  O41  1  0.87987234  0.44466988  0.81524382  1
  O  O42  1  0.37987234  0.31524282  0.94466988  1
  O  O43  1  0.12012766  0.55533012  0.18475718  1
  O  O44  1  0.00231837  0.93582968  0.67876371  1
  O  O45  1  0.49768163  0.82123529  0.56416932  1
  O  O46  1  0.99768163  0.06417032  0.32123629  1
  O  O47  1  0.50231837  0.17876471  0.43583068  1
  O  O48  1  0.50722025  0.42154706  0.17872707  1
  O  O49  1  0.99277975  0.32127293  0.07845194  1
  O  O50  1  0.49277975  0.57845294  0.82127293  1
  O  O51  1  0.00722025  0.67872707  0.92154806  1
