# generated using pymatgen
data_P4S9
_symmetry_space_group_name_H-M   'P 1'
_cell_length_a   8.82586114
_cell_length_b   12.78042761
_cell_length_c   13.03182404
_cell_angle_alpha   90.00000000
_cell_angle_beta   90.00000000
_cell_angle_gamma   104.79272106
_symmetry_Int_Tables_number   1
_chemical_formula_structural   P4S9
_chemical_formula_sum   'P16 S36'
_cell_volume   1421.24648683
_cell_formula_units_Z   4
loop_
 _symmetry_equiv_pos_site_id
 _symmetry_equiv_pos_as_xyz
  1  'x, y, z'
loop_
 _atom_site_type_symbol
 _atom_site_label
 _atom_site_symmetry_multiplicity
 _atom_site_fract_x
 _atom_site_fract_y
 _atom_site_fract_z
 _atom_site_occupancy
  P  P0  1  0.39249123  0.47198238  0.80782697  1
  P  P1  1  0.10750877  0.02801762  0.30782697  1
  P  P2  1  0.60750877  0.52801762  0.19217303  1
  P  P3  1  0.89249123  0.97198238  0.69217303  1
  P  P4  1  0.02386836  0.51019662  0.76456917  1
  P  P5  1  0.47613164  0.98980338  0.26456917  1
  P  P6  1  0.97613164  0.48980338  0.23543083  1
  P  P7  1  0.52386836  0.01019662  0.73543083  1
  P  P8  1  0.32227524  0.61436709  0.59397729  1
  P  P9  1  0.17772476  0.88563291  0.09397729  1
  P  P10  1  0.67772476  0.38563291  0.40602271  1
  P  P11  1  0.82227524  0.11436709  0.90602271  1
  P  P12  1  0.16381285  0.33944096  0.60741149  1
  P  P13  1  0.33618715  0.16055904  0.10741149  1
  P  P14  1  0.83618715  0.66055904  0.39258851  1
  P  P15  1  0.66381285  0.83944096  0.89258851  1
  S  S16  1  0.12130195  0.64030765  0.66582112  1
  S  S17  1  0.37869805  0.85969235  0.16582112  1
  S  S18  1  0.87869805  0.35969235  0.33417888  1
  S  S19  1  0.62130195  0.14030765  0.83417888  1
  S  S20  1  0.32724787  0.32838236  0.72021445  1
  S  S21  1  0.17275213  0.17161764  0.22021445  1
  S  S22  1  0.67275213  0.67161764  0.27978555  1
  S  S23  1  0.82724787  0.82838236  0.77978555  1
  S  S24  1  0.10295123  0.20941476  0.52781472  1
  S  S25  1  0.39704877  0.29058524  0.02781472  1
  S  S26  1  0.89704877  0.79058524  0.47218528  1
  S  S27  1  0.60295123  0.70941476  0.97218528  1
  S  S28  1  0.48550773  0.60001106  0.70496961  1
  S  S29  1  0.01449227  0.89998894  0.20496961  1
  S  S30  1  0.51449227  0.39998894  0.29503039  1
  S  S31  1  0.98550773  0.10001106  0.79503039  1
  S  S32  1  0.25945851  0.46958582  0.50882111  1
  S  S33  1  0.24054149  0.03041418  0.00882111  1
  S  S34  1  0.74054149  0.53041418  0.49117889  1
  S  S35  1  0.75945851  0.96958582  0.99117889  1
  S  S36  1  0.40830874  0.73217109  0.50400802  1
  S  S37  1  0.09169126  0.76782891  0.00400802  1
  S  S38  1  0.59169126  0.26782891  0.49599198  1
  S  S39  1  0.90830874  0.23217109  0.99599198  1
  S  S40  1  0.96304698  0.36646413  0.67850064  1
  S  S41  1  0.53695302  0.13353587  0.17850064  1
  S  S42  1  0.03695302  0.63353587  0.32149936  1
  S  S43  1  0.46304698  0.86646413  0.82149936  1
  S  S44  1  0.18880514  0.49942136  0.87578600  1
  S  S45  1  0.31119486  0.00057864  0.37578600  1
  S  S46  1  0.81119486  0.50057864  0.12421400  1
  S  S47  1  0.68880514  0.99942136  0.62421400  1
  S  S48  1  0.83844992  0.53296201  0.82664593  1
  S  S49  1  0.66155008  0.96703799  0.32664593  1
  S  S50  1  0.16155008  0.46703799  0.17335407  1
  S  S51  1  0.33844992  0.03296201  0.67335407  1
