# generated using pymatgen
data_Na5Gd(MoO4)4
_symmetry_space_group_name_H-M   'P 1'
_cell_length_a   9.85367198
_cell_length_b   9.85367198
_cell_length_c   9.85367198
_cell_angle_alpha   109.32336151
_cell_angle_beta   109.32336151
_cell_angle_gamma   109.76734533
_symmetry_Int_Tables_number   1
_chemical_formula_structural   Na5Gd(MoO4)4
_chemical_formula_sum   'Na10 Gd2 Mo8 O32'
_cell_volume   736.48466035
_cell_formula_units_Z   2
loop_
 _symmetry_equiv_pos_site_id
 _symmetry_equiv_pos_as_xyz
  1  'x, y, z'
loop_
 _atom_site_type_symbol
 _atom_site_label
 _atom_site_symmetry_multiplicity
 _atom_site_fract_x
 _atom_site_fract_y
 _atom_site_fract_z
 _atom_site_occupancy
  Na  Na0  1  0.40391680  0.07760861  0.91669508  1
  Na  Na1  1  0.84608320  0.67239139  0.58330492  1
  Na  Na2  1  0.25000000  0.75000000  0.50000000  1
  Na  Na3  1  0.51277828  0.59608320  0.67369181  1
  Na  Na4  1  0.73722172  0.15391680  0.82630819  1
  Na  Na5  1  0.16091354  0.48722172  0.08330492  1
  Na  Na6  1  0.32760861  0.91091354  0.17369181  1
  Na  Na7  1  0.08908646  0.26277828  0.41669508  1
  Na  Na8  1  0.92239139  0.83908646  0.32630819  1
  Na  Na9  1  -0.00000000  -0.00000000  -0.00000000  1
  Gd  Gd10  1  0.50000000  0.50000000  -0.00000000  1
  Gd  Gd11  1  0.75000000  0.25000000  0.50000000  1
  Mo  Mo12  1  0.41712390  0.33054054  0.27565973  1
  Mo  Mo13  1  0.66945946  0.94511920  0.08658336  1
  Mo  Mo14  1  0.83287610  0.41945946  0.22434027  1
  Mo  Mo15  1  0.85853484  0.58287610  0.91341664  1
  Mo  Mo16  1  0.19511920  0.60853484  0.77565973  1
  Mo  Mo17  1  0.05488080  0.14146516  0.72434027  1
  Mo  Mo18  1  0.39146516  0.16712390  0.58658336  1
  Mo  Mo19  1  0.58054054  0.80488080  0.41341664  1
  O  O20  1  0.32254404  0.35828658  0.39593865  1
  O  O21  1  0.97676797  0.53089412  0.67477435  1
  O  O22  1  0.95275834  0.63039348  0.38197616  1
  O  O23  1  0.25529621  0.52073403  0.90290404  1
  O  O24  1  0.36960652  0.75158268  0.32236486  1
  O  O25  1  0.29724166  0.11960652  0.11802384  1
  O  O26  1  0.64760683  0.74470379  0.26543682  1
  O  O27  1  0.92745596  0.39171342  0.10406135  1
  O  O28  1  0.27323203  0.21910588  0.82522565  1
  O  O29  1  0.61782999  0.35239317  0.09709596  1
  O  O30  1  0.47926597  0.38217001  0.73456318  1
  O  O31  1  0.77073403  0.36782999  0.76543682  1
  O  O32  1  0.99470379  0.22926597  0.59709596  1
  O  O33  1  0.63217001  0.39760683  0.40290404  1
  O  O34  1  0.69800637  0.02323203  0.55412615  1
  O  O35  1  0.82078218  0.70275834  0.82236486  1
  O  O36  1  0.60828658  0.71234793  0.53574253  1
  O  O37  1  0.46910588  0.14388022  0.44587385  1
  O  O38  1  0.78089412  0.60611978  0.05412615  1
  O  O39  1  0.39388022  0.44800637  0.17477435  1
  O  O40  1  0.42921782  0.04724166  0.67763514  1
  O  O41  1  0.17660539  0.07254404  0.46425747  1
  O  O42  1  0.88039348  0.99841732  0.17763514  1
  O  O43  1  0.55199363  0.72676797  0.94587385  1
  O  O44  1  0.00158268  0.17921782  0.88197616  1
  O  O45  1  0.07339461  0.67745596  0.03574253  1
  O  O46  1  0.60239317  0.00529621  0.23456318  1
  O  O47  1  0.28765207  0.82339461  0.89593865  1
  O  O48  1  0.96234793  0.92660539  0.60406135  1
  O  O49  1  0.64171342  0.03765207  0.96425747  1
  O  O50  1  0.24841732  0.57078218  0.61802384  1
  O  O51  1  0.85611978  0.30199363  0.32522565  1
