# generated using pymatgen
data_Pr5(CBr4)2
_symmetry_space_group_name_H-M   'P 1'
_cell_length_a   9.21650704
_cell_length_b   12.36780592
_cell_length_c   16.95869882
_cell_angle_alpha   100.38241352
_cell_angle_beta   90.11060486
_cell_angle_gamma   95.66401374
_symmetry_Int_Tables_number   1
_chemical_formula_structural   Pr5(CBr4)2
_chemical_formula_sum   'Pr20 C8 Br32'
_cell_volume   1891.76969149
_cell_formula_units_Z   4
loop_
 _symmetry_equiv_pos_site_id
 _symmetry_equiv_pos_as_xyz
  1  'x, y, z'
loop_
 _atom_site_type_symbol
 _atom_site_label
 _atom_site_symmetry_multiplicity
 _atom_site_fract_x
 _atom_site_fract_y
 _atom_site_fract_z
 _atom_site_occupancy
  Pr  Pr0  1  0.26028418  0.00465582  0.30196281  1
  Pr  Pr1  1  0.12889424  0.36970114  0.22631095  1
  Pr  Pr2  1  0.83413861  0.93500123  0.90824349  1
  Pr  Pr3  1  0.16584504  0.06499908  0.09175808  1
  Pr  Pr4  1  0.41429837  0.56744738  0.38325840  1
  Pr  Pr5  1  0.55232314  0.74005949  0.75408729  1
  Pr  Pr6  1  0.73971920  0.99534419  0.69803745  1
  Pr  Pr7  1  0.66097618  0.51361165  0.19989082  1
  Pr  Pr8  1  0.33902652  0.48638493  0.80010953  1
  Pr  Pr9  1  0.58568978  0.43254898  0.61674167  1
  Pr  Pr10  1  0.31650317  0.62841291  0.17658194  1
  Pr  Pr11  1  0.38061667  0.35124871  0.03516517  1
  Pr  Pr12  1  0.68349347  0.37158507  0.82341473  1
  Pr  Pr13  1  0.91405937  0.11505554  0.27503632  1
  Pr  Pr14  1  0.44767990  0.25994091  0.24591128  1
  Pr  Pr15  1  0.17773804  0.26954900  0.44263826  1
  Pr  Pr16  1  0.61938144  0.64875077  0.96483242  1
  Pr  Pr17  1  0.87110785  0.63029770  0.77368987  1
  Pr  Pr18  1  0.08594293  0.88494263  0.72497024  1
  Pr  Pr19  1  0.82228952  0.73045514  0.55736419  1
  C  C20  1  0.60094346  0.52267009  0.74873389  1
  C  C21  1  0.81755320  0.79625678  0.69448469  1
  C  C22  1  0.39905581  0.47732814  0.25126536  1
  C  C23  1  0.82174788  0.84597689  0.77613788  1
  C  C24  1  0.18245277  0.20374395  0.30551650  1
  C  C25  1  0.17825158  0.15402345  0.22386341  1
  C  C26  1  0.39229338  0.42786857  0.16987013  1
  C  C27  1  0.60770812  0.57213033  0.83012769  1
  Br  Br28  1  0.93200735  0.72519630  0.95543651  1
  Br  Br29  1  0.86753923  0.20791116  0.44604318  1
  Br  Br30  1  0.29932130  0.56620959  0.98707146  1
  Br  Br31  1  0.51904990  0.85614493  0.93066702  1
  Br  Br32  1  0.78634959  0.31291598  0.23089704  1
  Br  Br33  1  0.00087002  0.57278415  0.18092983  1
  Br  Br34  1  0.10262455  0.49010850  0.40340324  1
  Br  Br35  1  0.21368844  0.68706816  0.76908153  1
  Br  Br36  1  0.70917561  0.92710742  0.52245552  1
  Br  Br37  1  0.42530103  0.94674757  0.71836368  1
  Br  Br38  1  0.13249482  0.79209406  0.55397706  1
  Br  Br39  1  0.49471321  0.64394300  0.57065340  1
  Br  Br40  1  -0.00088879  0.42722373  0.81906924  1
  Br  Br41  1  0.03828176  0.09649631  0.68671992  1
  Br  Br42  1  0.74803168  0.14249973  0.86637441  1
  Br  Br43  1  0.25197261  0.85750195  0.13362554  1
  Br  Br44  1  0.89735799  0.50988141  0.59659767  1
  Br  Br45  1  0.66440718  0.22778567  0.66148344  1
  Br  Br46  1  0.62009854  0.72735262  0.15387198  1
  Br  Br47  1  0.06797261  0.27480823  0.04456041  1
  Br  Br48  1  0.57470485  0.05327136  0.28163886  1
  Br  Br49  1  0.33562859  0.77223720  0.33850493  1
  Br  Br50  1  0.15125949  0.99795491  0.90023832  1
  Br  Br51  1  0.96172643  0.90350294  0.31329018  1
  Br  Br52  1  0.84871058  0.00202530  0.09976368  1
  Br  Br53  1  0.70067567  0.43379376  0.01292423  1
  Br  Br54  1  0.37989298  0.27263837  0.84612500  1
  Br  Br55  1  0.73267032  0.62538751  0.36946997  1
  Br  Br56  1  0.26730783  0.37462183  0.63052742  1
  Br  Br57  1  0.48092759  0.14384403  0.06933917  1
  Br  Br58  1  0.50530021  0.35606706  0.42934877  1
  Br  Br59  1  0.29081300  0.07288576  0.47754595  1
