# generated using pymatgen
data_Nd2SiO5
_symmetry_space_group_name_H-M   'P 1'
_cell_length_a   7.32471497
_cell_length_b   6.88244710
_cell_length_c   9.25034678
_cell_angle_alpha   71.70244957
_cell_angle_beta   90.00000000
_cell_angle_gamma   90.00000000
_symmetry_Int_Tables_number   1
_chemical_formula_structural   Nd2SiO5
_chemical_formula_sum   'Nd8 Si4 O20'
_cell_volume   442.75007917
_cell_formula_units_Z   4
loop_
 _symmetry_equiv_pos_site_id
 _symmetry_equiv_pos_as_xyz
  1  'x, y, z'
loop_
 _atom_site_type_symbol
 _atom_site_label
 _atom_site_symmetry_multiplicity
 _atom_site_fract_x
 _atom_site_fract_y
 _atom_site_fract_z
 _atom_site_occupancy
  Nd  Nd0  1  0.62458674  0.23414430  0.97929994  1
  Nd  Nd1  1  0.12458674  0.26585570  0.02070006  1
  Nd  Nd2  1  0.65284139  0.09252893  0.61014927  1
  Nd  Nd3  1  0.84715861  0.59252893  0.61014927  1
  Nd  Nd4  1  0.15284139  0.40747107  0.38985073  1
  Nd  Nd5  1  0.34715861  0.90747107  0.38985073  1
  Nd  Nd6  1  0.87541326  0.73414430  0.97929994  1
  Nd  Nd7  1  0.37541326  0.76585570  0.02070006  1
  Si  Si8  1  0.08129954  0.04353186  0.70146568  1
  Si  Si9  1  0.58129954  0.45646814  0.29853432  1
  Si  Si10  1  0.41870046  0.54353186  0.70146568  1
  Si  Si11  1  0.91870046  0.95646814  0.29853432  1
  O  O12  1  0.57086119  0.36531565  0.70551246  1
  O  O13  1  0.36543744  0.49408024  0.88175436  1
  O  O14  1  0.37704478  0.04686849  0.11642420  1
  O  O15  1  0.86543744  0.00591976  0.11824564  1
  O  O16  1  0.25389829  0.05679726  0.59222507  1
  O  O17  1  0.74610171  0.94320274  0.40777493  1
  O  O18  1  0.03909121  0.74775050  0.36604240  1
  O  O19  1  0.13456256  0.99408024  0.88175436  1
  O  O20  1  0.46090879  0.24775050  0.36604240  1
  O  O21  1  0.62295522  0.95313151  0.88357580  1
  O  O22  1  0.07086119  0.13468435  0.29448754  1
  O  O23  1  0.12295522  0.54686849  0.11642420  1
  O  O24  1  0.75389829  0.44320274  0.40777493  1
  O  O25  1  0.53909121  0.75224950  0.63395760  1
  O  O26  1  0.96090879  0.25224950  0.63395760  1
  O  O27  1  0.92913881  0.86531565  0.70551246  1
  O  O28  1  0.63456256  0.50591976  0.11824564  1
  O  O29  1  0.87704478  0.45313151  0.88357580  1
  O  O30  1  0.42913881  0.63468435  0.29448754  1
  O  O31  1  0.24610171  0.55679726  0.59222507  1
