# generated using pymatgen
data_Gd3Se4O12F
_symmetry_space_group_name_H-M   'P 1'
_cell_length_a   10.45715244
_cell_length_b   10.45715244
_cell_length_c   6.90766669
_cell_angle_alpha   90.00000000
_cell_angle_beta   90.00000000
_cell_angle_gamma   120.00000150
_symmetry_Int_Tables_number   1
_chemical_formula_structural   Gd3Se4O12F
_chemical_formula_sum   'Gd6 Se8 O24 F2'
_cell_volume   654.16736857
_cell_formula_units_Z   2
loop_
 _symmetry_equiv_pos_site_id
 _symmetry_equiv_pos_as_xyz
  1  'x, y, z'
loop_
 _atom_site_type_symbol
 _atom_site_label
 _atom_site_symmetry_multiplicity
 _atom_site_fract_x
 _atom_site_fract_y
 _atom_site_fract_z
 _atom_site_occupancy
  Gd  Gd0  1  0.07523954  0.53762027  0.41617784  1
  Gd  Gd1  1  0.53762027  0.46237973  0.91617784  1
  Gd  Gd2  1  0.53762027  0.07523954  0.91617784  1
  Gd  Gd3  1  0.92476046  0.46237973  0.91617784  1
  Gd  Gd4  1  0.46237973  0.53762027  0.41617784  1
  Gd  Gd5  1  0.46237973  0.92476046  0.41617784  1
  Se  Se6  1  0.69000206  0.84500103  0.64768269  1
  Se  Se7  1  0.30999794  0.15499897  0.14768269  1
  Se  Se8  1  0.33333300  0.66666700  0.98161872  1
  Se  Se9  1  0.84500103  0.15499897  0.14768269  1
  Se  Se10  1  0.15499897  0.30999794  0.64768269  1
  Se  Se11  1  0.15499897  0.84500103  0.64768269  1
  Se  Se12  1  0.66666700  0.33333300  0.48161872  1
  Se  Se13  1  0.84500103  0.69000206  0.14768269  1
  O  O14  1  0.91804393  0.33355562  0.21950090  1
  O  O15  1  0.58206084  0.41793916  0.59348216  1
  O  O16  1  0.58448830  0.91804393  0.71950090  1
  O  O17  1  0.63488980  0.81744440  0.41155054  1
  O  O18  1  0.66644438  0.08195607  0.21950090  1
  O  O19  1  0.33355562  0.91804393  0.71950090  1
  O  O20  1  0.41551170  0.08195607  0.21950090  1
  O  O21  1  0.81744440  0.63488980  0.91155054  1
  O  O22  1  0.66644438  0.58448830  0.21950090  1
  O  O23  1  0.18255560  0.81744440  0.41155054  1
  O  O24  1  0.08195607  0.41551170  0.71950090  1
  O  O25  1  0.41793916  0.58206084  0.09348216  1
  O  O26  1  0.58206084  0.16412167  0.59348216  1
  O  O27  1  0.81744440  0.18255560  0.91155054  1
  O  O28  1  0.33355562  0.41551170  0.71950090  1
  O  O29  1  0.36511020  0.18255560  0.91155054  1
  O  O30  1  0.41793916  0.83587833  0.09348216  1
  O  O31  1  0.08195607  0.66644438  0.71950090  1
  O  O32  1  0.41551170  0.33355562  0.21950090  1
  O  O33  1  0.16412167  0.58206084  0.09348216  1
  O  O34  1  0.58448830  0.66644438  0.71950090  1
  O  O35  1  0.18255560  0.36511020  0.41155054  1
  O  O36  1  0.83587833  0.41793916  0.59348216  1
  O  O37  1  0.91804393  0.58448830  0.21950090  1
  F  F38  1  0.33333300  0.66666700  0.46382419  1
  F  F39  1  0.66666700  0.33333300  0.96382419  1
