# generated using pymatgen
data_Er2SiO5
_symmetry_space_group_name_H-M   'P 1'
_cell_length_a   7.89621586
_cell_length_b   7.89621586
_cell_length_c   10.27920859
_cell_angle_alpha   61.15823007
_cell_angle_beta   61.15823007
_cell_angle_gamma   49.93005571
_symmetry_Int_Tables_number   1
_chemical_formula_structural   Er2SiO5
_chemical_formula_sum   'Er8 Si4 O20'
_cell_volume   415.26295040
_cell_formula_units_Z   4
loop_
 _symmetry_equiv_pos_site_id
 _symmetry_equiv_pos_as_xyz
  1  'x, y, z'
loop_
 _atom_site_type_symbol
 _atom_site_label
 _atom_site_symmetry_multiplicity
 _atom_site_fract_x
 _atom_site_fract_y
 _atom_site_fract_z
 _atom_site_occupancy
  Er  Er0  1  0.48305041  0.23534317  0.33584949  1
  Er  Er1  1  0.21915654  0.70765587  0.46603331  1
  Er  Er2  1  0.51694959  0.76465683  0.66415051  1
  Er  Er3  1  0.23534317  0.48305041  0.83584949  1
  Er  Er4  1  0.76465683  0.51694959  0.16415051  1
  Er  Er5  1  0.78084346  0.29234413  0.53396669  1
  Er  Er6  1  0.70765587  0.21915654  0.96603331  1
  Er  Er7  1  0.29234413  0.78084346  0.03396669  1
  Si  Si8  1  0.72657023  0.90942362  0.80758128  1
  Si  Si9  1  0.27342977  0.09057638  0.19241872  1
  Si  Si10  1  0.09057638  0.27342977  0.69241872  1
  Si  Si11  1  0.90942362  0.72657023  0.30758128  1
  O  O12  1  0.44555720  0.15007623  0.17523378  1
  O  O13  1  0.83016459  0.40845171  0.67814175  1
  O  O14  1  0.91422268  0.90761764  0.13949966  1
  O  O15  1  0.27077748  0.13164700  0.56143467  1
  O  O16  1  0.55444280  0.84992377  0.82476622  1
  O  O17  1  0.38524965  0.57874175  0.89799768  1
  O  O18  1  0.15007623  0.44555720  0.67523378  1
  O  O19  1  0.40845171  0.83016459  0.17814175  1
  O  O20  1  0.72922252  0.86835300  0.43856533  1
  O  O21  1  0.57874175  0.38524965  0.39799768  1
  O  O22  1  0.42125825  0.61475035  0.60200232  1
  O  O23  1  0.09238236  0.08577732  0.36050034  1
  O  O24  1  0.16983541  0.59154829  0.32185825  1
  O  O25  1  0.86835300  0.72922252  0.93856533  1
  O  O26  1  0.90761764  0.91422268  0.63949966  1
  O  O27  1  0.84992377  0.55444280  0.32476622  1
  O  O28  1  0.08577732  0.09238236  0.86050034  1
  O  O29  1  0.61475035  0.42125825  0.10200232  1
  O  O30  1  0.59154829  0.16983541  0.82185825  1
  O  O31  1  0.13164700  0.27077748  0.06143467  1
