# generated using pymatgen
data_Ba2SnS4
_symmetry_space_group_name_H-M   'P 1'
_cell_length_a   8.65023963
_cell_length_b   8.58680296
_cell_length_c   12.12655273
_cell_angle_alpha   67.21036557
_cell_angle_beta   90.00000000
_cell_angle_gamma   90.00000000
_symmetry_Int_Tables_number   1
_chemical_formula_structural   Ba2SnS4
_chemical_formula_sum   'Ba8 Sn4 S16'
_cell_volume   830.41745772
_cell_formula_units_Z   4
loop_
 _symmetry_equiv_pos_site_id
 _symmetry_equiv_pos_as_xyz
  1  'x, y, z'
loop_
 _atom_site_type_symbol
 _atom_site_label
 _atom_site_symmetry_multiplicity
 _atom_site_fract_x
 _atom_site_fract_y
 _atom_site_fract_z
 _atom_site_occupancy
  Ba  Ba0  1  0.80733271  0.04125016  0.64993379  1
  Ba  Ba1  1  0.30733271  0.95874984  0.85006621  1
  Ba  Ba2  1  0.19266729  0.95874984  0.35006621  1
  Ba  Ba3  1  0.69266729  0.04125016  0.14993379  1
  Ba  Ba4  1  0.87659668  0.42526763  0.83502532  1
  Ba  Ba5  1  0.37659668  0.57473237  0.66497468  1
  Ba  Ba6  1  0.12340332  0.57473237  0.16497468  1
  Ba  Ba7  1  0.62340332  0.42526763  0.33502532  1
  Sn  Sn8  1  0.81180118  0.70012533  0.49050600  1
  Sn  Sn9  1  0.31180118  0.29987467  0.00949400  1
  Sn  Sn10  1  0.18819882  0.29987467  0.50949400  1
  Sn  Sn11  1  0.68819882  0.70012533  0.99050600  1
  S  S12  1  0.98541414  0.24681266  0.39246524  1
  S  S13  1  0.48541414  0.75318734  0.10753476  1
  S  S14  1  0.01458586  0.75318734  0.60753476  1
  S  S15  1  0.51458586  0.24681266  0.89246524  1
  S  S16  1  0.89791332  0.73029726  0.29571166  1
  S  S17  1  0.39791332  0.26970274  0.20428834  1
  S  S18  1  0.10208668  0.26970274  0.70428834  1
  S  S19  1  0.60208668  0.73029726  0.79571166  1
  S  S20  1  0.88168204  0.91156141  0.94599311  1
  S  S21  1  0.38168204  0.08843859  0.55400689  1
  S  S22  1  0.11831796  0.08843859  0.05400689  1
  S  S23  1  0.61831796  0.91156141  0.44599311  1
  S  S24  1  0.80644163  0.42893348  0.09744544  1
  S  S25  1  0.30644163  0.57106652  0.40255456  1
  S  S26  1  0.19355837  0.57106652  0.90255456  1
  S  S27  1  0.69355837  0.42893348  0.59744544  1
