# generated using pymatgen
data_KMo(PO4)2
_symmetry_space_group_name_H-M   'P 1'
_cell_length_a   11.73029914
_cell_length_b   5.08310079
_cell_length_c   12.51568700
_cell_angle_alpha   66.94242545
_cell_angle_beta   90.00000000
_cell_angle_gamma   90.00000000
_symmetry_Int_Tables_number   1
_chemical_formula_structural   KMo(PO4)2
_chemical_formula_sum   'K4 Mo4 P8 O32'
_cell_volume   686.64629647
_cell_formula_units_Z   4
loop_
 _symmetry_equiv_pos_site_id
 _symmetry_equiv_pos_as_xyz
  1  'x, y, z'
loop_
 _atom_site_type_symbol
 _atom_site_label
 _atom_site_symmetry_multiplicity
 _atom_site_fract_x
 _atom_site_fract_y
 _atom_site_fract_z
 _atom_site_occupancy
  K  K0  1  0.36662022  0.32650648  0.94795491  1
  K  K1  1  0.86662022  0.67349352  0.55204509  1
  K  K2  1  0.63337978  0.67349352  0.05204509  1
  K  K3  1  0.13337978  0.32650648  0.44795491  1
  Mo  Mo4  1  0.12003775  0.09253854  0.16736952  1
  Mo  Mo5  1  0.62003775  0.90746146  0.33263048  1
  Mo  Mo6  1  0.87996225  0.90746146  0.83263048  1
  Mo  Mo7  1  0.37996225  0.09253854  0.66736952  1
  P  P8  1  0.19289763  0.61682433  0.64768098  1
  P  P9  1  0.69289763  0.38317567  0.85231902  1
  P  P10  1  0.80710237  0.38317567  0.35231902  1
  P  P11  1  0.30710237  0.61682433  0.14768098  1
  P  P12  1  0.06303387  0.38853601  0.86453735  1
  P  P13  1  0.56303387  0.61146399  0.63546265  1
  P  P14  1  0.93696613  0.61146399  0.13546265  1
  P  P15  1  0.43696613  0.38853601  0.36453735  1
  O  O16  1  0.10438883  0.20363170  0.98326085  1
  O  O17  1  0.60438883  0.79636830  0.51673915  1
  O  O18  1  0.89561117  0.79636830  0.01673915  1
  O  O19  1  0.39561117  0.20363170  0.48326085  1
  O  O20  1  0.02841323  0.74339964  0.18449714  1
  O  O21  1  0.52841323  0.25660036  0.31550286  1
  O  O22  1  0.97158677  0.25660036  0.81550286  1
  O  O23  1  0.47158677  0.74339964  0.68449714  1
  O  O24  1  0.26330394  0.90676577  0.14136484  1
  O  O25  1  0.76330394  0.09323423  0.35863516  1
  O  O26  1  0.73669606  0.09323423  0.85863516  1
  O  O27  1  0.23669606  0.90676577  0.64136484  1
  O  O28  1  0.17400761  0.43200812  0.78483316  1
  O  O29  1  0.67400761  0.56799188  0.71516684  1
  O  O30  1  0.82599239  0.56799188  0.21516684  1
  O  O31  1  0.32599239  0.43200812  0.28483316  1
  O  O32  1  0.97267706  0.31276725  0.14772823  1
  O  O33  1  0.47267706  0.68723275  0.35227177  1
  O  O34  1  0.02732294  0.68723275  0.85227177  1
  O  O35  1  0.52732294  0.31276725  0.64772823  1
  O  O36  1  0.08619223  0.64526156  0.58123895  1
  O  O37  1  0.58619223  0.35473844  0.91876105  1
  O  O38  1  0.91380777  0.35473844  0.41876105  1
  O  O39  1  0.41380777  0.64526156  0.08123895  1
  O  O40  1  0.13617767  0.00492772  0.30990671  1
  O  O41  1  0.63617767  0.99507228  0.19009329  1
  O  O42  1  0.86382233  0.99507228  0.69009329  1
  O  O43  1  0.36382233  0.00492772  0.80990671  1
  O  O44  1  0.21237057  0.45670462  0.11472674  1
  O  O45  1  0.71237057  0.54329538  0.38527326  1
  O  O46  1  0.78762943  0.54329538  0.88527326  1
  O  O47  1  0.28762943  0.45670462  0.61472674  1
