# generated using pymatgen
data_K3IrCl6
_symmetry_space_group_name_H-M   'P 1'
_cell_length_a   7.48693073
_cell_length_b   11.91599303
_cell_length_c   12.57407065
_cell_angle_alpha   71.80943077
_cell_angle_beta   90.00000000
_cell_angle_gamma   90.00000000
_symmetry_Int_Tables_number   1
_chemical_formula_structural   K3IrCl6
_chemical_formula_sum   'K12 Ir4 Cl24'
_cell_volume   1065.72284750
_cell_formula_units_Z   4
loop_
 _symmetry_equiv_pos_site_id
 _symmetry_equiv_pos_as_xyz
  1  'x, y, z'
loop_
 _atom_site_type_symbol
 _atom_site_label
 _atom_site_symmetry_multiplicity
 _atom_site_fract_x
 _atom_site_fract_y
 _atom_site_fract_z
 _atom_site_occupancy
  K  K0  1  0.93278630  0.38601514  0.81808339  1
  K  K1  1  0.43278630  0.11398486  0.18191661  1
  K  K2  1  0.06721370  0.61398486  0.18191661  1
  K  K3  1  0.56721370  0.88601514  0.81808339  1
  K  K4  1  0.07028202  0.73385826  0.81746301  1
  K  K5  1  0.57028202  0.76614174  0.18253699  1
  K  K6  1  0.92971798  0.26614174  0.18253699  1
  K  K7  1  0.42971798  0.23385826  0.81746301  1
  K  K8  1  0.54406037  0.64303547  0.59755476  1
  K  K9  1  0.04406037  0.85696453  0.40244524  1
  K  K10  1  0.45593963  0.35696453  0.40244524  1
  K  K11  1  0.95593963  0.14303547  0.59755476  1
  Ir  Ir12  1  -0.00000000  0.00000000  0.00000000  1
  Ir  Ir13  1  0.50000000  0.50000000  0.00000000  1
  Ir  Ir14  1  -0.00000000  0.50000000  0.50000000  1
  Ir  Ir15  1  0.50000000  0.00000000  0.50000000  1
  Cl  Cl16  1  0.99731952  0.62080734  0.61765305  1
  Cl  Cl17  1  0.49731952  0.87919266  0.38234695  1
  Cl  Cl18  1  0.00268048  0.37919266  0.38234695  1
  Cl  Cl19  1  0.50268048  0.12080734  0.61765305  1
  Cl  Cl20  1  0.81269778  0.64057079  0.37581946  1
  Cl  Cl21  1  0.31269778  0.85942921  0.62418054  1
  Cl  Cl22  1  0.18730222  0.35942921  0.62418054  1
  Cl  Cl23  1  0.68730222  0.14057079  0.37581946  1
  Cl  Cl24  1  0.25945266  0.60062669  0.40837368  1
  Cl  Cl25  1  0.75945266  0.89937331  0.59162632  1
  Cl  Cl26  1  0.74054734  0.39937331  0.59162632  1
  Cl  Cl27  1  0.24054734  0.10062669  0.40837368  1
  Cl  Cl28  1  0.20500493  0.89703169  0.14053838  1
  Cl  Cl29  1  0.70500493  0.60296831  0.85946162  1
  Cl  Cl30  1  0.79499507  0.10296831  0.85946162  1
  Cl  Cl31  1  0.29499507  0.39703169  0.14053838  1
  Cl  Cl32  1  0.80726003  0.00527298  0.14802471  1
  Cl  Cl33  1  0.30726003  0.49472702  0.85197529  1
  Cl  Cl34  1  0.19273997  0.99472702  0.85197529  1
  Cl  Cl35  1  0.69273997  0.50527298  0.14802471  1
  Cl  Cl36  1  0.87019104  0.81907773  0.99941355  1
  Cl  Cl37  1  0.37019104  0.68092227  0.00058645  1
  Cl  Cl38  1  0.12980896  0.18092227  0.00058645  1
  Cl  Cl39  1  0.62980896  0.31907773  0.99941355  1
