# generated using pymatgen
data_CsSb2F11
_symmetry_space_group_name_H-M   'P 1'
_cell_length_a   14.12716114
_cell_length_b   7.66997476
_cell_length_c   9.43926264
_cell_angle_alpha   65.52848727
_cell_angle_beta   90.00000000
_cell_angle_gamma   90.00000000
_symmetry_Int_Tables_number   1
_chemical_formula_structural   CsSb2F11
_chemical_formula_sum   'Cs4 Sb8 F44'
_cell_volume   930.91097999
_cell_formula_units_Z   4
loop_
 _symmetry_equiv_pos_site_id
 _symmetry_equiv_pos_as_xyz
  1  'x, y, z'
loop_
 _atom_site_type_symbol
 _atom_site_label
 _atom_site_symmetry_multiplicity
 _atom_site_fract_x
 _atom_site_fract_y
 _atom_site_fract_z
 _atom_site_occupancy
  Cs  Cs0  1  0.62957119  0.73411275  0.27499896  1
  Cs  Cs1  1  0.37042881  0.26588725  0.72500104  1
  Cs  Cs2  1  0.87042881  0.73411275  0.77499896  1
  Cs  Cs3  1  0.12957119  0.26588725  0.22500104  1
  Sb  Sb4  1  0.95169726  0.73650213  0.24206305  1
  Sb  Sb5  1  0.04830274  0.26349787  0.75793695  1
  Sb  Sb6  1  0.54830274  0.73650213  0.74206305  1
  Sb  Sb7  1  0.80481741  0.27709369  0.30815120  1
  Sb  Sb8  1  0.19518259  0.72290631  0.69184880  1
  Sb  Sb9  1  0.30481741  0.72290631  0.19184880  1
  Sb  Sb10  1  0.69518259  0.27709369  0.80815120  1
  Sb  Sb11  1  0.45169726  0.26349787  0.25793695  1
  F  F12  1  0.36235164  0.88289358  0.00314007  1
  F  F13  1  0.94734072  0.41617928  0.64389155  1
  F  F14  1  0.52685490  0.04330839  0.34517497  1
  F  F15  1  0.74215196  0.08087446  0.27737774  1
  F  F16  1  0.25784804  0.91912554  0.72262226  1
  F  F17  1  0.87120506  0.49337568  0.34474082  1
  F  F18  1  0.75784804  0.08087446  0.77737774  1
  F  F19  1  0.79740347  0.31879884  0.91754048  1
  F  F20  1  0.24215196  0.91912554  0.22262226  1
  F  F21  1  0.47314510  0.95669161  0.65482503  1
  F  F22  1  0.20259653  0.68120116  0.08245952  1
  F  F23  1  0.33981095  0.15014477  0.36438415  1
  F  F24  1  0.55265928  0.41617928  0.14389155  1
  F  F25  1  0.13764836  0.88289358  0.50314007  1
  F  F26  1  0.73897931  0.48203172  0.62694261  1
  F  F27  1  0.23897931  0.51796828  0.87305739  1
  F  F28  1  0.44734072  0.58382072  0.85610845  1
  F  F29  1  0.97634748  0.64780799  0.08701480  1
  F  F30  1  0.41489186  0.74022665  0.29655186  1
  F  F31  1  0.29740347  0.68120116  0.58245952  1
  F  F32  1  0.58650336  0.79049846  0.91027813  1
  F  F33  1  0.02365252  0.35219201  0.91298520  1
  F  F34  1  0.16018905  0.15014477  0.86438415  1
  F  F35  1  0.86235164  0.11710642  0.49685993  1
  F  F36  1  0.70259653  0.31879884  0.41754048  1
  F  F37  1  0.62879494  0.49337568  0.84474082  1
  F  F38  1  0.08650336  0.20950154  0.58972187  1
  F  F39  1  0.97314510  0.04330839  0.84517497  1
  F  F40  1  0.63764836  0.11710642  0.99685993  1
  F  F41  1  0.58510814  0.25977335  0.70344814  1
  F  F42  1  0.91349664  0.79049846  0.41027813  1
  F  F43  1  0.76102069  0.48203172  0.12694261  1
  F  F44  1  0.05265928  0.58382072  0.35610845  1
  F  F45  1  0.37120506  0.50662432  0.15525918  1
  F  F46  1  0.26102069  0.51796828  0.37305739  1
  F  F47  1  0.47634748  0.35219201  0.41298520  1
  F  F48  1  0.41349664  0.20950154  0.08972187  1
  F  F49  1  0.52365252  0.64780799  0.58701480  1
  F  F50  1  0.02685490  0.95669161  0.15482503  1
  F  F51  1  0.66018905  0.84985523  0.63561585  1
  F  F52  1  0.83981095  0.84985523  0.13561585  1
  F  F53  1  0.91489186  0.25977335  0.20344814  1
  F  F54  1  0.12879494  0.50662432  0.65525918  1
  F  F55  1  0.08510814  0.74022665  0.79655186  1
