# generated using pymatgen
data_ZnS
_symmetry_space_group_name_H-M   'P 1'
_cell_length_a   3.80815909
_cell_length_b   3.80815931
_cell_length_c   56.04804948
_cell_angle_alpha   90.00000000
_cell_angle_beta   90.00000000
_cell_angle_gamma   120.00000683
_symmetry_Int_Tables_number   1
_chemical_formula_structural   ZnS
_chemical_formula_sum   'Zn18 S18'
_cell_volume   703.91674600
_cell_formula_units_Z   18
loop_
 _symmetry_equiv_pos_site_id
 _symmetry_equiv_pos_as_xyz
  1  'x, y, z'
loop_
 _atom_site_type_symbol
 _atom_site_label
 _atom_site_symmetry_multiplicity
 _atom_site_fract_x
 _atom_site_fract_y
 _atom_site_fract_z
 _atom_site_occupancy
  Zn  Zn0  1  0.00000000  -0.00000000  0.16666727  1
  Zn  Zn1  1  0.66666700  0.33333300  0.27774092  1
  Zn  Zn2  1  -0.00000000  0.00000000  0.38889467  1
  Zn  Zn3  1  0.33333300  0.66666700  0.33341033  1
  Zn  Zn4  1  0.33333300  0.66666700  0.05561190  1
  Zn  Zn5  1  0.33333300  0.66666700  0.61112920  1
  Zn  Zn6  1  0.66666700  0.33333300  0.11108888  1
  Zn  Zn7  1  -0.00000000  -0.00000000  0.00015102  1
  Zn  Zn8  1  0.66666700  0.33333300  0.44444075  1
  Zn  Zn9  1  0.33333300  0.66666700  0.22218383  1
  Zn  Zn10  1  -0.00000000  0.00000000  0.55552245  1
  Zn  Zn11  1  0.00000000  -0.00000000  0.72222534  1
  Zn  Zn12  1  0.66666700  0.33333300  0.77784610  1
  Zn  Zn13  1  0.66666700  0.33333300  0.94450170  1
  Zn  Zn14  1  0.33333300  0.66666700  0.83340943  1
  Zn  Zn15  1  0.66666700  0.33333300  0.66667973  1
  Zn  Zn16  1  0.33333300  0.66666700  0.49999644  1
  Zn  Zn17  1  0.00000000  -0.00000000  0.88889101  1
  S  S18  1  0.66666700  0.33333300  0.70827246  1
  S  S19  1  0.33333300  0.66666700  0.87500013  1
  S  S20  1  0.33333300  0.66666700  0.54157556  1
  S  S21  1  -0.00000000  -0.00000000  0.04172867  1
  S  S22  1  0.66666700  0.33333300  0.48606880  1
  S  S23  1  -0.00000000  -0.00000000  0.93050350  1
  S  S24  1  0.00000000  -0.00000000  0.59720973  1
  S  S25  1  0.66666700  0.33333300  0.15271925  1
  S  S26  1  0.33333300  0.66666700  0.09719965  1
  S  S27  1  0.66666700  0.33333300  0.98619893  1
  S  S28  1  0.66666700  0.33333300  0.81946560  1
  S  S29  1  -0.00000000  0.00000000  0.43052120  1
  S  S30  1  0.33333300  0.66666700  0.26377934  1
  S  S31  1  0.33333300  0.66666700  0.65275398  1
  S  S32  1  0.33333300  0.66666700  0.37499995  1
  S  S33  1  -0.00000000  -0.00000000  0.76391555  1
  S  S34  1  0.66666700  0.33333300  0.31944552  1
  S  S35  1  0.00000000  -0.00000000  0.20828119  1
