# generated using pymatgen
data_Rh2O3
_symmetry_space_group_name_H-M   'P 1'
_cell_length_a   5.49970409
_cell_length_b   5.49970337
_cell_length_c   5.49970287
_cell_angle_alpha   55.75603578
_cell_angle_beta   55.75603861
_cell_angle_gamma   55.75603657
_symmetry_Int_Tables_number   1
_chemical_formula_structural   Rh2O3
_chemical_formula_sum   'Rh4 O6'
_cell_volume   106.04826476
_cell_formula_units_Z   2
loop_
 _symmetry_equiv_pos_site_id
 _symmetry_equiv_pos_as_xyz
  1  'x, y, z'
loop_
 _atom_site_type_symbol
 _atom_site_label
 _atom_site_symmetry_multiplicity
 _atom_site_fract_x
 _atom_site_fract_y
 _atom_site_fract_z
 _atom_site_occupancy
  Rh  Rh0  1  0.34918406  0.34918406  0.34918406  1
  Rh  Rh1  1  0.15081594  0.15081594  0.15081594  1
  Rh  Rh2  1  0.65081594  0.65081594  0.65081594  1
  Rh  Rh3  1  0.84918406  0.84918406  0.84918406  1
  O  O4  1  0.54986897  0.95013103  0.25000000  1
  O  O5  1  0.25000000  0.54986897  0.95013103  1
  O  O6  1  0.95013103  0.25000000  0.54986897  1
  O  O7  1  0.45013103  0.04986897  0.75000000  1
  O  O8  1  0.75000000  0.45013103  0.04986897  1
  O  O9  1  0.04986897  0.75000000  0.45013103  1
