# generated using pymatgen
data_Sr(BrO3)2
_symmetry_space_group_name_H-M   'P 1'
_cell_length_a   7.42743662
_cell_length_b   6.99196756
_cell_length_c   6.99196776
_cell_angle_alpha   114.24118983
_cell_angle_beta   74.15111132
_cell_angle_gamma   74.15111538
_symmetry_Int_Tables_number   1
_chemical_formula_structural   Sr(BrO3)2
_chemical_formula_sum   'Sr2 Br4 O12'
_cell_volume   286.14590349
_cell_formula_units_Z   2
loop_
 _symmetry_equiv_pos_site_id
 _symmetry_equiv_pos_as_xyz
  1  'x, y, z'
loop_
 _atom_site_type_symbol
 _atom_site_label
 _atom_site_symmetry_multiplicity
 _atom_site_fract_x
 _atom_site_fract_y
 _atom_site_fract_z
 _atom_site_occupancy
  Sr  Sr0  1  0.99613277  0.38117453  0.62980960  1
  Sr  Sr1  1  0.49613277  0.62980960  0.38117453  1
  Br  Br2  1  0.95150719  0.78285452  0.41133855  1
  Br  Br3  1  0.45150719  0.41133855  0.78285452  1
  Br  Br4  1  0.02549193  0.09972553  0.97470879  1
  Br  Br5  1  0.52549193  0.97470879  0.09972553  1
  O  O6  1  0.12764583  0.61350257  0.45017811  1
  O  O7  1  0.62764583  0.45017811  0.61350257  1
  O  O8  1  0.23786636  0.54008547  0.76589832  1
  O  O9  1  0.73786636  0.76589832  0.54008547  1
  O  O10  1  0.90905087  0.04922063  0.60121662  1
  O  O11  1  0.40905087  0.60121662  0.04922063  1
  O  O12  1  0.89267371  0.37211052  0.03844609  1
  O  O13  1  0.39267371  0.03844609  0.37211052  1
  O  O14  1  0.75702100  0.77082357  0.01915454  1
  O  O15  1  0.25702100  0.01915454  0.77082357  1
  O  O16  1  0.06890935  0.13754222  0.20481182  1
  O  O17  1  0.56890935  0.20481182  0.13754222  1
