# generated using pymatgen
data_NCl3
_symmetry_space_group_name_H-M   'P 1'
_cell_length_a   7.60202458
_cell_length_b   9.39897316
_cell_length_c   16.63249208
_cell_angle_alpha   90.00000000
_cell_angle_beta   90.00000000
_cell_angle_gamma   90.00000000
_symmetry_Int_Tables_number   1
_chemical_formula_structural   NCl3
_chemical_formula_sum   'N12 Cl36'
_cell_volume   1188.41193374
_cell_formula_units_Z   12
loop_
 _symmetry_equiv_pos_site_id
 _symmetry_equiv_pos_as_xyz
  1  'x, y, z'
loop_
 _atom_site_type_symbol
 _atom_site_label
 _atom_site_symmetry_multiplicity
 _atom_site_fract_x
 _atom_site_fract_y
 _atom_site_fract_z
 _atom_site_occupancy
  N  N0  1  0.89462695  0.25000000  0.05095650  1
  N  N1  1  0.39462695  0.25000000  0.44904350  1
  N  N2  1  0.10537305  0.75000000  0.94904350  1
  N  N3  1  0.60537305  0.75000000  0.55095650  1
  N  N4  1  0.80715980  0.25000000  0.35008940  1
  N  N5  1  0.30715980  0.25000000  0.14991060  1
  N  N6  1  0.19284020  0.75000000  0.64991060  1
  N  N7  1  0.69284020  0.75000000  0.85008940  1
  N  N8  1  0.04082252  0.25000000  0.69567060  1
  N  N9  1  0.54082252  0.25000000  0.80432940  1
  N  N10  1  0.95917748  0.75000000  0.30432940  1
  N  N11  1  0.45917748  0.75000000  0.19567060  1
  Cl  Cl12  1  0.77039781  0.09783323  0.07758833  1
  Cl  Cl13  1  0.27039781  0.40216677  0.42241167  1
  Cl  Cl14  1  0.22960219  0.59783323  0.92241167  1
  Cl  Cl15  1  0.72960219  0.90216677  0.57758833  1
  Cl  Cl16  1  0.22960219  0.90216677  0.92241167  1
  Cl  Cl17  1  0.72960219  0.59783323  0.57758833  1
  Cl  Cl18  1  0.77039781  0.40216677  0.07758833  1
  Cl  Cl19  1  0.27039781  0.09783323  0.42241167  1
  Cl  Cl20  1  0.91867403  0.25000000  0.94539639  1
  Cl  Cl21  1  0.41867403  0.25000000  0.55460361  1
  Cl  Cl22  1  0.08132597  0.75000000  0.05460461  1
  Cl  Cl23  1  0.58132597  0.75000000  0.44539639  1
  Cl  Cl24  1  0.77867687  0.09871356  0.41169428  1
  Cl  Cl25  1  0.27867687  0.40128644  0.08830572  1
  Cl  Cl26  1  0.22132313  0.59871356  0.58830572  1
  Cl  Cl27  1  0.72132313  0.90128644  0.91169428  1
  Cl  Cl28  1  0.22132313  0.90128644  0.58830572  1
  Cl  Cl29  1  0.72132313  0.59871356  0.91169428  1
  Cl  Cl30  1  0.77867687  0.40128644  0.41169428  1
  Cl  Cl31  1  0.27867687  0.09871356  0.08830572  1
  Cl  Cl32  1  0.63581344  0.25000000  0.27775027  1
  Cl  Cl33  1  0.13581344  0.25000000  0.22224973  1
  Cl  Cl34  1  0.36418656  0.75000000  0.72224973  1
  Cl  Cl35  1  0.86418656  0.75000000  0.77775027  1
  Cl  Cl36  1  0.97670296  0.09825886  0.75093167  1
  Cl  Cl37  1  0.47670296  0.40174114  0.74906833  1
  Cl  Cl38  1  0.02329704  0.59825886  0.24906833  1
  Cl  Cl39  1  0.52329704  0.90174114  0.25093167  1
  Cl  Cl40  1  0.02329704  0.90174114  0.24906833  1
  Cl  Cl41  1  0.52329704  0.59825886  0.25093167  1
  Cl  Cl42  1  0.97670296  0.40174114  0.75093167  1
  Cl  Cl43  1  0.47670296  0.09825886  0.74906833  1
  Cl  Cl44  1  0.91844284  0.25000000  0.60452965  1
  Cl  Cl45  1  0.41844284  0.25000000  0.89547035  1
  Cl  Cl46  1  0.08155716  0.75000000  0.39547035  1
  Cl  Cl47  1  0.58155716  0.75000000  0.10452965  1
