# generated using pymatgen
data_ZnS
_symmetry_space_group_name_H-M   'P 1'
_cell_length_a   3.80878100
_cell_length_b   3.80878076
_cell_length_c   87.15293589
_cell_angle_alpha   90.00000000
_cell_angle_beta   90.00000000
_cell_angle_gamma   119.99999323
_symmetry_Int_Tables_number   1
_chemical_formula_structural   ZnS
_chemical_formula_sum   'Zn28 S28'
_cell_volume   1094.92572494
_cell_formula_units_Z   28
loop_
 _symmetry_equiv_pos_site_id
 _symmetry_equiv_pos_as_xyz
  1  'x, y, z'
loop_
 _atom_site_type_symbol
 _atom_site_label
 _atom_site_symmetry_multiplicity
 _atom_site_fract_x
 _atom_site_fract_y
 _atom_site_fract_z
 _atom_site_occupancy
  Zn  Zn0  1  0.66666700  0.33333300  0.07149407  1
  Zn  Zn1  1  0.00000000  -0.00000000  0.32147252  1
  Zn  Zn2  1  0.00000000  0.00000000  0.21426189  1
  Zn  Zn3  1  0.33333300  0.66666700  0.14286980  1
  Zn  Zn4  1  0.33333300  0.66666700  0.35718697  1
  Zn  Zn5  1  0.66666700  0.33333300  0.39285759  1
  Zn  Zn6  1  0.33333300  0.66666700  0.46426920  1
  Zn  Zn7  1  -0.00000000  0.00000000  0.64283101  1
  Zn  Zn8  1  0.66666700  0.33333300  0.78582002  1
  Zn  Zn9  1  0.33333300  0.66666700  0.57136430  1
  Zn  Zn10  1  -0.00000000  -0.00000000  0.53570258  1
  Zn  Zn11  1  0.33333300  0.66666700  0.89283856  1
  Zn  Zn12  1  0.33333300  0.66666700  0.82147401  1
  Zn  Zn13  1  0.33333300  0.66666700  0.96424158  1
  Zn  Zn14  1  0.66666700  0.33333300  0.28574383  1
  Zn  Zn15  1  0.66666700  0.33333300  0.60710828  1
  Zn  Zn16  1  0.33333300  0.66666700  0.67854745  1
  Zn  Zn17  1  0.66666700  0.33333300  0.71423236  1
  Zn  Zn18  1  0.00000000  -0.00000000  0.10718430  1
  Zn  Zn19  1  0.66666700  0.33333300  0.92849551  1
  Zn  Zn20  1  0.33333300  0.66666700  0.03582188  1
  Zn  Zn21  1  0.66666700  0.33333300  0.17859247  1
  Zn  Zn22  1  -0.00000000  0.00000000  0.00001779  1
  Zn  Zn23  1  0.66666700  0.33333300  0.50003102  1
  Zn  Zn24  1  0.00000000  -0.00000000  0.85716985  1
  Zn  Zn25  1  -0.00000000  -0.00000000  0.42855464  1
  Zn  Zn26  1  0.33333300  0.66666700  0.24997185  1
  Zn  Zn27  1  -0.00000000  -0.00000000  0.75001734  1
  S  S28  1  0.66666700  0.33333300  0.20535542  1
  S  S29  1  0.33333300  0.66666700  0.84821275  1
  S  S30  1  -0.00000000  0.00000000  0.77685062  1
  S  S31  1  0.33333300  0.66666700  0.99100783  1
  S  S32  1  0.33333300  0.66666700  0.70531009  1
  S  S33  1  -0.00000000  0.00000000  0.45532767  1
  S  S34  1  0.66666700  0.33333300  0.63388774  1
  S  S35  1  -0.00000000  -0.00000000  0.02684758  1
  S  S36  1  -0.00000000  0.00000000  0.34824481  1
  S  S37  1  -0.00000000  -0.00000000  0.88395239  1
  S  S38  1  0.66666700  0.33333300  0.41962151  1
  S  S39  1  0.66666700  0.33333300  0.09825777  1
  S  S40  1  -0.00000000  0.00000000  0.13394865  1
  S  S41  1  0.66666700  0.33333300  0.31252970  1
  S  S42  1  0.66666700  0.33333300  0.52678825  1
  S  S43  1  0.33333300  0.66666700  0.16964530  1
  S  S44  1  0.00000000  0.00000000  0.66960645  1
  S  S45  1  0.33333300  0.66666700  0.59814900  1
  S  S46  1  0.00000000  -0.00000000  0.24103511  1
  S  S47  1  0.66666700  0.33333300  0.74100751  1
  S  S48  1  0.66666700  0.33333300  0.81256723  1
  S  S49  1  0.33333300  0.66666700  0.91956157  1
  S  S50  1  0.66666700  0.33333300  0.95530444  1
  S  S51  1  0.33333300  0.66666700  0.38394549  1
  S  S52  1  0.33333300  0.66666700  0.27677308  1
  S  S53  1  0.33333300  0.66666700  0.06257684  1
  S  S54  1  0.33333300  0.66666700  0.49105486  1
  S  S55  1  -0.00000000  -0.00000000  0.56245364  1
