# generated using pymatgen
data_K3GaTe3
_symmetry_space_group_name_H-M   'P 1'
_cell_length_a   13.76438590
_cell_length_b   8.65401634
_cell_length_c   11.33210358
_cell_angle_alpha   52.48041264
_cell_angle_beta   90.00000000
_cell_angle_gamma   90.00000000
_symmetry_Int_Tables_number   1
_chemical_formula_structural   K3GaTe3
_chemical_formula_sum   'K12 Ga4 Te12'
_cell_volume   1070.62597537
_cell_formula_units_Z   4
loop_
 _symmetry_equiv_pos_site_id
 _symmetry_equiv_pos_as_xyz
  1  'x, y, z'
loop_
 _atom_site_type_symbol
 _atom_site_label
 _atom_site_symmetry_multiplicity
 _atom_site_fract_x
 _atom_site_fract_y
 _atom_site_fract_z
 _atom_site_occupancy
  K  K0  1  0.90579989  0.33530371  0.39956688  1
  K  K1  1  0.40579989  0.66469629  0.10043312  1
  K  K2  1  0.09420011  0.66469629  0.60043312  1
  K  K3  1  0.59420011  0.33530371  0.89956688  1
  K  K4  1  0.18989250  0.12251318  0.59056438  1
  K  K5  1  0.68989250  0.87748682  0.90943562  1
  K  K6  1  0.81010750  0.87748682  0.40943562  1
  K  K7  1  0.31010750  0.12251318  0.09056438  1
  K  K8  1  0.61450308  0.36250287  0.47516802  1
  K  K9  1  0.11450308  0.63749713  0.02483198  1
  K  K10  1  0.38549692  0.63749713  0.52483198  1
  K  K11  1  0.88549692  0.36250287  0.97516802  1
  Ga  Ga12  1  0.93558866  0.06526963  0.83481727  1
  Ga  Ga13  1  0.43558866  0.93473037  0.66518273  1
  Ga  Ga14  1  0.06441134  0.93473037  0.16518273  1
  Ga  Ga15  1  0.56441134  0.06526963  0.33481727  1
  Te  Te16  1  0.38997571  0.16450307  0.37147437  1
  Te  Te17  1  0.88997571  0.83549693  0.12852563  1
  Te  Te18  1  0.61002429  0.83549693  0.62852563  1
  Te  Te19  1  0.11002429  0.16450307  0.87147437  1
  Te  Te20  1  0.68689368  0.35631334  0.18468365  1
  Te  Te21  1  0.18689368  0.64368666  0.31531635  1
  Te  Te22  1  0.31310632  0.64368666  0.81531635  1
  Te  Te23  1  0.81310632  0.35631334  0.68468365  1
  Te  Te24  1  0.55528570  0.86771316  0.23179662  1
  Te  Te25  1  0.05528570  0.13228684  0.26820338  1
  Te  Te26  1  0.44471430  0.13228684  0.76820338  1
  Te  Te27  1  0.94471430  0.86771316  0.73179662  1
