# generated using pymatgen
data_La3BWO9
_symmetry_space_group_name_H-M   'P 1'
_cell_length_a   8.84506582
_cell_length_b   8.84506582
_cell_length_c   5.61262916
_cell_angle_alpha   90.00000000
_cell_angle_beta   90.00000000
_cell_angle_gamma   120.00000059
_symmetry_Int_Tables_number   1
_chemical_formula_structural   La3BWO9
_chemical_formula_sum   'La6 B2 W2 O18'
_cell_volume   380.27617362
_cell_formula_units_Z   2
loop_
 _symmetry_equiv_pos_site_id
 _symmetry_equiv_pos_as_xyz
  1  'x, y, z'
loop_
 _atom_site_type_symbol
 _atom_site_label
 _atom_site_symmetry_multiplicity
 _atom_site_fract_x
 _atom_site_fract_y
 _atom_site_fract_z
 _atom_site_occupancy
  La  La0  1  0.91537608  0.27648843  0.22015743  1
  La  La1  1  0.72351157  0.63888765  0.22015743  1
  La  La2  1  0.27648843  0.36111235  0.72015743  1
  La  La3  1  0.08462392  0.72351157  0.72015743  1
  La  La4  1  0.36111235  0.08462392  0.22015743  1
  La  La5  1  0.63888765  0.91537608  0.72015743  1
  B  B6  1  0.00000000  0.00000000  0.87624173  1
  B  B7  1  0.00000000  0.00000000  0.37624173  1
  W  W8  1  0.66666700  0.33333300  0.75631119  1
  W  W9  1  0.33333300  0.66666700  0.25631119  1
  O  O10  1  0.37837171  0.85774993  0.47708194  1
  O  O11  1  0.47937822  0.62162829  0.47708194  1
  O  O12  1  0.12818731  0.17349899  0.36950699  1
  O  O13  1  0.52404073  0.72004463  0.05026900  1
  O  O14  1  0.17349899  0.04531168  0.86950699  1
  O  O15  1  0.87181269  0.82650101  0.86950699  1
  O  O16  1  0.27995537  0.80399610  0.05026900  1
  O  O17  1  0.19600390  0.47595927  0.05026900  1
  O  O18  1  0.85774993  0.47937822  0.97708194  1
  O  O19  1  0.95468832  0.12818731  0.86950699  1
  O  O20  1  0.72004463  0.19600390  0.55026900  1
  O  O21  1  0.04531168  0.87181269  0.36950699  1
  O  O22  1  0.62162829  0.14225007  0.97708194  1
  O  O23  1  0.82650101  0.95468832  0.36950699  1
  O  O24  1  0.80399610  0.52404073  0.55026900  1
  O  O25  1  0.47595927  0.27995537  0.55026900  1
  O  O26  1  0.52062178  0.37837171  0.97708194  1
  O  O27  1  0.14225007  0.52062178  0.47708194  1
