# generated using pymatgen
data_MgAs2(XeF9)2
_symmetry_space_group_name_H-M   'P 1'
_cell_length_a   8.77731500
_cell_length_b   13.30965700
_cell_length_c   13.65154516
_cell_angle_alpha   78.62701536
_cell_angle_beta   90.00000000
_cell_angle_gamma   90.00000000
_symmetry_Int_Tables_number   1
_chemical_formula_structural   MgAs2(XeF9)2
_chemical_formula_sum   'Mg4 As8 Xe8 F72'
_cell_volume   1563.49979816
_cell_formula_units_Z   4
loop_
 _symmetry_equiv_pos_site_id
 _symmetry_equiv_pos_as_xyz
  1  'x, y, z'
loop_
 _atom_site_type_symbol
 _atom_site_label
 _atom_site_symmetry_multiplicity
 _atom_site_fract_x
 _atom_site_fract_y
 _atom_site_fract_z
 _atom_site_occupancy
  Mg  Mg0  1  0.03733200  0.60669300  0.13532800  1
  Mg  Mg1  1  0.53733200  0.89330700  0.36467200  1
  Mg  Mg2  1  0.46266800  0.10669300  0.63532800  1
  Mg  Mg3  1  0.96266800  0.39330700  0.86467200  1
  As  As4  1  0.30707000  0.80605100  0.17030500  1
  As  As5  1  0.73602900  0.89957700  0.60717400  1
  As  As6  1  0.19293000  0.30605100  0.67030500  1
  As  As7  1  0.23602900  0.60042300  0.89282600  1
  As  As8  1  0.69293000  0.19394900  0.82969500  1
  As  As9  1  0.80707000  0.69394900  0.32969500  1
  As  As10  1  0.76397100  0.39957700  0.10717400  1
  As  As11  1  0.26397100  0.10042300  0.39282600  1
  Xe  Xe12  1  0.85186800  0.03607000  0.16821500  1
  Xe  Xe13  1  0.70347900  0.76719300  0.95039800  1
  Xe  Xe14  1  0.79652100  0.26719300  0.45039800  1
  Xe  Xe15  1  0.20347900  0.73280700  0.54960200  1
  Xe  Xe16  1  0.64813200  0.53607000  0.66821500  1
  Xe  Xe17  1  0.14813200  0.96393000  0.83178500  1
  Xe  Xe18  1  0.29652100  0.23280700  0.04960200  1
  Xe  Xe19  1  0.35186800  0.46393000  0.33178500  1
  F  F20  1  0.72842500  0.27578200  0.71455600  1
  F  F21  1  0.15789100  0.73923200  0.11368000  1
  F  F22  1  0.09456000  0.52161600  0.84450000  1
  F  F23  1  0.04660700  0.37067800  0.73086600  1
  F  F24  1  0.36408900  0.67413400  0.94662100  1
  F  F25  1  0.54746300  0.84592200  0.86038700  1
  F  F26  1  0.79974800  0.47661000  0.78777600  1
  F  F27  1  0.30192300  0.34171300  0.13401900  1
  F  F28  1  0.60918800  0.79638400  0.63791600  1
  F  F29  1  0.82170300  0.86944700  0.72556100  1
  F  F30  1  0.22842500  0.22421800  0.78544400  1
  F  F31  1  0.34303000  0.88601700  0.05501500  1
  F  F32  1  0.84303000  0.61398300  0.44498500  1
  F  F33  1  0.65697000  0.11398300  0.94498500  1
  F  F34  1  0.80165800  0.38309600  0.52600400  1
  F  F35  1  0.37341900  0.81590400  0.45334900  1
  F  F36  1  0.40544000  0.02161600  0.34450000  1
  F  F37  1  0.95253700  0.34592200  0.36038700  1
  F  F38  1  0.84210900  0.26076800  0.88632000  1
  F  F39  1  0.27157500  0.72421800  0.28544400  1
  F  F40  1  0.15194400  0.99066700  0.42665500  1
  F  F41  1  0.15697000  0.38601700  0.55501500  1
  F  F42  1  0.86408900  0.82586600  0.55337900  1
  F  F43  1  0.69807700  0.65828700  0.86598100  1
  F  F44  1  0.65194400  0.50933300  0.07334500  1
  F  F45  1  0.89081200  0.29638400  0.13791600  1
  F  F46  1  0.17138800  0.89302000  0.19739300  1
  F  F47  1  0.39081200  0.20361600  0.36208400  1
  F  F48  1  0.82861200  0.10698000  0.80260700  1
  F  F49  1  0.19834200  0.61690400  0.47399600  1
  F  F50  1  0.45339300  0.87067800  0.23086600  1
  F  F51  1  0.45253700  0.15407800  0.13961300  1
  F  F52  1  0.69834200  0.88309600  0.02600400  1
  F  F53  1  0.13644600  0.56494300  0.01301600  1
  F  F54  1  0.67829700  0.36944700  0.22556100  1
  F  F55  1  0.19807700  0.84171300  0.63401900  1
  F  F56  1  0.84805600  0.00933300  0.57334500  1
  F  F57  1  0.99862800  0.09521400  0.05733100  1
  F  F58  1  0.67138800  0.60698000  0.30260700  1
  F  F59  1  0.59456000  0.97838400  0.65550000  1
  F  F60  1  0.34805600  0.49066700  0.92665500  1
  F  F61  1  0.36355400  0.06494300  0.51301600  1
  F  F62  1  0.29974800  0.02339000  0.71222400  1
  F  F63  1  0.49862800  0.40478600  0.44266900  1
  F  F64  1  0.86355400  0.43505700  0.98698400  1
  F  F65  1  0.63644600  0.93505700  0.48698400  1
  F  F66  1  0.95339300  0.62932200  0.26913400  1
  F  F67  1  0.80192300  0.15828700  0.36598100  1
  F  F68  1  0.20025200  0.52339000  0.21222400  1
  F  F69  1  0.77157500  0.77578200  0.21455600  1
  F  F70  1  0.30165800  0.11690400  0.97399600  1
  F  F71  1  0.32170300  0.63055300  0.77443900  1
  F  F72  1  0.10918800  0.70361600  0.86208400  1
  F  F73  1  0.55655400  0.28068300  0.85681000  1
  F  F74  1  0.44344600  0.71931700  0.14319000  1
  F  F75  1  0.17829700  0.13055300  0.27443900  1
  F  F76  1  0.62658100  0.18409600  0.54665100  1
  F  F77  1  0.32861200  0.39302000  0.69739300  1
  F  F78  1  0.54660700  0.12932200  0.76913400  1
  F  F79  1  0.00137200  0.90478600  0.94266900  1
  F  F80  1  0.70025200  0.97661000  0.28777600  1
  F  F81  1  0.05655400  0.21931700  0.64319000  1
  F  F82  1  0.12658100  0.31590400  0.95334900  1
  F  F83  1  0.50137200  0.59521400  0.55733100  1
  F  F84  1  0.34210900  0.23923200  0.61368000  1
  F  F85  1  0.90544000  0.47838400  0.15550000  1
  F  F86  1  0.65789100  0.76076800  0.38632000  1
  F  F87  1  0.63591100  0.32586600  0.05337900  1
  F  F88  1  0.87341900  0.68409600  0.04665100  1
  F  F89  1  0.04746300  0.65407800  0.63961300  1
  F  F90  1  0.13591100  0.17413400  0.44662100  1
  F  F91  1  0.94344600  0.78068300  0.35681000  1
