# generated using pymatgen
data_Sr17(Ta5S21)2
_symmetry_space_group_name_H-M   'P 1'
_cell_length_a   12.26194435
_cell_length_b   12.31089924
_cell_length_c   12.31205954
_cell_angle_alpha   96.20717982
_cell_angle_beta   96.38089234
_cell_angle_gamma   96.25625244
_symmetry_Int_Tables_number   1
_chemical_formula_structural   Sr17(Ta5S21)2
_chemical_formula_sum   'Sr17 Ta10 S42'
_cell_volume   1822.41010462
_cell_formula_units_Z   1
loop_
 _symmetry_equiv_pos_site_id
 _symmetry_equiv_pos_as_xyz
  1  'x, y, z'
loop_
 _atom_site_type_symbol
 _atom_site_label
 _atom_site_symmetry_multiplicity
 _atom_site_fract_x
 _atom_site_fract_y
 _atom_site_fract_z
 _atom_site_occupancy
  Sr  Sr0  1  0.07834916  0.93861547  0.69925445  1
  Sr  Sr1  1  0.04669539  0.27119718  0.89922497  1
  Sr  Sr2  1  0.04926153  0.41710452  0.28936184  1
  Sr  Sr3  1  0.26872880  0.90345561  0.04127028  1
  Sr  Sr4  1  0.36652517  0.73183943  0.60226637  1
  Sr  Sr5  1  0.28581265  0.05131566  0.42053888  1
  Sr  Sr6  1  0.36906334  0.60595055  0.23247560  1
  Sr  Sr7  1  0.41737319  0.28718854  0.04948676  1
  Sr  Sr8  1  0.58045565  0.71813597  0.95194200  1
  Sr  Sr9  1  0.58550523  0.36724924  0.73240195  1
  Sr  Sr10  1  0.71592422  0.95295643  0.58135820  1
  Sr  Sr11  1  0.60773150  0.23652007  0.36530491  1
  Sr  Sr12  1  0.70144316  0.07670375  0.93740212  1
  Sr  Sr13  1  0.73093081  0.59640073  0.36890021  1
  Sr  Sr14  1  0.95221111  0.57480786  0.71507846  1
  Sr  Sr15  1  0.93906927  0.69789667  0.07341090  1
  Sr  Sr16  1  0.90372845  0.04298373  0.26809258  1
  Ta  Ta17  1  0.04255400  0.72146350  0.38013757  1
  Ta  Ta18  1  0.22109436  0.54532388  0.88095318  1
  Ta  Ta19  1  0.16795720  0.16638842  0.16513352  1
  Ta  Ta20  1  0.34662137  0.35492331  0.36484802  1
  Ta  Ta21  1  0.38211902  0.04223650  0.72194593  1
  Ta  Ta22  1  0.54454116  0.88310789  0.22068328  1
  Ta  Ta23  1  0.66710560  0.66669332  0.66755755  1
  Ta  Ta24  1  0.85659383  0.85596714  0.85502959  1
  Ta  Ta25  1  0.72179514  0.38188728  0.04252106  1
  Ta  Ta26  1  0.88344653  0.22114800  0.54604773  1
  S  S27  1  0.03864511  0.81710313  0.89674877  1
  S  S28  1  0.05109959  0.51947635  0.94140733  1
  S  S29  1  0.97521363  0.57700883  0.46228700  1
  S  S30  1  0.00267106  0.33712243  0.66783881  1
  S  S31  1  0.12244762  0.98624561  0.20820825  1
  S  S32  1  0.12496035  0.65474515  0.23416252  1
  S  S33  1  0.16851314  0.83945279  0.49906582  1
  S  S34  1  0.19513032  0.61026683  0.71654430  1
  S  S35  1  0.20950959  0.12278537  0.98447325  1
  S  S36  1  0.16736285  0.23982941  0.37067597  1
  S  S37  1  0.28173542  0.37924708  0.86060913  1
  S  S38  1  0.23761446  0.12426939  0.65760252  1
  S  S39  1  0.31340692  0.89241770  0.79779744  1
  S  S40  1  0.24037787  0.37446111  0.16721819  1
  S  S41  1  0.29321862  0.51775463  0.43624582  1
  S  S42  1  0.37586267  0.85717051  0.27922765  1
  S  S43  1  0.33918121  0.67115754  0.00331642  1
  S  S44  1  0.37515743  0.16345844  0.23915372  1
  S  S45  1  0.43731059  0.28677498  0.51246489  1
  S  S46  1  0.50650766  0.59211916  0.72940899  1
  S  S47  1  0.46282299  0.97550266  0.57487932  1
  S  S48  1  0.50168752  0.16817677  0.84150414  1
  S  S49  1  0.52075505  0.94319956  0.05253173  1
  S  S50  1  0.58876927  0.72676149  0.50605442  1
  S  S51  1  0.51091036  0.43282769  0.28866555  1
  S  S52  1  0.64924809  0.85887003  0.78162561  1
  S  S53  1  0.60273620  0.71360607  0.19795011  1
  S  S54  1  0.57560288  0.46497317  0.97881534  1
  S  S55  1  0.78236572  0.65026318  0.85738859  1
  S  S56  1  0.71118850  0.19893849  0.60101778  1
  S  S57  1  0.65752855  0.23410878  0.12377657  1
  S  S58  1  0.72330314  0.50408203  0.58943663  1
  S  S59  1  0.66944933  0.00303300  0.33867747  1
  S  S60  1  0.79561644  0.31473199  0.89195211  1
  S  S61  1  0.85812265  0.78070843  0.65035536  1
  S  S62  1  0.81277691  0.89336967  0.03690292  1
  S  S63  1  0.89237301  0.79616231  0.31041906  1
  S  S64  1  0.83978693  0.50079407  0.16911910  1
  S  S65  1  0.85832952  0.27963765  0.37611294  1
  S  S66  1  0.89459002  0.03751954  0.81228793  1
  S  S67  1  0.94179093  0.05088004  0.52012795  1
  S  S68  1  0.98638404  0.20822725  0.12101465  1
