# generated using pymatgen
data_Sr2NF
_symmetry_space_group_name_H-M   'P 1'
_cell_length_a   13.12329365
_cell_length_b   13.12329365
_cell_length_c   7.54369037
_cell_angle_alpha   90.00000000
_cell_angle_beta   90.00000000
_cell_angle_gamma   109.01839036
_symmetry_Int_Tables_number   1
_chemical_formula_structural   Sr2NF
_chemical_formula_sum   'Sr32 N16 F16'
_cell_volume   1228.26362560
_cell_formula_units_Z   16
loop_
 _symmetry_equiv_pos_site_id
 _symmetry_equiv_pos_as_xyz
  1  'x, y, z'
loop_
 _atom_site_type_symbol
 _atom_site_label
 _atom_site_symmetry_multiplicity
 _atom_site_fract_x
 _atom_site_fract_y
 _atom_site_fract_z
 _atom_site_occupancy
  Sr  Sr0  1  0.63027572  0.36972428  0.51415725  1
  Sr  Sr1  1  0.35313824  0.35883293  0.25000000  1
  Sr  Sr2  1  0.64116707  0.64686176  0.25000000  1
  Sr  Sr3  1  0.12665253  0.36936320  0.01768697  1
  Sr  Sr4  1  0.63063680  0.87334747  0.01768697  1
  Sr  Sr5  1  0.36972428  0.63027572  0.01415725  1
  Sr  Sr6  1  0.63027572  0.36972428  0.98584275  1
  Sr  Sr7  1  0.62897930  0.13929255  0.75000000  1
  Sr  Sr8  1  0.36199951  0.87077376  0.75000000  1
  Sr  Sr9  1  0.12922624  0.63800049  0.75000000  1
  Sr  Sr10  1  0.86070745  0.37102070  0.75000000  1
  Sr  Sr11  1  0.64686176  0.64116707  0.75000000  1
  Sr  Sr12  1  0.35883293  0.35313824  0.75000000  1
  Sr  Sr13  1  0.13043164  0.86956836  0.51714077  1
  Sr  Sr14  1  0.36936320  0.12665253  0.51768697  1
  Sr  Sr15  1  0.87334747  0.63063680  0.51768697  1
  Sr  Sr16  1  0.63063680  0.87334747  0.48231303  1
  Sr  Sr17  1  0.12665253  0.36936320  0.48231303  1
  Sr  Sr18  1  0.36972428  0.63027572  0.48584275  1
  Sr  Sr19  1  0.12497625  0.13529763  0.25000000  1
  Sr  Sr20  1  0.86470237  0.87502375  0.25000000  1
  Sr  Sr21  1  0.63800049  0.12922624  0.25000000  1
  Sr  Sr22  1  0.37102070  0.86070745  0.25000000  1
  Sr  Sr23  1  0.13929255  0.62897930  0.25000000  1
  Sr  Sr24  1  0.87077376  0.36199951  0.25000000  1
  Sr  Sr25  1  0.86956836  0.13043164  0.01714077  1
  Sr  Sr26  1  0.13043164  0.86956836  0.98285923  1
  Sr  Sr27  1  0.36936320  0.12665253  0.98231303  1
  Sr  Sr28  1  0.87334747  0.63063680  0.98231303  1
  Sr  Sr29  1  0.13529763  0.12497625  0.75000000  1
  Sr  Sr30  1  0.87502375  0.86470237  0.75000000  1
  Sr  Sr31  1  0.86956836  0.13043164  0.48285923  1
  N  N32  1  0.74914044  0.25085956  0.99931970  1
  N  N33  1  0.74914044  0.25085956  0.50068030  1
  N  N34  1  0.24571970  0.24571970  0.00000000  1
  N  N35  1  0.75428030  0.75428030  0.00000000  1
  N  N36  1  0.74749096  0.50162022  0.75000000  1
  N  N37  1  0.49837978  0.25250904  0.75000000  1
  N  N38  1  0.25085956  0.74914044  0.49931970  1
  N  N39  1  0.75428030  0.75428030  0.50000000  1
  N  N40  1  0.24571970  0.24571970  0.50000000  1
  N  N41  1  0.50162022  0.74749096  0.25000000  1
  N  N42  1  0.25250904  0.49837978  0.25000000  1
  N  N43  1  0.99848956  0.24844093  0.25000000  1
  N  N44  1  0.75155907  0.00151044  0.25000000  1
  N  N45  1  0.25085956  0.74914044  0.00068030  1
  N  N46  1  0.00151044  0.75155907  0.75000000  1
  N  N47  1  0.24844093  0.99848956  0.75000000  1
  F  F48  1  0.55085830  0.44914170  0.25000000  1
  F  F49  1  0.78390437  0.51254617  0.25000000  1
  F  F50  1  0.44914170  0.55085830  0.75000000  1
  F  F51  1  0.51254617  0.78390437  0.75000000  1
  F  F52  1  0.21609563  0.48745383  0.75000000  1
  F  F53  1  0.75280757  0.00334314  0.75000000  1
  F  F54  1  0.00000000  0.50000000  0.50000000  1
  F  F55  1  0.50000000  -0.00000000  0.50000000  1
  F  F56  1  0.00334314  0.75280757  0.25000000  1
  F  F57  1  0.48745383  0.21609563  0.25000000  1
  F  F58  1  0.24719243  0.99665686  0.25000000  1
  F  F59  1  0.00000000  -0.00000000  0.00000000  1
  F  F60  1  0.50000000  -0.00000000  0.00000000  1
  F  F61  1  0.00000000  0.50000000  0.00000000  1
  F  F62  1  0.99665686  0.24719243  0.75000000  1
  F  F63  1  0.00000000  -0.00000000  0.50000000  1
