# generated using pymatgen
data_Rb3VS4
_symmetry_space_group_name_H-M   'P 1'
_cell_length_a   9.46874073
_cell_length_b   9.45770402
_cell_length_c   11.01991984
_cell_angle_alpha   90.00000000
_cell_angle_beta   90.00000000
_cell_angle_gamma   90.00000000
_symmetry_Int_Tables_number   1
_chemical_formula_structural   Rb3VS4
_chemical_formula_sum   'Rb12 V4 S16'
_cell_volume   986.86189234
_cell_formula_units_Z   4
loop_
 _symmetry_equiv_pos_site_id
 _symmetry_equiv_pos_as_xyz
  1  'x, y, z'
loop_
 _atom_site_type_symbol
 _atom_site_label
 _atom_site_symmetry_multiplicity
 _atom_site_fract_x
 _atom_site_fract_y
 _atom_site_fract_z
 _atom_site_occupancy
  Rb  Rb0  1  0.04714877  0.79180854  0.45735346  1
  Rb  Rb1  1  0.45285123  0.29180854  0.54264654  1
  Rb  Rb2  1  0.54714877  0.70819146  0.04264654  1
  Rb  Rb3  1  0.95285123  0.20819146  0.95735346  1
  Rb  Rb4  1  0.95285123  0.20819146  0.54264654  1
  Rb  Rb5  1  0.54714877  0.70819146  0.45735346  1
  Rb  Rb6  1  0.45285123  0.29180854  0.95735346  1
  Rb  Rb7  1  0.04714877  0.79180854  0.04264654  1
  Rb  Rb8  1  0.14563030  0.58801024  0.75000000  1
  Rb  Rb9  1  0.35436970  0.08801024  0.25000000  1
  Rb  Rb10  1  0.64563030  0.91198976  0.75000000  1
  Rb  Rb11  1  0.85436970  0.41198976  0.25000000  1
  V  V12  1  0.78017368  0.98349985  0.25000000  1
  V  V13  1  0.71982632  0.48349985  0.75000000  1
  V  V14  1  0.28017368  0.51650015  0.25000000  1
  V  V15  1  0.21982632  0.01650015  0.75000000  1
  S  S16  1  0.79448119  0.75651166  0.25000000  1
  S  S17  1  0.70551881  0.25651166  0.75000000  1
  S  S18  1  0.29448119  0.74348834  0.25000000  1
  S  S19  1  0.20551881  0.24348834  0.75000000  1
  S  S20  1  0.00893450  0.92870422  0.75000000  1
  S  S21  1  0.49106550  0.42870422  0.25000000  1
  S  S22  1  0.50893450  0.57129578  0.75000000  1
  S  S23  1  0.99106550  0.07129578  0.25000000  1
  S  S24  1  0.32940635  0.95063519  0.58873460  1
  S  S25  1  0.17059365  0.45063519  0.41126540  1
  S  S26  1  0.82940635  0.54936481  0.91126540  1
  S  S27  1  0.67059365  0.04936481  0.08873460  1
  S  S28  1  0.67059365  0.04936481  0.41126540  1
  S  S29  1  0.82940635  0.54936481  0.58873460  1
  S  S30  1  0.17059365  0.45063519  0.08873460  1
  S  S31  1  0.32940635  0.95063519  0.91126540  1
