# generated using pymatgen
data_Ba2FeO4
_symmetry_space_group_name_H-M   'P 1'
_cell_length_a   6.13558643
_cell_length_b   7.70733041
_cell_length_c   10.11336650
_cell_angle_alpha   90.00002259
_cell_angle_beta   93.56019509
_cell_angle_gamma   89.99991928
_symmetry_Int_Tables_number   1
_chemical_formula_structural   Ba2FeO4
_chemical_formula_sum   'Ba8 Fe4 O16'
_cell_volume   477.32793449
_cell_formula_units_Z   4
loop_
 _symmetry_equiv_pos_site_id
 _symmetry_equiv_pos_as_xyz
  1  'x, y, z'
loop_
 _atom_site_type_symbol
 _atom_site_label
 _atom_site_symmetry_multiplicity
 _atom_site_fract_x
 _atom_site_fract_y
 _atom_site_fract_z
 _atom_site_occupancy
  Ba  Ba0  1  0.75608883  0.84886774  0.08153900  1
  Ba  Ba1  1  0.74391377  0.34886952  0.41845847  1
  Ba  Ba2  1  0.24391409  0.15112977  0.91845823  1
  Ba  Ba3  1  0.25608798  0.65113321  0.58153932  1
  Ba  Ba4  1  0.22444908  0.50577560  0.19380288  1
  Ba  Ba5  1  0.27555206  0.00577516  0.30619596  1
  Ba  Ba6  1  0.77555264  0.49422530  0.80619571  1
  Ba  Ba7  1  0.72444817  0.99422488  0.69380313  1
  Fe  Fe8  1  0.25720918  0.72358314  0.91655441  1
  Fe  Fe9  1  0.24279118  0.22358275  0.58344515  1
  Fe  Fe10  1  0.74279233  0.27641744  0.08344513  1
  Fe  Fe11  1  0.75720657  0.77641672  0.41655476  1
  O  O12  1  0.71430480  0.00236867  0.39577681  1
  O  O13  1  0.78568046  0.50236983  0.10422843  1
  O  O14  1  0.28567918  0.99763050  0.60422862  1
  O  O15  1  0.21430804  0.49763288  0.89577603  1
  O  O16  1  0.49513258  0.23839538  0.16048779  1
  O  O17  1  0.00486676  0.73840358  0.33950789  1
  O  O18  1  0.50486869  0.76159658  0.83950882  1
  O  O19  1  0.99513047  0.26160325  0.66048669  1
  O  O20  1  0.00312521  0.18816430  0.13259091  1
  O  O21  1  0.49687741  0.68815728  0.36741170  1
  O  O22  1  0.99687946  0.81184334  0.86741157  1
  O  O23  1  0.50312418  0.31183597  0.63259176  1
  O  O24  1  0.69063584  0.16325700  0.92924014  1
  O  O25  1  0.80937198  0.66325743  0.57075934  1
  O  O26  1  0.30937366  0.83674251  0.07076018  1
  O  O27  1  0.19063441  0.33674325  0.42923918  1
