# generated using pymatgen
data_CaNb2P2O11
_symmetry_space_group_name_H-M   'P 1'
_cell_length_a   9.26059973
_cell_length_b   9.26059973
_cell_length_c   5.24684498
_cell_angle_alpha   86.93412178
_cell_angle_beta   86.93412178
_cell_angle_gamma   71.61108418
_symmetry_Int_Tables_number   1
_chemical_formula_structural   CaNb2P2O11
_chemical_formula_sum   'Ca2 Nb4 P4 O22'
_cell_volume   426.05671006
_cell_formula_units_Z   2
loop_
 _symmetry_equiv_pos_site_id
 _symmetry_equiv_pos_as_xyz
  1  'x, y, z'
loop_
 _atom_site_type_symbol
 _atom_site_label
 _atom_site_symmetry_multiplicity
 _atom_site_fract_x
 _atom_site_fract_y
 _atom_site_fract_z
 _atom_site_occupancy
  Ca  Ca0  1  0.60495248  0.39504752  0.25000000  1
  Ca  Ca1  1  0.39504752  0.60495248  0.75000000  1
  Nb  Nb2  1  0.00456903  0.24570464  0.26303916  1
  Nb  Nb3  1  0.24570464  0.00456903  0.76303916  1
  Nb  Nb4  1  0.75429536  0.99543097  0.23696084  1
  Nb  Nb5  1  0.99543097  0.75429536  0.73696084  1
  P  P6  1  0.18584257  0.51905769  0.24531205  1
  P  P7  1  0.81415743  0.48094231  0.75468795  1
  P  P8  1  0.48094231  0.81415743  0.25468795  1
  P  P9  1  0.51905769  0.18584257  0.74531205  1
  O  O10  1  0.62456511  0.07478437  0.55581138  1
  O  O11  1  0.08472940  0.13777117  0.57817114  1
  O  O12  1  0.07478437  0.62456511  0.05581138  1
  O  O13  1  0.83189655  0.40668299  0.49437040  1
  O  O14  1  0.83016205  0.16983795  0.25000000  1
  O  O15  1  0.40668299  0.83189655  0.99437040  1
  O  O16  1  0.59331701  0.16810345  0.00562960  1
  O  O17  1  0.37163008  0.14245151  0.78663421  1
  O  O18  1  0.91527060  0.86222883  0.42182886  1
  O  O19  1  0.13777117  0.08472940  0.07817114  1
  O  O20  1  0.92521563  0.37543489  0.94418862  1
  O  O21  1  0.51460145  0.65372329  0.36612307  1
  O  O22  1  0.34627671  0.48539855  0.13387693  1
  O  O23  1  0.85754849  0.62836992  0.71336579  1
  O  O24  1  0.16983795  0.83016205  0.75000000  1
  O  O25  1  0.86222883  0.91527060  0.92182886  1
  O  O26  1  0.16810345  0.59331701  0.50562960  1
  O  O27  1  0.62836992  0.85754849  0.21336579  1
  O  O28  1  0.65372329  0.51460145  0.86612307  1
  O  O29  1  0.37543489  0.92521563  0.44418862  1
  O  O30  1  0.48539855  0.34627671  0.63387693  1
  O  O31  1  0.14245151  0.37163008  0.28663421  1
