# generated using pymatgen
data_KSnAsS5
_symmetry_space_group_name_H-M   'P 1'
_cell_length_a   7.49390376
_cell_length_b   8.27731173
_cell_length_c   13.99012673
_cell_angle_alpha   90.00000000
_cell_angle_beta   90.00000000
_cell_angle_gamma   90.00000000
_symmetry_Int_Tables_number   1
_chemical_formula_structural   KSnAsS5
_chemical_formula_sum   'K4 Sn4 As4 S20'
_cell_volume   867.79885215
_cell_formula_units_Z   4
loop_
 _symmetry_equiv_pos_site_id
 _symmetry_equiv_pos_as_xyz
  1  'x, y, z'
loop_
 _atom_site_type_symbol
 _atom_site_label
 _atom_site_symmetry_multiplicity
 _atom_site_fract_x
 _atom_site_fract_y
 _atom_site_fract_z
 _atom_site_occupancy
  K  K0  1  0.50000000  0.88757033  0.83703572  1
  K  K1  1  0.50000000  0.61242967  0.33703572  1
  K  K2  1  0.50000000  0.38757033  0.66296428  1
  K  K3  1  0.50000000  0.11242967  0.16296428  1
  Sn  Sn4  1  0.73244439  0.00000000  0.50000000  1
  Sn  Sn5  1  0.73244439  0.50000000  0.00000000  1
  Sn  Sn6  1  0.26755561  0.50000000  0.00000000  1
  Sn  Sn7  1  0.26755561  0.00000000  0.50000000  1
  As  As8  1  -0.00000000  0.69648815  0.77795734  1
  As  As9  1  -0.00000000  0.80351185  0.27795734  1
  As  As10  1  -0.00000000  0.30351185  0.22204266  1
  As  As11  1  -0.00000000  0.19648815  0.72204266  1
  S  S12  1  -0.00000000  0.71284155  0.02379794  1
  S  S13  1  0.23580905  0.54831971  0.81801212  1
  S  S14  1  -0.00000000  0.78715845  0.52379794  1
  S  S15  1  0.50000000  0.20832358  0.46269104  1
  S  S16  1  0.76419095  0.04831971  0.68198788  1
  S  S17  1  0.23580905  0.95168029  0.31801212  1
  S  S18  1  0.76419095  0.54831971  0.81801212  1
  S  S19  1  -0.00000000  0.86419429  0.91035090  1
  S  S20  1  -0.00000000  0.36419429  0.58964910  1
  S  S21  1  -0.00000000  0.28715845  0.97620206  1
  S  S22  1  0.76419095  0.95168029  0.31801212  1
  S  S23  1  -0.00000000  0.13580571  0.08964910  1
  S  S24  1  0.76419095  0.45168029  0.18198788  1
  S  S25  1  0.50000000  0.29167642  0.96269104  1
  S  S26  1  0.23580905  0.45168029  0.18198788  1
  S  S27  1  -0.00000000  0.21284155  0.47620206  1
  S  S28  1  0.50000000  0.70832358  0.03730896  1
  S  S29  1  0.23580905  0.04831971  0.68198788  1
  S  S30  1  0.50000000  0.79167642  0.53730896  1
  S  S31  1  -0.00000000  0.63580571  0.41035090  1
