# generated using pymatgen
data_K2Cr2O7
_symmetry_space_group_name_H-M   'P 1'
_cell_length_a   7.44587935
_cell_length_b   7.44587935
_cell_length_c   7.41267749
_cell_angle_alpha   88.46756565
_cell_angle_beta   88.46756565
_cell_angle_gamma   59.28280854
_symmetry_Int_Tables_number   1
_chemical_formula_structural   K2Cr2O7
_chemical_formula_sum   'K4 Cr4 O14'
_cell_volume   353.14076760
_cell_formula_units_Z   2
loop_
 _symmetry_equiv_pos_site_id
 _symmetry_equiv_pos_as_xyz
  1  'x, y, z'
loop_
 _atom_site_type_symbol
 _atom_site_label
 _atom_site_symmetry_multiplicity
 _atom_site_fract_x
 _atom_site_fract_y
 _atom_site_fract_z
 _atom_site_occupancy
  K  K0  1  -0.00158253  0.70892703  0.85982740  1
  K  K1  1  0.29107297  0.00158253  0.64017260  1
  K  K2  1  0.00158253  0.29107297  0.14017260  1
  K  K3  1  0.70892703  -0.00158253  0.35982740  1
  Cr  Cr4  1  0.77648255  0.42978503  0.63243867  1
  Cr  Cr5  1  0.57021497  0.22351745  0.86756133  1
  Cr  Cr6  1  0.22351745  0.57021497  0.36756133  1
  Cr  Cr7  1  0.42978503  0.77648255  0.13243867  1
  O  O8  1  0.86358414  0.25226208  0.47859935  1
  O  O9  1  0.74773792  0.13641586  0.02140065  1
  O  O10  1  0.13641586  0.74773792  0.52140065  1
  O  O11  1  0.25226208  0.86358414  0.97859935  1
  O  O12  1  0.96172005  0.36676521  0.77481300  1
  O  O13  1  0.63323479  0.03827995  0.72518700  1
  O  O14  1  0.03827995  0.63323479  0.22518700  1
  O  O15  1  0.36676521  0.96172005  0.27481300  1
  O  O16  1  0.56312593  0.43687407  0.75000000  1
  O  O17  1  0.43687407  0.56312593  0.25000000  1
  O  O18  1  0.70054954  0.65782486  0.54549571  1
  O  O19  1  0.34217514  0.29945046  0.95450429  1
  O  O20  1  0.29945046  0.34217514  0.45450429  1
  O  O21  1  0.65782486  0.70054954  0.04549571  1
