# generated using pymatgen
data_ZnBi2B2O7
_symmetry_space_group_name_H-M   'P 1'
_cell_length_a   4.90135368
_cell_length_b   10.82195796
_cell_length_c   10.97143572
_cell_angle_alpha   90.00000000
_cell_angle_beta   90.00000000
_cell_angle_gamma   90.00000000
_symmetry_Int_Tables_number   1
_chemical_formula_structural   ZnBi2B2O7
_chemical_formula_sum   'Zn4 Bi8 B8 O28'
_cell_volume   581.94956470
_cell_formula_units_Z   4
loop_
 _symmetry_equiv_pos_site_id
 _symmetry_equiv_pos_as_xyz
  1  'x, y, z'
loop_
 _atom_site_type_symbol
 _atom_site_label
 _atom_site_symmetry_multiplicity
 _atom_site_fract_x
 _atom_site_fract_y
 _atom_site_fract_z
 _atom_site_occupancy
  Zn  Zn0  1  0.06960299  0.74182013  0.24108100  1
  Zn  Zn1  1  0.06960299  0.24182013  0.25891900  1
  Zn  Zn2  1  0.06960299  0.25817987  0.75891900  1
  Zn  Zn3  1  0.06960299  0.75817987  0.74108100  1
  Bi  Bi4  1  0.58160914  0.32103019  0.03083446  1
  Bi  Bi5  1  0.57814260  0.51442346  0.31402817  1
  Bi  Bi6  1  0.57814260  0.48557654  0.68597183  1
  Bi  Bi7  1  0.58160914  0.67896981  0.96916554  1
  Bi  Bi8  1  0.57814260  0.98557654  0.81402817  1
  Bi  Bi9  1  0.58160914  0.17896981  0.53083446  1
  Bi  Bi10  1  0.58160914  0.82103019  0.46916554  1
  Bi  Bi11  1  0.57814260  0.01442346  0.18597183  1
  B  B12  1  0.12501175  0.51425114  0.87243325  1
  B  B13  1  0.08026949  0.38366091  0.48027181  1
  B  B14  1  0.12501175  0.98574886  0.37243325  1
  B  B15  1  0.08026949  0.88366091  0.01972819  1
  B  B16  1  0.12501175  0.01425114  0.62756675  1
  B  B17  1  0.08026949  0.11633909  0.98027181  1
  B  B18  1  0.08026949  0.61633909  0.51972819  1
  B  B19  1  0.12501175  0.48574886  0.12756675  1
  O  O20  1  0.95611505  0.50000000  0.50000000  1
  O  O21  1  0.21540861  0.50000000  -0.00000000  1
  O  O22  1  0.93031579  0.19839424  0.91581767  1
  O  O23  1  0.93031579  0.69839424  0.58418233  1
  O  O24  1  0.73776466  0.19998034  0.17351012  1
  O  O25  1  0.95611505  0.00000000  -0.00000000  1
  O  O26  1  0.82842186  0.47883507  0.14101414  1
  O  O27  1  0.24863340  0.08750526  0.29833384  1
  O  O28  1  0.82842186  0.52116493  0.85898586  1
  O  O29  1  0.21540861  0.00000000  0.50000000  1
  O  O30  1  0.73776466  0.30001966  0.67351012  1
  O  O31  1  0.93031579  0.80160576  0.08418233  1
  O  O32  1  0.93031579  0.30160576  0.41581767  1
  O  O33  1  0.26839231  0.87088650  0.32628887  1
  O  O34  1  0.26839231  0.12911350  0.67371113  1
  O  O35  1  0.33702467  0.63492766  0.47798844  1
  O  O36  1  0.33702467  0.86507234  0.97798844  1
  O  O37  1  0.33702467  0.13492766  0.02201156  1
  O  O38  1  0.24863340  0.58750526  0.20166616  1
  O  O39  1  0.24863340  0.91249474  0.70166616  1
  O  O40  1  0.82842186  0.97883507  0.35898586  1
  O  O41  1  0.33702467  0.36507234  0.52201156  1
  O  O42  1  0.73776466  0.69998034  0.32648988  1
  O  O43  1  0.24863340  0.41249474  0.79833384  1
  O  O44  1  0.82842186  0.02116493  0.64101414  1
  O  O45  1  0.73776466  0.80001966  0.82648988  1
  O  O46  1  0.26839231  0.37088650  0.17371113  1
  O  O47  1  0.26839231  0.62911350  0.82628887  1
