# generated using pymatgen
data_ZrB2O5
_symmetry_space_group_name_H-M   'P 1'
_cell_length_a   6.94176839
_cell_length_b   4.40742382
_cell_length_c   8.99665017
_cell_angle_alpha   89.10666455
_cell_angle_beta   90.00000000
_cell_angle_gamma   90.00000000
_symmetry_Int_Tables_number   1
_chemical_formula_structural   ZrB2O5
_chemical_formula_sum   'Zr4 B8 O20'
_cell_volume   275.22189250
_cell_formula_units_Z   4
loop_
 _symmetry_equiv_pos_site_id
 _symmetry_equiv_pos_as_xyz
  1  'x, y, z'
loop_
 _atom_site_type_symbol
 _atom_site_label
 _atom_site_symmetry_multiplicity
 _atom_site_fract_x
 _atom_site_fract_y
 _atom_site_fract_z
 _atom_site_occupancy
  Zr  Zr0  1  0.11250747  0.00122714  0.32897452  1
  Zr  Zr1  1  0.61250747  0.99877286  0.17102548  1
  Zr  Zr2  1  0.88749253  0.99877286  0.67102548  1
  Zr  Zr3  1  0.38749253  0.00122714  0.82897452  1
  B  B4  1  0.41301947  0.46436515  0.33399916  1
  B  B5  1  0.72983502  0.47293996  0.92326730  1
  B  B6  1  0.58698053  0.53563485  0.66600084  1
  B  B7  1  0.27016498  0.52706004  0.07673270  1
  B  B8  1  0.08698053  0.46436515  0.83399916  1
  B  B9  1  0.22983502  0.52706004  0.57673270  1
  B  B10  1  0.91301947  0.53563485  0.16600084  1
  B  B11  1  0.77016498  0.47293996  0.42326730  1
  O  O12  1  0.59055805  0.21395051  0.67922658  1
  O  O13  1  0.34493939  0.30704227  0.19232554  1
  O  O14  1  0.89569363  0.33116073  0.85005450  1
  O  O15  1  0.27887846  0.34863847  0.44602378  1
  O  O16  1  0.72112154  0.65136153  0.55397622  1
  O  O17  1  0.59745058  0.23227071  0.96752759  1
  O  O18  1  0.22112154  0.34863847  0.94602378  1
  O  O19  1  0.09055805  0.78604949  0.82077342  1
  O  O20  1  0.90254942  0.23227071  0.46752759  1
  O  O21  1  0.15506061  0.30704227  0.69232554  1
  O  O22  1  0.90944195  0.21395051  0.17922658  1
  O  O23  1  0.84493939  0.69295773  0.30767446  1
  O  O24  1  0.77887846  0.65136153  0.05397622  1
  O  O25  1  0.40944195  0.78604949  0.32077342  1
  O  O26  1  0.60430637  0.33116073  0.35005450  1
  O  O27  1  0.10430637  0.66883927  0.14994550  1
  O  O28  1  0.09745058  0.76772929  0.53247241  1
  O  O29  1  0.65506061  0.69295773  0.80767446  1
  O  O30  1  0.39569363  0.66883927  0.64994550  1
  O  O31  1  0.40254942  0.76772929  0.03247241  1
