# generated using pymatgen
data_Rb3ZnBr5
_symmetry_space_group_name_H-M   'P 1'
_cell_length_a   9.09302171
_cell_length_b   10.53288473
_cell_length_c   13.47566604
_cell_angle_alpha   90.00000000
_cell_angle_beta   90.00000000
_cell_angle_gamma   90.00000000
_symmetry_Int_Tables_number   1
_chemical_formula_structural   Rb3ZnBr5
_chemical_formula_sum   'Rb12 Zn4 Br20'
_cell_volume   1290.64201525
_cell_formula_units_Z   4
loop_
 _symmetry_equiv_pos_site_id
 _symmetry_equiv_pos_as_xyz
  1  'x, y, z'
loop_
 _atom_site_type_symbol
 _atom_site_label
 _atom_site_symmetry_multiplicity
 _atom_site_fract_x
 _atom_site_fract_y
 _atom_site_fract_z
 _atom_site_occupancy
  Rb  Rb0  1  0.91164599  0.02003753  0.67122434  1
  Rb  Rb1  1  0.58835401  0.97996247  0.17122434  1
  Rb  Rb2  1  0.58835401  0.52003753  0.17122434  1
  Rb  Rb3  1  0.08835401  0.52003753  0.32877566  1
  Rb  Rb4  1  0.08835401  0.97996247  0.32877566  1
  Rb  Rb5  1  0.41164599  0.02003753  0.82877566  1
  Rb  Rb6  1  0.58727503  0.75000000  0.45428142  1
  Rb  Rb7  1  0.91272497  0.25000000  0.95428142  1
  Rb  Rb8  1  0.08727503  0.75000000  0.04571858  1
  Rb  Rb9  1  0.41272497  0.25000000  0.54571858  1
  Rb  Rb10  1  0.41164599  0.47996247  0.82877566  1
  Rb  Rb11  1  0.91164599  0.47996247  0.67122434  1
  Zn  Zn12  1  0.69052671  0.75000000  0.89155191  1
  Zn  Zn13  1  0.30947329  0.25000000  0.10844809  1
  Zn  Zn14  1  0.19052671  0.75000000  0.60844809  1
  Zn  Zn15  1  0.80947329  0.25000000  0.39155191  1
  Br  Br16  1  0.66093909  0.25000000  0.73480095  1
  Br  Br17  1  0.31459077  0.55745020  0.56442764  1
  Br  Br18  1  0.86530639  0.25000000  0.21745231  1
  Br  Br19  1  0.83906091  0.75000000  0.23480095  1
  Br  Br20  1  0.63469361  0.75000000  0.71745231  1
  Br  Br21  1  0.68540923  0.44254980  0.43557236  1
  Br  Br22  1  0.81459077  0.55745020  0.93557236  1
  Br  Br23  1  0.53570239  0.25000000  0.01302661  1
  Br  Br24  1  0.96429761  0.75000000  0.51302661  1
  Br  Br25  1  0.16093909  0.25000000  0.76519905  1
  Br  Br26  1  0.81459077  0.94254980  0.93557236  1
  Br  Br27  1  0.31459077  0.94254980  0.56442764  1
  Br  Br28  1  0.33906091  0.75000000  0.26519905  1
  Br  Br29  1  0.18540923  0.05745020  0.06442764  1
  Br  Br30  1  0.68540923  0.05745020  0.43557236  1
  Br  Br31  1  0.13469361  0.75000000  0.78254769  1
  Br  Br32  1  0.36530639  0.25000000  0.28254769  1
  Br  Br33  1  0.03570239  0.25000000  0.48697339  1
  Br  Br34  1  0.18540923  0.44254980  0.06442764  1
  Br  Br35  1  0.46429761  0.75000000  0.98697339  1
