# generated using pymatgen
data_S
_symmetry_space_group_name_H-M   'P 1'
_cell_length_a   5.60852538
_cell_length_b   9.98226618
_cell_length_c   14.83774283
_cell_angle_alpha   95.38538067
_cell_angle_beta   99.99325074
_cell_angle_gamma   100.17193893
_symmetry_Int_Tables_number   1
_chemical_formula_structural   S
_chemical_formula_sum   S28
_cell_volume   798.57153641
_cell_formula_units_Z   28
loop_
 _symmetry_equiv_pos_site_id
 _symmetry_equiv_pos_as_xyz
  1  'x, y, z'
loop_
 _atom_site_type_symbol
 _atom_site_label
 _atom_site_symmetry_multiplicity
 _atom_site_fract_x
 _atom_site_fract_y
 _atom_site_fract_z
 _atom_site_occupancy
  S  S0  1  0.07436718  0.43114556  0.71966557  1
  S  S1  1  0.59401706  0.05151847  0.67467150  1
  S  S2  1  0.32110156  0.62869946  0.92178280  1
  S  S3  1  0.71670697  0.32921862  0.47642730  1
  S  S4  1  0.00618218  0.70091236  0.93530303  1
  S  S5  1  0.20689534  0.43084010  0.85747175  1
  S  S6  1  0.92563282  0.56885444  0.28033443  1
  S  S7  1  0.99381782  0.29908764  0.06469697  1
  S  S8  1  0.10463871  0.79994727  0.59120606  1
  S  S9  1  0.90272077  0.98134384  0.11137190  1
  S  S10  1  0.89536129  0.20005273  0.40879394  1
  S  S11  1  0.46856192  0.82806734  0.21572688  1
  S  S12  1  0.67889844  0.37130054  0.07821720  1
  S  S13  1  0.94798026  0.82041390  0.83133025  1
  S  S14  1  0.65535431  0.58541949  0.35561377  1
  S  S15  1  0.53143808  0.17193266  0.78427312  1
  S  S16  1  0.05201974  0.17958610  0.16866975  1
  S  S17  1  0.28329303  0.67078138  0.52357270  1
  S  S18  1  0.52997859  0.94069027  0.11046846  1
  S  S19  1  0.51671228  0.60634535  0.62550782  1
  S  S20  1  0.72987740  0.00486634  0.42123643  1
  S  S21  1  0.09727923  0.01865616  0.88862810  1
  S  S22  1  0.27012260  0.99513366  0.57876357  1
  S  S23  1  0.34464569  0.41458051  0.64438623  1
  S  S24  1  0.40598294  0.94848153  0.32532850  1
  S  S25  1  0.79310466  0.56915990  0.14252825  1
  S  S26  1  0.47002141  0.05930973  0.88953154  1
  S  S27  1  0.48328772  0.39365465  0.37449218  1
