# generated using pymatgen
data_K2PrCl5
_symmetry_space_group_name_H-M   'P 1'
_cell_length_a   8.01830459
_cell_length_b   8.78939670
_cell_length_c   12.74996107
_cell_angle_alpha   90.00000000
_cell_angle_beta   90.00000000
_cell_angle_gamma   90.00000000
_symmetry_Int_Tables_number   1
_chemical_formula_structural   K2PrCl5
_chemical_formula_sum   'K8 Pr4 Cl20'
_cell_volume   898.56702013
_cell_formula_units_Z   4
loop_
 _symmetry_equiv_pos_site_id
 _symmetry_equiv_pos_as_xyz
  1  'x, y, z'
loop_
 _atom_site_type_symbol
 _atom_site_label
 _atom_site_symmetry_multiplicity
 _atom_site_fract_x
 _atom_site_fract_y
 _atom_site_fract_z
 _atom_site_occupancy
  K  K0  1  0.95069952  0.49509624  0.82792257  1
  K  K1  1  0.95069952  0.00490376  0.82792257  1
  K  K2  1  0.45069952  0.50490376  0.67207743  1
  K  K3  1  0.45069952  0.99509624  0.67207743  1
  K  K4  1  0.04930048  0.50490376  0.17207743  1
  K  K5  1  0.54930048  0.49509624  0.32792257  1
  K  K6  1  0.04930048  0.99509624  0.17207743  1
  K  K7  1  0.54930048  0.00490376  0.32792257  1
  Pr  Pr8  1  0.07809512  0.25000000  0.49359655  1
  Pr  Pr9  1  0.92190488  0.75000000  0.50640345  1
  Pr  Pr10  1  0.42190488  0.25000000  0.99359655  1
  Pr  Pr11  1  0.57809512  0.75000000  0.00640345  1
  Cl  Cl12  1  0.83434565  0.04360894  0.57965334  1
  Cl  Cl13  1  0.66565435  0.04360894  0.07965334  1
  Cl  Cl14  1  0.16565435  0.54360894  0.42034666  1
  Cl  Cl15  1  0.57149406  0.75000000  0.50716229  1
  Cl  Cl16  1  0.42850594  0.25000000  0.49283771  1
  Cl  Cl17  1  0.16565435  0.95639106  0.42034666  1
  Cl  Cl18  1  0.92850594  0.75000000  0.00716229  1
  Cl  Cl19  1  0.33434565  0.54360894  0.92034666  1
  Cl  Cl20  1  0.33434565  0.95639106  0.92034666  1
  Cl  Cl21  1  0.83279496  0.75000000  0.29274456  1
  Cl  Cl22  1  0.16720504  0.25000000  0.70725544  1
  Cl  Cl23  1  0.83434565  0.45639106  0.57965334  1
  Cl  Cl24  1  0.33279496  0.25000000  0.20725544  1
  Cl  Cl25  1  0.86842483  0.25000000  0.31871795  1
  Cl  Cl26  1  0.07149406  0.25000000  0.99283771  1
  Cl  Cl27  1  0.66720504  0.75000000  0.79274456  1
  Cl  Cl28  1  0.63157517  0.25000000  0.81871795  1
  Cl  Cl29  1  0.66565435  0.45639106  0.07965334  1
  Cl  Cl30  1  0.36842483  0.75000000  0.18128205  1
  Cl  Cl31  1  0.13157517  0.75000000  0.68128205  1
