# generated using pymatgen
data_KRb2CrF6
_symmetry_space_group_name_H-M   'P 1'
_cell_length_a   6.20135603
_cell_length_b   6.20135589
_cell_length_c   6.20135631
_cell_angle_alpha   59.99999489
_cell_angle_beta   59.99999301
_cell_angle_gamma   59.99999111
_symmetry_Int_Tables_number   1
_chemical_formula_structural   KRb2CrF6
_chemical_formula_sum   'K1 Rb2 Cr1 F6'
_cell_volume   168.63392175
_cell_formula_units_Z   1
loop_
 _symmetry_equiv_pos_site_id
 _symmetry_equiv_pos_as_xyz
  1  'x, y, z'
loop_
 _atom_site_type_symbol
 _atom_site_label
 _atom_site_symmetry_multiplicity
 _atom_site_fract_x
 _atom_site_fract_y
 _atom_site_fract_z
 _atom_site_occupancy
  K  K0  1  0.50000000  0.50000000  0.50000000  1
  Rb  Rb1  1  0.75000000  0.75000000  0.75000000  1
  Rb  Rb2  1  0.25000000  0.25000000  0.25000000  1
  Cr  Cr3  1  -0.00000000  0.00000000  0.00000000  1
  F  F4  1  0.21754200  0.78245800  0.78245800  1
  F  F5  1  0.21754384  0.78245616  0.21754384  1
  F  F6  1  0.78245616  0.21754384  0.78245616  1
  F  F7  1  0.21754200  0.21754200  0.78245800  1
  F  F8  1  0.78245800  0.21754200  0.21754200  1
  F  F9  1  0.78245800  0.78245800  0.21754200  1
