# generated using pymatgen
data_VAgSeO5
_symmetry_space_group_name_H-M   'P 1'
_cell_length_a   4.07810872
_cell_length_b   5.23564341
_cell_length_c   20.23890639
_cell_angle_alpha   90.00000000
_cell_angle_beta   90.00000000
_cell_angle_gamma   90.00000000
_symmetry_Int_Tables_number   1
_chemical_formula_structural   VAgSeO5
_chemical_formula_sum   'V4 Ag4 Se4 O20'
_cell_volume   432.13147619
_cell_formula_units_Z   4
loop_
 _symmetry_equiv_pos_site_id
 _symmetry_equiv_pos_as_xyz
  1  'x, y, z'
loop_
 _atom_site_type_symbol
 _atom_site_label
 _atom_site_symmetry_multiplicity
 _atom_site_fract_x
 _atom_site_fract_y
 _atom_site_fract_z
 _atom_site_occupancy
  V  V0  1  0.56319398  0.75000000  0.69228030  1
  V  V1  1  0.43680602  0.25000000  0.30771970  1
  V  V2  1  0.43680602  0.75000000  0.19228030  1
  V  V3  1  0.56319398  0.25000000  0.80771970  1
  Ag  Ag4  1  0.62795021  0.25000000  0.48179936  1
  Ag  Ag5  1  0.37204979  0.25000000  0.98179936  1
  Ag  Ag6  1  0.37204979  0.75000000  0.51820064  1
  Ag  Ag7  1  0.62795021  0.75000000  0.01820064  1
  Se  Se8  1  0.19924088  0.25000000  0.62168456  1
  Se  Se9  1  0.80075912  0.25000000  0.12168456  1
  Se  Se10  1  0.19924088  0.75000000  0.87831544  1
  Se  Se11  1  0.80075912  0.75000000  0.37831544  1
  O  O12  1  0.52454574  0.99594599  0.11947630  1
  O  O13  1  0.47545426  0.00405401  0.88052370  1
  O  O14  1  0.88699957  0.75000000  0.45984632  1
  O  O15  1  0.04059263  0.25000000  0.31333883  1
  O  O16  1  0.11300043  0.25000000  0.54015368  1
  O  O17  1  0.52518231  0.50000000  0.25000000  1
  O  O18  1  0.47481769  -0.00000000  0.75000000  1
  O  O19  1  0.47545426  0.50405401  0.61947630  1
  O  O20  1  0.47545426  0.49594599  0.88052370  1
  O  O21  1  0.04059263  0.75000000  0.18666117  1
  O  O22  1  0.52454574  0.50405401  0.11947630  1
  O  O23  1  0.47481769  0.50000000  0.75000000  1
  O  O24  1  0.52454574  0.00405401  0.38052370  1
  O  O25  1  0.11300043  0.75000000  0.95984632  1
  O  O26  1  0.52518231  -0.00000000  0.25000000  1
  O  O27  1  0.95940737  0.75000000  0.68666117  1
  O  O28  1  0.52454574  0.49594599  0.38052370  1
  O  O29  1  0.88699957  0.25000000  0.04015368  1
  O  O30  1  0.47545426  0.99594599  0.61947630  1
  O  O31  1  0.95940737  0.25000000  0.81333883  1
