# generated using pymatgen
data_Y2(MoO4)3
_symmetry_space_group_name_H-M   'P 1'
_cell_length_a   10.01653233
_cell_length_b   10.09773584
_cell_length_c   13.99166688
_cell_angle_alpha   90.00000000
_cell_angle_beta   90.00000000
_cell_angle_gamma   90.00000000
_symmetry_Int_Tables_number   1
_chemical_formula_structural   Y2(MoO4)3
_chemical_formula_sum   'Y8 Mo12 O48'
_cell_volume   1415.17731745
_cell_formula_units_Z   4
loop_
 _symmetry_equiv_pos_site_id
 _symmetry_equiv_pos_as_xyz
  1  'x, y, z'
loop_
 _atom_site_type_symbol
 _atom_site_label
 _atom_site_symmetry_multiplicity
 _atom_site_fract_x
 _atom_site_fract_y
 _atom_site_fract_z
 _atom_site_occupancy
  Y  Y0  1  0.74919047  0.03247423  0.88157660  1
  Y  Y1  1  0.25080953  0.53247423  0.88157660  1
  Y  Y2  1  0.24919047  0.46752577  0.38157660  1
  Y  Y3  1  0.25080953  0.96752577  0.11842340  1
  Y  Y4  1  0.75080953  0.53247423  0.61842340  1
  Y  Y5  1  0.74919047  0.46752577  0.11842340  1
  Y  Y6  1  0.24919047  0.03247423  0.61842340  1
  Y  Y7  1  0.75080953  0.96752577  0.38157660  1
  Mo  Mo8  1  0.89139141  0.11395090  0.14287313  1
  Mo  Mo9  1  0.60860859  0.88604910  0.64287313  1
  Mo  Mo10  1  0.47291822  0.25000000  -0.00000000  1
  Mo  Mo11  1  0.10860859  0.61395090  0.14287313  1
  Mo  Mo12  1  0.60860859  0.61395090  0.35712687  1
  Mo  Mo13  1  0.39139141  0.38604910  0.64287313  1
  Mo  Mo14  1  0.02708178  0.75000000  0.50000000  1
  Mo  Mo15  1  0.97291822  0.25000000  0.50000000  1
  Mo  Mo16  1  0.52708178  0.75000000  -0.00000000  1
  Mo  Mo17  1  0.39139141  0.11395090  0.35712687  1
  Mo  Mo18  1  0.10860859  0.88604910  0.85712687  1
  Mo  Mo19  1  0.89139141  0.38604910  0.85712687  1
  O  O20  1  0.82169035  0.43160966  0.96767196  1
  O  O21  1  0.32169035  0.43160966  0.53232804  1
  O  O22  1  0.85932478  0.21691533  0.83662132  1
  O  O23  1  0.37173211  0.36266997  0.93699144  1
  O  O24  1  0.67830965  0.56839034  0.46767196  1
  O  O25  1  0.57505589  0.16437028  0.91830462  1
  O  O26  1  0.56508840  0.08726392  0.35970706  1
  O  O27  1  0.14067522  0.78308467  0.16337868  1
  O  O28  1  0.68062107  0.51739141  0.26569303  1
  O  O29  1  0.87173211  0.36266997  0.56300856  1
  O  O30  1  0.17830965  0.56839034  0.03232804  1
  O  O31  1  0.87173211  0.13733003  0.43699144  1
  O  O32  1  0.31937893  0.01739141  0.26569303  1
  O  O33  1  0.31937893  0.48260859  0.73430697  1
  O  O34  1  0.92494411  0.83562972  0.41830462  1
  O  O35  1  0.64067522  0.71691533  0.66337868  1
  O  O36  1  0.12826789  0.86266997  0.56300856  1
  O  O37  1  0.35932478  0.28308467  0.33662132  1
  O  O38  1  0.12826789  0.63733003  0.43699144  1
  O  O39  1  0.43491160  0.58726392  0.35970706  1
  O  O40  1  0.37173211  0.13733003  0.06300856  1
  O  O41  1  0.93491160  0.91273608  0.85970706  1
  O  O42  1  0.92494411  0.66437028  0.58169538  1
  O  O43  1  0.42494411  0.66437028  0.91830462  1
  O  O44  1  0.43491160  0.91273608  0.64029294  1
  O  O45  1  0.32169035  0.06839034  0.46767196  1
  O  O46  1  0.85932478  0.28308467  0.16337868  1
  O  O47  1  0.35932478  0.21691533  0.66337868  1
  O  O48  1  0.81937893  0.01739141  0.23430697  1
  O  O49  1  0.17830965  0.93160966  0.96767196  1
  O  O50  1  0.81937893  0.48260859  0.76569303  1
  O  O51  1  0.06508840  0.08726392  0.14029294  1
  O  O52  1  0.14067522  0.71691533  0.83662132  1
  O  O53  1  0.64067522  0.78308467  0.33662132  1
  O  O54  1  0.62826789  0.63733003  0.06300856  1
  O  O55  1  0.82169035  0.06839034  0.03232804  1
  O  O56  1  0.42494411  0.83562972  0.08169538  1
  O  O57  1  0.56508840  0.41273608  0.64029294  1
  O  O58  1  0.67830965  0.93160966  0.53232804  1
  O  O59  1  0.18062107  0.51739141  0.23430697  1
  O  O60  1  0.93491160  0.58726392  0.14029294  1
  O  O61  1  0.68062107  0.98260859  0.73430697  1
  O  O62  1  0.62826789  0.86266997  0.93699144  1
  O  O63  1  0.07505589  0.33562972  0.41830462  1
  O  O64  1  0.18062107  0.98260859  0.76569303  1
  O  O65  1  0.06508840  0.41273608  0.85970706  1
  O  O66  1  0.07505589  0.16437028  0.58169538  1
  O  O67  1  0.57505589  0.33562972  0.08169538  1
