# generated using pymatgen
data_K3Ta2S11
_symmetry_space_group_name_H-M   'P 1'
_cell_length_a   7.63345851
_cell_length_b   8.81592314
_cell_length_c   24.66286444
_cell_angle_alpha   90.00000000
_cell_angle_beta   99.27075487
_cell_angle_gamma   90.00000000
_symmetry_Int_Tables_number   1
_chemical_formula_structural   K3Ta2S11
_chemical_formula_sum   'K12 Ta8 S44'
_cell_volume   1638.03268792
_cell_formula_units_Z   4
loop_
 _symmetry_equiv_pos_site_id
 _symmetry_equiv_pos_as_xyz
  1  'x, y, z'
loop_
 _atom_site_type_symbol
 _atom_site_label
 _atom_site_symmetry_multiplicity
 _atom_site_fract_x
 _atom_site_fract_y
 _atom_site_fract_z
 _atom_site_occupancy
  K  K0  1  0.69890401  0.76153316  0.49038449  1
  K  K1  1  0.30109599  0.26153316  0.00961551  1
  K  K2  1  0.76687013  0.24362824  0.67049853  1
  K  K3  1  0.30109599  0.23846684  0.50961551  1
  K  K4  1  0.69890401  0.73846684  0.99038449  1
  K  K5  1  0.73562904  0.70894327  0.18453090  1
  K  K6  1  0.73562904  0.79105673  0.68453090  1
  K  K7  1  0.23312887  0.74362824  0.82950147  1
  K  K8  1  0.76687013  0.25637276  0.17049853  1
  K  K9  1  0.26437096  0.20894327  0.31546910  1
  K  K10  1  0.26437096  0.29105673  0.81546910  1
  K  K11  1  0.23312887  0.75637176  0.32950147  1
  Ta  Ta12  1  0.72517261  0.32776775  0.92211258  1
  Ta  Ta13  1  0.27482739  0.67223225  0.07788742  1
  Ta  Ta14  1  0.82494887  0.46082620  0.33008731  1
  Ta  Ta15  1  0.27482739  0.82776775  0.57788742  1
  Ta  Ta16  1  0.82494887  0.03917380  0.83008731  1
  Ta  Ta17  1  0.17505113  0.53917380  0.66991269  1
  Ta  Ta18  1  0.72517261  0.17223225  0.42211258  1
  Ta  Ta19  1  0.17505113  0.96082620  0.16991269  1
  S  S20  1  0.50627452  0.51434570  0.08490773  1
  S  S21  1  0.67351725  0.37671474  0.48424655  1
  S  S22  1  -0.00180824  0.97485993  0.23350922  1
  S  S23  1  0.24918861  0.67864834  0.17784639  1
  S  S24  1  0.46941137  0.53242845  0.72642329  1
  S  S25  1  0.50627452  0.98565430  0.58490773  1
  S  S26  1  0.06377289  0.95267491  0.62755060  1
  S  S27  1  0.32648275  0.62328526  0.51575345  1
  S  S28  1  0.93622711  0.04732509  0.37244940  1
  S  S29  1  0.93622711  0.45267491  0.87244940  1
  S  S30  1  0.97848835  0.63141254  0.58979133  1
  S  S31  1  0.67351725  0.12328526  0.98424655  1
  S  S32  1  0.75081139  0.32135166  0.82215361  1
  S  S33  1  0.43440569  0.58762243  0.59752547  1
  S  S34  1  0.00180824  0.47485993  0.26649078  1
  S  S35  1  0.00180824  0.02514007  0.76649078  1
  S  S36  1  0.46941137  0.96757155  0.22642329  1
  S  S37  1  -0.00180824  0.52514007  0.73350922  1
  S  S38  1  0.02610088  0.10008332  0.09118645  1
  S  S39  1  0.62606153  0.82422468  0.80584665  1
  S  S40  1  0.91263026  0.08624398  0.50786598  1
  S  S41  1  0.43440569  0.91237757  0.09752547  1
  S  S42  1  0.91263026  0.41375602  0.00786598  1
  S  S43  1  0.06377289  0.54732509  0.12755060  1
  S  S44  1  0.08736974  0.91375602  0.49213402  1
  S  S45  1  0.02151165  0.36858746  0.41020867  1
  S  S46  1  0.53058863  0.46757155  0.27357671  1
  S  S47  1  0.32648275  0.87671474  0.01575345  1
  S  S48  1  0.75081139  0.17864834  0.32215361  1
  S  S49  1  0.37393847  0.17577532  0.19415335  1
  S  S50  1  0.24918861  0.82135166  0.67784639  1
  S  S51  1  0.02610088  0.39991668  0.59118645  1
  S  S52  1  0.56559431  0.08762243  0.90247453  1
  S  S53  1  0.62606153  0.67577532  0.30584665  1
  S  S54  1  0.49372548  0.01434570  0.41509227  1
  S  S55  1  0.97848835  0.86858746  0.08979133  1
  S  S56  1  0.37393847  0.32422468  0.69415335  1
  S  S57  1  0.53058863  0.03242845  0.77357671  1
  S  S58  1  0.02151165  0.13141254  0.91020867  1
  S  S59  1  0.08736974  0.58624398  0.99213402  1
  S  S60  1  0.49372548  0.48565430  0.91509227  1
  S  S61  1  0.97389912  0.89991668  0.90881355  1
  S  S62  1  0.56559431  0.41237757  0.40247453  1
  S  S63  1  0.97389912  0.60008332  0.40881255  1
