# generated using pymatgen
data_TaBr5
_symmetry_space_group_name_H-M   'P 1'
_cell_length_a   6.33747618
_cell_length_b   13.31327513
_cell_length_c   19.09733191
_cell_angle_alpha   90.00000000
_cell_angle_beta   90.00000000
_cell_angle_gamma   90.00000000
_symmetry_Int_Tables_number   1
_chemical_formula_structural   TaBr5
_chemical_formula_sum   'Ta8 Br40'
_cell_volume   1611.29085908
_cell_formula_units_Z   8
loop_
 _symmetry_equiv_pos_site_id
 _symmetry_equiv_pos_as_xyz
  1  'x, y, z'
loop_
 _atom_site_type_symbol
 _atom_site_label
 _atom_site_symmetry_multiplicity
 _atom_site_fract_x
 _atom_site_fract_y
 _atom_site_fract_z
 _atom_site_occupancy
  Ta  Ta0  1  0.99296191  0.12483863  0.14055669  1
  Ta  Ta1  1  0.99296191  0.12483863  0.35944331  1
  Ta  Ta2  1  0.50703809  0.62483763  0.14055669  1
  Ta  Ta3  1  0.49296191  0.37516137  0.85944331  1
  Ta  Ta4  1  0.49296191  0.37516137  0.64055669  1
  Ta  Ta5  1  0.50703809  0.62483763  0.35944331  1
  Ta  Ta6  1  0.00703809  0.87516237  0.64055669  1
  Ta  Ta7  1  0.00703809  0.87516237  0.85944331  1
  Br  Br8  1  0.23332749  0.72448567  0.84795101  1
  Br  Br9  1  0.23223607  0.20712908  0.43999548  1
  Br  Br10  1  0.74703194  0.54244212  0.43955641  1
  Br  Br11  1  0.71574837  0.29933637  0.75000000  1
  Br  Br12  1  0.77922609  0.02553270  0.84811413  1
  Br  Br13  1  0.73332749  0.77551433  0.34795101  1
  Br  Br14  1  0.22869653  0.95145341  0.75000000  1
  Br  Br15  1  0.21574837  0.20066363  0.25000000  1
  Br  Br16  1  0.26667251  0.22448567  0.84795101  1
  Br  Br17  1  0.23223607  0.20712908  0.06000452  1
  Br  Br18  1  0.22077391  0.97446730  0.15188587  1
  Br  Br19  1  0.24703194  0.95755788  0.56044359  1
  Br  Br20  1  0.73223607  0.29287092  0.93999548  1
  Br  Br21  1  0.25296806  0.45755788  0.56044359  1
  Br  Br22  1  0.26776393  0.70712908  0.06000452  1
  Br  Br23  1  0.73223607  0.29287092  0.56000452  1
  Br  Br24  1  0.72077391  0.52553270  0.84811413  1
  Br  Br25  1  0.76776393  0.79287092  0.93999548  1
  Br  Br26  1  0.72077391  0.52553270  0.65188587  1
  Br  Br27  1  0.74703194  0.54244212  0.06044359  1
  Br  Br28  1  0.28425163  0.70066363  0.25000000  1
  Br  Br29  1  0.76776393  0.79287092  0.56000452  1
  Br  Br30  1  0.75296806  0.04244212  0.43955641  1
  Br  Br31  1  0.78425163  0.79933637  0.75000000  1
  Br  Br32  1  0.25296806  0.45755788  0.93955641  1
  Br  Br33  1  0.73332749  0.77551433  0.15204899  1
  Br  Br34  1  0.75296806  0.04244212  0.06044359  1
  Br  Br35  1  0.27922609  0.47446730  0.15188587  1
  Br  Br36  1  0.76667251  0.27551433  0.34795101  1
  Br  Br37  1  0.24703194  0.95755788  0.93955641  1
  Br  Br38  1  0.27130347  0.45145341  0.75000000  1
  Br  Br39  1  0.72869653  0.54854659  0.25000000  1
  Br  Br40  1  0.26667251  0.22448567  0.65204899  1
  Br  Br41  1  0.22077391  0.97446730  0.34811413  1
  Br  Br42  1  0.77922609  0.02553270  0.65188587  1
  Br  Br43  1  0.27922609  0.47446730  0.34811413  1
  Br  Br44  1  0.77130347  0.04854659  0.25000000  1
  Br  Br45  1  0.76667251  0.27551433  0.15204899  1
  Br  Br46  1  0.26776393  0.70712908  0.43999548  1
  Br  Br47  1  0.23332749  0.72448567  0.65204899  1
