# generated using pymatgen
data_BiBr3
_symmetry_space_group_name_H-M   'P 1'
_cell_length_a   7.03529825
_cell_length_b   7.25180445
_cell_length_c   7.25180293
_cell_angle_alpha   119.84014794
_cell_angle_beta   100.09213715
_cell_angle_gamma   100.09214411
_symmetry_Int_Tables_number   1
_chemical_formula_structural   BiBr3
_chemical_formula_sum   'Bi2 Br6'
_cell_volume   300.67134787
_cell_formula_units_Z   2
loop_
 _symmetry_equiv_pos_site_id
 _symmetry_equiv_pos_as_xyz
  1  'x, y, z'
loop_
 _atom_site_type_symbol
 _atom_site_label
 _atom_site_symmetry_multiplicity
 _atom_site_fract_x
 _atom_site_fract_y
 _atom_site_fract_z
 _atom_site_occupancy
  Bi  Bi0  1  0.00000000  0.83325607  0.16674393  1
  Bi  Bi1  1  -0.00000000  0.16674393  0.83325607  1
  Br  Br2  1  0.24957934  0.93335687  0.58452999  1
  Br  Br3  1  0.75042066  0.41547001  0.06664313  1
  Br  Br4  1  0.24957934  0.58452999  0.93335687  1
  Br  Br5  1  0.75042066  0.06664313  0.41547001  1
  Br  Br6  1  0.25146282  0.23525608  0.23525608  1
  Br  Br7  1  0.74853718  0.76474392  0.76474392  1
