# generated using pymatgen
data_V4S9Br4
_symmetry_space_group_name_H-M   'P 1'
_cell_length_a   10.93902176
_cell_length_b   10.93906243
_cell_length_c   7.26132764
_cell_angle_alpha   90.00043000
_cell_angle_beta   89.99953853
_cell_angle_gamma   90.00001273
_symmetry_Int_Tables_number   1
_chemical_formula_structural   V4S9Br4
_chemical_formula_sum   'V8 S18 Br8'
_cell_volume   868.90964948
_cell_formula_units_Z   2
loop_
 _symmetry_equiv_pos_site_id
 _symmetry_equiv_pos_as_xyz
  1  'x, y, z'
loop_
 _atom_site_type_symbol
 _atom_site_label
 _atom_site_symmetry_multiplicity
 _atom_site_fract_x
 _atom_site_fract_y
 _atom_site_fract_z
 _atom_site_occupancy
  V  V0  1  0.63668647  0.13665201  0.37772049  1
  V  V1  1  0.13666598  0.63667313  0.62228644  1
  V  V2  1  0.36334436  0.86331664  0.37772220  1
  V  V3  1  0.13667363  0.36333961  0.62227895  1
  V  V4  1  0.86333254  0.63667755  0.62227785  1
  V  V5  1  0.63667067  0.86332171  0.37771485  1
  V  V6  1  0.36332378  0.13666649  0.37771413  1
  V  V7  1  0.86332323  0.36333466  0.62228451  1
  S  S8  1  -0.00000342  0.28682872  0.84894655  1
  S  S9  1  0.80647490  -0.00003460  0.39004577  1
  S  S10  1  0.19352126  -0.00002572  0.39004564  1
  S  S11  1  0.69351611  0.50001943  0.60995888  1
  S  S12  1  0.78679599  0.50002044  0.84894355  1
  S  S13  1  0.71319905  -0.00002951  0.15106520  1
  S  S14  1  0.50000763  -0.00001216  0.52010208  1
  S  S15  1  0.28680947  -0.00002953  0.15105463  1
  S  S16  1  0.50001893  0.30646988  0.39004585  1
  S  S17  1  0.30646907  0.50001977  0.60995288  1
  S  S18  1  0.50001294  0.78679392  0.15106680  1
  S  S19  1  -0.00001140  0.80648821  0.60996744  1
  S  S20  1  0.00000714  0.49999947  0.47989931  1
  S  S21  1  0.50002237  0.69352234  0.39004130  1
  S  S22  1  0.50001101  0.21317585  0.15104987  1
  S  S23  1  -0.00000630  0.19353795  0.60995570  1
  S  S24  1  0.21318297  0.50001719  0.84894043  1
  S  S25  1  -0.00000821  0.71320798  0.84894353  1
  Br  Br26  1  0.30197202  0.80197420  0.71496055  1
  Br  Br27  1  0.80198465  0.69801886  0.28500609  1
  Br  Br28  1  0.69800120  0.19800139  0.71499351  1
  Br  Br29  1  0.80199486  0.30199475  0.28501486  1
  Br  Br30  1  0.19799218  0.30200372  0.28500666  1
  Br  Br31  1  0.30196896  0.19804930  0.71495799  1
  Br  Br32  1  0.69800578  0.80198673  0.71496532  1
  Br  Br33  1  0.19804015  0.69801963  0.28507019  1
