# generated using pymatgen
data_Na2CuSbS3
_symmetry_space_group_name_H-M   'P 1'
_cell_length_a   16.93592486
_cell_length_b   5.85542979
_cell_length_c   6.99363249
_cell_angle_alpha   62.70510607
_cell_angle_beta   90.00000000
_cell_angle_gamma   90.00000000
_symmetry_Int_Tables_number   1
_chemical_formula_structural   Na2CuSbS3
_chemical_formula_sum   'Na8 Cu4 Sb4 S12'
_cell_volume   616.31850587
_cell_formula_units_Z   4
loop_
 _symmetry_equiv_pos_site_id
 _symmetry_equiv_pos_as_xyz
  1  'x, y, z'
loop_
 _atom_site_type_symbol
 _atom_site_label
 _atom_site_symmetry_multiplicity
 _atom_site_fract_x
 _atom_site_fract_y
 _atom_site_fract_z
 _atom_site_occupancy
  Na  Na0  1  0.03835254  0.84504277  0.30851401  1
  Na  Na1  1  0.53835254  0.15495723  0.19148599  1
  Na  Na2  1  0.11324019  0.56661946  0.88088506  1
  Na  Na3  1  0.61324019  0.43338054  0.61911494  1
  Na  Na4  1  0.88675981  0.43338054  0.11911494  1
  Na  Na5  1  0.38675981  0.56661946  0.38088506  1
  Na  Na6  1  0.96164746  0.15495723  0.69148599  1
  Na  Na7  1  0.46164746  0.84504277  0.80851401  1
  Cu  Cu8  1  0.21355047  0.88277464  0.09963159  1
  Cu  Cu9  1  0.28644953  0.88277464  0.59963159  1
  Cu  Cu10  1  0.78644953  0.11722536  0.90036841  1
  Cu  Cu11  1  0.71355047  0.11722536  0.40036841  1
  Sb  Sb12  1  0.17403629  0.25637197  0.51919179  1
  Sb  Sb13  1  0.82596371  0.74362803  0.48080821  1
  Sb  Sb14  1  0.32596371  0.25637197  0.01919179  1
  Sb  Sb15  1  0.67403629  0.74362803  0.98080821  1
  S  S16  1  0.19591853  0.70725030  0.45931434  1
  S  S17  1  0.94381629  0.65838909  0.69512269  1
  S  S18  1  0.61223261  0.92438158  0.62597469  1
  S  S19  1  0.55618371  0.65838909  0.19512269  1
  S  S20  1  0.30408147  0.70725030  0.95931434  1
  S  S21  1  0.69591853  0.29274970  0.04068566  1
  S  S22  1  0.11223261  0.07561842  0.87402531  1
  S  S23  1  0.05618371  0.34161091  0.30487731  1
  S  S24  1  0.44381629  0.34161091  0.80487731  1
  S  S25  1  0.80408147  0.29274970  0.54068566  1
  S  S26  1  0.88776739  0.92438158  0.12597469  1
  S  S27  1  0.38776739  0.07561842  0.37402531  1
