# generated using pymatgen
data_TaBi4BrO8
_symmetry_space_group_name_H-M   'P 1'
_cell_length_a   5.49521318
_cell_length_b   5.54216272
_cell_length_c   29.45139572
_cell_angle_alpha   90.00000000
_cell_angle_beta   90.00000000
_cell_angle_gamma   90.00000000
_symmetry_Int_Tables_number   1
_chemical_formula_structural   TaBi4BrO8
_chemical_formula_sum   'Ta4 Bi16 Br4 O32'
_cell_volume   896.95302481
_cell_formula_units_Z   4
loop_
 _symmetry_equiv_pos_site_id
 _symmetry_equiv_pos_as_xyz
  1  'x, y, z'
loop_
 _atom_site_type_symbol
 _atom_site_label
 _atom_site_symmetry_multiplicity
 _atom_site_fract_x
 _atom_site_fract_y
 _atom_site_fract_z
 _atom_site_occupancy
  Ta  Ta0  1  0.50000000  0.51745879  0.25000000  1
  Ta  Ta1  1  0.50000000  0.48254121  0.75000000  1
  Ta  Ta2  1  0.00000000  0.01745879  0.25000000  1
  Ta  Ta3  1  0.00000000  0.98254121  0.75000000  1
  Bi  Bi4  1  0.52175105  0.05437959  0.65880792  1
  Bi  Bi5  1  0.99106248  0.00993494  0.92825839  1
  Bi  Bi6  1  0.02175105  0.44562041  0.34119208  1
  Bi  Bi7  1  0.52175105  0.94562041  0.15880792  1
  Bi  Bi8  1  0.02175105  0.55437959  0.84119208  1
  Bi  Bi9  1  0.00893752  0.00993494  0.57174161  1
  Bi  Bi10  1  0.49106248  0.49006506  0.07174161  1
  Bi  Bi11  1  0.47824895  0.05437959  0.84119208  1
  Bi  Bi12  1  0.50893752  0.50993494  0.92825839  1
  Bi  Bi13  1  0.97824895  0.55437959  0.65880792  1
  Bi  Bi14  1  0.00893752  0.99006506  0.07174161  1
  Bi  Bi15  1  0.47824895  0.94562041  0.34119208  1
  Bi  Bi16  1  0.97824895  0.44562041  0.15880792  1
  Bi  Bi17  1  0.50893752  0.49006506  0.42825839  1
  Bi  Bi18  1  0.49106248  0.50993494  0.57174161  1
  Bi  Bi19  1  0.99106248  0.99006506  0.42825839  1
  Br  Br20  1  0.00000000  0.50000000  0.50000000  1
  Br  Br21  1  0.00000000  0.50000000  0.00000000  1
  Br  Br22  1  0.50000000  0.00000000  0.00000000  1
  Br  Br23  1  0.50000000  0.00000000  0.50000000  1
  O  O24  1  0.25554708  0.25631780  0.60922087  1
  O  O25  1  0.90590965  0.93281420  0.68549498  1
  O  O26  1  0.74920318  0.74916312  0.60785314  1
  O  O27  1  0.74697353  0.20459555  0.76410153  1
  O  O28  1  0.24445292  0.75631780  0.60922087  1
  O  O29  1  0.59409035  0.43281420  0.68549498  1
  O  O30  1  0.75554708  0.24368220  0.39077913  1
  O  O31  1  0.74920318  0.25083688  0.10785314  1
  O  O32  1  0.09409035  0.93281420  0.81450502  1
  O  O33  1  0.75079682  0.24916312  0.60785314  1
  O  O34  1  0.75302647  0.70459555  0.76410153  1
  O  O35  1  0.25302647  0.20459555  0.73589847  1
  O  O36  1  0.24697353  0.70459555  0.73589847  1
  O  O37  1  0.74445292  0.25631780  0.89077913  1
  O  O38  1  0.74697353  0.79540445  0.26410153  1
  O  O39  1  0.75079682  0.75083688  0.10785314  1
  O  O40  1  0.24920318  0.75083688  0.39214686  1
  O  O41  1  0.24445292  0.24368220  0.10922087  1
  O  O42  1  0.25302647  0.79540445  0.23589847  1
  O  O43  1  0.40590965  0.56718580  0.31450502  1
  O  O44  1  0.40590965  0.43281420  0.81450502  1
  O  O45  1  0.09409035  0.06718580  0.31450502  1
  O  O46  1  0.24920318  0.24916312  0.89214686  1
  O  O47  1  0.59409035  0.56718580  0.18549498  1
  O  O48  1  0.25554708  0.74368220  0.10922087  1
  O  O49  1  0.90590965  0.06718580  0.18549498  1
  O  O50  1  0.24697353  0.29540445  0.23589847  1
  O  O51  1  0.75554708  0.75631780  0.89077913  1
  O  O52  1  0.25079682  0.25083688  0.39214686  1
  O  O53  1  0.74445292  0.74368220  0.39077913  1
  O  O54  1  0.25079682  0.74916312  0.89214686  1
  O  O55  1  0.75302647  0.29540445  0.26410153  1
