# generated using pymatgen
data_WOF4
_symmetry_space_group_name_H-M   'P 1'
_cell_length_a   8.39741961
_cell_length_b   8.39741961
_cell_length_c   5.08013470
_cell_angle_alpha   86.76258149
_cell_angle_beta   86.76258149
_cell_angle_gamma   112.33367946
_symmetry_Int_Tables_number   1
_chemical_formula_structural   WOF4
_chemical_formula_sum   'W4 O4 F16'
_cell_volume   329.65279805
_cell_formula_units_Z   4
loop_
 _symmetry_equiv_pos_site_id
 _symmetry_equiv_pos_as_xyz
  1  'x, y, z'
loop_
 _atom_site_type_symbol
 _atom_site_label
 _atom_site_symmetry_multiplicity
 _atom_site_fract_x
 _atom_site_fract_y
 _atom_site_fract_z
 _atom_site_occupancy
  W  W0  1  0.75618336  0.75618336  0.76483746  1
  W  W1  1  0.24381664  0.24381664  0.23516254  1
  W  W2  1  0.80893719  0.19106281  0.00000000  1
  W  W3  1  0.19106281  0.80893719  0.00000000  1
  O  O4  1  0.02605704  0.21798130  0.11906993  1
  O  O5  1  0.78201870  0.97394296  0.88093007  1
  O  O6  1  0.97394296  0.78201870  0.88093007  1
  O  O7  1  0.21798130  0.02605704  0.11906993  1
  F  F8  1  0.26834572  0.45588967  0.35552274  1
  F  F9  1  0.64480763  0.64480763  0.08847088  1
  F  F10  1  0.08535765  0.69725858  0.32690819  1
  F  F11  1  0.40341144  0.83074501  0.11884034  1
  F  F12  1  0.59658856  0.16925499  0.88115966  1
  F  F13  1  0.83074501  0.40341144  0.11884034  1
  F  F14  1  0.73165428  0.54411033  0.64447726  1
  F  F15  1  0.13855858  0.13855858  0.56851208  1
  F  F16  1  0.54411033  0.73165428  0.64447726  1
  F  F17  1  0.45588967  0.26834572  0.35552274  1
  F  F18  1  0.16925499  0.59658856  0.88115966  1
  F  F19  1  0.86144142  0.86144142  0.43148792  1
  F  F20  1  0.35519237  0.35519237  0.91152912  1
  F  F21  1  0.91464235  0.30274142  0.67309181  1
  F  F22  1  0.30274142  0.91464235  0.67309181  1
  F  F23  1  0.69725858  0.08535765  0.32690819  1
