# generated using pymatgen
data_Cs2SnS14
_symmetry_space_group_name_H-M   'P 1'
_cell_length_a   18.84310329
_cell_length_b   7.12820929
_cell_length_c   15.57111711
_cell_angle_alpha   72.28279413
_cell_angle_beta   90.00000000
_cell_angle_gamma   90.00000000
_symmetry_Int_Tables_number   1
_chemical_formula_structural   Cs2SnS14
_chemical_formula_sum   'Cs8 Sn4 S56'
_cell_volume   1992.27646558
_cell_formula_units_Z   4
loop_
 _symmetry_equiv_pos_site_id
 _symmetry_equiv_pos_as_xyz
  1  'x, y, z'
loop_
 _atom_site_type_symbol
 _atom_site_label
 _atom_site_symmetry_multiplicity
 _atom_site_fract_x
 _atom_site_fract_y
 _atom_site_fract_z
 _atom_site_occupancy
  Cs  Cs0  1  0.79927682  0.44469975  0.47759229  1
  Cs  Cs1  1  0.29927682  0.55530025  0.02240771  1
  Cs  Cs2  1  0.20072318  0.55530025  0.52240771  1
  Cs  Cs3  1  0.70072318  0.44469975  0.97759229  1
  Cs  Cs4  1  0.95144516  0.79596823  0.83431927  1
  Cs  Cs5  1  0.45144516  0.20403177  0.66568073  1
  Cs  Cs6  1  0.04855484  0.20403177  0.16568073  1
  Cs  Cs7  1  0.54855484  0.79596823  0.33431927  1
  Sn  Sn8  1  0.82457231  0.86504509  0.16900004  1
  Sn  Sn9  1  0.32457231  0.13495491  0.33099996  1
  Sn  Sn10  1  0.17542769  0.13495491  0.83099996  1
  Sn  Sn11  1  0.67542769  0.86504509  0.66900004  1
  S  S12  1  0.81616360  0.93615213  0.32299133  1
  S  S13  1  0.31616360  0.06384787  0.17700867  1
  S  S14  1  0.18383640  0.06384787  0.67700867  1
  S  S15  1  0.68383640  0.93615213  0.82299133  1
  S  S16  1  0.90750210  0.04774980  0.35639256  1
  S  S17  1  0.40750210  0.95225020  0.14360744  1
  S  S18  1  0.09249790  0.95225020  0.64360744  1
  S  S19  1  0.59249790  0.04774980  0.85639256  1
  S  S20  1  0.96585346  0.82150775  0.44058250  1
  S  S21  1  0.46585346  0.17849225  0.05941750  1
  S  S22  1  0.03414654  0.17849225  0.55941750  1
  S  S23  1  0.53414654  0.82150775  0.94058250  1
  S  S24  1  0.03448478  0.71879528  0.36158346  1
  S  S25  1  0.53448478  0.28120472  0.13841654  1
  S  S26  1  0.96551522  0.28120472  0.63841654  1
  S  S27  1  0.46551522  0.71879528  0.86158346  1
  S  S28  1  0.97453949  0.54494083  0.30511914  1
  S  S29  1  0.47453949  0.45505917  0.19488086  1
  S  S30  1  0.02546051  0.45505917  0.69488086  1
  S  S31  1  0.52546051  0.54494083  0.80511914  1
  S  S32  1  0.95035749  0.70689598  0.17710605  1
  S  S33  1  0.45035749  0.29310402  0.32289395  1
  S  S34  1  0.04964251  0.29310402  0.82289395  1
  S  S35  1  0.54964251  0.70689598  0.67710605  1
  S  S36  1  0.86458342  0.23073509  0.09771298  1
  S  S37  1  0.36458342  0.76926491  0.40228702  1
  S  S38  1  0.13541658  0.76926491  0.90228702  1
  S  S39  1  0.63541658  0.23073509  0.59771298  1
  S  S40  1  0.91000150  0.22231276  0.97916187  1
  S  S41  1  0.41000150  0.77768724  0.52083813  1
  S  S42  1  0.08999850  0.77768724  0.02083813  1
  S  S43  1  0.58999850  0.22231276  0.47916187  1
  S  S44  1  0.83171782  0.09389279  0.92329633  1
  S  S45  1  0.33171782  0.90610721  0.57670367  1
  S  S46  1  0.16828218  0.90610721  0.07670367  1
  S  S47  1  0.66828218  0.09389279  0.42329633  1
  S  S48  1  0.82841104  0.81241038  0.01003313  1
  S  S49  1  0.32841104  0.18758962  0.48996687  1
  S  S50  1  0.17158896  0.18758962  0.98996687  1
  S  S51  1  0.67158896  0.81241038  0.51003313  1
  S  S52  1  0.69282561  0.97943160  0.15998173  1
  S  S53  1  0.19282561  0.02056840  0.34001827  1
  S  S54  1  0.30717439  0.02056840  0.84001827  1
  S  S55  1  0.80717439  0.97943160  0.65998173  1
  S  S56  1  0.64354157  0.74727648  0.13417253  1
  S  S57  1  0.14354157  0.25272352  0.36582747  1
  S  S58  1  0.35645843  0.25272352  0.86582747  1
  S  S59  1  0.85645843  0.74727648  0.63417253  1
  S  S60  1  0.67431172  0.51203601  0.24187433  1
  S  S61  1  0.17431172  0.48796399  0.25812567  1
  S  S62  1  0.32568828  0.48796399  0.75812567  1
  S  S63  1  0.82568828  0.51203601  0.74187433  1
  S  S64  1  0.78203998  0.49788132  0.22697840  1
  S  S65  1  0.28203998  0.50211868  0.27302160  1
  S  S66  1  0.21796002  0.50211868  0.77302160  1
  S  S67  1  0.71796002  0.49788132  0.72697840  1
