# generated using pymatgen
data_Ba(BO2)2
_symmetry_space_group_name_H-M   'P 1'
_cell_length_a   13.78362347
_cell_length_b   13.78362347
_cell_length_c   13.78362303
_cell_angle_alpha   30.61609526
_cell_angle_beta   30.61609526
_cell_angle_gamma   30.61609470
_symmetry_Int_Tables_number   1
_chemical_formula_structural   Ba(BO2)2
_chemical_formula_sum   'Ba6 B12 O24'
_cell_volume   602.19363029
_cell_formula_units_Z   6
loop_
 _symmetry_equiv_pos_site_id
 _symmetry_equiv_pos_as_xyz
  1  'x, y, z'
loop_
 _atom_site_type_symbol
 _atom_site_label
 _atom_site_symmetry_multiplicity
 _atom_site_fract_x
 _atom_site_fract_y
 _atom_site_fract_z
 _atom_site_occupancy
  Ba  Ba0  1  0.84956025  0.84956025  0.84956025  1
  Ba  Ba1  1  0.65043975  0.65043975  0.65043975  1
  Ba  Ba2  1  0.15043975  0.15043975  0.15043975  1
  Ba  Ba3  1  0.34956025  0.34956025  0.34956025  1
  Ba  Ba4  1  0.75000000  0.75000000  0.75000000  1
  Ba  Ba5  1  0.25000000  0.25000000  0.25000000  1
  B  B6  1  0.74911932  0.50414781  0.36122856  1
  B  B7  1  0.50414781  0.36122856  0.74911932  1
  B  B8  1  0.36122856  0.74911932  0.50414781  1
  B  B9  1  0.99585219  0.75088068  0.13877144  1
  B  B10  1  0.75088068  0.13877144  0.99585219  1
  B  B11  1  0.13877144  0.99585219  0.75088068  1
  B  B12  1  0.25088068  0.49585219  0.63877144  1
  B  B13  1  0.49585219  0.63877144  0.25088068  1
  B  B14  1  0.63877144  0.25088068  0.49585219  1
  B  B15  1  0.00414781  0.24911932  0.86122856  1
  B  B16  1  0.24911932  0.86122856  0.00414781  1
  B  B17  1  0.86122856  0.00414781  0.24911932  1
  O  O18  1  0.57175569  0.71067778  0.33515980  1
  O  O19  1  0.71067778  0.33515980  0.57175569  1
  O  O20  1  0.33515980  0.57175569  0.71067778  1
  O  O21  1  0.78932222  0.92824431  0.16484020  1
  O  O22  1  0.92824431  0.16484020  0.78932222  1
  O  O23  1  0.16484020  0.78932222  0.92824431  1
  O  O24  1  0.42824431  0.28932222  0.66484020  1
  O  O25  1  0.28932222  0.66484020  0.42824431  1
  O  O26  1  0.66484020  0.42824431  0.28932222  1
  O  O27  1  0.21067778  0.07175569  0.83515980  1
  O  O28  1  0.07175569  0.83515980  0.21067778  1
  O  O29  1  0.83515980  0.21067778  0.07175569  1
  O  O30  1  0.19316854  0.94066011  0.47427617  1
  O  O31  1  0.94066011  0.47427617  0.19316854  1
  O  O32  1  0.47427617  0.19316854  0.94066011  1
  O  O33  1  0.55933989  0.30683146  0.02572383  1
  O  O34  1  0.30683146  0.02572383  0.55933989  1
  O  O35  1  0.02572383  0.55933989  0.30683146  1
  O  O36  1  0.80683146  0.05933989  0.52572383  1
  O  O37  1  0.05933989  0.52572383  0.80683146  1
  O  O38  1  0.52572383  0.80683146  0.05933989  1
  O  O39  1  0.44066011  0.69316854  0.97427617  1
  O  O40  1  0.69316854  0.97427617  0.44066011  1
  O  O41  1  0.97427617  0.44066011  0.69316854  1
