# generated using pymatgen
data_Rb4Re6S13
_symmetry_space_group_name_H-M   'P 1'
_cell_length_a   9.75110527
_cell_length_b   9.75110527
_cell_length_c   14.09929620
_cell_angle_alpha   85.38641898
_cell_angle_beta   85.38641898
_cell_angle_gamma   119.64111688
_symmetry_Int_Tables_number   1
_chemical_formula_structural   Rb4Re6S13
_chemical_formula_sum   'Rb8 Re12 S26'
_cell_volume   1150.17358614
_cell_formula_units_Z   2
loop_
 _symmetry_equiv_pos_site_id
 _symmetry_equiv_pos_as_xyz
  1  'x, y, z'
loop_
 _atom_site_type_symbol
 _atom_site_label
 _atom_site_symmetry_multiplicity
 _atom_site_fract_x
 _atom_site_fract_y
 _atom_site_fract_z
 _atom_site_occupancy
  Rb  Rb0  1  0.62470131  0.90604069  0.38098600  1
  Rb  Rb1  1  0.09395931  0.37529869  0.11901400  1
  Rb  Rb2  1  0.37529869  0.09395931  0.61901400  1
  Rb  Rb3  1  0.90604069  0.62470131  0.88098600  1
  Rb  Rb4  1  0.29928216  0.23875416  0.34057241  1
  Rb  Rb5  1  0.76124584  0.70071784  0.15942759  1
  Rb  Rb6  1  0.70071784  0.76124584  0.65942759  1
  Rb  Rb7  1  0.23875416  0.29928216  0.84057241  1
  Re  Re8  1  0.68180402  0.98405487  0.98013378  1
  Re  Re9  1  0.01594513  0.31819598  0.51986622  1
  Re  Re10  1  0.31819598  0.01594513  0.01986622  1
  Re  Re11  1  0.98405487  0.68180402  0.48013378  1
  Re  Re12  1  0.15356170  0.57475098  0.39166218  1
  Re  Re13  1  0.42524902  0.84643830  0.10833782  1
  Re  Re14  1  0.84643830  0.42524902  0.60833782  1
  Re  Re15  1  0.57475098  0.15356170  0.89166218  1
  Re  Re16  1  0.59947849  0.15684979  0.07612657  1
  Re  Re17  1  0.84315021  0.40052151  0.42387343  1
  Re  Re18  1  0.40052151  0.84315021  0.92387343  1
  Re  Re19  1  0.15684979  0.59947849  0.57612657  1
  S  S20  1  0.30315131  0.49683708  0.49038028  1
  S  S21  1  0.50316292  0.69684869  0.00961972  1
  S  S22  1  0.69684869  0.50316292  0.50961972  1
  S  S23  1  0.49683708  0.30315131  0.99038028  1
  S  S24  1  0.69409755  0.99459541  0.14905637  1
  S  S25  1  0.00540459  0.30590245  0.35094363  1
  S  S26  1  0.30590245  0.00540459  0.85094363  1
  S  S27  1  0.99459541  0.69409755  0.64905637  1
  S  S28  1  0.27117836  0.83048840  0.45222390  1
  S  S29  1  0.16951160  0.72882164  0.04777610  1
  S  S30  1  0.72882164  0.16951160  0.54777610  1
  S  S31  1  0.83048840  0.27117836  0.95222390  1
  S  S32  1  0.35483446  0.01808956  0.18655629  1
  S  S33  1  0.98191044  0.64516554  0.31344371  1
  S  S34  1  0.64516554  0.98191044  0.81344371  1
  S  S35  1  0.01808956  0.35483446  0.68655629  1
  S  S36  1  0.64100427  0.26024174  0.32170014  1
  S  S37  1  0.73975826  0.35899573  0.17829986  1
  S  S38  1  0.35899573  0.73975826  0.67829986  1
  S  S39  1  0.26024174  0.64100427  0.82170014  1
  S  S40  1  0.07938433  0.04703448  0.05120216  1
  S  S41  1  0.95296552  0.92061567  0.44879784  1
  S  S42  1  0.92061567  0.95296552  0.94879784  1
  S  S43  1  0.04703448  0.07938433  0.55120216  1
  S  S44  1  0.35472110  0.64527890  0.25000000  1
  S  S45  1  0.64527890  0.35472110  0.75000000  1
