# generated using pymatgen
data_CsTa2P5O18
_symmetry_space_group_name_H-M   'P 1'
_cell_length_a   5.15241145
_cell_length_b   10.93587177
_cell_length_c   14.42786369
_cell_angle_alpha   82.90765879
_cell_angle_beta   86.93438395
_cell_angle_gamma   84.67389512
_symmetry_Int_Tables_number   1
_chemical_formula_structural   CsTa2P5O18
_chemical_formula_sum   'Cs2 Ta4 P10 O36'
_cell_volume   802.52392353
_cell_formula_units_Z   2
loop_
 _symmetry_equiv_pos_site_id
 _symmetry_equiv_pos_as_xyz
  1  'x, y, z'
loop_
 _atom_site_type_symbol
 _atom_site_label
 _atom_site_symmetry_multiplicity
 _atom_site_fract_x
 _atom_site_fract_y
 _atom_site_fract_z
 _atom_site_occupancy
  Cs  Cs0  1  0.70528897  0.89959882  0.62001140  1
  Cs  Cs1  1  0.29471103  0.10040118  0.37998860  1
  Ta  Ta2  1  0.70097964  0.71110948  0.99047194  1
  Ta  Ta3  1  0.74996291  0.44298898  0.64664849  1
  Ta  Ta4  1  0.25003709  0.55701102  0.35335151  1
  Ta  Ta5  1  0.29902036  0.28889052  0.00952806  1
  P  P6  1  0.22052563  0.62860922  0.57799488  1
  P  P7  1  0.80919605  0.14795521  0.13957530  1
  P  P8  1  0.20999522  0.55432160  0.11157524  1
  P  P9  1  0.77947437  0.37139078  0.42200512  1
  P  P10  1  0.70265961  0.76919858  0.33288743  1
  P  P11  1  0.29734039  0.23080142  0.66711257  1
  P  P12  1  0.59918476  0.91407444  0.15412999  1
  P  P13  1  0.79000478  0.44567840  0.88842476  1
  P  P14  1  0.19080395  0.85204479  0.86042470  1
  P  P15  1  0.40081524  0.08592556  0.84587001  1
  O  O16  1  0.18100053  0.42526013  0.08478896  1
  O  O17  1  0.68062066  0.86185236  0.39828470  1
  O  O18  1  0.82220350  0.15197152  0.23962731  1
  O  O19  1  0.95443513  0.81025890  0.92284926  1
  O  O20  1  0.81899947  0.57473987  0.91521104  1
  O  O21  1  0.43326155  0.55454902  0.64064899  1
  O  O22  1  0.95734919  0.58749070  0.62335782  1
  O  O23  1  0.23732178  0.76240367  0.56423607  1
  O  O24  1  0.97110806  0.64018450  0.08166981  1
  O  O25  1  0.64792221  0.03262953  0.80839717  1
  O  O26  1  0.56901917  0.22547397  0.09479424  1
  O  O27  1  0.76267822  0.23759633  0.43576393  1
  O  O28  1  0.35207779  0.96737047  0.19160283  1
  O  O29  1  0.54486271  0.39867088  0.93943832  1
  O  O30  1  0.22845866  0.17151982  0.77284139  1
  O  O31  1  0.25394291  0.56787195  0.48481863  1
  O  O32  1  0.04556487  0.18974110  0.07715074  1
  O  O33  1  0.92911373  0.66785778  0.34692474  1
  O  O34  1  0.54315876  0.29826787  0.67626208  1
  O  O35  1  0.04265081  0.41250930  0.37664218  1
  O  O36  1  0.20862103  0.98682134  0.89017465  1
  O  O37  1  0.07088627  0.33214222  0.65307526  1
  O  O38  1  0.77154134  0.82848018  0.22715861  1
  O  O39  1  0.79137897  0.01317866  0.10982535  1
  O  O40  1  0.45513729  0.60132912  0.06056168  1
  O  O41  1  0.74605709  0.43212805  0.51518137  1
  O  O42  1  0.76313769  0.45307638  0.78437447  1
  O  O43  1  0.58931372  0.83621477  0.07254937  1
  O  O44  1  0.23686231  0.54692362  0.21562553  1
  O  O45  1  0.02889194  0.35981550  0.91833019  1
  O  O46  1  0.31937934  0.13814764  0.60171530  1
  O  O47  1  0.17779650  0.84802848  0.76037269  1
  O  O48  1  0.41068628  0.16378523  0.92745063  1
  O  O49  1  0.43098083  0.77452603  0.90520576  1
  O  O50  1  0.45684124  0.70173213  0.32373792  1
  O  O51  1  0.56673845  0.44545098  0.35935101  1
