# generated using pymatgen
data_ZnS
_symmetry_space_group_name_H-M   'P 1'
_cell_length_a   3.80789543
_cell_length_b   3.80789543
_cell_length_c   49.81813663
_cell_angle_alpha   90.00000000
_cell_angle_beta   90.00000000
_cell_angle_gamma   119.99999122
_symmetry_Int_Tables_number   1
_chemical_formula_structural   ZnS
_chemical_formula_sum   'Zn16 S16'
_cell_volume   625.58766471
_cell_formula_units_Z   16
loop_
 _symmetry_equiv_pos_site_id
 _symmetry_equiv_pos_as_xyz
  1  'x, y, z'
loop_
 _atom_site_type_symbol
 _atom_site_label
 _atom_site_symmetry_multiplicity
 _atom_site_fract_x
 _atom_site_fract_y
 _atom_site_fract_z
 _atom_site_occupancy
  Zn  Zn0  1  0.33333300  0.66666700  0.62501656  1
  Zn  Zn1  1  0.66666700  0.33333300  0.12503043  1
  Zn  Zn2  1  0.00000000  -0.00000000  0.37501104  1
  Zn  Zn3  1  0.33333300  0.66666700  0.06255570  1
  Zn  Zn4  1  0.66666700  0.33333300  0.50002289  1
  Zn  Zn5  1  0.33333300  0.66666700  0.25001091  1
  Zn  Zn6  1  0.66666700  0.33333300  0.31251823  1
  Zn  Zn7  1  0.00000000  0.00000000  0.75000378  1
  Zn  Zn8  1  0.66666700  0.33333300  0.68752190  1
  Zn  Zn9  1  0.00000000  -0.00000000  0.18751322  1
  Zn  Zn10  1  0.33333300  0.66666700  0.43751492  1
  Zn  Zn11  1  0.33333300  0.66666700  0.93753359  1
  Zn  Zn12  1  0.00000000  -0.00000000  0.56251327  1
  Zn  Zn13  1  0.66666700  0.33333300  0.87501143  1
  Zn  Zn14  1  0.33333300  0.66666700  0.81248100  1
  Zn  Zn15  1  0.00000000  0.00000000  0.00001497  1
  S  S16  1  0.00000000  -0.00000000  0.23434753  1
  S  S17  1  0.33333300  0.66666700  0.29685200  1
  S  S18  1  0.66666700  0.33333300  0.35935432  1
  S  S19  1  0.66666700  0.33333300  0.54685795  1
  S  S20  1  0.33333300  0.66666700  0.10936788  1
  S  S21  1  0.66666700  0.33333300  0.73435405  1
  S  S22  1  0.33333300  0.66666700  0.98430846  1
  S  S23  1  0.66666700  0.33333300  0.92189692  1
  S  S24  1  -0.00000000  -0.00000000  0.79683605  1
  S  S25  1  0.33333300  0.66666700  0.67185853  1
  S  S26  1  0.00000000  -0.00000000  0.42185262  1
  S  S27  1  0.33333300  0.66666700  0.85929103  1
  S  S28  1  -0.00000000  -0.00000000  0.60935236  1
  S  S29  1  0.00000000  -0.00000000  0.04690161  1
  S  S30  1  0.66666700  0.33333300  0.17185766  1
  S  S31  1  0.33333300  0.66666700  0.48435820  1
