# generated using pymatgen
data_Ca3(AlN2)2
_symmetry_space_group_name_H-M   'P 1'
_cell_length_a   5.78412618
_cell_length_b   9.53713232
_cell_length_c   9.55597235
_cell_angle_alpha   68.28313779
_cell_angle_beta   90.00000000
_cell_angle_gamma   90.00000000
_symmetry_Int_Tables_number   1
_chemical_formula_structural   Ca3(AlN2)2
_chemical_formula_sum   'Ca12 Al8 N16'
_cell_volume   489.73061103
_cell_formula_units_Z   4
loop_
 _symmetry_equiv_pos_site_id
 _symmetry_equiv_pos_as_xyz
  1  'x, y, z'
loop_
 _atom_site_type_symbol
 _atom_site_label
 _atom_site_symmetry_multiplicity
 _atom_site_fract_x
 _atom_site_fract_y
 _atom_site_fract_z
 _atom_site_occupancy
  Ca  Ca0  1  0.65326225  0.67047271  0.46572937  1
  Ca  Ca1  1  0.40402552  0.68453402  0.94949940  1
  Ca  Ca2  1  0.15326225  0.82952729  0.53427063  1
  Ca  Ca3  1  0.59597448  0.31546598  0.05050060  1
  Ca  Ca4  1  0.34673775  0.32952729  0.53427063  1
  Ca  Ca5  1  0.90402552  0.81546598  0.05050060  1
  Ca  Ca6  1  0.61980847  0.10039335  0.81710498  1
  Ca  Ca7  1  0.11980847  0.39960665  0.18289502  1
  Ca  Ca8  1  0.09597448  0.18453402  0.94949940  1
  Ca  Ca9  1  0.38019153  0.89960665  0.18289502  1
  Ca  Ca10  1  0.88019153  0.60039335  0.81710498  1
  Ca  Ca11  1  0.84673775  0.17047271  0.46572937  1
  Al  Al12  1  0.14255743  0.01164385  0.74112319  1
  Al  Al13  1  0.11038134  0.60857206  0.38091706  1
  Al  Al14  1  0.85744257  0.98835615  0.25887681  1
  Al  Al15  1  0.61038134  0.89142794  0.61908294  1
  Al  Al16  1  0.64255743  0.48835615  0.25887681  1
  Al  Al17  1  0.88961866  0.39142794  0.61908294  1
  Al  Al18  1  0.35744257  0.51164385  0.74112319  1
  Al  Al19  1  0.38961866  0.10857206  0.38091706  1
  N  N20  1  0.73791879  0.06306602  0.06232780  1
  N  N21  1  0.89713610  0.44873385  0.39916378  1
  N  N22  1  0.48915124  0.70200289  0.69908871  1
  N  N23  1  0.39713610  0.05126615  0.60083622  1
  N  N24  1  0.60286390  0.94873385  0.39916378  1
  N  N25  1  0.51084876  0.29799711  0.30091129  1
  N  N26  1  0.90067330  0.89518496  0.70328608  1
  N  N27  1  0.26208121  0.93693398  0.93767220  1
  N  N28  1  0.01084876  0.20200289  0.69908871  1
  N  N29  1  0.23791879  0.43693398  0.93767220  1
  N  N30  1  0.76208121  0.56306602  0.06232780  1
  N  N31  1  0.10286390  0.55126615  0.60083622  1
  N  N32  1  0.09932670  0.10481504  0.29671392  1
  N  N33  1  0.40067330  0.60481504  0.29671392  1
  N  N34  1  0.59932670  0.39518496  0.70328608  1
  N  N35  1  0.98915124  0.79799711  0.30091129  1
