# generated using pymatgen
data_VF4
_symmetry_space_group_name_H-M   'P 1'
_cell_length_a   5.05996273
_cell_length_b   5.32833275
_cell_length_c   5.28561129
_cell_angle_alpha   61.31610392
_cell_angle_beta   90.00000000
_cell_angle_gamma   90.00000000
_symmetry_Int_Tables_number   1
_chemical_formula_structural   VF4
_chemical_formula_sum   'V2 F8'
_cell_volume   125.01803041
_cell_formula_units_Z   2
loop_
 _symmetry_equiv_pos_site_id
 _symmetry_equiv_pos_as_xyz
  1  'x, y, z'
loop_
 _atom_site_type_symbol
 _atom_site_label
 _atom_site_symmetry_multiplicity
 _atom_site_fract_x
 _atom_site_fract_y
 _atom_site_fract_z
 _atom_site_occupancy
  V  V0  1  0.50000000  0.50000000  0.00000000  1
  V  V1  1  -0.00000000  0.00000000  0.00000000  1
  F  F2  1  0.19014654  0.65297779  0.09017583  1
  F  F3  1  0.69014654  0.84702221  0.90982417  1
  F  F4  1  0.39406825  0.64775701  0.64385208  1
  F  F5  1  0.89406825  0.85224299  0.35614792  1
  F  F6  1  0.60593175  0.35224299  0.35614792  1
  F  F7  1  0.10593175  0.14775701  0.64385208  1
  F  F8  1  0.30985346  0.15297779  0.09017583  1
  F  F9  1  0.80985346  0.34702221  0.90982417  1
