# generated using pymatgen
data_CaGeO3
_symmetry_space_group_name_H-M   'P 1'
_cell_length_a   10.79928468
_cell_length_b   10.79925874
_cell_length_c   10.79935735
_cell_angle_alpha   109.14424646
_cell_angle_beta   109.14418524
_cell_angle_gamma   110.12656338
_symmetry_Int_Tables_number   1
_chemical_formula_structural   CaGeO3
_chemical_formula_sum   'Ca16 Ge16 O48'
_cell_volume   969.45087859
_cell_formula_units_Z   16
loop_
 _symmetry_equiv_pos_site_id
 _symmetry_equiv_pos_as_xyz
  1  'x, y, z'
loop_
 _atom_site_type_symbol
 _atom_site_label
 _atom_site_symmetry_multiplicity
 _atom_site_fract_x
 _atom_site_fract_y
 _atom_site_fract_z
 _atom_site_occupancy
  Ca  Ca0  1  0.74960959  0.62846187  0.87215952  1
  Ca  Ca1  1  0.25039041  0.37153813  0.12784048  1
  Ca  Ca2  1  0.50000000  0.50000000  0.50000000  1
  Ca  Ca3  1  0.00000000  -0.00000000  0.00000000  1
  Ca  Ca4  1  0.37700183  0.62699384  0.74999864  1
  Ca  Ca5  1  0.12846344  0.75630357  0.87885243  1
  Ca  Ca6  1  0.62299817  0.37300616  0.25000136  1
  Ca  Ca7  1  0.37745069  0.24961622  0.62115397  1
  Ca  Ca8  1  0.12699394  0.87699827  0.24999836  1
  Ca  Ca9  1  0.50000000  -0.00000000  0.50000000  1
  Ca  Ca10  1  0.62254931  0.75038378  0.37884603  1
  Ca  Ca11  1  0.25629289  0.87744454  0.62783511  1
  Ca  Ca12  1  0.87153656  0.24369643  0.12114757  1
  Ca  Ca13  1  0.74370711  0.12255546  0.37216489  1
  Ca  Ca14  1  0.87300606  0.12300173  0.75000164  1
  Ca  Ca15  1  0.50000000  -0.00000000  0.00000000  1
  Ge  Ge16  1  0.88376168  0.74255278  0.61170267  1
  Ge  Ge17  1  0.00000000  0.50000000  0.50000000  1
  Ge  Ge18  1  0.24255152  0.13085144  0.85878525  1
  Ge  Ge19  1  0.22794161  0.61624454  0.35878592  1
  Ge  Ge20  1  0.12499664  0.37500438  0.74999681  1
  Ge  Ge21  1  0.87500336  0.62499562  0.25000319  1
  Ge  Ge22  1  0.77205839  0.38375546  0.64121408  1
  Ge  Ge23  1  0.63084448  0.27204988  0.88829076  1
  Ge  Ge24  1  0.36915552  0.72795012  0.11170924  1
  Ge  Ge25  1  0.37500751  0.12500061  0.25000760  1
  Ge  Ge26  1  0.62499249  0.87499939  0.74999240  1
  Ge  Ge27  1  0.11623832  0.25744722  0.38829733  1
  Ge  Ge28  1  0.00000000  0.50000000  0.00000000  1
  Ge  Ge29  1  0.75744848  0.86914856  0.14121475  1
  Ge  Ge30  1  0.00000000  -0.00000000  0.50000000  1
  Ge  Ge31  1  0.50000000  0.50000000  0.00000000  1
  O  O32  1  0.19972741  0.96532410  0.09896148  1
  O  O33  1  0.99398108  0.18131926  0.60569143  1
  O  O34  1  0.63362661  0.89921988  0.59895934  1
  O  O35  1  0.46532604  0.86636965  0.76560137  1
  O  O36  1  0.64016357  0.23756695  0.03622134  1
  O  O37  1  0.10396169  0.14017038  0.90262991  1
  O  O38  1  0.07562870  0.38828794  0.89430392  1
  O  O39  1  0.03029081  0.69554873  0.61290029  1
  O  O40  1  0.51200641  0.87900366  0.28987565  1
  O  O41  1  0.70133655  0.60396404  0.46378637  1
  O  O42  1  0.96970919  0.30445127  0.38709971  1
  O  O43  1  0.48799359  0.12099634  0.71012435  1
  O  O44  1  0.29866345  0.39603596  0.53621363  1
  O  O45  1  0.59601792  0.68149211  0.99857556  1
  O  O46  1  0.31867028  0.42436841  0.81266403  1
  O  O47  1  0.11170892  0.50600976  0.68733539  1
  O  O48  1  0.68132972  0.57563159  0.18733597  1
  O  O49  1  0.89603831  0.85982962  0.09737009  1
  O  O50  1  0.80027259  0.03467590  0.90103852  1
  O  O51  1  0.18149430  0.68292704  0.08547523  1
  O  O52  1  0.73754209  0.20132638  0.59736671  1
  O  O53  1  0.00601792  0.81868074  0.39430857  1
  O  O54  1  0.62100224  0.41086928  0.63300174  1
  O  O55  1  0.91738524  0.53028511  0.83474379  1
  O  O56  1  0.39923586  0.30027940  0.26559707  1
  O  O57  1  0.81850570  0.31707296  0.91452477  1
  O  O58  1  0.26245791  0.79867362  0.40263329  1
  O  O59  1  0.90255579  0.90398483  0.58548264  1
  O  O60  1  0.08913419  0.22216087  0.21013608  1
  O  O61  1  0.09744421  0.09601517  0.41451736  1
  O  O62  1  0.58263944  0.41738284  0.88708577  1
  O  O63  1  0.37899776  0.58913072  0.36699826  1
  O  O64  1  0.72213696  0.01200608  0.13301103  1
  O  O65  1  0.35983643  0.76243305  0.96377866  1
  O  O66  1  0.91086581  0.77783913  0.78986392  1
  O  O67  1  0.60076414  0.69972060  0.73440293  1
  O  O68  1  0.40398208  0.31850789  0.00142444  1
  O  O69  1  0.81708466  0.40255752  0.49858064  1
  O  O70  1  0.92437130  0.61171206  0.10569608  1
  O  O71  1  0.18291534  0.59744248  0.50141936  1
  O  O72  1  0.80445363  0.91735817  0.33474747  1
  O  O73  1  0.36637339  0.10078012  0.40104066  1
  O  O74  1  0.88829108  0.49399024  0.31266461  1
  O  O75  1  0.53467396  0.13363035  0.23439863  1
  O  O76  1  0.41736056  0.58261716  0.11291423  1
  O  O77  1  0.08261476  0.46971489  0.16525721  1
  O  O78  1  0.19554637  0.08264183  0.66525253  1
  O  O79  1  0.27786304  0.98799392  0.86698897  1
