# generated using pymatgen
data_Ba7B4Se13
_symmetry_space_group_name_H-M   'P 1'
_cell_length_a   13.74623651
_cell_length_b   13.74623651
_cell_length_c   10.63188430
_cell_angle_alpha   89.98415255
_cell_angle_beta   89.98415255
_cell_angle_gamma   134.48530333
_symmetry_Int_Tables_number   1
_chemical_formula_structural   Ba7B4Se13
_chemical_formula_sum   'Ba14 B8 Se26'
_cell_volume   1433.27409453
_cell_formula_units_Z   2
loop_
 _symmetry_equiv_pos_site_id
 _symmetry_equiv_pos_as_xyz
  1  'x, y, z'
loop_
 _atom_site_type_symbol
 _atom_site_label
 _atom_site_symmetry_multiplicity
 _atom_site_fract_x
 _atom_site_fract_y
 _atom_site_fract_z
 _atom_site_occupancy
  Ba  Ba0  1  0.06505354  0.72148125  0.52844764  1
  Ba  Ba1  1  0.27851875  0.93494646  0.97155236  1
  Ba  Ba2  1  0.45228199  0.10461493  0.35657382  1
  Ba  Ba3  1  0.33263083  0.66736917  0.25000000  1
  Ba  Ba4  1  0.66736917  0.33263083  0.75000000  1
  Ba  Ba5  1  0.54771801  0.89538507  0.64342618  1
  Ba  Ba6  1  0.99490542  0.00509458  0.75000000  1
  Ba  Ba7  1  0.93494646  0.27851875  0.47155236  1
  Ba  Ba8  1  0.89538507  0.54771801  0.14342618  1
  Ba  Ba9  1  0.00509458  0.99490542  0.25000000  1
  Ba  Ba10  1  0.10461493  0.45228199  0.85657382  1
  Ba  Ba11  1  0.50342227  0.49657773  0.25000000  1
  Ba  Ba12  1  0.49657773  0.50342227  0.75000000  1
  Ba  Ba13  1  0.72148125  0.06505354  0.02844764  1
  B  B14  1  0.51696421  0.28394779  0.06859662  1
  B  B15  1  0.06679316  0.29147035  0.14938277  1
  B  B16  1  0.48303579  0.71605221  0.93140338  1
  B  B17  1  0.93320684  0.70852965  0.85061723  1
  B  B18  1  0.28394779  0.51696421  0.56859662  1
  B  B19  1  0.29147035  0.06679316  0.64938277  1
  B  B20  1  0.71605221  0.48303579  0.43140338  1
  B  B21  1  0.70852965  0.93320684  0.35061723  1
  Se  Se22  1  0.37690942  0.99516239  0.65303384  1
  Se  Se23  1  0.20567490  0.79432510  0.25000000  1
  Se  Se24  1  0.34116210  0.18276207  0.15017005  1
  Se  Se25  1  0.59760488  0.20798128  0.06285905  1
  Se  Se26  1  0.20798128  0.59760488  0.56285905  1
  Se  Se27  1  0.65883790  0.81723793  0.84982995  1
  Se  Se28  1  0.81723793  0.65883790  0.34982995  1
  Se  Se29  1  0.32124405  0.16791652  0.79774379  1
  Se  Se30  1  0.79432510  0.20567490  0.75000000  1
  Se  Se31  1  0.82751700  0.97805961  0.48925349  1
  Se  Se32  1  0.46670201  0.62894270  0.49976464  1
  Se  Se33  1  0.97805961  0.82751700  0.98925349  1
  Se  Se34  1  0.02194039  0.17248300  0.01074651  1
  Se  Se35  1  0.62894270  0.46670201  0.99976464  1
  Se  Se36  1  0.83208348  0.67875595  0.70225621  1
  Se  Se37  1  0.67875595  0.83208348  0.20225621  1
  Se  Se38  1  0.00483761  0.62309058  0.84696616  1
  Se  Se39  1  0.40239512  0.79201872  0.93714095  1
  Se  Se40  1  0.53329799  0.37105730  0.50023536  1
  Se  Se41  1  0.99516239  0.37690942  0.15303384  1
  Se  Se42  1  0.16791652  0.32124405  0.29774379  1
  Se  Se43  1  0.62309058  0.00483761  0.34696616  1
  Se  Se44  1  0.37105730  0.53329799  0.00023536  1
  Se  Se45  1  0.17248300  0.02194039  0.51074651  1
  Se  Se46  1  0.18276207  0.34116210  0.65017005  1
  Se  Se47  1  0.79201872  0.40239512  0.43714095  1
