# generated using pymatgen
data_Rb4P2Se9
_symmetry_space_group_name_H-M   'P 1'
_cell_length_a   7.22549953
_cell_length_b   7.22546751
_cell_length_c   19.33043277
_cell_angle_alpha   87.82479974
_cell_angle_beta   87.82577990
_cell_angle_gamma   94.72900386
_symmetry_Int_Tables_number   1
_chemical_formula_structural   Rb4P2Se9
_chemical_formula_sum   'Rb8 P4 Se18'
_cell_volume   1004.18059650
_cell_formula_units_Z   2
loop_
 _symmetry_equiv_pos_site_id
 _symmetry_equiv_pos_as_xyz
  1  'x, y, z'
loop_
 _atom_site_type_symbol
 _atom_site_label
 _atom_site_symmetry_multiplicity
 _atom_site_fract_x
 _atom_site_fract_y
 _atom_site_fract_z
 _atom_site_occupancy
  Rb  Rb0  1  0.78043508  0.28416488  0.52566907  1
  Rb  Rb1  1  0.21956347  0.71580057  0.47433182  1
  Rb  Rb2  1  0.56625966  0.75307797  0.67925986  1
  Rb  Rb3  1  0.43374360  0.24688835  0.32074204  1
  Rb  Rb4  1  0.24692422  0.43373624  0.82074818  1
  Rb  Rb5  1  0.28419262  0.78041179  0.02566910  1
  Rb  Rb6  1  0.71581862  0.21957778  0.97433310  1
  Rb  Rb7  1  0.75308716  0.56624694  0.17925499  1
  P  P8  1  0.25460492  0.26976859  0.61804519  1
  P  P9  1  0.73024767  0.74541557  0.88195941  1
  P  P10  1  0.74537740  0.73019990  0.38194830  1
  P  P11  1  0.26975714  0.25460534  0.11804110  1
  Se  Se12  1  0.95488531  0.98984151  0.35253610  1
  Se  Se13  1  0.51945790  0.12177053  0.14148526  1
  Se  Se14  1  0.04509282  0.01012392  0.64747167  1
  Se  Se15  1  0.50052944  0.24513546  0.67694221  1
  Se  Se16  1  0.27695762  0.21328228  0.50796185  1
  Se  Se17  1  0.72305273  0.78675306  0.49202323  1
  Se  Se18  1  0.48054778  0.87825376  0.85850733  1
  Se  Se19  1  0.01011187  0.04507662  0.14746753  1
  Se  Se20  1  0.75488331  0.49948330  0.82307122  1
  Se  Se21  1  0.98984384  0.95497073  0.85255018  1
  Se  Se22  1  0.21324817  0.27691568  0.00796216  1
  Se  Se23  1  0.49943410  0.75484631  0.32304855  1
  Se  Se24  1  0.24514987  0.50054965  0.17693792  1
  Se  Se25  1  0.78681586  0.72310389  0.99204009  1
  Se  Se26  1  0.89916050  0.10083530  0.74999777  1
  Se  Se27  1  0.12178950  0.51946096  0.64149100  1
  Se  Se28  1  0.87821307  0.48051090  0.35851447  1
  Se  Se29  1  0.10081273  0.89919122  0.24998729  1
