# generated using pymatgen
data_ZnS
_symmetry_space_group_name_H-M   'P 1'
_cell_length_a   3.80840464
_cell_length_b   3.80840430
_cell_length_c   74.69480796
_cell_angle_alpha   90.00000000
_cell_angle_beta   90.00000000
_cell_angle_gamma   120.00002065
_symmetry_Int_Tables_number   1
_chemical_formula_structural   ZnS
_chemical_formula_sum   'Zn24 S24'
_cell_volume   938.22518958
_cell_formula_units_Z   24
loop_
 _symmetry_equiv_pos_site_id
 _symmetry_equiv_pos_as_xyz
  1  'x, y, z'
loop_
 _atom_site_type_symbol
 _atom_site_label
 _atom_site_symmetry_multiplicity
 _atom_site_fract_x
 _atom_site_fract_y
 _atom_site_fract_z
 _atom_site_occupancy
  Zn  Zn0  1  0.00000000  0.00000000  0.33344154  1
  Zn  Zn1  1  0.33333300  0.66666700  0.66668421  1
  Zn  Zn2  1  0.33333300  0.66666700  0.29168250  1
  Zn  Zn3  1  0.66666700  0.33333300  0.08321992  1
  Zn  Zn4  1  0.00000000  0.00000000  0.58342078  1
  Zn  Zn5  1  0.00000000  0.00000000  0.70841028  1
  Zn  Zn6  1  0.66666700  0.33333300  0.50003933  1
  Zn  Zn7  1  0.66666700  0.33333300  0.91664849  1
  Zn  Zn8  1  0.66666700  0.33333300  0.20825727  1
  Zn  Zn9  1  0.66666700  0.33333300  0.62501988  1
  Zn  Zn10  1  0.00000000  0.00000000  0.83340830  1
  Zn  Zn11  1  0.33333300  0.66666700  0.54172325  1
  Zn  Zn12  1  0.33333300  0.66666700  0.04164650  1
  Zn  Zn13  1  0.00000000  0.00000000  0.12490143  1
  Zn  Zn14  1  0.33333300  0.66666700  0.16660809  1
  Zn  Zn15  1  0.33333300  0.66666700  0.41672796  1
  Zn  Zn16  1  0.00000000  0.00000000  0.45842929  1
  Zn  Zn17  1  0.33333300  0.66666700  0.75005717  1
  Zn  Zn18  1  0.33333300  0.66666700  0.95825493  1
  Zn  Zn19  1  0.00000000  0.00000000  0.24992022  1
  Zn  Zn20  1  0.66666700  0.33333300  0.79171098  1
  Zn  Zn21  1  0.66666700  0.33333300  0.37504508  1
  Zn  Zn22  1  0.33333300  0.66666700  0.87498624  1
  Zn  Zn23  1  0.00000000  0.00000000  0.99992381  1
  S  S24  1  0.66666700  0.33333300  0.94788445  1
  S  S25  1  0.33333300  0.66666700  0.78128252  1
  S  S26  1  0.33333300  0.66666700  0.19784655  1
  S  S27  1  0.00000000  0.00000000  0.36465271  1
  S  S28  1  0.00000000  0.00000000  0.48964827  1
  S  S29  1  0.66666700  0.33333300  0.53127571  1
  S  S30  1  0.66666700  0.33333300  0.65625531  1
  S  S31  1  0.00000000  0.00000000  0.73967272  1
  S  S32  1  0.33333300  0.66666700  0.44797638  1
  S  S33  1  0.66666700  0.33333300  0.23949530  1
  S  S34  1  0.33333300  0.66666700  0.90619158  1
  S  S35  1  0.33333300  0.66666700  0.98944327  1
  S  S36  1  0.66666700  0.33333300  0.11445173  1
  S  S37  1  0.00000000  0.00000000  0.61463808  1
  S  S38  1  0.00000000  0.00000000  0.15616256  1
  S  S39  1  0.00000000  0.00000000  0.28117730  1
  S  S40  1  0.33333300  0.66666700  0.69791967  1
  S  S41  1  0.33333300  0.66666700  0.07283506  1
  S  S42  1  0.33333300  0.66666700  0.57297002  1
  S  S43  1  0.00000000  0.00000000  0.86461962  1
  S  S44  1  0.66666700  0.33333300  0.82296243  1
  S  S45  1  0.66666700  0.33333300  0.40628309  1
  S  S46  1  0.33333300  0.66666700  0.32298435  1
  S  S47  1  0.00000000  0.00000000  0.03120587  1
