# generated using pymatgen
data_Hf(SeCl6)2
_symmetry_space_group_name_H-M   'P 1'
_cell_length_a   12.72358483
_cell_length_b   12.48893394
_cell_length_c   8.81668302
_cell_angle_alpha   70.98668992
_cell_angle_beta   68.12709016
_cell_angle_gamma   40.94357306
_symmetry_Int_Tables_number   1
_chemical_formula_structural   Hf(SeCl6)2
_chemical_formula_sum   'Hf2 Se4 Cl24'
_cell_volume   849.73742776
_cell_formula_units_Z   2
loop_
 _symmetry_equiv_pos_site_id
 _symmetry_equiv_pos_as_xyz
  1  'x, y, z'
loop_
 _atom_site_type_symbol
 _atom_site_label
 _atom_site_symmetry_multiplicity
 _atom_site_fract_x
 _atom_site_fract_y
 _atom_site_fract_z
 _atom_site_occupancy
  Hf  Hf0  1  0.87414087  0.87411356  0.62587562  1
  Hf  Hf1  1  0.62404765  0.62411346  0.37595904  1
  Se  Se2  1  0.42486397  0.98716307  0.02397979  1
  Se  Se3  1  0.22600364  0.68585782  0.82554502  1
  Se  Se4  1  0.98721644  0.42474028  0.56411551  1
  Se  Se5  1  0.68573468  0.22597774  0.26260871  1
  Cl  Cl6  1  0.43637900  0.46856518  0.26328544  1
  Cl  Cl7  1  0.66094057  0.58887459  0.64838807  1
  Cl  Cl8  1  0.22604673  0.33150402  0.44586408  1
  Cl  Cl9  1  0.74535291  0.34912644  0.40874027  1
  Cl  Cl10  1  0.50813863  0.90047321  0.32831531  1
  Cl  Cl11  1  0.92187176  0.98676626  0.74198088  1
  Cl  Cl12  1  0.98679495  0.92178833  0.34948158  1
  Cl  Cl13  1  0.34910135  0.74535916  0.49663004  1
  Cl  Cl14  1  0.90043706  0.50819548  0.26325357  1
  Cl  Cl15  1  0.33151807  0.22609032  0.99666105  1
  Cl  Cl16  1  0.66005705  0.10023339  0.18365212  1
  Cl  Cl17  1  0.25340535  0.80407985  0.91883137  1
  Cl  Cl18  1  0.75333832  0.84112275  0.90088353  1
  Cl  Cl19  1  0.84112285  0.75336283  0.50455647  1
  Cl  Cl20  1  0.14800678  0.60168897  0.66129861  1
  Cl  Cl21  1  0.80404978  0.25329520  0.02379950  1
  Cl  Cl22  1  0.06588523  0.19453435  0.59002320  1
  Cl  Cl23  1  0.10035387  0.66001417  0.05577708  1
  Cl  Cl24  1  0.41861937  0.98644738  0.78129173  1
  Cl  Cl25  1  0.98648442  0.41868160  0.81372754  1
  Cl  Cl26  1  0.58877431  0.66102431  0.10187334  1
  Cl  Cl27  1  0.46860934  0.43641145  0.83149353  1
  Cl  Cl28  1  0.60175730  0.14801309  0.58893974  1
  Cl  Cl29  1  0.19454674  0.06598372  0.14956726  1
