# generated using pymatgen
data_HoTaO4
_symmetry_space_group_name_H-M   'P 1'
_cell_length_a   5.09662434
_cell_length_b   5.28826241
_cell_length_c   5.43595849
_cell_angle_alpha   90.00000000
_cell_angle_beta   90.00000000
_cell_angle_gamma   96.40266018
_symmetry_Int_Tables_number   1
_chemical_formula_structural   HoTaO4
_chemical_formula_sum   'Ho2 Ta2 O8'
_cell_volume   145.59768303
_cell_formula_units_Z   2
loop_
 _symmetry_equiv_pos_site_id
 _symmetry_equiv_pos_as_xyz
  1  'x, y, z'
loop_
 _atom_site_type_symbol
 _atom_site_label
 _atom_site_symmetry_multiplicity
 _atom_site_fract_x
 _atom_site_fract_y
 _atom_site_fract_z
 _atom_site_occupancy
  Ho  Ho0  1  -0.00000000  0.75000000  0.76639852  1
  Ho  Ho1  1  -0.00000000  0.25000000  0.23360148  1
  Ta  Ta2  1  0.50000000  0.25000000  0.69629190  1
  Ta  Ta3  1  0.50000000  0.75000000  0.30370810  1
  O  O4  1  0.73323117  0.00729367  0.56293063  1
  O  O5  1  0.26676883  0.49270633  0.56293063  1
  O  O6  1  0.26676883  0.99270633  0.43706937  1
  O  O7  1  0.73323117  0.50729367  0.43706937  1
  O  O8  1  0.24980091  0.59696816  0.08145307  1
  O  O9  1  0.75019909  0.90303184  0.08145307  1
  O  O10  1  0.75019909  0.40303184  0.91854693  1
  O  O11  1  0.24980091  0.09696816  0.91854693  1
