# generated using pymatgen
data_TlSbO3
_symmetry_space_group_name_H-M   'P 1'
_cell_length_a   5.33070696
_cell_length_b   5.33070662
_cell_length_c   14.72638829
_cell_angle_alpha   90.00000000
_cell_angle_beta   90.00000000
_cell_angle_gamma   120.00000214
_symmetry_Int_Tables_number   1
_chemical_formula_structural   TlSbO3
_chemical_formula_sum   'Tl4 Sb4 O12'
_cell_volume   362.40690172
_cell_formula_units_Z   4
loop_
 _symmetry_equiv_pos_site_id
 _symmetry_equiv_pos_as_xyz
  1  'x, y, z'
loop_
 _atom_site_type_symbol
 _atom_site_label
 _atom_site_symmetry_multiplicity
 _atom_site_fract_x
 _atom_site_fract_y
 _atom_site_fract_z
 _atom_site_occupancy
  Tl  Tl0  1  0.66666700  0.33333300  0.92916235  1
  Tl  Tl1  1  0.33333300  0.66666700  0.42916235  1
  Tl  Tl2  1  0.33333300  0.66666700  0.07083765  1
  Tl  Tl3  1  0.66666700  0.33333300  0.57083765  1
  Sb  Sb4  1  0.66666700  0.33333300  0.25000000  1
  Sb  Sb5  1  -0.00000000  -0.00000000  0.25000000  1
  Sb  Sb6  1  0.33333300  0.66666700  0.75000000  1
  Sb  Sb7  1  -0.00000000  -0.00000000  0.75000000  1
  O  O8  1  0.28590091  0.33332517  0.82519790  1
  O  O9  1  0.71410009  0.04742426  0.32519790  1
  O  O10  1  0.71410009  0.66667483  0.17480210  1
  O  O11  1  0.04742426  0.33332517  0.67480210  1
  O  O12  1  0.95257574  0.28590091  0.17480210  1
  O  O13  1  0.33332517  0.04742426  0.17480210  1
  O  O14  1  0.66667483  0.71410009  0.67480210  1
  O  O15  1  0.04742426  0.71410009  0.82519790  1
  O  O16  1  0.33332517  0.28590091  0.32519790  1
  O  O17  1  0.66667483  0.95257574  0.82519790  1
  O  O18  1  0.95257574  0.66667483  0.32519790  1
  O  O19  1  0.28590091  0.95257574  0.67480210  1
