# generated using pymatgen
data_Y2S3
_symmetry_space_group_name_H-M   'P 1'
_cell_length_a   4.03355152
_cell_length_b   10.20517993
_cell_length_c   17.63093350
_cell_angle_alpha   98.66403811
_cell_angle_beta   90.00000000
_cell_angle_gamma   90.00000000
_symmetry_Int_Tables_number   1
_chemical_formula_structural   Y2S3
_chemical_formula_sum   'Y12 S18'
_cell_volume   717.46247906
_cell_formula_units_Z   6
loop_
 _symmetry_equiv_pos_site_id
 _symmetry_equiv_pos_as_xyz
  1  'x, y, z'
loop_
 _atom_site_type_symbol
 _atom_site_label
 _atom_site_symmetry_multiplicity
 _atom_site_fract_x
 _atom_site_fract_y
 _atom_site_fract_z
 _atom_site_occupancy
  Y  Y0  1  0.25000000  0.18882634  0.02049649  1
  Y  Y1  1  0.75000000  0.81117366  0.97950351  1
  Y  Y2  1  0.25000000  0.12430139  0.43019717  1
  Y  Y3  1  0.75000000  0.87569861  0.56980283  1
  Y  Y4  1  0.25000000  0.82972478  0.78131047  1
  Y  Y5  1  0.75000000  0.17027522  0.21868953  1
  Y  Y6  1  0.25000000  0.18734354  0.72054924  1
  Y  Y7  1  0.75000000  0.81265646  0.27945076  1
  Y  Y8  1  0.25000000  0.48661205  0.39880834  1
  Y  Y9  1  0.75000000  0.51338795  0.60119166  1
  Y  Y10  1  0.25000000  0.54890949  0.11467272  1
  Y  Y11  1  0.75000000  0.45109051  0.88532728  1
  S  S12  1  0.25000000  0.05162712  0.57525459  1
  S  S13  1  0.75000000  0.94837288  0.42474541  1
  S  S14  1  0.25000000  0.26927806  0.87300842  1
  S  S15  1  0.75000000  0.73072194  0.12699158  1
  S  S16  1  0.25000000  0.61563511  0.96699001  1
  S  S17  1  0.75000000  0.38436489  0.03300999  1
  S  S18  1  0.25000000  0.63843466  0.28222952  1
  S  S19  1  0.75000000  0.36156534  0.71777048  1
  S  S20  1  0.25000000  0.00718769  0.26804989  1
  S  S21  1  0.75000000  0.99281231  0.73195011  1
  S  S22  1  0.25000000  0.71056416  0.63096428  1
  S  S23  1  0.75000000  0.28943584  0.36903572  1
  S  S24  1  0.25000000  0.95077477  0.92427986  1
  S  S25  1  0.75000000  0.04922523  0.07572014  1
  S  S26  1  0.25000000  0.31888013  0.18211985  1
  S  S27  1  0.75000000  0.68111987  0.81788015  1
  S  S28  1  0.25000000  0.36794323  0.53144994  1
  S  S29  1  0.75000000  0.63205677  0.46855006  1
