# generated using pymatgen
data_Cs4P2Se9
_symmetry_space_group_name_H-M   'P 1'
_cell_length_a   7.44034607
_cell_length_b   7.44034607
_cell_length_c   19.87795386
_cell_angle_alpha   87.31838431
_cell_angle_beta   87.31838431
_cell_angle_gamma   93.10978065
_symmetry_Int_Tables_number   1
_chemical_formula_structural   Cs4P2Se9
_chemical_formula_sum   'Cs8 P4 Se18'
_cell_volume   1096.25212197
_cell_formula_units_Z   2
loop_
 _symmetry_equiv_pos_site_id
 _symmetry_equiv_pos_as_xyz
  1  'x, y, z'
loop_
 _atom_site_type_symbol
 _atom_site_label
 _atom_site_symmetry_multiplicity
 _atom_site_fract_x
 _atom_site_fract_y
 _atom_site_fract_z
 _atom_site_occupancy
  Cs  Cs0  1  0.71582800  0.21557952  0.47456042  1
  Cs  Cs1  1  0.28417200  0.78442048  0.52543958  1
  Cs  Cs2  1  0.78442048  0.28417200  0.02543958  1
  Cs  Cs3  1  0.56415871  0.75832441  0.17366754  1
  Cs  Cs4  1  0.24167559  0.43584129  0.32633246  1
  Cs  Cs5  1  0.75832441  0.56415871  0.67366754  1
  Cs  Cs6  1  0.21557952  0.71582800  0.97456042  1
  Cs  Cs7  1  0.43584129  0.24167559  0.82633246  1
  P  P8  1  0.73145007  0.74670451  0.37709276  1
  P  P9  1  0.25329549  0.26854993  0.12290724  1
  P  P10  1  0.74670451  0.73145007  0.87709276  1
  P  P11  1  0.26854993  0.25329549  0.62290724  1
  Se  Se12  1  0.11241562  0.50768612  0.14445469  1
  Se  Se13  1  0.88758438  0.49231388  0.85554531  1
  Se  Se14  1  0.50795037  0.75063851  0.82004650  1
  Se  Se15  1  0.50768612  0.11241562  0.64445469  1
  Se  Se16  1  0.75063851  0.50795037  0.32004650  1
  Se  Se17  1  0.49231388  0.88758438  0.35554531  1
  Se  Se18  1  0.24936149  0.49204963  0.67995350  1
  Se  Se19  1  0.01353672  0.05821607  0.65115170  1
  Se  Se20  1  0.28428393  0.21096540  0.01615282  1
  Se  Se21  1  0.98646328  0.94178393  0.34884830  1
  Se  Se22  1  0.78903460  0.71571607  0.48384718  1
  Se  Se23  1  0.94178393  0.98646328  0.84884830  1
  Se  Se24  1  0.49204963  0.24936149  0.17995350  1
  Se  Se25  1  0.71571607  0.78903460  0.98384718  1
  Se  Se26  1  0.05821607  0.01353672  0.15115170  1
  Se  Se27  1  0.90385541  0.09614459  0.25000000  1
  Se  Se28  1  0.21096540  0.28428393  0.51615282  1
  Se  Se29  1  0.09614459  0.90385541  0.75000000  1
