# generated using pymatgen
data_NaGdO2
_symmetry_space_group_name_H-M   'P 1'
_cell_length_a   4.65330362
_cell_length_b   4.65330048
_cell_length_c   6.17878633
_cell_angle_alpha   112.12042914
_cell_angle_beta   112.12044742
_cell_angle_gamma   90.00000820
_symmetry_Int_Tables_number   1
_chemical_formula_structural   NaGdO2
_chemical_formula_sum   'Na2 Gd2 O4'
_cell_volume   113.24196482
_cell_formula_units_Z   2
loop_
 _symmetry_equiv_pos_site_id
 _symmetry_equiv_pos_as_xyz
  1  'x, y, z'
loop_
 _atom_site_type_symbol
 _atom_site_label
 _atom_site_symmetry_multiplicity
 _atom_site_fract_x
 _atom_site_fract_y
 _atom_site_fract_z
 _atom_site_occupancy
  Na  Na0  1  0.12500000  0.87500000  0.25000000  1
  Na  Na1  1  0.87500000  0.12500000  0.75000000  1
  Gd  Gd2  1  0.37500000  0.62500000  0.75000000  1
  Gd  Gd3  1  0.62500000  0.37500000  0.25000000  1
  O  O4  1  0.15264177  0.40264177  0.30528154  1
  O  O5  1  0.40264177  0.15264177  0.80528154  1
  O  O6  1  0.59735923  0.84735923  0.19471846  1
  O  O7  1  0.84735923  0.59735923  0.69471846  1
