# generated using pymatgen
data_Sr2SnSe5
_symmetry_space_group_name_H-M   'P 1'
_cell_length_a   8.70279651
_cell_length_b   12.17199499
_cell_length_c   16.72485230
_cell_angle_alpha   90.00000000
_cell_angle_beta   90.00000000
_cell_angle_gamma   90.00000000
_symmetry_Int_Tables_number   1
_chemical_formula_structural   Sr2SnSe5
_chemical_formula_sum   'Sr16 Sn8 Se40'
_cell_volume   1771.67021913
_cell_formula_units_Z   8
loop_
 _symmetry_equiv_pos_site_id
 _symmetry_equiv_pos_as_xyz
  1  'x, y, z'
loop_
 _atom_site_type_symbol
 _atom_site_label
 _atom_site_symmetry_multiplicity
 _atom_site_fract_x
 _atom_site_fract_y
 _atom_site_fract_z
 _atom_site_occupancy
  Sr  Sr0  1  0.24147070  0.25474805  0.43066567  1
  Sr  Sr1  1  0.25588593  0.61454771  0.82130901  1
  Sr  Sr2  1  0.75856530  0.38225317  0.17963581  1
  Sr  Sr3  1  0.74411407  0.11454771  0.67869099  1
  Sr  Sr4  1  0.24143470  0.11774683  0.67963581  1
  Sr  Sr5  1  0.75856530  0.61774683  0.82036419  1
  Sr  Sr6  1  0.74411407  0.88545229  0.32130901  1
  Sr  Sr7  1  0.74022135  0.74779691  0.57087168  1
  Sr  Sr8  1  0.75852930  0.75474805  0.06933433  1
  Sr  Sr9  1  0.24147070  0.74525195  0.56933433  1
  Sr  Sr10  1  0.75852930  0.24525195  0.93066567  1
  Sr  Sr11  1  0.25977865  0.75220309  0.07087168  1
  Sr  Sr12  1  0.74022135  0.25220309  0.42912832  1
  Sr  Sr13  1  0.25588593  0.38545229  0.17869099  1
  Sr  Sr14  1  0.25977865  0.24779691  0.92912832  1
  Sr  Sr15  1  0.24143470  0.88225317  0.32036419  1
  Sn  Sn16  1  0.01569391  0.09174393  0.17344023  1
  Sn  Sn17  1  0.98430609  0.40825607  0.67344023  1
  Sn  Sn18  1  0.49267427  0.05304122  0.10378389  1
  Sn  Sn19  1  0.50732573  0.55304122  0.39621611  1
  Sn  Sn20  1  0.98430609  0.59174393  0.32655977  1
  Sn  Sn21  1  0.49267427  0.94695878  0.89621611  1
  Sn  Sn22  1  0.50732573  0.44695878  0.60378389  1
  Sn  Sn23  1  0.01569391  0.90825607  0.82655977  1
  Se  Se24  1  0.28105908  0.87176440  0.76424138  1
  Se  Se25  1  0.98924460  0.93862669  0.60763783  1
  Se  Se26  1  0.01075540  0.56137331  0.10763783  1
  Se  Se27  1  0.51466263  0.74221642  0.92656138  1
  Se  Se28  1  0.49404430  0.37061818  0.31899568  1
  Se  Se29  1  0.01320982  0.24518769  0.07015378  1
  Se  Se30  1  0.98679018  0.25481231  0.57015378  1
  Se  Se31  1  0.28105908  0.12823560  0.23575862  1
  Se  Se32  1  0.22810020  0.63353032  0.24991602  1
  Se  Se33  1  0.48533737  0.75778358  0.42656138  1
  Se  Se34  1  0.65010788  -0.00000000  0.50000000  1
  Se  Se35  1  0.48868988  0.05807460  0.39112377  1
  Se  Se36  1  0.15652284  -0.00000000  0.50000000  1
  Se  Se37  1  0.98924460  0.06137331  0.39236217  1
  Se  Se38  1  0.99461995  0.61833456  0.67452447  1
  Se  Se39  1  0.84347716  0.50000000  0.00000000  1
  Se  Se40  1  0.28165939  0.50000000  0.50000000  1
  Se  Se41  1  0.00538005  0.11833456  0.82547553  1
  Se  Se42  1  0.51131012  0.44192540  0.89112377  1
  Se  Se43  1  0.99461995  0.38166544  0.32547553  1
  Se  Se44  1  0.49404430  0.62938182  0.68100432  1
  Se  Se45  1  0.72487523  0.50000000  0.50000000  1
  Se  Se46  1  0.51131012  0.55807460  0.10887623  1
  Se  Se47  1  0.50595570  0.87061818  0.18100432  1
  Se  Se48  1  0.50595570  0.12938182  0.81899568  1
  Se  Se49  1  0.48533737  0.24221642  0.57343862  1
  Se  Se50  1  0.48868988  0.94192540  0.60887623  1
  Se  Se51  1  0.01075540  0.43862669  0.89236217  1
  Se  Se52  1  0.01320982  0.75481231  0.92984622  1
  Se  Se53  1  0.00538005  0.88166544  0.17452447  1
  Se  Se54  1  0.34989212  0.50000000  0.00000000  1
  Se  Se55  1  0.77189980  0.13353032  0.25008398  1
  Se  Se56  1  0.51466263  0.25778358  0.07343862  1
  Se  Se57  1  0.71834061  -0.00000000  0.00000000  1
  Se  Se58  1  0.71894092  0.37176440  0.73575862  1
  Se  Se59  1  0.77189980  0.86646968  0.74991602  1
  Se  Se60  1  0.71894092  0.62823560  0.26424138  1
  Se  Se61  1  0.98679018  0.74518769  0.42984622  1
  Se  Se62  1  0.22810020  0.36646968  0.75008398  1
  Se  Se63  1  0.27512477  -0.00000000  0.00000000  1
