# generated using pymatgen
data_ZnS
_symmetry_space_group_name_H-M   'P 1'
_cell_length_a   12.65013598
_cell_length_b   12.65013598
_cell_length_c   12.65013742
_cell_angle_alpha   17.31324284
_cell_angle_beta   17.31324284
_cell_angle_gamma   17.31324156
_symmetry_Int_Tables_number   1
_chemical_formula_structural   ZnS
_chemical_formula_sum   'Zn4 S4'
_cell_volume   156.44462063
_cell_formula_units_Z   4
loop_
 _symmetry_equiv_pos_site_id
 _symmetry_equiv_pos_as_xyz
  1  'x, y, z'
loop_
 _atom_site_type_symbol
 _atom_site_label
 _atom_site_symmetry_multiplicity
 _atom_site_fract_x
 _atom_site_fract_y
 _atom_site_fract_z
 _atom_site_occupancy
  Zn  Zn0  1  0.41665005  0.41665005  0.41665005  1
  Zn  Zn1  1  0.00005210  0.00005210  0.00005210  1
  Zn  Zn2  1  0.58339023  0.58339023  0.58339023  1
  Zn  Zn3  1  0.83331579  0.83331579  0.83331579  1
  S  S4  1  0.64591735  0.64591735  0.64591735  1
  S  S5  1  0.89583666  0.89583666  0.89583666  1
  S  S6  1  0.47909953  0.47909953  0.47909953  1
  S  S7  1  0.06250529  0.06250529  0.06250529  1
