# generated using pymatgen
data_Na2SeO4
_symmetry_space_group_name_H-M   'P 1'
_cell_length_a   5.88221931
_cell_length_b   5.88221967
_cell_length_c   6.95703029
_cell_angle_alpha   103.02390837
_cell_angle_beta   103.02390927
_cell_angle_gamma   117.83514026
_symmetry_Int_Tables_number   1
_chemical_formula_structural   Na2SeO4
_chemical_formula_sum   'Na4 Se2 O8'
_cell_volume   191.51407672
_cell_formula_units_Z   2
loop_
 _symmetry_equiv_pos_site_id
 _symmetry_equiv_pos_as_xyz
  1  'x, y, z'
loop_
 _atom_site_type_symbol
 _atom_site_label
 _atom_site_symmetry_multiplicity
 _atom_site_fract_x
 _atom_site_fract_y
 _atom_site_fract_z
 _atom_site_occupancy
  Na  Na0  1  0.18993456  0.81006544  0.25000000  1
  Na  Na1  1  0.43993456  0.56006544  0.75000000  1
  Na  Na2  1  0.56006544  0.43993456  0.25000000  1
  Na  Na3  1  0.81006544  0.18993456  0.75000000  1
  Se  Se4  1  0.12500000  0.87500000  0.75000000  1
  Se  Se5  1  0.87500000  0.12500000  0.25000000  1
  O  O6  1  0.79642622  0.74530677  0.60384110  1
  O  O7  1  0.25469323  0.20357378  0.89615890  1
  O  O8  1  0.85853433  0.30741388  0.10384110  1
  O  O9  1  0.20357378  0.25469323  0.39615890  1
  O  O10  1  0.69258612  0.14146567  0.39615890  1
  O  O11  1  0.30741388  0.85853433  0.60384110  1
  O  O12  1  0.14146567  0.69258612  0.89615890  1
  O  O13  1  0.74530677  0.79642622  0.10384110  1
