# generated using pymatgen
data_K6U2Mo4O21
_symmetry_space_group_name_H-M   'P 1'
_cell_length_a   7.81769324
_cell_length_b   7.90298356
_cell_length_c   10.36534550
_cell_angle_alpha   72.22080081
_cell_angle_beta   84.09396702
_cell_angle_gamma   80.55566420
_symmetry_Int_Tables_number   1
_chemical_formula_structural   K6U2Mo4O21
_chemical_formula_sum   'K6 U2 Mo4 O21'
_cell_volume   600.60113576
_cell_formula_units_Z   1
loop_
 _symmetry_equiv_pos_site_id
 _symmetry_equiv_pos_as_xyz
  1  'x, y, z'
loop_
 _atom_site_type_symbol
 _atom_site_label
 _atom_site_symmetry_multiplicity
 _atom_site_fract_x
 _atom_site_fract_y
 _atom_site_fract_z
 _atom_site_occupancy
  K  K0  1  0.93010499  0.39339966  0.27702031  1
  K  K1  1  0.70160554  0.83804813  0.02817676  1
  K  K2  1  0.59424136  0.27614671  0.66075072  1
  K  K3  1  0.06989501  0.60660034  0.72297969  1
  K  K4  1  0.29839446  0.16195187  0.97182324  1
  K  K5  1  0.40575864  0.72385329  0.33924928  1
  U  U6  1  0.48570546  0.21711250  0.31421351  1
  U  U7  1  0.51429454  0.78288750  0.68578649  1
  Mo  Mo8  1  0.25483883  0.63486345  0.03225397  1
  Mo  Mo9  1  0.84999104  0.84704586  0.39209943  1
  Mo  Mo10  1  0.15000896  0.15295414  0.60790057  1
  Mo  Mo11  1  0.74516117  0.36513655  0.96774603  1
  O  O12  1  0.20648437  0.23137510  0.42923213  1
  O  O13  1  0.53942376  0.37493725  0.39672488  1
  O  O14  1  0.03340039  0.69952913  0.01056482  1
  O  O15  1  0.46057624  0.62506275  0.60327512  1
  O  O16  1  0.92687183  0.20152510  0.62367332  1
  O  O17  1  0.72199022  0.56656406  0.82882273  1
  O  O18  1  0.65310710  0.19893130  0.93118497  1
  O  O19  1  0.34689290  0.80106870  0.06881503  1
  O  O20  1  0.64253663  0.40711872  0.12021113  1
  O  O21  1  0.27800978  0.43343594  0.17117727  1
  O  O22  1  0.23940054  0.27315917  0.69497286  1
  O  O23  1  0.07312817  0.79847490  0.37632668  1
  O  O24  1  0.96659961  0.30047087  0.98943518  1
  O  O25  1  0.79351563  0.76862490  0.57076787  1
  O  O26  1  0.78305913  0.08453710  0.31810117  1
  O  O27  1  0.44439634  0.06933331  0.21794334  1
  O  O28  1  0.55560366  0.93066669  0.78205666  1
  O  O29  1  0.35746337  0.59288128  0.87978887  1
  O  O30  1  0.21694087  0.91546290  0.68189883  1
  O  O31  1  0.76059946  0.72684083  0.30502714  1
  O  O32  1  0.50000000  -0.00000000  0.50000000  1
