# generated using pymatgen
data_Na3Cr2(PS4)3
_symmetry_space_group_name_H-M   'P 1'
_cell_length_a   11.44242000
_cell_length_b   9.85716100
_cell_length_c   17.56846670
_cell_angle_alpha   85.51703386
_cell_angle_beta   90.00000000
_cell_angle_gamma   90.00000000
_symmetry_Int_Tables_number   1
_chemical_formula_structural   Na3Cr2(PS4)3
_chemical_formula_sum   'Na12 Cr8 P12 S48'
_cell_volume   1975.48112289
_cell_formula_units_Z   4
loop_
 _symmetry_equiv_pos_site_id
 _symmetry_equiv_pos_as_xyz
  1  'x, y, z'
loop_
 _atom_site_type_symbol
 _atom_site_label
 _atom_site_symmetry_multiplicity
 _atom_site_fract_x
 _atom_site_fract_y
 _atom_site_fract_z
 _atom_site_occupancy
  Na  Na0  1  0.12427900  0.99617400  0.20499900  1
  Na  Na1  1  0.87572100  0.00382600  0.79500100  1
  Na  Na2  1  0.37572100  0.49617400  0.70499900  1
  Na  Na3  1  0.08285600  0.45960800  0.85335600  1
  Na  Na4  1  0.62427900  0.50382600  0.29500100  1
  Na  Na5  1  0.08263100  0.73888000  0.55005000  1
  Na  Na6  1  0.58263100  0.76112000  0.94995000  1
  Na  Na7  1  0.41736900  0.23888000  0.05005000  1
  Na  Na8  1  0.91714400  0.54039200  0.14664400  1
  Na  Na9  1  0.91736900  0.26112000  0.44995000  1
  Na  Na10  1  0.58285600  0.04039200  0.64664400  1
  Na  Na11  1  0.41714400  0.95960800  0.35335600  1
  Cr  Cr12  1  0.73220800  0.42759600  0.78832000  1
  Cr  Cr13  1  0.22028800  0.89693800  0.89976800  1
  Cr  Cr14  1  0.23220800  0.07240400  0.71168000  1
  Cr  Cr15  1  0.76779200  0.92759600  0.28832000  1
  Cr  Cr16  1  0.27971200  0.39693800  0.39976800  1
  Cr  Cr17  1  0.26779200  0.57240400  0.21168000  1
  Cr  Cr18  1  0.72028800  0.60306200  0.60023200  1
  Cr  Cr19  1  0.77971200  0.10306200  0.10023200  1
  P  P20  1  0.86597300  0.22116700  0.25087500  1
  P  P21  1  0.73862800  0.77270500  0.44582600  1
  P  P22  1  0.18422500  0.69484900  0.36345300  1
  P  P23  1  0.63402700  0.72116700  0.75087500  1
  P  P24  1  0.68422500  0.80515100  0.13654700  1
  P  P25  1  0.31577500  0.19484900  0.86345300  1
  P  P26  1  0.13402700  0.77883300  0.74912500  1
  P  P27  1  0.76137200  0.27270500  0.94582600  1
  P  P28  1  0.81577500  0.30515100  0.63654700  1
  P  P29  1  0.26137200  0.22729500  0.55417400  1
  P  P30  1  0.23862800  0.72729500  0.05417400  1
  P  P31  1  0.36597300  0.27883300  0.24912500  1
  S  S32  1  0.55390100  0.72889200  0.64528100  1
  S  S33  1  0.10750400  0.70267200  0.25665800  1
  S  S34  1  0.63771300  0.90103400  0.79749800  1
  S  S35  1  0.19956200  0.35601400  0.27417700  1
  S  S36  1  0.32376000  0.70216700  0.95316900  1
  S  S37  1  0.35041200  0.61546900  0.33701200  1
  S  S38  1  0.19075400  0.87280800  0.40975600  1
  S  S39  1  0.17624000  0.20216700  0.45316900  1
  S  S40  1  0.05390100  0.77110800  0.85471900  1
  S  S41  1  0.82376000  0.79783300  0.54683100  1
  S  S42  1  0.43514500  0.43432700  0.17805900  1
  S  S43  1  0.56485500  0.56567300  0.82194100  1
  S  S44  1  0.60750400  0.79732800  0.24334200  1
  S  S45  1  0.64958800  0.38453100  0.66298800  1
  S  S46  1  0.44609900  0.27110800  0.35471900  1
  S  S47  1  0.36228700  0.09896600  0.20250200  1
  S  S48  1  0.14958800  0.11546900  0.83701200  1
  S  S49  1  0.30043800  0.85601400  0.77417700  1
  S  S50  1  0.89249600  0.29732800  0.74334200  1
  S  S51  1  0.13771300  0.59896600  0.70250200  1
  S  S52  1  0.67624000  0.29783300  0.04683100  1
  S  S53  1  0.06485500  0.93432700  0.67805900  1
  S  S54  1  0.39249600  0.20267200  0.75665800  1
  S  S55  1  0.94609900  0.22889200  0.14528100  1
  S  S56  1  0.88072700  0.46196600  0.56545300  1
  S  S57  1  0.84017000  0.45211700  0.90428500  1
  S  S58  1  0.80043800  0.64398600  0.72582300  1
  S  S59  1  0.38072700  0.03803400  0.93454700  1
  S  S60  1  0.12616500  0.88440200  0.02389100  1
  S  S61  1  0.69956200  0.14398600  0.22582300  1
  S  S62  1  0.34017000  0.04788300  0.59571500  1
  S  S63  1  0.85041200  0.88453100  0.16298800  1
  S  S64  1  0.65983000  0.95211700  0.40428500  1
  S  S65  1  0.69075400  0.62719200  0.09024400  1
  S  S66  1  0.80924600  0.12719200  0.59024400  1
  S  S67  1  0.86228700  0.40103400  0.29749800  1
  S  S68  1  0.30924600  0.37280800  0.90975600  1
  S  S69  1  0.14955700  0.26547400  0.64068600  1
  S  S70  1  0.87383500  0.11559800  0.97610900  1
  S  S71  1  0.11927300  0.53803400  0.43454700  1
  S  S72  1  0.37383500  0.38440200  0.52389100  1
  S  S73  1  0.85044300  0.73452600  0.35931400  1
  S  S74  1  0.35044300  0.76547400  0.14068600  1
  S  S75  1  0.61927300  0.96196600  0.06545300  1
  S  S76  1  0.15983000  0.54788300  0.09571500  1
  S  S77  1  0.93514500  0.06567300  0.32194100  1
  S  S78  1  0.64955700  0.23452600  0.85931400  1
  S  S79  1  0.62616500  0.61559800  0.47610900  1
