# generated using pymatgen
data_ZnS
_symmetry_space_group_name_H-M   'P 1'
_cell_length_a   3.81013439
_cell_length_b   3.81013564
_cell_length_c   80.95652946
_cell_angle_alpha   90.00000000
_cell_angle_beta   90.00000000
_cell_angle_gamma   119.99999796
_symmetry_Int_Tables_number   1
_chemical_formula_structural   ZnS
_chemical_formula_sum   'Zn26 S26'
_cell_volume   1017.80189036
_cell_formula_units_Z   26
loop_
 _symmetry_equiv_pos_site_id
 _symmetry_equiv_pos_as_xyz
  1  'x, y, z'
loop_
 _atom_site_type_symbol
 _atom_site_label
 _atom_site_symmetry_multiplicity
 _atom_site_fract_x
 _atom_site_fract_y
 _atom_site_fract_z
 _atom_site_occupancy
  Zn  Zn0  1  0.33333300  0.66666700  0.80764662  1
  Zn  Zn1  1  0.00000000  -0.00000000  0.11536240  1
  Zn  Zn2  1  0.66666700  0.33333300  0.46158892  1
  Zn  Zn3  1  0.33333300  0.66666700  0.65379390  1
  Zn  Zn4  1  0.00000000  0.00000000  0.23079066  1
  Zn  Zn5  1  0.66666700  0.33333300  0.96153826  1
  Zn  Zn6  1  0.33333300  0.66666700  0.88459251  1
  Zn  Zn7  1  0.33333300  0.66666700  0.03852011  1
  Zn  Zn8  1  0.66666700  0.33333300  0.19226222  1
  Zn  Zn9  1  0.66666700  0.33333300  0.07692708  1
  Zn  Zn10  1  0.00000000  -0.00000000  0.76925110  1
  Zn  Zn11  1  -0.00000000  -0.00000000  0.69223440  1
  Zn  Zn12  1  0.33333300  0.66666700  0.42305573  1
  Zn  Zn13  1  0.66666700  0.33333300  0.84610343  1
  Zn  Zn14  1  -0.00000000  -0.00000000  0.57699335  1
  Zn  Zn15  1  0.33333300  0.66666700  0.53852286  1
  Zn  Zn16  1  0.00000000  -0.00000000  0.00007740  1
  Zn  Zn17  1  0.33333300  0.66666700  0.30779367  1
  Zn  Zn18  1  0.33333300  0.66666700  0.15378981  1
  Zn  Zn19  1  0.66666700  0.33333300  0.26934963  1
  Zn  Zn20  1  -0.00000000  0.00000000  0.92300123  1
  Zn  Zn21  1  0.66666700  0.33333300  0.61537639  1
  Zn  Zn22  1  -0.00000000  -0.00000000  0.50003899  1
  Zn  Zn23  1  0.66666700  0.33333300  0.38457403  1
  Zn  Zn24  1  -0.00000000  -0.00000000  0.34618786  1
  Zn  Zn25  1  0.66666700  0.33333300  0.73076016  1
  S  S26  1  0.66666700  0.33333300  0.75964701  1
  S  S27  1  0.00000000  -0.00000000  0.02891919  1
  S  S28  1  0.00000000  -0.00000000  0.72108321  1
  S  S29  1  0.00000000  -0.00000000  0.79806341  1
  S  S30  1  0.33333300  0.66666700  0.33661264  1
  S  S31  1  0.66666700  0.33333300  0.22110093  1
  S  S32  1  0.33333300  0.66666700  0.83645190  1
  S  S33  1  0.33333300  0.66666700  0.06735023  1
  S  S34  1  0.33333300  0.66666700  0.91340208  1
  S  S35  1  0.33333300  0.66666700  0.45192975  1
  S  S36  1  0.66666700  0.33333300  0.10574990  1
  S  S37  1  0.66666700  0.33333300  0.87496815  1
  S  S38  1  0.66666700  0.33333300  0.29818808  1
  S  S39  1  0.00000000  -0.00000000  0.60578009  1
  S  S40  1  -0.00000000  -0.00000000  0.95184937  1
  S  S41  1  0.66666700  0.33333300  0.49041480  1
  S  S42  1  0.33333300  0.66666700  0.68261588  1
  S  S43  1  0.00000000  -0.00000000  0.37498434  1
  S  S44  1  0.33333300  0.66666700  0.18261951  1
  S  S45  1  0.66666700  0.33333300  0.99043195  1
  S  S46  1  0.00000000  -0.00000000  0.25970522  1
  S  S47  1  0.66666700  0.33333300  0.41337453  1
  S  S48  1  -0.00000000  -0.00000000  0.14417794  1
  S  S49  1  0.00000000  -0.00000000  0.52887342  1
  S  S50  1  0.33333300  0.66666700  0.56739457  1
  S  S51  1  0.66666700  0.33333300  0.64418121  1
