# generated using pymatgen
data_AgHg2AsO4
_symmetry_space_group_name_H-M   'P 1'
_cell_length_a   6.32699589
_cell_length_b   8.78694199
_cell_length_c   9.63926057
_cell_angle_alpha   90.00000000
_cell_angle_beta   90.00000000
_cell_angle_gamma   90.00000000
_symmetry_Int_Tables_number   1
_chemical_formula_structural   AgHg2AsO4
_chemical_formula_sum   'Ag4 Hg8 As4 O16'
_cell_volume   535.89416948
_cell_formula_units_Z   4
loop_
 _symmetry_equiv_pos_site_id
 _symmetry_equiv_pos_as_xyz
  1  'x, y, z'
loop_
 _atom_site_type_symbol
 _atom_site_label
 _atom_site_symmetry_multiplicity
 _atom_site_fract_x
 _atom_site_fract_y
 _atom_site_fract_z
 _atom_site_occupancy
  Ag  Ag0  1  0.50000000  0.03022092  0.85498490  1
  Ag  Ag1  1  0.50000000  0.46977908  0.35498490  1
  Ag  Ag2  1  0.50000000  0.53022092  0.64501510  1
  Ag  Ag3  1  0.50000000  0.96977908  0.14501510  1
  Hg  Hg4  1  0.29006345  0.74108482  0.46913879  1
  Hg  Hg5  1  0.70993655  0.25891518  0.53086121  1
  Hg  Hg6  1  0.29006345  0.24108482  0.03086121  1
  Hg  Hg7  1  0.29006345  0.25891518  0.53086121  1
  Hg  Hg8  1  0.70993655  0.24108482  0.03086121  1
  Hg  Hg9  1  0.70993655  0.75891518  0.96913879  1
  Hg  Hg10  1  0.29006345  0.75891518  0.96913879  1
  Hg  Hg11  1  0.70993655  0.74108482  0.46913879  1
  As  As12  1  -0.00000000  0.96354707  0.71278278  1
  As  As13  1  -0.00000000  0.46354707  0.78721722  1
  As  As14  1  -0.00000000  0.03645293  0.28721722  1
  As  As15  1  -0.00000000  0.53645293  0.21278378  1
  O  O16  1  -0.00000000  0.67325825  0.08560729  1
  O  O17  1  0.23018965  0.43829674  0.19697611  1
  O  O18  1  -0.00000000  0.88194777  0.87294113  1
  O  O19  1  -0.00000000  0.38194777  0.62705887  1
  O  O20  1  -0.00000000  0.32674175  0.91439271  1
  O  O21  1  0.23018965  0.56170326  0.80302389  1
  O  O22  1  -0.00000000  0.11805223  0.12705887  1
  O  O23  1  0.23018965  0.93829674  0.30302389  1
  O  O24  1  -0.00000000  0.61805223  0.37294113  1
  O  O25  1  0.23018965  0.06170326  0.69697611  1
  O  O26  1  0.76981035  0.06170326  0.69697611  1
  O  O27  1  -0.00000000  0.17325825  0.41439271  1
  O  O28  1  0.76981035  0.43829674  0.19697611  1
  O  O29  1  -0.00000000  0.82674175  0.58560729  1
  O  O30  1  0.76981035  0.56170326  0.80302389  1
  O  O31  1  0.76981035  0.93829674  0.30302389  1
