# generated using pymatgen
data_CsZnPO4
_symmetry_space_group_name_H-M   'P 1'
_cell_length_a   5.43247321
_cell_length_b   9.19042607
_cell_length_c   18.46018376
_cell_angle_alpha   90.34544383
_cell_angle_beta   90.00000000
_cell_angle_gamma   90.00000000
_symmetry_Int_Tables_number   1
_chemical_formula_structural   CsZnPO4
_chemical_formula_sum   'Cs8 Zn8 P8 O32'
_cell_volume   921.64010725
_cell_formula_units_Z   8
loop_
 _symmetry_equiv_pos_site_id
 _symmetry_equiv_pos_as_xyz
  1  'x, y, z'
loop_
 _atom_site_type_symbol
 _atom_site_label
 _atom_site_symmetry_multiplicity
 _atom_site_fract_x
 _atom_site_fract_y
 _atom_site_fract_z
 _atom_site_occupancy
  Cs  Cs0  1  0.24302306  0.20858344  0.00318918  1
  Cs  Cs1  1  0.25697694  0.20858344  0.50318918  1
  Cs  Cs2  1  0.28411989  0.31001500  0.74897118  1
  Cs  Cs3  1  0.78411989  0.68998500  0.75102882  1
  Cs  Cs4  1  0.71588011  0.68998500  0.25102882  1
  Cs  Cs5  1  0.74302306  0.79141656  0.49681082  1
  Cs  Cs6  1  0.21588011  0.31001500  0.24897118  1
  Cs  Cs7  1  0.75697694  0.79141656  0.99681082  1
  Zn  Zn8  1  0.78635850  0.08789254  0.66683822  1
  Zn  Zn9  1  0.21364150  0.91210746  0.33316178  1
  Zn  Zn10  1  0.71364150  0.08789254  0.16683822  1
  Zn  Zn11  1  0.25290796  0.58402372  0.08769090  1
  Zn  Zn12  1  0.75290796  0.41597628  0.41230910  1
  Zn  Zn13  1  0.74709204  0.41597628  0.91230910  1
  Zn  Zn14  1  0.28635850  0.91210746  0.83316178  1
  Zn  Zn15  1  0.24709204  0.58402372  0.58769090  1
  P  P16  1  0.25276660  0.58255674  0.40333445  1
  P  P17  1  0.71653506  0.09249786  0.34531133  1
  P  P18  1  0.21653506  0.90750214  0.15468867  1
  P  P19  1  0.24723340  0.58255674  0.90333445  1
  P  P20  1  0.78346494  0.09249786  0.84531133  1
  P  P21  1  0.74723340  0.41744326  0.59666555  1
  P  P22  1  0.75276660  0.41744326  0.09666555  1
  P  P23  1  0.28346494  0.90750214  0.65468867  1
  O  O24  1  0.26326756  0.85260169  0.73271146  1
  O  O25  1  0.18773717  0.78916962  0.60283834  1
  O  O26  1  0.75155167  0.44086238  0.51533731  1
  O  O27  1  0.74844833  0.44086238  0.01533731  1
  O  O28  1  0.81226283  0.21083038  0.39716166  1
  O  O29  1  0.81204815  0.25823631  0.11307622  1
  O  O30  1  0.23673244  0.85260169  0.23271146  1
  O  O31  1  0.45125677  0.48399240  0.36879202  1
  O  O32  1  0.31226283  0.78916962  0.10283834  1
  O  O33  1  0.99731102  0.45939499  0.63019046  1
  O  O34  1  0.04874323  0.48399240  0.86879202  1
  O  O35  1  0.55379904  0.94045006  0.63588606  1
  O  O36  1  0.12744491  0.04555308  0.64395312  1
  O  O37  1  0.68773717  0.21083038  0.89716166  1
  O  O38  1  0.76326756  0.14739831  0.76728854  1
  O  O39  1  0.44620096  0.05954994  0.36411394  1
  O  O40  1  0.00268898  0.54060501  0.36980954  1
  O  O41  1  0.54874323  0.51600760  0.63120798  1
  O  O42  1  0.95125677  0.51600760  0.13120798  1
  O  O43  1  0.25155167  0.55913762  0.98466269  1
  O  O44  1  0.73673244  0.14739831  0.26728854  1
  O  O45  1  0.37255509  0.04555308  0.14395312  1
  O  O46  1  0.18795185  0.74176369  0.88692378  1
  O  O47  1  0.62744491  0.95444692  0.85604688  1
  O  O48  1  0.24844833  0.55913762  0.48466269  1
  O  O49  1  0.05379904  0.05954994  0.86411394  1
  O  O50  1  0.31204815  0.74176369  0.38692378  1
  O  O51  1  0.49731102  0.54060501  0.86980954  1
  O  O52  1  0.68795185  0.25823631  0.61307622  1
  O  O53  1  0.87255509  0.95444692  0.35604688  1
  O  O54  1  0.50268898  0.45939499  0.13019046  1
  O  O55  1  0.94620096  0.94045006  0.13588606  1
