# generated using pymatgen
data_RbIn3S5
_symmetry_space_group_name_H-M   'P 1'
_cell_length_a   3.80838090
_cell_length_b   12.46901091
_cell_length_c   15.47096617
_cell_angle_alpha   67.21424420
_cell_angle_beta   90.00000000
_cell_angle_gamma   90.00000000
_symmetry_Int_Tables_number   1
_chemical_formula_structural   RbIn3S5
_chemical_formula_sum   'Rb3 In9 S15'
_cell_volume   677.33208089
_cell_formula_units_Z   3
loop_
 _symmetry_equiv_pos_site_id
 _symmetry_equiv_pos_as_xyz
  1  'x, y, z'
loop_
 _atom_site_type_symbol
 _atom_site_label
 _atom_site_symmetry_multiplicity
 _atom_site_fract_x
 _atom_site_fract_y
 _atom_site_fract_z
 _atom_site_occupancy
  Rb  Rb0  1  -0.00000000  0.50000000  -0.00000000  1
  Rb  Rb1  1  0.50000000  0.13714099  0.57392537  1
  Rb  Rb2  1  0.50000000  0.86285901  0.42607463  1
  In  In3  1  0.50000000  0.17520295  0.83453282  1
  In  In4  1  0.50000000  0.82479705  0.16546718  1
  In  In5  1  0.50000000  0.50000000  0.50000000  1
  In  In6  1  0.00000000  0.48226017  0.71333423  1
  In  In7  1  0.00000000  0.51773983  0.28666577  1
  In  In8  1  0.50000000  0.77792225  0.72802990  1
  In  In9  1  0.50000000  0.22207775  0.27197010  1
  In  In10  1  -0.00000000  0.88284085  0.93011938  1
  In  In11  1  0.00000000  0.11715915  0.06988062  1
  S  S12  1  0.00000000  0.26894762  0.89793067  1
  S  S13  1  -0.00000000  0.73105238  0.10206933  1
  S  S14  1  0.50000000  0.56026289  0.78752162  1
  S  S15  1  0.50000000  0.43973711  0.21247838  1
  S  S16  1  -0.00000000  0.06760838  0.78224076  1
  S  S17  1  -0.00000000  0.93239162  0.21775924  1
  S  S18  1  -0.00000000  0.61813508  0.54085000  1
  S  S19  1  -0.00000000  0.38186492  0.45915000  1
  S  S20  1  0.50000000  0.76893879  0.89242775  1
  S  S21  1  0.50000000  0.23106121  0.10757225  1
  S  S22  1  -0.00000000  0.87526946  0.62841186  1
  S  S23  1  0.00000000  0.12473054  0.37158814  1
  S  S24  1  0.50000000  0.35860397  0.67975680  1
  S  S25  1  0.50000000  0.64139603  0.32024320  1
  S  S26  1  0.50000000  0.00000000  -0.00000000  1
