# generated using pymatgen
data_Dy2Te4O11
_symmetry_space_group_name_H-M   'P 1'
_cell_length_a   6.68998975
_cell_length_b   6.68998975
_cell_length_c   16.07277118
_cell_angle_alpha   75.47388694
_cell_angle_beta   75.47388694
_cell_angle_gamma   44.93249133
_symmetry_Int_Tables_number   1
_chemical_formula_structural   Dy2Te4O11
_chemical_formula_sum   'Dy4 Te8 O22'
_cell_volume   488.98710442
_cell_formula_units_Z   2
loop_
 _symmetry_equiv_pos_site_id
 _symmetry_equiv_pos_as_xyz
  1  'x, y, z'
loop_
 _atom_site_type_symbol
 _atom_site_label
 _atom_site_symmetry_multiplicity
 _atom_site_fract_x
 _atom_site_fract_y
 _atom_site_fract_z
 _atom_site_occupancy
  Dy  Dy0  1  0.37004101  0.86744426  0.46353273  1
  Dy  Dy1  1  0.86744426  0.37004101  0.96353273  1
  Dy  Dy2  1  0.13255574  0.62995899  0.03646727  1
  Dy  Dy3  1  0.62995899  0.13255574  0.53646727  1
  Te  Te4  1  0.59867655  0.15765810  0.19912454  1
  Te  Te5  1  0.15765810  0.59867655  0.69912454  1
  Te  Te6  1  0.84234190  0.40132345  0.30087546  1
  Te  Te7  1  0.59072892  0.15354704  0.87348189  1
  Te  Te8  1  0.40132345  0.84234190  0.80087546  1
  Te  Te9  1  0.40927108  0.84645296  0.12651811  1
  Te  Te10  1  0.84645296  0.40927108  0.62651811  1
  Te  Te11  1  0.15354704  0.59072892  0.37348189  1
  O  O12  1  0.20349316  0.09094118  0.33269300  1
  O  O13  1  0.44213578  0.60605514  0.90397190  1
  O  O14  1  0.18881685  0.31676836  0.62706836  1
  O  O15  1  0.82008886  0.03903508  0.95495656  1
  O  O16  1  0.55786422  0.39394486  0.09602810  1
  O  O17  1  0.03903508  0.82008886  0.45495656  1
  O  O18  1  0.75180734  0.66395597  0.05346761  1
  O  O19  1  0.31676836  0.18881685  0.12706836  1
  O  O20  1  0.66395597  0.75180734  0.55346761  1
  O  O21  1  0.24819266  0.33604403  0.94653239  1
  O  O22  1  0.85021827  0.14978173  0.25000000  1
  O  O23  1  0.33604403  0.24819266  0.44653239  1
  O  O24  1  0.39394486  0.55786422  0.59602810  1
  O  O25  1  0.60605514  0.44213578  0.40397190  1
  O  O26  1  0.79650684  0.90905882  0.66730700  1
  O  O27  1  0.14978173  0.85021827  0.75000000  1
  O  O28  1  0.68323164  0.81118315  0.87293164  1
  O  O29  1  0.17991114  0.96096492  0.04504344  1
  O  O30  1  0.09094118  0.20349316  0.83269300  1
  O  O31  1  0.90905882  0.79650684  0.16730700  1
  O  O32  1  0.81118315  0.68323164  0.37293164  1
  O  O33  1  0.96096492  0.17991114  0.54504344  1
