# generated using pymatgen
data_Sr2GeO4
_symmetry_space_group_name_H-M   'P 1'
_cell_length_a   7.22580176
_cell_length_b   5.84894247
_cell_length_c   11.10985734
_cell_angle_alpha   63.02669980
_cell_angle_beta   90.00000000
_cell_angle_gamma   90.00000000
_symmetry_Int_Tables_number   1
_chemical_formula_structural   Sr2GeO4
_chemical_formula_sum   'Sr8 Ge4 O16'
_cell_volume   418.46179864
_cell_formula_units_Z   4
loop_
 _symmetry_equiv_pos_site_id
 _symmetry_equiv_pos_as_xyz
  1  'x, y, z'
loop_
 _atom_site_type_symbol
 _atom_site_label
 _atom_site_symmetry_multiplicity
 _atom_site_fract_x
 _atom_site_fract_y
 _atom_site_fract_z
 _atom_site_occupancy
  Sr  Sr0  1  0.34702826  0.29951578  0.42900693  1
  Sr  Sr1  1  0.84702826  0.70048422  0.07099307  1
  Sr  Sr2  1  0.65297174  0.70048422  0.57099307  1
  Sr  Sr3  1  0.15297174  0.29951578  0.92900693  1
  Sr  Sr4  1  0.99700065  0.01962034  0.69971488  1
  Sr  Sr5  1  0.49700065  0.98037966  0.80028512  1
  Sr  Sr6  1  0.00299935  0.98037966  0.30028512  1
  Sr  Sr7  1  0.50299935  0.01962034  0.19971488  1
  Ge  Ge8  1  0.78328418  0.34724238  0.41754734  1
  Ge  Ge9  1  0.28328418  0.65275762  0.08245266  1
  Ge  Ge10  1  0.21671582  0.65275762  0.58245266  1
  Ge  Ge11  1  0.71671582  0.34724238  0.91754734  1
  O  O12  1  0.01813310  0.27615217  0.43912178  1
  O  O13  1  0.51813310  0.72384783  0.06087822  1
  O  O14  1  0.98186690  0.72384783  0.56087822  1
  O  O15  1  0.48186690  0.27615217  0.93912178  1
  O  O16  1  0.66991825  0.26445367  0.57425451  1
  O  O17  1  0.16991825  0.73554633  0.92574549  1
  O  O18  1  0.33008175  0.73554633  0.42574549  1
  O  O19  1  0.83008175  0.26445367  0.07425451  1
  O  O20  1  0.67041281  0.14376635  0.36129632  1
  O  O21  1  0.17041281  0.85623365  0.13870368  1
  O  O22  1  0.32958719  0.85623365  0.63870368  1
  O  O23  1  0.82958719  0.14376635  0.86129632  1
  O  O24  1  0.74743167  0.67372121  0.30745917  1
  O  O25  1  0.24743167  0.32627879  0.19254083  1
  O  O26  1  0.25256833  0.32627879  0.69254083  1
  O  O27  1  0.75256833  0.67372121  0.80745917  1
