# generated using pymatgen
data_CdI2
_symmetry_space_group_name_H-M   'P 1'
_cell_length_a   4.28205776
_cell_length_b   4.28205813
_cell_length_c   57.25308378
_cell_angle_alpha   90.00000000
_cell_angle_beta   90.00000000
_cell_angle_gamma   120.00001321
_symmetry_Int_Tables_number   1
_chemical_formula_structural   CdI2
_chemical_formula_sum   'Cd8 I16'
_cell_volume   909.14789412
_cell_formula_units_Z   8
loop_
 _symmetry_equiv_pos_site_id
 _symmetry_equiv_pos_as_xyz
  1  'x, y, z'
loop_
 _atom_site_type_symbol
 _atom_site_label
 _atom_site_symmetry_multiplicity
 _atom_site_fract_x
 _atom_site_fract_y
 _atom_site_fract_z
 _atom_site_occupancy
  Cd  Cd0  1  0.66666700  0.33333300  0.90622932  1
  Cd  Cd1  1  0.66666700  0.33333300  0.78113885  1
  Cd  Cd2  1  0.66666700  0.33333300  0.53123939  1
  Cd  Cd3  1  0.66666700  0.33333300  0.15633493  1
  Cd  Cd4  1  0.33333300  0.66666700  0.03123939  1
  Cd  Cd5  1  0.33333300  0.66666700  0.40622932  1
  Cd  Cd6  1  0.33333300  0.66666700  0.65633493  1
  Cd  Cd7  1  0.33333300  0.66666700  0.28113885  1
  I  I8  1  0.33333300  0.66666700  0.75103722  1
  I  I9  1  0.33333300  0.66666700  0.50115433  1
  I  I10  1  -0.00000000  0.00000000  0.43634248  1
  I  I11  1  0.33333300  0.66666700  0.12616869  1
  I  I12  1  0.00000000  -0.00000000  0.18656420  1
  I  I13  1  -0.00000000  -0.00000000  0.31129536  1
  I  I14  1  -0.00000000  -0.00000000  0.93634248  1
  I  I15  1  0.66666700  0.33333300  0.62616869  1
  I  I16  1  0.66666700  0.33333300  0.00115433  1
  I  I17  1  -0.00000000  0.00000000  0.06134363  1
  I  I18  1  0.33333300  0.66666700  0.87615458  1
  I  I19  1  0.00000000  -0.00000000  0.81129536  1
  I  I20  1  0.66666700  0.33333300  0.37615458  1
  I  I21  1  0.66666700  0.33333300  0.25103722  1
  I  I22  1  0.00000000  -0.00000000  0.56134363  1
  I  I23  1  0.00000000  0.00000000  0.68656420  1
