# generated using pymatgen
data_CdI2
_symmetry_space_group_name_H-M   'P 1'
_cell_length_a   4.28341915
_cell_length_b   4.28341892
_cell_length_c   50.23668203
_cell_angle_alpha   90.00000000
_cell_angle_beta   90.00000000
_cell_angle_gamma   119.99999369
_symmetry_Int_Tables_number   1
_chemical_formula_structural   CdI2
_chemical_formula_sum   'Cd7 I14'
_cell_volume   798.23861262
_cell_formula_units_Z   7
loop_
 _symmetry_equiv_pos_site_id
 _symmetry_equiv_pos_as_xyz
  1  'x, y, z'
loop_
 _atom_site_type_symbol
 _atom_site_label
 _atom_site_symmetry_multiplicity
 _atom_site_fract_x
 _atom_site_fract_y
 _atom_site_fract_z
 _atom_site_occupancy
  Cd  Cd0  1  -0.00000000  -0.00000000  0.17909878  1
  Cd  Cd1  1  0.00000000  0.00000000  0.60718474  1
  Cd  Cd2  1  0.00000000  0.00000000  0.74999143  1
  Cd  Cd3  1  -0.00000000  -0.00000000  0.89234819  1
  Cd  Cd4  1  0.66666700  0.33333300  0.32142469  1
  Cd  Cd5  1  0.00000000  0.00000000  0.46428105  1
  Cd  Cd6  1  0.66666700  0.33333300  0.03570883  1
  I  I7  1  0.66666700  0.33333300  0.42995741  1
  I  I8  1  0.66666700  0.33333300  0.57282201  1
  I  I9  1  0.66666700  0.33333300  0.14484967  1
  I  I10  1  0.33333300  0.66666700  0.07004200  1
  I  I11  1  0.33333300  0.66666700  0.21329110  1
  I  I12  1  0.33333300  0.66666700  0.35575602  1
  I  I13  1  0.33333300  0.66666700  0.64147168  1
  I  I14  1  -0.00000000  -0.00000000  0.00138484  1
  I  I15  1  0.33333300  0.66666700  0.78433013  1
  I  I16  1  0.33333300  0.66666700  0.92652994  1
  I  I17  1  0.66666700  0.33333300  0.85813978  1
  I  I18  1  0.33333300  0.66666700  0.49861304  1
  I  I19  1  0.66666700  0.33333300  0.71567234  1
  I  I20  1  -0.00000000  -0.00000000  0.28710133  1
