# generated using pymatgen
data_Cs3MnCl5
_symmetry_space_group_name_H-M   'P 1'
_cell_length_a   9.27154694
_cell_length_b   9.27154755
_cell_length_c   9.87591288
_cell_angle_alpha   117.99548646
_cell_angle_beta   117.99548458
_cell_angle_gamma   90.00000537
_symmetry_Int_Tables_number   1
_chemical_formula_structural   Cs3MnCl5
_chemical_formula_sum   'Cs6 Mn2 Cl10'
_cell_volume   634.91153070
_cell_formula_units_Z   2
loop_
 _symmetry_equiv_pos_site_id
 _symmetry_equiv_pos_as_xyz
  1  'x, y, z'
loop_
 _atom_site_type_symbol
 _atom_site_label
 _atom_site_symmetry_multiplicity
 _atom_site_fract_x
 _atom_site_fract_y
 _atom_site_fract_z
 _atom_site_occupancy
  Cs  Cs0  1  0.25000000  0.25000000  0.50000000  1
  Cs  Cs1  1  0.75000000  0.75000000  0.50000000  1
  Cs  Cs2  1  0.16224499  0.66224499  0.00000000  1
  Cs  Cs3  1  0.33775501  0.16224499  0.00000000  1
  Cs  Cs4  1  0.66224499  0.83775501  -0.00000000  1
  Cs  Cs5  1  0.83775501  0.33775501  -0.00000000  1
  Mn  Mn6  1  0.25000000  0.75000000  0.50000000  1
  Mn  Mn7  1  0.75000000  0.25000000  0.50000000  1
  Cl  Cl8  1  -0.00000000  -0.00000000  -0.00000000  1
  Cl  Cl9  1  0.50000000  0.50000000  -0.00000000  1
  Cl  Cl10  1  0.79879351  0.29879351  0.31063314  1
  Cl  Cl11  1  0.01183963  0.79879351  0.31063314  1
  Cl  Cl12  1  0.29879351  0.51183963  0.31063314  1
  Cl  Cl13  1  0.98816037  0.20120649  0.68936686  1
  Cl  Cl14  1  0.70120649  0.48816037  0.68936686  1
  Cl  Cl15  1  0.48816037  0.98816037  0.68936686  1
  Cl  Cl16  1  0.20120649  0.70120649  0.68936686  1
  Cl  Cl17  1  0.51183963  0.01183963  0.31063314  1
