# generated using pymatgen
data_CdI2
_symmetry_space_group_name_H-M   'P 1'
_cell_length_a   4.28384937
_cell_length_b   4.28384971
_cell_length_c   71.33146418
_cell_angle_alpha   90.00000000
_cell_angle_beta   90.00000000
_cell_angle_gamma   119.99999745
_symmetry_Int_Tables_number   1
_chemical_formula_structural   CdI2
_chemical_formula_sum   'Cd10 I20'
_cell_volume   1133.65315025
_cell_formula_units_Z   10
loop_
 _symmetry_equiv_pos_site_id
 _symmetry_equiv_pos_as_xyz
  1  'x, y, z'
loop_
 _atom_site_type_symbol
 _atom_site_label
 _atom_site_symmetry_multiplicity
 _atom_site_fract_x
 _atom_site_fract_y
 _atom_site_fract_z
 _atom_site_occupancy
  Cd  Cd0  1  0.00000000  -0.00000000  0.92511130  1
  Cd  Cd1  1  0.00000000  0.00000000  0.72493378  1
  Cd  Cd2  1  0.00000000  0.00000000  0.42492262  1
  Cd  Cd3  1  0.66666700  0.33333300  0.02492268  1
  Cd  Cd4  1  0.00000000  0.00000000  0.22464803  1
  Cd  Cd5  1  -0.00000000  -0.00000000  0.32539265  1
  Cd  Cd6  1  0.00000000  -0.00000000  0.52493289  1
  Cd  Cd7  1  -0.00000000  -0.00000000  0.12458180  1
  Cd  Cd8  1  0.00000000  0.00000000  0.82492795  1
  Cd  Cd9  1  0.00000000  -0.00000000  0.62570974  1
  I  I10  1  0.33333300  0.66666700  0.44911498  1
  I  I11  1  0.33333300  0.66666700  0.34960684  1
  I  I12  1  0.66666700  0.33333300  0.10048753  1
  I  I13  1  0.66666700  0.33333300  0.90098268  1
  I  I14  1  0.33333300  0.66666700  0.94917731  1
  I  I15  1  0.66666700  0.33333300  0.70070903  1
  I  I16  1  0.66666700  0.33333300  0.80070781  1
  I  I17  1  0.33333300  0.66666700  0.04910936  1
  I  I18  1  0.66666700  0.33333300  0.60161309  1
  I  I19  1  0.00000000  0.00000000  0.00070914  1
  I  I20  1  0.33333300  0.66666700  0.54911420  1
  I  I21  1  0.66666700  0.33333300  0.30118627  1
  I  I22  1  0.33333300  0.66666700  0.14864996  1
  I  I23  1  0.66666700  0.33333300  0.40070994  1
  I  I24  1  0.33333300  0.66666700  0.24872740  1
  I  I25  1  0.66666700  0.33333300  0.50070546  1
  I  I26  1  0.33333300  0.66666700  0.84911347  1
  I  I27  1  0.33333300  0.66666700  0.64981673  1
  I  I28  1  0.66666700  0.33333300  0.20056454  1
  I  I29  1  0.33333300  0.66666700  0.74911283  1
