# generated using pymatgen
data_K3SnTe3
_symmetry_space_group_name_H-M   'P 1'
_cell_length_a   13.76239399
_cell_length_b   9.66050730
_cell_length_c   9.65844137
_cell_angle_alpha   63.31865141
_cell_angle_beta   90.00000000
_cell_angle_gamma   90.00000000
_symmetry_Int_Tables_number   1
_chemical_formula_structural   K3SnTe3
_chemical_formula_sum   'K12 Sn4 Te12'
_cell_volume   1147.37156364
_cell_formula_units_Z   4
loop_
 _symmetry_equiv_pos_site_id
 _symmetry_equiv_pos_as_xyz
  1  'x, y, z'
loop_
 _atom_site_type_symbol
 _atom_site_label
 _atom_site_symmetry_multiplicity
 _atom_site_fract_x
 _atom_site_fract_y
 _atom_site_fract_z
 _atom_site_occupancy
  K  K0  1  0.71875212  0.05483811  0.79521616  1
  K  K1  1  0.21875212  0.94516189  0.70478384  1
  K  K2  1  0.28124788  0.94516189  0.20478384  1
  K  K3  1  0.78124788  0.05483811  0.29521616  1
  K  K4  1  0.06552687  0.27636370  0.20375876  1
  K  K5  1  0.56552687  0.72363630  0.29624124  1
  K  K6  1  0.93447313  0.72363630  0.79624124  1
  K  K7  1  0.43447313  0.27636370  0.70375876  1
  K  K8  1  0.65654597  0.50073040  0.01145435  1
  K  K9  1  0.15654597  0.49926960  0.48854565  1
  K  K10  1  0.34345403  0.49926960  0.98854565  1
  K  K11  1  0.84345403  0.50073040  0.51145435  1
  Sn  Sn12  1  0.99162435  0.84698698  0.12362622  1
  Sn  Sn13  1  0.49162435  0.15301302  0.37637378  1
  Sn  Sn14  1  0.00837565  0.15301302  0.87637378  1
  Sn  Sn15  1  0.50837565  0.84698698  0.62362622  1
  Te  Te16  1  0.02504098  0.85594177  0.40059895  1
  Te  Te17  1  0.52504098  0.14405823  0.09940105  1
  Te  Te18  1  0.97495902  0.14405823  0.59940105  1
  Te  Te19  1  0.47495902  0.85594177  0.90059895  1
  Te  Te20  1  0.80672967  0.74058120  0.11964542  1
  Te  Te21  1  0.30672967  0.25941880  0.38035458  1
  Te  Te22  1  0.19327033  0.25941880  0.88035458  1
  Te  Te23  1  0.69327033  0.74058120  0.61964542  1
  Te  Te24  1  0.13293701  0.67070689  0.07514019  1
  Te  Te25  1  0.63293701  0.32929311  0.42485981  1
  Te  Te26  1  0.86706299  0.32929311  0.92485981  1
  Te  Te27  1  0.36706299  0.67070689  0.57514019  1
