# generated using pymatgen
data_TeAs(BrF2)3
_symmetry_space_group_name_H-M   'P 1'
_cell_length_a   10.13496867
_cell_length_b   7.84057893
_cell_length_c   12.37455099
_cell_angle_alpha   79.43710867
_cell_angle_beta   90.00000000
_cell_angle_gamma   90.00000000
_symmetry_Int_Tables_number   1
_chemical_formula_structural   TeAs(BrF2)3
_chemical_formula_sum   'Te4 As4 Br12 F24'
_cell_volume   966.66833025
_cell_formula_units_Z   4
loop_
 _symmetry_equiv_pos_site_id
 _symmetry_equiv_pos_as_xyz
  1  'x, y, z'
loop_
 _atom_site_type_symbol
 _atom_site_label
 _atom_site_symmetry_multiplicity
 _atom_site_fract_x
 _atom_site_fract_y
 _atom_site_fract_z
 _atom_site_occupancy
  Te  Te0  1  0.66701906  0.82145177  0.68791603  1
  Te  Te1  1  0.16701906  0.17854823  0.81208397  1
  Te  Te2  1  0.83298094  0.82145177  0.18791603  1
  Te  Te3  1  0.33298094  0.17854823  0.31208397  1
  As  As4  1  0.76648037  0.16888562  0.91878710  1
  As  As5  1  0.23351963  0.83111438  0.08121290  1
  As  As6  1  0.73351963  0.16888562  0.41878710  1
  As  As7  1  0.26648037  0.83111438  0.58121290  1
  Br  Br8  1  0.10368981  0.23071743  0.25100669  1
  Br  Br9  1  0.54941365  0.69644353  0.85708277  1
  Br  Br10  1  0.95058635  0.69644353  0.35708277  1
  Br  Br11  1  0.85119440  0.57095454  0.09447785  1
  Br  Br12  1  0.64880560  0.57095454  0.59447785  1
  Br  Br13  1  0.45058635  0.30355647  0.14291723  1
  Br  Br14  1  0.14880560  0.42904546  0.90552215  1
  Br  Br15  1  0.35119440  0.42904546  0.40552215  1
  Br  Br16  1  0.04941365  0.30355647  0.64291723  1
  Br  Br17  1  0.60368981  0.76928257  0.24899331  1
  Br  Br18  1  0.39631019  0.23071743  0.75100669  1
  Br  Br19  1  0.89631019  0.76928257  0.74899331  1
  F  F20  1  0.17171876  0.78814823  0.95735525  1
  F  F21  1  0.11176683  0.75862350  0.55303663  1
  F  F22  1  0.57612962  0.08898010  0.39138945  1
  F  F23  1  0.22630257  0.04240057  0.51244988  1
  F  F24  1  0.42387038  0.91101990  0.60861055  1
  F  F25  1  0.77369743  0.95759943  0.48755012  1
  F  F26  1  0.18896529  0.62762236  0.15007670  1
  F  F27  1  0.32828124  0.78814823  0.45735525  1
  F  F28  1  0.88823317  0.24137650  0.44696337  1
  F  F29  1  0.68896529  0.37237764  0.34992330  1
  F  F30  1  0.67171876  0.21185177  0.54264475  1
  F  F31  1  0.20823112  0.88766128  0.70364541  1
  F  F32  1  0.72630257  0.95759943  0.98755012  1
  F  F33  1  0.79176888  0.11233872  0.29635459  1
  F  F34  1  0.29176888  0.88766128  0.20364541  1
  F  F35  1  0.31103471  0.62762236  0.65007670  1
  F  F36  1  0.92387038  0.08898010  0.89138945  1
  F  F37  1  0.70823112  0.11233872  0.79635459  1
  F  F38  1  0.82828124  0.21185177  0.04264475  1
  F  F39  1  0.38823317  0.75862350  0.05303663  1
  F  F40  1  0.61176683  0.24137650  0.94696337  1
  F  F41  1  0.07612962  0.91101990  0.10861055  1
  F  F42  1  0.27369743  0.04240057  0.01244988  1
  F  F43  1  0.81103471  0.37237764  0.84992330  1
