# generated using pymatgen
data_Y2GeO5
_symmetry_space_group_name_H-M   'P 1'
_cell_length_a   8.19088199
_cell_length_b   8.19088199
_cell_length_c   10.46832214
_cell_angle_alpha   61.33392550
_cell_angle_beta   61.33392550
_cell_angle_gamma   49.37171776
_symmetry_Int_Tables_number   1
_chemical_formula_structural   Y2GeO5
_chemical_formula_sum   'Y8 Ge4 O20'
_cell_volume   452.68821926
_cell_formula_units_Z   4
loop_
 _symmetry_equiv_pos_site_id
 _symmetry_equiv_pos_as_xyz
  1  'x, y, z'
loop_
 _atom_site_type_symbol
 _atom_site_label
 _atom_site_symmetry_multiplicity
 _atom_site_fract_x
 _atom_site_fract_y
 _atom_site_fract_z
 _atom_site_occupancy
  Y  Y0  1  0.98958190  0.73510479  0.83750738  1
  Y  Y1  1  0.27753667  0.79305382  0.03470555  1
  Y  Y2  1  0.73510479  0.98958190  0.33750738  1
  Y  Y3  1  0.01041810  0.26489521  0.16249262  1
  Y  Y4  1  0.26489521  0.01041810  0.66249262  1
  Y  Y5  1  0.79305382  0.27753667  0.53470555  1
  Y  Y6  1  0.72246333  0.20694618  0.96529445  1
  Y  Y7  1  0.20694618  0.72246333  0.46529445  1
  Ge  Ge8  1  0.22028772  0.40978904  0.30802950  1
  Ge  Ge9  1  0.40978904  0.22028772  0.80802950  1
  Ge  Ge10  1  0.59021096  0.77971228  0.19197050  1
  Ge  Ge11  1  0.77971228  0.59021096  0.69197050  1
  O  O12  1  0.11388473  0.91941555  0.60295282  1
  O  O13  1  0.91401654  0.31985332  0.67605496  1
  O  O14  1  0.68014668  0.08598346  0.82394504  1
  O  O15  1  0.57843962  0.59035539  0.36699426  1
  O  O16  1  0.08598346  0.68014668  0.32394504  1
  O  O17  1  0.08058445  0.88611527  0.89704718  1
  O  O18  1  0.31985332  0.91401654  0.17605496  1
  O  O19  1  0.91941555  0.11388473  0.10295282  1
  O  O20  1  0.22046412  0.37030485  0.94521833  1
  O  O21  1  0.04101836  0.35131549  0.32388024  1
  O  O22  1  0.40964461  0.42156038  0.13300574  1
  O  O23  1  0.62969515  0.77953588  0.55478167  1
  O  O24  1  0.59035539  0.57843962  0.86699426  1
  O  O25  1  0.37030485  0.22046412  0.44521833  1
  O  O26  1  0.95898164  0.64868451  0.67611976  1
  O  O27  1  0.88611527  0.08058445  0.39704718  1
  O  O28  1  0.77953588  0.62969515  0.05478167  1
  O  O29  1  0.64868451  0.95898164  0.17611976  1
  O  O30  1  0.42156038  0.40964461  0.63300574  1
  O  O31  1  0.35131549  0.04101836  0.82388024  1
