# generated using pymatgen
data_K2SnCl6
_symmetry_space_group_name_H-M   'P 1'
_cell_length_a   7.17931570
_cell_length_b   7.10260185
_cell_length_c   10.02880474
_cell_angle_alpha   90.32323798
_cell_angle_beta   90.00000000
_cell_angle_gamma   90.00000000
_symmetry_Int_Tables_number   1
_chemical_formula_structural   K2SnCl6
_chemical_formula_sum   'K4 Sn2 Cl12'
_cell_volume   511.37887752
_cell_formula_units_Z   2
loop_
 _symmetry_equiv_pos_site_id
 _symmetry_equiv_pos_as_xyz
  1  'x, y, z'
loop_
 _atom_site_type_symbol
 _atom_site_label
 _atom_site_symmetry_multiplicity
 _atom_site_fract_x
 _atom_site_fract_y
 _atom_site_fract_z
 _atom_site_occupancy
  K  K0  1  0.45215249  0.01068344  0.74917230  1
  K  K1  1  0.54784751  0.98931656  0.25082770  1
  K  K2  1  0.04784751  0.51068344  0.24917230  1
  K  K3  1  0.95215249  0.48931656  0.75082770  1
  Sn  Sn4  1  0.50000000  0.50000000  0.50000000  1
  Sn  Sn5  1  0.00000000  -0.00000000  0.00000000  1
  Cl  Cl6  1  0.72325617  0.19896353  0.97374686  1
  Cl  Cl7  1  0.20005658  0.27622636  0.96867172  1
  Cl  Cl8  1  0.77674383  0.69896353  0.47374686  1
  Cl  Cl9  1  0.22325617  0.30103647  0.52625314  1
  Cl  Cl10  1  0.29994342  0.77622636  0.46867172  1
  Cl  Cl11  1  0.70005658  0.22377364  0.53132828  1
  Cl  Cl12  1  0.00357543  0.94258191  0.75945741  1
  Cl  Cl13  1  0.79994342  0.72377364  0.03132828  1
  Cl  Cl14  1  0.99642457  0.05741809  0.24054259  1
  Cl  Cl15  1  0.27674383  0.80103647  0.02625314  1
  Cl  Cl16  1  0.50357543  0.55741809  0.74054259  1
  Cl  Cl17  1  0.49642457  0.44258191  0.25945741  1
