# generated using pymatgen
data_RbMnF4
_symmetry_space_group_name_H-M   'P 1'
_cell_length_a   7.75649297
_cell_length_b   6.01570106
_cell_length_c   7.80221843
_cell_angle_alpha   89.18138277
_cell_angle_beta   90.00000000
_cell_angle_gamma   90.00000000
_symmetry_Int_Tables_number   1
_chemical_formula_structural   RbMnF4
_chemical_formula_sum   'Rb4 Mn4 F16'
_cell_volume   364.02015103
_cell_formula_units_Z   4
loop_
 _symmetry_equiv_pos_site_id
 _symmetry_equiv_pos_as_xyz
  1  'x, y, z'
loop_
 _atom_site_type_symbol
 _atom_site_label
 _atom_site_symmetry_multiplicity
 _atom_site_fract_x
 _atom_site_fract_y
 _atom_site_fract_z
 _atom_site_occupancy
  Rb  Rb0  1  0.29421569  0.48204275  0.25337919  1
  Rb  Rb1  1  0.79421569  0.51795725  0.24662081  1
  Rb  Rb2  1  0.70578431  0.51795725  0.74662081  1
  Rb  Rb3  1  0.20578431  0.48204275  0.75337919  1
  Mn  Mn4  1  -0.00000000  0.00000000  0.00000000  1
  Mn  Mn5  1  -0.00000000  0.00000000  0.50000000  1
  Mn  Mn6  1  0.50000000  0.00000000  0.00000000  1
  Mn  Mn7  1  0.50000000  0.00000000  0.50000000  1
  F  F8  1  0.93498088  0.28643888  0.95381362  1
  F  F9  1  0.94681184  0.28716045  0.55114558  1
  F  F10  1  0.44681184  0.71283955  0.94885442  1
  F  F11  1  0.05318816  0.71283955  0.44885442  1
  F  F12  1  0.23276997  0.09612670  0.99849438  1
  F  F13  1  0.73276997  0.90387330  0.50150562  1
  F  F14  1  0.76723003  0.90387330  0.00150562  1
  F  F15  1  0.26723003  0.09612670  0.49849438  1
  F  F16  1  0.01419482  0.92215973  0.73499977  1
  F  F17  1  0.51419482  0.07784027  0.76500023  1
  F  F18  1  0.98580518  0.07784027  0.26500023  1
  F  F19  1  0.48580518  0.92215973  0.23499977  1
  F  F20  1  0.56501912  0.28643888  0.45381362  1
  F  F21  1  0.43498088  0.71356112  0.54618638  1
  F  F22  1  0.06501912  0.71356112  0.04618638  1
  F  F23  1  0.55318816  0.28716045  0.05114558  1
