# generated using pymatgen
data_SrIn2O4
_symmetry_space_group_name_H-M   'P 1'
_cell_length_a   3.28188125
_cell_length_b   9.86409070
_cell_length_c   11.55215373
_cell_angle_alpha   90.00000000
_cell_angle_beta   90.00000000
_cell_angle_gamma   90.00000000
_symmetry_Int_Tables_number   1
_chemical_formula_structural   SrIn2O4
_chemical_formula_sum   'Sr4 In8 O16'
_cell_volume   373.97526557
_cell_formula_units_Z   4
loop_
 _symmetry_equiv_pos_site_id
 _symmetry_equiv_pos_as_xyz
  1  'x, y, z'
loop_
 _atom_site_type_symbol
 _atom_site_label
 _atom_site_symmetry_multiplicity
 _atom_site_fract_x
 _atom_site_fract_y
 _atom_site_fract_z
 _atom_site_occupancy
  Sr  Sr0  1  0.75000000  0.25586841  0.84733488  1
  Sr  Sr1  1  0.25000000  0.74413159  0.15266512  1
  Sr  Sr2  1  0.75000000  0.75586841  0.65266512  1
  Sr  Sr3  1  0.25000000  0.24413159  0.34733488  1
  In  In4  1  0.75000000  0.91865363  0.39388112  1
  In  In5  1  0.25000000  0.08134637  0.60611888  1
  In  In6  1  0.75000000  0.41865363  0.10611888  1
  In  In7  1  0.25000000  0.58134637  0.89388112  1
  In  In8  1  0.75000000  0.93061038  0.88871565  1
  In  In9  1  0.25000000  0.06938962  0.11128435  1
  In  In10  1  0.75000000  0.43061038  0.61128435  1
  In  In11  1  0.25000000  0.56938962  0.38871565  1
  O  O12  1  0.75000000  0.70664403  0.33338871  1
  O  O13  1  0.25000000  0.29335597  0.66661129  1
  O  O14  1  0.75000000  0.20664403  0.16661129  1
  O  O15  1  0.25000000  0.79335597  0.83338871  1
  O  O16  1  0.75000000  0.62099433  0.02107154  1
  O  O17  1  0.25000000  0.37900567  0.97892846  1
  O  O18  1  0.75000000  0.12099433  0.47892846  1
  O  O19  1  0.25000000  0.87900567  0.52107154  1
  O  O20  1  0.75000000  0.02280684  0.71728040  1
  O  O21  1  0.25000000  0.97719316  0.28271960  1
  O  O22  1  0.75000000  0.52280684  0.78271960  1
  O  O23  1  0.25000000  0.47719316  0.21728040  1
  O  O24  1  0.75000000  0.91925715  0.07450573  1
  O  O25  1  0.25000000  0.08074285  0.92549427  1
  O  O26  1  0.75000000  0.41925715  0.42549427  1
  O  O27  1  0.25000000  0.58074285  0.57450573  1
