# generated using pymatgen
data_Co3(PO4)2
_symmetry_space_group_name_H-M   'P 1'
_cell_length_a   4.73395005
_cell_length_b   5.90277178
_cell_length_c   10.23691153
_cell_angle_alpha   91.46917964
_cell_angle_beta   90.00042403
_cell_angle_gamma   90.00076939
_symmetry_Int_Tables_number   1
_chemical_formula_structural   Co3(PO4)2
_chemical_formula_sum   'Co6 P4 O16'
_cell_volume   285.96035034
_cell_formula_units_Z   2
loop_
 _symmetry_equiv_pos_site_id
 _symmetry_equiv_pos_as_xyz
  1  'x, y, z'
loop_
 _atom_site_type_symbol
 _atom_site_label
 _atom_site_symmetry_multiplicity
 _atom_site_fract_x
 _atom_site_fract_y
 _atom_site_fract_z
 _atom_site_occupancy
  Co  Co0  1  0.49985710  0.50041107  0.50008701  1
  Co  Co1  1  0.01673174  0.76420789  0.72575089  1
  Co  Co2  1  0.48330589  0.76387977  0.22577398  1
  Co  Co3  1  -0.00015902  0.49958770  0.99991625  1
  Co  Co4  1  0.51674254  0.23579844  0.77425532  1
  Co  Co5  1  0.98330888  0.23610881  0.27422458  1
  P  P6  1  0.07147786  0.25700621  0.59647252  1
  P  P7  1  0.42856669  0.25668356  0.09651927  1
  P  P8  1  0.57146599  0.74301148  0.90352987  1
  P  P9  1  0.92857344  0.74331145  0.40347307  1
  O  O10  1  0.72226297  0.52897235  0.83990490  1
  O  O11  1  0.22227371  0.47104859  0.66008576  1
  O  O12  1  0.27762573  0.47068634  0.16007963  1
  O  O13  1  0.77763594  0.52928385  0.33992134  1
  O  O14  1  0.18646623  0.24953020  0.45644641  1
  O  O15  1  0.68646012  0.75045302  0.04356045  1
  O  O16  1  0.31361150  0.24916868  0.95643191  1
  O  O17  1  0.81363779  0.75084744  0.54356382  1
  O  O18  1  0.25055182  0.72638648  0.39817326  1
  O  O19  1  0.74950802  0.27387267  0.60181267  1
  O  O20  1  0.24950060  0.72614211  0.89819026  1
  O  O21  1  0.75052847  0.27360392  0.10182190  1
  O  O22  1  0.68374246  0.93612148  0.82010731  1
  O  O23  1  0.81630244  0.93642168  0.32003066  1
  O  O24  1  0.31628568  0.06355690  0.17995653  1
  O  O25  1  0.18373840  0.06389491  0.67991043  1
