# generated using pymatgen
data_V(SeO3)2
_symmetry_space_group_name_H-M   'P 1'
_cell_length_a   11.26106079
_cell_length_b   11.26105578
_cell_length_c   7.76658442
_cell_angle_alpha   90.00000000
_cell_angle_beta   90.00000000
_cell_angle_gamma   90.00000000
_symmetry_Int_Tables_number   1
_chemical_formula_structural   V(SeO3)2
_chemical_formula_sum   'V8 Se16 O48'
_cell_volume   984.89170524
_cell_formula_units_Z   8
loop_
 _symmetry_equiv_pos_site_id
 _symmetry_equiv_pos_as_xyz
  1  'x, y, z'
loop_
 _atom_site_type_symbol
 _atom_site_label
 _atom_site_symmetry_multiplicity
 _atom_site_fract_x
 _atom_site_fract_y
 _atom_site_fract_z
 _atom_site_occupancy
  V  V0  1  -0.00000000  0.50000000  0.10311041  1
  V  V1  1  0.50000000  0.50000000  0.42474621  1
  V  V2  1  -0.00000000  0.00000000  0.67017919  1
  V  V3  1  0.50000000  0.50000000  0.92474621  1
  V  V4  1  -0.00000000  0.00000000  0.17017919  1
  V  V5  1  0.50000000  0.00000000  0.60311512  1
  V  V6  1  -0.00000000  0.50000000  0.60311041  1
  V  V7  1  0.50000000  0.00000000  0.10311512  1
  Se  Se8  1  0.63163649  0.71698324  0.60544884  1
  Se  Se9  1  0.10243264  0.24072743  0.49925609  1
  Se  Se10  1  0.89756736  0.75927257  0.49925609  1
  Se  Se11  1  0.75926813  0.10242425  0.49924113  1
  Se  Se12  1  0.89756736  0.24072743  0.99925609  1
  Se  Se13  1  0.71697491  0.36835909  0.60542918  1
  Se  Se14  1  0.28302509  0.63164091  0.60542918  1
  Se  Se15  1  0.75926813  0.89757575  0.99924113  1
  Se  Se16  1  0.28302509  0.36835909  0.10542918  1
  Se  Se17  1  0.71697491  0.63164091  0.10542918  1
  Se  Se18  1  0.63163649  0.28301676  0.10544884  1
  Se  Se19  1  0.36836351  0.71698324  0.10544884  1
  Se  Se20  1  0.24073187  0.10242425  0.99924113  1
  Se  Se21  1  0.10243264  0.75927257  0.99925609  1
  Se  Se22  1  0.36836351  0.28301676  0.60544884  1
  Se  Se23  1  0.24073187  0.89757575  0.49924113  1
  O  O24  1  0.25559955  0.25491913  0.43757882  1
  O  O25  1  0.50000000  0.50000000  0.21132245  1
  O  O26  1  0.67280278  0.47608672  0.46482936  1
  O  O27  1  -0.00000000  0.00000000  0.38291333  1
  O  O28  1  0.12085804  0.87608333  0.62986933  1
  O  O29  1  -0.00000000  0.50000000  0.39319777  1
  O  O30  1  0.32719722  0.47608672  0.96482936  1
  O  O31  1  0.59533034  0.85557352  0.65384722  1
  O  O32  1  0.35098942  0.90694527  0.64466139  1
  O  O33  1  0.67280278  0.52391328  0.96482936  1
  O  O34  1  0.25492587  0.25559046  0.93756524  1
  O  O35  1  0.90694421  0.35099177  0.14466827  1
  O  O36  1  0.74507413  0.74440954  0.93756524  1
  O  O37  1  0.47608939  0.32719306  0.46484665  1
  O  O38  1  0.50000000  0.00000000  0.89320086  1
  O  O39  1  0.35098942  0.09305473  0.14466139  1
  O  O40  1  0.09305579  0.35099177  0.64466827  1
  O  O41  1  0.87914196  0.12391667  0.62986933  1
  O  O42  1  0.85556039  0.40467831  0.65384000  1
  O  O43  1  0.12392453  0.12085363  0.62987280  1
  O  O44  1  0.40466966  0.85557352  0.15384722  1
  O  O45  1  0.87607547  0.12085363  0.12987280  1
  O  O46  1  0.52391061  0.67280694  0.46484665  1
  O  O47  1  0.87914196  0.87608333  0.12986933  1
  O  O48  1  0.74440045  0.74508087  0.43757882  1
  O  O49  1  0.50000000  0.50000000  0.71132245  1
  O  O50  1  0.74507413  0.25559046  0.43756524  1
  O  O51  1  0.90694421  0.64900823  0.64466827  1
  O  O52  1  0.87607547  0.87914637  0.62987280  1
  O  O53  1  0.74440045  0.25491913  0.93757882  1
  O  O54  1  0.59533034  0.14442648  0.15384722  1
  O  O55  1  -0.00000000  0.00000000  0.88291333  1
  O  O56  1  0.64901058  0.09305473  0.64466139  1
  O  O57  1  -0.00000000  0.50000000  0.89319777  1
  O  O58  1  0.32719722  0.52391328  0.46482936  1
  O  O59  1  0.12392453  0.87914637  0.12987280  1
  O  O60  1  0.47608939  0.67280694  0.96484665  1
  O  O61  1  0.40466966  0.14442648  0.65384722  1
  O  O62  1  0.25492587  0.74440954  0.43756524  1
  O  O63  1  0.12085804  0.12391667  0.12986933  1
  O  O64  1  0.85556039  0.59532169  0.15384000  1
  O  O65  1  0.64901058  0.90694527  0.14466139  1
  O  O66  1  0.09305579  0.64900823  0.14466827  1
  O  O67  1  0.50000000  0.00000000  0.39320086  1
  O  O68  1  0.52391061  0.32719306  0.96484665  1
  O  O69  1  0.14443961  0.59532169  0.65384000  1
  O  O70  1  0.14443961  0.40467831  0.15384000  1
  O  O71  1  0.25559955  0.74508087  0.93757882  1
