# generated using pymatgen
data_UCO5
_symmetry_space_group_name_H-M   'P 1'
_cell_length_a   4.28801109
_cell_length_b   4.84814143
_cell_length_c   9.14370173
_cell_angle_alpha   90.00000000
_cell_angle_beta   90.00000000
_cell_angle_gamma   90.00000000
_symmetry_Int_Tables_number   1
_chemical_formula_structural   UCO5
_chemical_formula_sum   'U2 C2 O10'
_cell_volume   190.08735659
_cell_formula_units_Z   2
loop_
 _symmetry_equiv_pos_site_id
 _symmetry_equiv_pos_as_xyz
  1  'x, y, z'
loop_
 _atom_site_type_symbol
 _atom_site_label
 _atom_site_symmetry_multiplicity
 _atom_site_fract_x
 _atom_site_fract_y
 _atom_site_fract_z
 _atom_site_occupancy
  U  U0  1  0.74596580  0.25000000  0.75000000  1
  U  U1  1  0.25403420  0.75000000  0.25000000  1
  C  C2  1  0.63870717  0.25000000  0.25000000  1
  C  C3  1  0.36129283  0.75000000  0.75000000  1
  O  O4  1  0.23116588  0.98648082  0.75000000  1
  O  O5  1  0.74118933  0.25000000  0.94431308  1
  O  O6  1  0.25881067  0.75000000  0.05568692  1
  O  O7  1  0.74118933  0.25000000  0.55568692  1
  O  O8  1  0.33599020  0.25000000  0.25000000  1
  O  O9  1  0.76883412  0.48648082  0.25000000  1
  O  O10  1  0.66400980  0.75000000  0.75000000  1
  O  O11  1  0.76883412  0.01351918  0.25000000  1
  O  O12  1  0.23116588  0.51351918  0.75000000  1
  O  O13  1  0.25881067  0.75000000  0.44431308  1
