# generated using pymatgen
data_Cd(IO3)2
_symmetry_space_group_name_H-M   'P 1'
_cell_length_a   5.47130052
_cell_length_b   11.12314563
_cell_length_c   17.53266798
_cell_angle_alpha   90.00000000
_cell_angle_beta   90.00000000
_cell_angle_gamma   90.00000000
_symmetry_Int_Tables_number   1
_chemical_formula_structural   Cd(IO3)2
_chemical_formula_sum   'Cd8 I16 O48'
_cell_volume   1067.00437851
_cell_formula_units_Z   8
loop_
 _symmetry_equiv_pos_site_id
 _symmetry_equiv_pos_as_xyz
  1  'x, y, z'
loop_
 _atom_site_type_symbol
 _atom_site_label
 _atom_site_symmetry_multiplicity
 _atom_site_fract_x
 _atom_site_fract_y
 _atom_site_fract_z
 _atom_site_occupancy
  Cd  Cd0  1  0.27509588  0.63194123  0.11133628  1
  Cd  Cd1  1  0.21985678  0.84889167  0.94079992  1
  Cd  Cd2  1  0.78014322  0.34889167  0.05920008  1
  Cd  Cd3  1  0.72490412  0.63194123  0.61133628  1
  Cd  Cd4  1  0.27509588  0.13194123  0.38866372  1
  Cd  Cd5  1  0.72490412  0.13194123  0.88866372  1
  Cd  Cd6  1  0.78014322  0.84889167  0.44079992  1
  Cd  Cd7  1  0.21985678  0.34889167  0.55920008  1
  I  I8  1  0.26776948  0.37424325  0.19915745  1
  I  I9  1  0.30967100  0.36274348  0.89057315  1
  I  I10  1  0.78125321  0.60930770  0.96912739  1
  I  I11  1  0.20636349  0.62164810  0.77682455  1
  I  I12  1  0.69032900  0.86274348  0.10942685  1
  I  I13  1  0.73223052  0.37424325  0.69915745  1
  I  I14  1  0.73223052  0.87424325  0.80084255  1
  I  I15  1  0.78125321  0.10930770  0.53087261  1
  I  I16  1  0.20636349  0.12164810  0.72317545  1
  I  I17  1  0.21874579  0.60930770  0.46912739  1
  I  I18  1  0.79363651  0.12164810  0.22317545  1
  I  I19  1  0.30967100  0.86274348  0.60942685  1
  I  I20  1  0.26776948  0.87424325  0.30084255  1
  I  I21  1  0.79363651  0.62164810  0.27682455  1
  I  I22  1  0.69032900  0.36274348  0.39057315  1
  I  I23  1  0.21874579  0.10930770  0.03087261  1
  O  O24  1  0.48683293  0.79340182  0.85016506  1
  O  O25  1  0.11120575  0.43461320  0.11440041  1
  O  O26  1  0.57508093  0.51710530  0.71283434  1
  O  O27  1  0.45891499  0.80186086  0.52338970  1
  O  O28  1  0.98850295  0.69084010  0.35123371  1
  O  O29  1  0.57508093  0.01710530  0.78716566  1
  O  O30  1  0.96438340  0.69510765  0.51519203  1
  O  O31  1  0.93894232  0.46657064  0.95768541  1
  O  O32  1  0.98850295  0.19084010  0.14876629  1
  O  O33  1  0.51316707  0.79340182  0.35016506  1
  O  O34  1  0.01149705  0.19084010  0.64876629  1
  O  O35  1  0.46800892  0.29090169  0.32589145  1
  O  O36  1  0.93894232  0.96657064  0.54231459  1
  O  O37  1  0.54108501  0.80186086  0.02338970  1
  O  O38  1  0.96046391  0.18189711  0.30463374  1
  O  O39  1  0.88879425  0.93461320  0.88559959  1
  O  O40  1  0.03953609  0.18189711  0.80463374  1
  O  O41  1  0.46800892  0.79090169  0.17410855  1
  O  O42  1  0.03953609  0.68189711  0.69536626  1
  O  O43  1  0.96046391  0.68189711  0.19536626  1
  O  O44  1  0.43908224  0.51369386  0.89160553  1
  O  O45  1  0.53199108  0.29090169  0.82589145  1
  O  O46  1  0.53199108  0.79090169  0.67410855  1
  O  O47  1  0.62690619  0.05388545  0.44459565  1
  O  O48  1  0.08001751  0.46894491  0.78006366  1
  O  O49  1  0.56091776  0.01369386  0.10839447  1
  O  O50  1  0.56091776  0.51369386  0.39160553  1
  O  O51  1  0.43908224  0.01369386  0.60839447  1
  O  O52  1  0.62690619  0.55388545  0.05540435  1
  O  O53  1  0.37309381  0.55388545  0.55540435  1
  O  O54  1  0.01149705  0.69084010  0.85123371  1
  O  O55  1  0.11120575  0.93461320  0.38559959  1
  O  O56  1  0.96438340  0.19510765  0.98480797  1
  O  O57  1  0.03561660  0.19510765  0.48480797  1
  O  O58  1  0.37309381  0.05388545  0.94459565  1
  O  O59  1  0.91998249  0.46894491  0.28006366  1
  O  O60  1  0.03561660  0.69510765  0.01519203  1
  O  O61  1  0.06105768  0.96657064  0.04231459  1
  O  O62  1  0.08001751  0.96894491  0.71993634  1
  O  O63  1  0.42491907  0.01710530  0.28716566  1
  O  O64  1  0.42491907  0.51710530  0.21283434  1
  O  O65  1  0.91998249  0.96894491  0.21993634  1
  O  O66  1  0.48683293  0.29340182  0.64983494  1
  O  O67  1  0.54108501  0.30186086  0.47661030  1
  O  O68  1  0.51316707  0.29340182  0.14983494  1
  O  O69  1  0.88879425  0.43461320  0.61440041  1
  O  O70  1  0.45891499  0.30186086  0.97661030  1
  O  O71  1  0.06105768  0.46657064  0.45768541  1
