# generated using pymatgen
data_ZnS
_symmetry_space_group_name_H-M   'P 1'
_cell_length_a   3.80656410
_cell_length_b   3.80656364
_cell_length_c   62.31713020
_cell_angle_alpha   90.00000000
_cell_angle_beta   90.00000000
_cell_angle_gamma   119.99999510
_symmetry_Int_Tables_number   1
_chemical_formula_structural   ZnS
_chemical_formula_sum   'Zn20 S20'
_cell_volume   781.99565717
_cell_formula_units_Z   20
loop_
 _symmetry_equiv_pos_site_id
 _symmetry_equiv_pos_as_xyz
  1  'x, y, z'
loop_
 _atom_site_type_symbol
 _atom_site_label
 _atom_site_symmetry_multiplicity
 _atom_site_fract_x
 _atom_site_fract_y
 _atom_site_fract_z
 _atom_site_occupancy
  Zn  Zn0  1  0.00000000  -0.00000000  0.40001495  1
  Zn  Zn1  1  0.33333300  0.66666700  0.45003521  1
  Zn  Zn2  1  0.33333300  0.66666700  0.35000780  1
  Zn  Zn3  1  0.33333300  0.66666700  0.20001586  1
  Zn  Zn4  1  0.66666700  0.33333300  0.80003167  1
  Zn  Zn5  1  0.66666700  0.33333300  0.65002418  1
  Zn  Zn6  1  0.00000000  -0.00000000  0.60000349  1
  Zn  Zn7  1  0.66666700  0.33333300  0.95002469  1
  Zn  Zn8  1  0.66666700  0.33333300  0.10002635  1
  Zn  Zn9  1  -0.00000000  -0.00000000  0.90000480  1
  Zn  Zn10  1  0.33333300  0.66666700  0.55005813  1
  Zn  Zn11  1  0.66666700  0.33333300  0.30002012  1
  Zn  Zn12  1  0.00000000  0.00000000  0.00005046  1
  Zn  Zn13  1  0.33333300  0.66666700  0.05002674  1
  Zn  Zn14  1  0.00000000  -0.00000000  0.14999320  1
  Zn  Zn15  1  0.33333300  0.66666700  0.85005966  1
  Zn  Zn16  1  0.00000000  -0.00000000  0.25004298  1
  Zn  Zn17  1  -0.00000000  0.00000000  0.70004944  1
  Zn  Zn18  1  0.66666700  0.33333300  0.50003331  1
  Zn  Zn19  1  0.33333300  0.66666700  0.75000969  1
  S  S20  1  0.00000000  -0.00000000  0.63742979  1
  S  S21  1  0.33333300  0.66666700  0.88748250  1
  S  S22  1  0.66666700  0.33333300  0.83752359  1
  S  S23  1  0.00000000  -0.00000000  0.03747986  1
  S  S24  1  0.00000000  -0.00000000  0.43750066  1
  S  S25  1  0.33333300  0.66666700  0.08747744  1
  S  S26  1  0.33333300  0.66666700  0.23750831  1
  S  S27  1  0.00000000  -0.00000000  0.73747956  1
  S  S28  1  0.00000000  -0.00000000  0.28747002  1
  S  S29  1  0.66666700  0.33333300  0.68752255  1
  S  S30  1  0.66666700  0.33333300  0.98751946  1
  S  S31  1  0.66666700  0.33333300  0.53751579  1
  S  S32  1  0.66666700  0.33333300  0.33746675  1
  S  S33  1  0.33333300  0.66666700  0.58747824  1
  S  S34  1  0.33333300  0.66666700  0.48743778  1
  S  S35  1  0.33333300  0.66666700  0.38742471  1
  S  S36  1  0.66666700  0.33333300  0.13746720  1
  S  S37  1  0.33333300  0.66666700  0.78743882  1
  S  S38  1  0.00000000  -0.00000000  0.93743020  1
  S  S39  1  0.00000000  0.00000000  0.18741705  1
