# generated using pymatgen
data_Ag2Te4O11
_symmetry_space_group_name_H-M   'P 1'
_cell_length_a   7.28625984
_cell_length_b   7.39976801
_cell_length_c   9.65282277
_cell_angle_alpha   99.16965565
_cell_angle_beta   86.26247153
_cell_angle_gamma   119.61024131
_symmetry_Int_Tables_number   1
_chemical_formula_structural   Ag2Te4O11
_chemical_formula_sum   'Ag4 Te8 O22'
_cell_volume   446.64264595
_cell_formula_units_Z   2
loop_
 _symmetry_equiv_pos_site_id
 _symmetry_equiv_pos_as_xyz
  1  'x, y, z'
loop_
 _atom_site_type_symbol
 _atom_site_label
 _atom_site_symmetry_multiplicity
 _atom_site_fract_x
 _atom_site_fract_y
 _atom_site_fract_z
 _atom_site_occupancy
  Ag  Ag0  1  0.81607165  0.82200797  0.64756732  1
  Ag  Ag1  1  0.49015377  0.71886649  0.98768459  1
  Ag  Ag2  1  0.18392835  0.17799203  0.35243268  1
  Ag  Ag3  1  0.50984623  0.28113351  0.01231541  1
  Te  Te4  1  0.79955815  0.30747784  0.68639179  1
  Te  Te5  1  0.98992615  0.21489461  -0.00100894  1
  Te  Te6  1  0.20044185  0.69252216  0.31360821  1
  Te  Te7  1  0.30185993  0.81148608  0.68985524  1
  Te  Te8  1  0.69814007  0.18851392  0.31014476  1
  Te  Te9  1  0.01007385  0.78510539  0.00100894  1
  Te  Te10  1  0.31817873  0.31728107  0.67073517  1
  Te  Te11  1  0.68182127  0.68271893  0.32926483  1
  O  O12  1  0.24311802  0.30421897  0.86213990  1
  O  O13  1  0.84688648  0.31034121  0.88071749  1
  O  O14  1  0.99376829  0.76709055  0.37946029  1
  O  O15  1  0.59231219  0.36551214  0.26806073  1
  O  O16  1  0.78601120  0.00416793  0.35877897  1
  O  O17  1  0.13721308  0.06006061  0.10137994  1
  O  O18  1  0.75688198  0.69578103  0.13786010  1
  O  O19  1  0.39992575  0.60683429  0.23996925  1
  O  O20  1  0.86278692  0.93993939  0.89862006  1
  O  O21  1  0.30318398  0.90589663  0.88574300  1
  O  O22  1  0.40768781  0.63448786  0.73193927  1
  O  O23  1  0.00623171  0.23290945  0.62053971  1
  O  O24  1  0.60007425  0.39316571  0.76003075  1
  O  O25  1  0.59950208  0.00764502  0.66690854  1
  O  O26  1  0.21398880  0.99583207  0.64122103  1
  O  O27  1  0.28960070  0.68171745  0.49602695  1
  O  O28  1  0.69681602  0.09410337  0.11425700  1
  O  O29  1  0.71039930  0.31828255  0.50397305  1
  O  O30  1  0.00088727  0.39167572  0.29799708  1
  O  O31  1  0.15311352  0.68965879  0.11928251  1
  O  O32  1  0.40049792  0.99235498  0.33309146  1
  O  O33  1  -0.00088727  0.60832428  0.70200292  1
