# generated using pymatgen
data_TlAgTe
_symmetry_space_group_name_H-M   'P 1'
_cell_length_a   4.90800374
_cell_length_b   7.95933229
_cell_length_c   8.76008072
_cell_angle_alpha   90.00000000
_cell_angle_beta   90.00000000
_cell_angle_gamma   90.00000000
_symmetry_Int_Tables_number   1
_chemical_formula_structural   TlAgTe
_chemical_formula_sum   'Tl4 Ag4 Te4'
_cell_volume   342.20758327
_cell_formula_units_Z   4
loop_
 _symmetry_equiv_pos_site_id
 _symmetry_equiv_pos_as_xyz
  1  'x, y, z'
loop_
 _atom_site_type_symbol
 _atom_site_label
 _atom_site_symmetry_multiplicity
 _atom_site_fract_x
 _atom_site_fract_y
 _atom_site_fract_z
 _atom_site_occupancy
  Tl  Tl0  1  0.25000000  0.18094815  0.98722931  1
  Tl  Tl1  1  0.75000000  0.68094815  0.51277069  1
  Tl  Tl2  1  0.25000000  0.31905185  0.48722931  1
  Tl  Tl3  1  0.75000000  0.81905185  0.01277069  1
  Ag  Ag4  1  0.25000000  0.58697149  0.16860416  1
  Ag  Ag5  1  0.75000000  0.41302851  0.83139584  1
  Ag  Ag6  1  0.75000000  0.08697149  0.33139584  1
  Ag  Ag7  1  0.25000000  0.91302851  0.66860416  1
  Te  Te8  1  0.75000000  0.40275490  0.18648558  1
  Te  Te9  1  0.75000000  0.09724510  0.68648558  1
  Te  Te10  1  0.25000000  0.59724510  0.81351442  1
  Te  Te11  1  0.25000000  0.90275490  0.31351442  1
