# generated using pymatgen
data_Bi(BO2)3
_symmetry_space_group_name_H-M   'P 1'
_cell_length_a   4.28546363
_cell_length_b   4.45608245
_cell_length_c   18.44526688
_cell_angle_alpha   90.00000000
_cell_angle_beta   90.00000000
_cell_angle_gamma   90.00000000
_symmetry_Int_Tables_number   1
_chemical_formula_structural   Bi(BO2)3
_chemical_formula_sum   'Bi4 B12 O24'
_cell_volume   352.23781211
_cell_formula_units_Z   4
loop_
 _symmetry_equiv_pos_site_id
 _symmetry_equiv_pos_as_xyz
  1  'x, y, z'
loop_
 _atom_site_type_symbol
 _atom_site_label
 _atom_site_symmetry_multiplicity
 _atom_site_fract_x
 _atom_site_fract_y
 _atom_site_fract_z
 _atom_site_occupancy
  Bi  Bi0  1  0.30466115  0.15716337  0.33784929  1
  Bi  Bi1  1  0.80466115  0.84283663  0.66215071  1
  Bi  Bi2  1  0.80466115  0.15716337  0.16215071  1
  Bi  Bi3  1  0.30466115  0.84283663  0.83784929  1
  B  B4  1  0.35596434  0.32802935  0.57254362  1
  B  B5  1  0.38277467  0.82469170  0.49831678  1
  B  B6  1  0.33089077  0.36480300  0.71279480  1
  B  B7  1  0.85596434  0.67197065  0.42745638  1
  B  B8  1  0.33089077  0.63519700  0.21279480  1
  B  B9  1  0.85596434  0.32802935  0.92745638  1
  B  B10  1  0.83089077  0.63519700  0.28720520  1
  B  B11  1  0.35596434  0.67197065  0.07254362  1
  B  B12  1  0.83089077  0.36480300  0.78720520  1
  B  B13  1  0.88277467  0.82469170  0.00168322  1
  B  B14  1  0.88277467  0.17530830  0.50168322  1
  B  B15  1  0.38277467  0.17530830  0.99831678  1
  O  O16  1  0.02876588  0.87195365  0.48199899  1
  O  O17  1  0.43096940  0.63865193  0.56035114  1
  O  O18  1  0.52876588  0.87195365  0.01800101  1
  O  O19  1  0.46521626  0.75781784  0.14596738  1
  O  O20  1  0.52876588  0.12804635  0.51800101  1
  O  O21  1  0.83791611  0.69092317  0.78827050  1
  O  O22  1  0.43096940  0.36134807  0.06035114  1
  O  O23  1  0.52535316  0.73713285  0.43179506  1
  O  O24  1  0.46521626  0.24218216  0.64596738  1
  O  O25  1  0.02876588  0.12804635  0.98199899  1
  O  O26  1  0.51158626  0.74715581  0.27600061  1
  O  O27  1  0.02535316  0.73713285  0.06820494  1
  O  O28  1  0.83791611  0.30907683  0.28827050  1
  O  O29  1  0.01158626  0.74715581  0.22399939  1
  O  O30  1  0.52535316  0.26286715  0.93179506  1
  O  O31  1  0.93096940  0.36134807  0.43964886  1
  O  O32  1  0.02535316  0.26286715  0.56820494  1
  O  O33  1  0.01158626  0.25284419  0.72399939  1
  O  O34  1  0.93096940  0.63865193  0.93964886  1
  O  O35  1  0.51158626  0.25284419  0.77600061  1
  O  O36  1  0.33791611  0.69092317  0.71172950  1
  O  O37  1  0.96521626  0.24218216  0.85403262  1
  O  O38  1  0.33791611  0.30907683  0.21172950  1
  O  O39  1  0.96521626  0.75781784  0.35403262  1
