# generated using pymatgen
data_NaGaO2
_symmetry_space_group_name_H-M   'P 1'
_cell_length_a   5.27508527
_cell_length_b   10.52836855
_cell_length_c   14.79447341
_cell_angle_alpha   90.00000000
_cell_angle_beta   90.00000000
_cell_angle_gamma   90.00000000
_symmetry_Int_Tables_number   1
_chemical_formula_structural   NaGaO2
_chemical_formula_sum   'Na16 Ga16 O32'
_cell_volume   821.65608347
_cell_formula_units_Z   16
loop_
 _symmetry_equiv_pos_site_id
 _symmetry_equiv_pos_as_xyz
  1  'x, y, z'
loop_
 _atom_site_type_symbol
 _atom_site_label
 _atom_site_symmetry_multiplicity
 _atom_site_fract_x
 _atom_site_fract_y
 _atom_site_fract_z
 _atom_site_occupancy
  Na  Na0  1  0.27932288  0.48494903  0.43666620  1
  Na  Na1  1  0.18419881  0.72688813  0.81027130  1
  Na  Na2  1  0.22067712  0.51505097  0.93666620  1
  Na  Na3  1  0.18419881  0.77311187  0.31027130  1
  Na  Na4  1  0.27932288  0.01505097  0.93666620  1
  Na  Na5  1  0.81580119  0.27311187  0.18972870  1
  Na  Na6  1  0.77932288  0.01505097  0.56333380  1
  Na  Na7  1  0.72067712  0.51505097  0.56333380  1
  Na  Na8  1  0.77932288  0.48494903  0.06333380  1
  Na  Na9  1  0.31580119  0.27311187  0.31027130  1
  Na  Na10  1  0.72067712  0.98494903  0.06333380  1
  Na  Na11  1  0.81580119  0.22688813  0.68972870  1
  Na  Na12  1  0.68419881  0.72688813  0.68972870  1
  Na  Na13  1  0.22067712  0.98494903  0.43666620  1
  Na  Na14  1  0.68419881  0.77311187  0.18972870  1
  Na  Na15  1  0.31580119  0.22688813  0.81027130  1
  Ga  Ga16  1  0.19187993  0.72280073  0.56201898  1
  Ga  Ga17  1  0.19187993  0.77719927  0.06201898  1
  Ga  Ga18  1  0.80444826  0.52414017  0.31283049  1
  Ga  Ga19  1  0.69187993  0.77719927  0.43798102  1
  Ga  Ga20  1  0.69555174  0.02414017  0.31283049  1
  Ga  Ga21  1  0.19555174  0.02414017  0.18716951  1
  Ga  Ga22  1  0.69187993  0.72280073  0.93798102  1
  Ga  Ga23  1  0.80812007  0.27719927  0.43798102  1
  Ga  Ga24  1  0.69555174  0.47585983  0.81283049  1
  Ga  Ga25  1  0.80444826  0.97585983  0.81283049  1
  Ga  Ga26  1  0.19555174  0.47585983  0.68716951  1
  Ga  Ga27  1  0.30444826  0.52414017  0.18716951  1
  Ga  Ga28  1  0.30812007  0.27719927  0.06201898  1
  Ga  Ga29  1  0.30444826  0.97585983  0.68716951  1
  Ga  Ga30  1  0.30812007  0.22280073  0.56201898  1
  Ga  Ga31  1  0.80812007  0.22280073  0.93798102  1
  O  O32  1  0.27401686  0.80318967  0.66889185  1
  O  O33  1  0.13836779  0.02196966  0.79173732  1
  O  O34  1  0.36163221  0.52196966  0.79173732  1
  O  O35  1  0.86163221  0.52196966  0.70826268  1
  O  O36  1  0.79111841  0.94486039  0.41853745  1
  O  O37  1  0.63836779  0.47803034  0.20826268  1
  O  O38  1  0.20888159  0.44486039  0.08146255  1
  O  O39  1  0.34370449  0.72888298  0.95521578  1
  O  O40  1  0.79111841  0.55513961  0.91853745  1
  O  O41  1  0.36163221  0.97803034  0.29173732  1
  O  O42  1  0.84370449  0.77111702  0.04478422  1
  O  O43  1  0.65629551  0.27111702  0.04478422  1
  O  O44  1  0.65629551  0.22888298  0.54478422  1
  O  O45  1  0.22598314  0.19681033  0.16889185  1
  O  O46  1  0.70888159  0.05513961  0.91853745  1
  O  O47  1  0.70888159  0.44486039  0.41853745  1
  O  O48  1  0.84370449  0.72888298  0.54478422  1
  O  O49  1  0.63836779  0.02196966  0.70826268  1
  O  O50  1  0.27401686  0.69681033  0.16889185  1
  O  O51  1  0.77401686  0.80318967  0.83110815  1
  O  O52  1  0.72598314  0.19681033  0.33110815  1
  O  O53  1  0.20888159  0.05513961  0.58146255  1
  O  O54  1  0.34370449  0.77111702  0.45521578  1
  O  O55  1  0.15629551  0.27111702  0.45521578  1
  O  O56  1  0.29111841  0.94486039  0.08146255  1
  O  O57  1  0.15629551  0.22888298  0.95521578  1
  O  O58  1  0.13836779  0.47803034  0.29173732  1
  O  O59  1  0.77401686  0.69681033  0.33110815  1
  O  O60  1  0.86163221  0.97803034  0.20826268  1
  O  O61  1  0.72598314  0.30318967  0.83110815  1
  O  O62  1  0.22598314  0.30318967  0.66889185  1
  O  O63  1  0.29111841  0.55513961  0.58146255  1
