# generated using pymatgen
data_Zn2P2O7
_symmetry_space_group_name_H-M   'P 1'
_cell_length_a   4.94724925
_cell_length_b   13.31124135
_cell_length_c   16.43407348
_cell_angle_alpha   90.00000000
_cell_angle_beta   90.00000000
_cell_angle_gamma   90.00000000
_symmetry_Int_Tables_number   1
_chemical_formula_structural   Zn2P2O7
_chemical_formula_sum   'Zn16 P16 O56'
_cell_volume   1082.24994801
_cell_formula_units_Z   8
loop_
 _symmetry_equiv_pos_site_id
 _symmetry_equiv_pos_as_xyz
  1  'x, y, z'
loop_
 _atom_site_type_symbol
 _atom_site_label
 _atom_site_symmetry_multiplicity
 _atom_site_fract_x
 _atom_site_fract_y
 _atom_site_fract_z
 _atom_site_occupancy
  Zn  Zn0  1  0.67980066  0.75761254  0.65658433  1
  Zn  Zn1  1  0.32019934  0.25761254  0.84341567  1
  Zn  Zn2  1  0.90843501  0.54539764  0.91372594  1
  Zn  Zn3  1  0.09156499  0.45460236  0.08627406  1
  Zn  Zn4  1  0.90843501  0.54539764  0.58627406  1
  Zn  Zn5  1  0.32019934  0.25761254  0.65658433  1
  Zn  Zn6  1  0.67980066  0.75761254  0.84341567  1
  Zn  Zn7  1  0.90843501  0.95460236  0.41372594  1
  Zn  Zn8  1  0.90843501  0.95460236  0.08627406  1
  Zn  Zn9  1  0.09156499  0.04539764  0.58627406  1
  Zn  Zn10  1  0.67980066  0.74238746  0.34341567  1
  Zn  Zn11  1  0.32019934  0.24238746  0.15658433  1
  Zn  Zn12  1  0.09156499  0.45460236  0.41372594  1
  Zn  Zn13  1  0.67980066  0.74238746  0.15658433  1
  Zn  Zn14  1  0.32019934  0.24238746  0.34341567  1
  Zn  Zn15  1  0.09156499  0.04539764  0.91372594  1
  P  P16  1  0.17473137  0.85022024  0.25000000  1
  P  P17  1  0.42086915  0.85647583  0.99727344  1
  P  P18  1  0.82526863  0.35022024  0.25000000  1
  P  P19  1  0.03913818  0.44265013  0.75000000  1
  P  P20  1  0.42086915  0.64352417  0.00272656  1
  P  P21  1  0.57913085  0.14352417  0.49727344  1
  P  P22  1  0.82526863  0.14977976  0.75000000  1
  P  P23  1  0.03913818  0.05734987  0.25000000  1
  P  P24  1  0.42086915  0.85647583  0.50272656  1
  P  P25  1  0.17473137  0.64977976  0.75000000  1
  P  P26  1  0.57913085  0.14352417  0.00272656  1
  P  P27  1  0.96086182  0.94265013  0.75000000  1
  P  P28  1  0.42086915  0.64352417  0.49727344  1
  P  P29  1  0.96086182  0.55734987  0.25000000  1
  P  P30  1  0.57913085  0.35647583  0.50272656  1
  P  P31  1  0.57913085  0.35647583  0.99727344  1
  O  O32  1  0.98515640  0.16852018  0.67201429  1
  O  O33  1  0.01484360  0.66852018  0.82798571  1
  O  O34  1  0.12153179  0.95104909  0.82721677  1
  O  O35  1  0.01484360  0.83147982  0.32798571  1
  O  O36  1  0.19730023  0.93460097  0.00291056  1
  O  O37  1  0.98515640  0.33147982  0.32798571  1
  O  O38  1  0.87846821  0.45104909  0.67278323  1
  O  O39  1  0.19730023  0.93460097  0.49708944  1
  O  O40  1  0.26739950  0.75000000  0.50000000  1
  O  O41  1  0.44107388  0.79340157  0.25000000  1
  O  O42  1  0.87846821  0.45104909  0.82721677  1
  O  O43  1  0.73260050  0.25000000  0.50000000  1
  O  O44  1  0.41667457  0.13773832  0.07947260  1
  O  O45  1  0.87846821  0.04895091  0.17278323  1
  O  O46  1  0.44107388  0.70659843  0.75000000  1
  O  O47  1  0.74371154  0.03431222  0.75000000  1
  O  O48  1  0.12153179  0.54895091  0.32721677  1
  O  O49  1  0.12153179  0.95104909  0.67278323  1
  O  O50  1  0.59838191  0.85945252  0.07376072  1
  O  O51  1  0.12153179  0.54895091  0.17278323  1
  O  O52  1  0.01484360  0.66852018  0.67201429  1
  O  O53  1  0.98515640  0.16852018  0.82798571  1
  O  O54  1  0.59838191  0.64054748  0.92623928  1
  O  O55  1  0.80269977  0.06539903  0.50291056  1
  O  O56  1  0.40161809  0.35945252  0.07376072  1
  O  O57  1  0.73260050  0.25000000  0.00000000  1
  O  O58  1  0.41667457  0.13773832  0.42052740  1
  O  O59  1  0.41667457  0.36226168  0.57947260  1
  O  O60  1  0.59838191  0.85945252  0.42623928  1
  O  O61  1  0.55892612  0.29340157  0.25000000  1
  O  O62  1  0.80269977  0.43460097  0.00291056  1
  O  O63  1  0.19730023  0.56539903  0.50291056  1
  O  O64  1  0.58332543  0.86226168  0.57947260  1
  O  O65  1  0.40161809  0.35945252  0.42623928  1
  O  O66  1  0.25628846  0.53431222  0.75000000  1
  O  O67  1  0.80269977  0.43460097  0.49708944  1
  O  O68  1  0.40161809  0.14054748  0.57376072  1
  O  O69  1  0.58332543  0.63773832  0.42052740  1
  O  O70  1  0.58332543  0.63773832  0.07947260  1
  O  O71  1  0.21042818  0.34786280  0.75000000  1
  O  O72  1  0.55892612  0.20659843  0.75000000  1
  O  O73  1  0.98515640  0.33147982  0.17201429  1
  O  O74  1  0.78957182  0.84786280  0.75000000  1
  O  O75  1  0.26739950  0.75000000  0.00000000  1
  O  O76  1  0.01484360  0.83147982  0.17201429  1
  O  O77  1  0.87846821  0.04895091  0.32721677  1
  O  O78  1  0.40161809  0.14054748  0.92623928  1
  O  O79  1  0.58332543  0.86226168  0.92052740  1
  O  O80  1  0.19730023  0.56539903  0.99708944  1
  O  O81  1  0.78957182  0.65213720  0.25000000  1
  O  O82  1  0.25628846  0.96568778  0.25000000  1
  O  O83  1  0.21042818  0.15213720  0.25000000  1
  O  O84  1  0.74371154  0.46568778  0.25000000  1
  O  O85  1  0.41667457  0.36226168  0.92052740  1
  O  O86  1  0.80269977  0.06539903  0.99708944  1
  O  O87  1  0.59838191  0.64054748  0.57376072  1
