# generated using pymatgen
data_Hg9P5I6
_symmetry_space_group_name_H-M   'P 1'
_cell_length_a   12.57600991
_cell_length_b   13.28932848
_cell_length_c   17.40280257
_cell_angle_alpha   60.14570601
_cell_angle_beta   90.00000000
_cell_angle_gamma   90.00000000
_symmetry_Int_Tables_number   1
_chemical_formula_structural   Hg9P5I6
_chemical_formula_sum   'Hg36 P20 I24'
_cell_volume   2522.50192289
_cell_formula_units_Z   4
loop_
 _symmetry_equiv_pos_site_id
 _symmetry_equiv_pos_as_xyz
  1  'x, y, z'
loop_
 _atom_site_type_symbol
 _atom_site_label
 _atom_site_symmetry_multiplicity
 _atom_site_fract_x
 _atom_site_fract_y
 _atom_site_fract_z
 _atom_site_occupancy
  Hg  Hg0  1  0.89767942  0.75936085  0.26331058  1
  Hg  Hg1  1  0.18075793  0.64827518  0.27503154  1
  Hg  Hg2  1  0.47564209  0.59660509  0.42931692  1
  Hg  Hg3  1  0.09985477  0.12621807  0.28774529  1
  Hg  Hg4  1  0.52435791  0.40339491  0.57068308  1
  Hg  Hg5  1  0.44177482  0.55704471  0.19602717  1
  Hg  Hg6  1  0.72754876  0.78833415  0.53617583  1
  Hg  Hg7  1  0.67832290  0.10126186  0.68754770  1
  Hg  Hg8  1  0.40014523  0.12621807  0.78774529  1
  Hg  Hg9  1  0.10232058  0.24063915  0.73668942  1
  Hg  Hg10  1  0.17658865  0.87992118  0.55116802  1
  Hg  Hg11  1  0.90014523  0.87378193  0.71225471  1
  Hg  Hg12  1  0.82341135  0.12007882  0.44883198  1
  Hg  Hg13  1  0.02435791  0.59660509  0.92931692  1
  Hg  Hg14  1  0.77245124  0.78833415  0.03617583  1
  Hg  Hg15  1  0.32167710  0.89873814  0.31245230  1
  Hg  Hg16  1  0.17832290  0.89873814  0.81245230  1
  Hg  Hg17  1  0.67658865  0.12007882  0.94883198  1
  Hg  Hg18  1  0.59985477  0.87378193  0.21225471  1
  Hg  Hg19  1  0.60232058  0.75936085  0.76331058  1
  Hg  Hg20  1  0.05822518  0.55704471  0.69602717  1
  Hg  Hg21  1  0.32341135  0.87992118  0.05116802  1
  Hg  Hg22  1  0.97564209  0.40339491  0.07068308  1
  Hg  Hg23  1  0.50000000  0.00000000  0.50000000  1
  Hg  Hg24  1  0.68075793  0.35172482  0.22496846  1
  Hg  Hg25  1  0.27245124  0.21166585  0.46382417  1
  Hg  Hg26  1  0.55822518  0.44295529  0.80397283  1
  Hg  Hg27  1  0.39767942  0.24063915  0.23668942  1
  Hg  Hg28  1  0.82167710  0.10126186  0.18754770  1
  Hg  Hg29  1  0.22754876  0.21166585  0.96382417  1
  Hg  Hg30  1  0.81924207  0.35172482  0.72496846  1
  Hg  Hg31  1  0.31924207  0.64827518  0.77503154  1
  Hg  Hg32  1  0.00000000  0.00000000  -0.00000000  1
  Hg  Hg33  1  0.94177482  0.44295529  0.30397283  1
  Hg  Hg34  1  0.50000000  0.50000000  -0.00000000  1
  Hg  Hg35  1  0.00000000  0.50000000  0.50000000  1
  P  P36  1  0.00627162  0.58593138  0.34096905  1
  P  P37  1  0.99372838  0.41406862  0.65903095  1
  P  P38  1  0.14626167  0.71545979  0.70390354  1
  P  P39  1  0.85373833  0.28454021  0.29609646  1
  P  P40  1  0.30813935  0.03185534  0.46029051  1
  P  P41  1  0.64626167  0.28454021  0.79609646  1
  P  P42  1  0.49372838  0.58593138  0.84096905  1
  P  P43  1  0.19186065  0.03185534  0.96029051  1
  P  P44  1  0.28580357  0.07142510  0.32475061  1
  P  P45  1  0.06253298  0.77130625  0.78533579  1
  P  P46  1  0.50627162  0.41406862  0.15903095  1
  P  P47  1  0.21419643  0.07142510  0.82475061  1
  P  P48  1  0.93746702  0.22869375  0.21466421  1
  P  P49  1  0.69186065  0.96814466  0.53970949  1
  P  P50  1  0.35373833  0.71545979  0.20390354  1
  P  P51  1  0.80813935  0.96814466  0.03970949  1
  P  P52  1  0.71419643  0.92857490  0.67524939  1
  P  P53  1  0.43746702  0.77130625  0.28533579  1
  P  P54  1  0.78580357  0.92857490  0.17524939  1
  P  P55  1  0.56253298  0.22869375  0.71466421  1
  I  I56  1  0.81021178  0.61330443  0.72487831  1
  I  I57  1  0.51104294  0.29405728  0.40663822  1
  I  I58  1  0.18978822  0.38669557  0.27512169  1
  I  I59  1  0.75139413  0.66024331  0.45448851  1
  I  I60  1  0.01104294  0.70594272  0.09336178  1
  I  I61  1  0.31021178  0.38669557  0.77512169  1
  I  I62  1  0.68978822  0.61330443  0.22487831  1
  I  I63  1  0.02290961  0.09221025  0.56099606  1
  I  I64  1  0.25139413  0.33975669  0.04551149  1
  I  I65  1  0.88492839  0.04780228  0.80692708  1
  I  I66  1  0.28156128  0.68748065  0.97421367  1
  I  I67  1  0.47709039  0.09221025  0.06099606  1
  I  I68  1  0.21843872  0.68748065  0.47421367  1
  I  I69  1  0.38492839  0.95219772  0.69307292  1
  I  I70  1  0.11507161  0.95219772  0.19307292  1
  I  I71  1  0.74860587  0.66024331  0.95448851  1
  I  I72  1  0.61507161  0.04780228  0.30692708  1
  I  I73  1  0.24860587  0.33975669  0.54551149  1
  I  I74  1  0.97709039  0.90778975  0.43900394  1
  I  I75  1  0.78156128  0.31251935  0.52578633  1
  I  I76  1  0.98895706  0.29405728  0.90663822  1
  I  I77  1  0.52290961  0.90778975  0.93900394  1
  I  I78  1  0.48895706  0.70594272  0.59336178  1
  I  I79  1  0.71843872  0.31251935  0.02578633  1
