# generated using pymatgen
data_Sb2Te2O9
_symmetry_space_group_name_H-M   'P 1'
_cell_length_a   4.86783921
_cell_length_b   14.65382265
_cell_length_c   21.95207558
_cell_angle_alpha   70.60916404
_cell_angle_beta   90.00000000
_cell_angle_gamma   90.00000000
_symmetry_Int_Tables_number   1
_chemical_formula_structural   Sb2Te2O9
_chemical_formula_sum   'Sb16 Te16 O72'
_cell_volume   1477.07118233
_cell_formula_units_Z   8
loop_
 _symmetry_equiv_pos_site_id
 _symmetry_equiv_pos_as_xyz
  1  'x, y, z'
loop_
 _atom_site_type_symbol
 _atom_site_label
 _atom_site_symmetry_multiplicity
 _atom_site_fract_x
 _atom_site_fract_y
 _atom_site_fract_z
 _atom_site_occupancy
  Sb  Sb0  1  0.29447332  0.48995457  0.34694453  1
  Sb  Sb1  1  0.28314523  0.16598823  0.84208159  1
  Sb  Sb2  1  0.21685477  0.66598823  0.84208159  1
  Sb  Sb3  1  0.70552668  0.51004543  0.65305547  1
  Sb  Sb4  1  0.20552668  0.98995457  0.34694453  1
  Sb  Sb5  1  0.79447332  0.01004543  0.65305547  1
  Sb  Sb6  1  0.71685477  0.83401177  0.15791841  1
  Sb  Sb7  1  0.70864062  0.83162883  0.44764831  1
  Sb  Sb8  1  0.20864062  0.66837117  0.55235169  1
  Sb  Sb9  1  0.78381707  0.21954977  0.94538750  1
  Sb  Sb10  1  0.78314523  0.33401177  0.15791841  1
  Sb  Sb11  1  0.28381707  0.28045023  0.05461250  1
  Sb  Sb12  1  0.71618293  0.71954977  0.94538750  1
  Sb  Sb13  1  0.29135938  0.16837117  0.55235169  1
  Sb  Sb14  1  0.21618293  0.78045023  0.05461250  1
  Sb  Sb15  1  0.79135938  0.33162883  0.44764831  1
  Te  Te16  1  0.16834646  0.55353656  0.06167527  1
  Te  Te17  1  0.33373007  0.31004225  0.27943910  1
  Te  Te18  1  0.83373007  0.18995775  0.72056090  1
  Te  Te19  1  0.66626993  0.68995775  0.72056090  1
  Te  Te20  1  0.83165354  0.44646344  0.93832473  1
  Te  Te21  1  0.66834646  0.94646344  0.93832473  1
  Te  Te22  1  0.15796367  0.88947842  0.55854901  1
  Te  Te23  1  0.34203633  0.38947842  0.55854901  1
  Te  Te24  1  0.84203633  0.11052158  0.44145099  1
  Te  Te25  1  0.65796367  0.61052158  0.44145099  1
  Te  Te26  1  0.33165354  0.05353656  0.06167527  1
  Te  Te27  1  0.17087143  0.41953076  0.76699858  1
  Te  Te28  1  0.32912857  0.91953076  0.76699858  1
  Te  Te29  1  0.16626993  0.81004225  0.27943910  1
  Te  Te30  1  0.82912857  0.58046924  0.23300142  1
  Te  Te31  1  0.67087143  0.08046924  0.23300142  1
  O  O32  1  0.61243625  0.41827483  0.49148020  1
  O  O33  1  0.64453636  0.08585522  0.70581532  1
  O  O34  1  0.03601177  0.07420147  0.26194600  1
  O  O35  1  0.93375996  0.46469506  0.12349874  1
  O  O36  1  0.50535122  0.63786788  0.90787120  1
  O  O37  1  0.05517433  0.75730068  0.59591427  1
  O  O38  1  0.91397557  0.71391142  0.20924157  1
  O  O39  1  0.00805908  0.74355027  0.88185263  1
  O  O40  1  0.49799158  0.23306699  0.47226309  1
  O  O41  1  0.49194092  0.24355027  0.88185263  1
  O  O42  1  0.09348359  0.09028803  0.38221525  1
  O  O43  1  0.53227681  0.07169218  0.31536934  1
  O  O44  1  0.44482567  0.25730068  0.59591427  1
  O  O45  1  0.46398823  0.57420147  0.26194600  1
  O  O46  1  0.56624004  0.96469506  0.12349874  1
  O  O47  1  0.61172954  0.09171232  0.99779356  1
  O  O48  1  0.53551857  0.21026232  0.76635826  1
  O  O49  1  0.96448143  0.71026232  0.76635826  1
  O  O50  1  0.90651641  0.90971197  0.61778475  1
  O  O51  1  0.99194092  0.25644973  0.11814737  1
  O  O52  1  0.35546364  0.91414478  0.29418468  1
  O  O53  1  0.96772319  0.57169218  0.31536934  1
  O  O54  1  0.42913315  0.14626009  0.10202986  1
  O  O55  1  0.10345581  0.09878628  0.63407574  1
  O  O56  1  0.40491317  0.92368782  0.42646002  1
  O  O57  1  0.50805908  0.75644973  0.11814737  1
  O  O58  1  0.60345581  0.40121372  0.36592426  1
  O  O59  1  0.90491317  0.57631218  0.57353998  1
  O  O60  1  -0.00200842  0.26693301  0.52773691  1
  O  O61  1  0.38827046  0.90828768  0.00220644  1
  O  O62  1  0.99464878  0.13786788  0.90787120  1
  O  O63  1  0.59348359  0.40971197  0.61778475  1
  O  O64  1  0.40651641  0.59028803  0.38221525  1
  O  O65  1  0.11172954  0.40828768  0.00220644  1
  O  O66  1  0.58830026  0.29879657  0.99090809  1
  O  O67  1  0.06624004  0.53530494  0.87650126  1
  O  O68  1  0.41397557  0.78608858  0.79075843  1
  O  O69  1  0.11243625  0.08172517  0.50851980  1
  O  O70  1  0.89654419  0.90121372  0.36592426  1
  O  O71  1  0.55517433  0.74269932  0.40408573  1
  O  O72  1  0.14453636  0.41414478  0.29418468  1
  O  O73  1  0.08830026  0.20120343  0.00909191  1
  O  O74  1  0.46448143  0.78973768  0.23364174  1
  O  O75  1  0.46772319  0.92830782  0.68463066  1
  O  O76  1  0.07086685  0.64626009  0.10202986  1
  O  O77  1  0.88827046  0.59171232  0.99779356  1
  O  O78  1  0.54503878  0.39350591  0.21043680  1
  O  O79  1  0.04503878  0.10649409  0.78956320  1
  O  O80  1  0.57086685  0.85373991  0.89797014  1
  O  O81  1  0.43375996  0.03530494  0.87650126  1
  O  O82  1  0.96398823  0.92579853  0.73805400  1
  O  O83  1  0.59508683  0.07631218  0.57353998  1
  O  O84  1  0.95496122  0.89350591  0.21043680  1
  O  O85  1  0.91169974  0.79879657  0.99090809  1
  O  O86  1  0.41169974  0.70120343  0.00909191  1
  O  O87  1  0.53601177  0.42579853  0.73805400  1
  O  O88  1  0.09508683  0.42368782  0.42646002  1
  O  O89  1  0.38756375  0.58172517  0.50851980  1
  O  O90  1  0.00535122  0.86213212  0.09212880  1
  O  O91  1  0.39654419  0.59878628  0.63407574  1
  O  O92  1  0.03227681  0.42830782  0.68463066  1
  O  O93  1  0.88756375  0.91827483  0.49148020  1
  O  O94  1  0.92913315  0.35373991  0.89797014  1
  O  O95  1  0.85546364  0.58585522  0.70581532  1
  O  O96  1  0.50200842  0.76693301  0.52773691  1
  O  O97  1  0.03551857  0.28973768  0.23364174  1
  O  O98  1  0.45496122  0.60649409  0.78956320  1
  O  O99  1  0.49464878  0.36213212  0.09212880  1
  O  O100  1  0.58602443  0.21391142  0.20924157  1
  O  O101  1  0.08602443  0.28608858  0.79075843  1
  O  O102  1  0.00200842  0.73306699  0.47226309  1
  O  O103  1  0.94482567  0.24269932  0.40408573  1
