# generated using pymatgen
data_Dy3S3N
_symmetry_space_group_name_H-M   'P 1'
_cell_length_a   3.81115049
_cell_length_b   11.92012508
_cell_length_c   12.87767531
_cell_angle_alpha   90.00000000
_cell_angle_beta   90.00000000
_cell_angle_gamma   90.00000000
_symmetry_Int_Tables_number   1
_chemical_formula_structural   Dy3S3N
_chemical_formula_sum   'Dy12 S12 N4'
_cell_volume   585.02494090
_cell_formula_units_Z   4
loop_
 _symmetry_equiv_pos_site_id
 _symmetry_equiv_pos_as_xyz
  1  'x, y, z'
loop_
 _atom_site_type_symbol
 _atom_site_label
 _atom_site_symmetry_multiplicity
 _atom_site_fract_x
 _atom_site_fract_y
 _atom_site_fract_z
 _atom_site_occupancy
  Dy  Dy0  1  0.25000000  0.71020030  0.35905634  1
  Dy  Dy1  1  0.75000000  0.93527573  0.63238523  1
  Dy  Dy2  1  0.75000000  0.78979970  0.85905634  1
  Dy  Dy3  1  0.75000000  0.43527573  0.86761477  1
  Dy  Dy4  1  0.75000000  0.95162316  0.14255878  1
  Dy  Dy5  1  0.25000000  0.21020030  0.14094366  1
  Dy  Dy6  1  0.75000000  0.45162316  0.35744122  1
  Dy  Dy7  1  0.25000000  0.06472427  0.36761477  1
  Dy  Dy8  1  0.75000000  0.28979970  0.64094366  1
  Dy  Dy9  1  0.25000000  0.54837684  0.64255878  1
  Dy  Dy10  1  0.25000000  0.04837684  0.85744122  1
  Dy  Dy11  1  0.25000000  0.56472427  0.13238523  1
  S  S12  1  0.75000000  0.63255947  0.48999363  1
  S  S13  1  0.75000000  0.13255947  0.01000637  1
  S  S14  1  0.25000000  0.59409801  0.90208326  1
  S  S15  1  0.75000000  0.72388330  0.19168785  1
  S  S16  1  0.75000000  0.90590199  0.40208326  1
  S  S17  1  0.25000000  0.77611670  0.69168785  1
  S  S18  1  0.75000000  0.40590199  0.09791674  1
  S  S19  1  0.25000000  0.09409801  0.59791674  1
  S  S20  1  0.25000000  0.27611670  0.80831215  1
  S  S21  1  0.25000000  0.86744053  0.98999363  1
  S  S22  1  0.25000000  0.36744053  0.51000637  1
  S  S23  1  0.75000000  0.22388330  0.30831215  1
  N  N24  1  0.25000000  0.53343381  0.29803564  1
  N  N25  1  0.75000000  0.96656619  0.79803564  1
  N  N26  1  0.25000000  0.03343381  0.20196436  1
  N  N27  1  0.75000000  0.46656619  0.70196436  1
