# generated using pymatgen
data_VO2
_symmetry_space_group_name_H-M   'P 1'
_cell_length_a   3.68799743
_cell_length_b   6.40497848
_cell_length_c   6.26500650
_cell_angle_alpha   106.00259240
_cell_angle_beta   107.09884693
_cell_angle_gamma   89.99889485
_symmetry_Int_Tables_number   1
_chemical_formula_structural   VO2
_chemical_formula_sum   'V4 O8'
_cell_volume   135.43671915
_cell_formula_units_Z   4
loop_
 _symmetry_equiv_pos_site_id
 _symmetry_equiv_pos_as_xyz
  1  'x, y, z'
loop_
 _atom_site_type_symbol
 _atom_site_label
 _atom_site_symmetry_multiplicity
 _atom_site_fract_x
 _atom_site_fract_y
 _atom_site_fract_z
 _atom_site_occupancy
  V  V0  1  0.69658928  0.27924042  0.39305361  1
  V  V1  1  0.30341072  0.72075958  0.60694639  1
  V  V2  1  0.60061911  0.69849415  0.20044071  1
  V  V3  1  0.39938089  0.30150585  0.79955929  1
  O  O4  1  0.63782558  0.00772776  0.27539202  1
  O  O5  1  0.36217442  0.99227224  0.72460698  1
  O  O6  1  0.76759191  0.65420551  0.53524000  1
  O  O7  1  0.23240809  0.34579449  0.46476000  1
  O  O8  1  0.55937020  0.36931303  0.11874008  1
  O  O9  1  0.44062980  0.63068697  0.88125992  1
  O  O10  1  0.86530367  0.29523549  0.73105583  1
  O  O11  1  0.13469633  0.70476451  0.26894417  1
