# generated using pymatgen
data_S3(NO7)2
_symmetry_space_group_name_H-M   'P 1'
_cell_length_a   10.33343342
_cell_length_b   10.33343342
_cell_length_c   7.50218364
_cell_angle_alpha   79.21482550
_cell_angle_beta   79.21482550
_cell_angle_gamma   40.20067118
_symmetry_Int_Tables_number   1
_chemical_formula_structural   S3(NO7)2
_chemical_formula_sum   'S6 N4 O28'
_cell_volume   506.70229170
_cell_formula_units_Z   2
loop_
 _symmetry_equiv_pos_site_id
 _symmetry_equiv_pos_as_xyz
  1  'x, y, z'
loop_
 _atom_site_type_symbol
 _atom_site_label
 _atom_site_symmetry_multiplicity
 _atom_site_fract_x
 _atom_site_fract_y
 _atom_site_fract_z
 _atom_site_occupancy
  S  S0  1  0.72570048  0.27438209  0.76239531  1
  S  S1  1  0.27438209  0.72570048  0.26239531  1
  S  S2  1  0.82512530  0.46759235  0.61951747  1
  S  S3  1  0.46759235  0.82512530  0.11951747  1
  S  S4  1  0.53279514  0.17446230  0.77210192  1
  S  S5  1  0.17446230  0.53279514  0.27210192  1
  N  N6  1  0.30792079  0.99559091  0.62326440  1
  N  N7  1  0.99559091  0.30792079  0.12326440  1
  N  N8  1  0.00469961  0.69171908  0.77575713  1
  N  N9  1  0.69171908  0.00469961  0.27575713  1
  O  O10  1  0.65460577  0.46804832  0.66378269  1
  O  O11  1  0.46804832  0.65460577  0.16378269  1
  O  O12  1  0.53212068  0.34513067  0.72733604  1
  O  O13  1  0.34513067  0.53212068  0.22733604  1
  O  O14  1  0.68636129  0.67992164  0.59945654  1
  O  O15  1  0.67992164  0.68636129  0.09945654  1
  O  O16  1  0.32049102  0.31302831  0.79184034  1
  O  O17  1  0.31302831  0.32049102  0.29184034  1
  O  O18  1  0.93981856  0.36092447  0.45767986  1
  O  O19  1  0.36092447  0.93981856  0.95767986  1
  O  O20  1  0.63689831  0.06112351  0.61338568  1
  O  O21  1  0.06112351  0.63689831  0.11338568  1
  O  O22  1  0.94034049  0.36196915  0.77756508  1
  O  O23  1  0.36196915  0.94034049  0.27756508  1
  O  O24  1  0.64104025  0.05801949  0.93341678  1
  O  O25  1  0.05801949  0.64104025  0.43341678  1
  O  O26  1  0.73184348  0.26842775  0.95094122  1
  O  O27  1  0.26842775  0.73184348  0.45094122  1
  O  O28  1  0.89618123  0.10386713  0.66281129  1
  O  O29  1  0.10386713  0.89618123  0.16281129  1
  O  O30  1  0.27083582  0.91505857  0.65605224  1
  O  O31  1  0.91505857  0.27083582  0.15605224  1
  O  O32  1  0.08531657  0.72864413  0.75091408  1
  O  O33  1  0.72864413  0.08531657  0.25091408  1
  O  O34  1  0.33739565  0.08304579  0.58916190  1
  O  O35  1  0.08304579  0.33739565  0.08916190  1
  O  O36  1  0.91730794  0.66224600  0.79962003  1
  O  O37  1  0.66224600  0.91730794  0.29962003  1
