# generated using pymatgen
data_Sr3MoN4
_symmetry_space_group_name_H-M   'P 1'
_cell_length_a   10.32093579
_cell_length_b   10.32093579
_cell_length_c   9.90886718
_cell_angle_alpha   83.12235285
_cell_angle_beta   83.12235285
_cell_angle_gamma   60.01020590
_symmetry_Int_Tables_number   1
_chemical_formula_structural   Sr3MoN4
_chemical_formula_sum   'Sr18 Mo6 N24'
_cell_volume   905.40932951
_cell_formula_units_Z   6
loop_
 _symmetry_equiv_pos_site_id
 _symmetry_equiv_pos_as_xyz
  1  'x, y, z'
loop_
 _atom_site_type_symbol
 _atom_site_label
 _atom_site_symmetry_multiplicity
 _atom_site_fract_x
 _atom_site_fract_y
 _atom_site_fract_z
 _atom_site_occupancy
  Sr  Sr0  1  0.72029076  0.65082454  0.70153495  1
  Sr  Sr1  1  0.68310526  0.36113402  0.91230173  1
  Sr  Sr2  1  0.38793816  0.91951858  0.90001382  1
  Sr  Sr3  1  0.27970924  0.34917546  0.29846505  1
  Sr  Sr4  1  0.34917546  0.27970924  0.79846505  1
  Sr  Sr5  1  0.63886598  0.31689474  0.58769827  1
  Sr  Sr6  1  0.65082454  0.72029076  0.20153495  1
  Sr  Sr7  1  0.61206184  0.08048142  0.09998618  1
  Sr  Sr8  1  0.95016294  0.69497141  0.95436013  1
  Sr  Sr9  1  0.98663278  0.01336722  0.25000000  1
  Sr  Sr10  1  0.31689474  0.63886598  0.08769827  1
  Sr  Sr11  1  0.01336722  0.98663278  0.75000000  1
  Sr  Sr12  1  0.69497141  0.95016294  0.45436013  1
  Sr  Sr13  1  0.36113402  0.68310526  0.41230173  1
  Sr  Sr14  1  0.04983706  0.30502859  0.04563987  1
  Sr  Sr15  1  0.91951858  0.38793816  0.40001382  1
  Sr  Sr16  1  0.08048142  0.61206184  0.59998618  1
  Sr  Sr17  1  0.30502859  0.04983706  0.54563987  1
  Mo  Mo18  1  0.02745722  0.32401105  0.71189998  1
  Mo  Mo19  1  0.32401105  0.02745722  0.21189998  1
  Mo  Mo20  1  0.66551205  0.33448795  0.25000000  1
  Mo  Mo21  1  0.33448795  0.66551205  0.75000000  1
  Mo  Mo22  1  0.97254278  0.67598895  0.28810002  1
  Mo  Mo23  1  0.67598895  0.97254278  0.78810002  1
  N  N24  1  0.15569703  0.64877304  0.33607303  1
  N  N25  1  0.01310409  0.51800582  0.18385845  1
  N  N26  1  0.17162425  0.72663393  0.87701959  1
  N  N27  1  0.85543082  0.66543848  0.44278770  1
  N  N28  1  0.82837575  0.27336607  0.12298041  1
  N  N29  1  0.98689591  0.48199418  0.81614155  1
  N  N30  1  0.85742312  0.86334448  0.69177856  1
  N  N31  1  0.36846082  0.50211386  0.65620946  1
  N  N32  1  0.51800582  0.01310409  0.68385845  1
  N  N33  1  0.50211386  0.36846082  0.15620946  1
  N  N34  1  0.35122696  0.84430297  0.16392697  1
  N  N35  1  0.27336607  0.82837575  0.62298041  1
  N  N36  1  0.49788614  0.63153918  0.84379054  1
  N  N37  1  0.14456918  0.33456152  0.55721230  1
  N  N38  1  0.64877304  0.15569703  0.83607303  1
  N  N39  1  0.14257688  0.13665552  0.30822144  1
  N  N40  1  0.66543848  0.85543082  0.94278770  1
  N  N41  1  0.63153918  0.49788614  0.34379054  1
  N  N42  1  0.86334448  0.85742312  0.19177856  1
  N  N43  1  0.48199418  0.98689591  0.31614155  1
  N  N44  1  0.13665552  0.14257688  0.80822144  1
  N  N45  1  0.33456152  0.14456918  0.05721230  1
  N  N46  1  0.84430297  0.35122696  0.66392697  1
  N  N47  1  0.72663393  0.17162425  0.37701959  1
