# generated using pymatgen
data_TlBi(PSe3)2
_symmetry_space_group_name_H-M   'P 1'
_cell_length_a   7.63106253
_cell_length_b   12.54678953
_cell_length_c   23.20138840
_cell_angle_alpha   97.47985430
_cell_angle_beta   90.00000000
_cell_angle_gamma   90.00000000
_symmetry_Int_Tables_number   1
_chemical_formula_structural   TlBi(PSe3)2
_chemical_formula_sum   'Tl8 Bi8 P16 Se48'
_cell_volume   2202.52193332
_cell_formula_units_Z   8
loop_
 _symmetry_equiv_pos_site_id
 _symmetry_equiv_pos_as_xyz
  1  'x, y, z'
loop_
 _atom_site_type_symbol
 _atom_site_label
 _atom_site_symmetry_multiplicity
 _atom_site_fract_x
 _atom_site_fract_y
 _atom_site_fract_z
 _atom_site_occupancy
  Tl  Tl0  1  0.58143226  0.65741866  0.57685093  1
  Tl  Tl1  1  0.41856774  0.34258134  0.42314907  1
  Tl  Tl2  1  0.91856774  0.65741866  0.07685093  1
  Tl  Tl3  1  0.08143226  0.34258134  0.92314907  1
  Tl  Tl4  1  0.09453551  0.58280616  0.67457162  1
  Tl  Tl5  1  0.59453551  0.41719384  0.82542838  1
  Tl  Tl6  1  0.90546449  0.41719384  0.32542838  1
  Tl  Tl7  1  0.40546449  0.58280616  0.17457162  1
  Bi  Bi8  1  0.15131953  0.79628653  0.41937322  1
  Bi  Bi9  1  0.84903645  0.94142273  0.82826852  1
  Bi  Bi10  1  0.65096355  0.94142273  0.32826852  1
  Bi  Bi11  1  0.65131953  0.20371347  0.08062678  1
  Bi  Bi12  1  0.34868047  0.79628653  0.91937322  1
  Bi  Bi13  1  0.34903645  0.05857727  0.67173148  1
  Bi  Bi14  1  0.15096355  0.05857727  0.17173148  1
  Bi  Bi15  1  0.84868047  0.20371347  0.58062678  1
  P  P16  1  0.09543012  0.60018671  0.84737405  1
  P  P17  1  0.90456988  0.39981329  0.15262595  1
  P  P18  1  0.12232169  0.33422482  0.09321845  1
  P  P19  1  0.87417208  0.92051371  0.65562341  1
  P  P20  1  0.90555437  0.13924305  0.40392683  1
  P  P21  1  0.40555437  0.86075695  0.09607317  1
  P  P22  1  0.59543012  0.39981329  0.65262595  1
  P  P23  1  0.87767831  0.66577518  0.90678155  1
  P  P24  1  0.62582792  0.92051371  0.15562341  1
  P  P25  1  0.37417208  0.07948629  0.84437659  1
  P  P26  1  0.12582792  0.07948629  0.34437659  1
  P  P27  1  0.62232169  0.66577518  0.40678155  1
  P  P28  1  0.59444563  0.13924305  0.90392683  1
  P  P29  1  0.40456988  0.60018671  0.34737405  1
  P  P30  1  0.09444563  0.86075695  0.59607317  1
  P  P31  1  0.37767831  0.33422482  0.59321845  1
  Se  Se32  1  0.49276161  0.26848751  0.96582755  1
  Se  Se33  1  0.00604317  0.46413179  0.79026619  1
  Se  Se34  1  0.31160088  0.27280481  0.15317604  1
  Se  Se35  1  0.50242362  0.04944153  0.21802730  1
  Se  Se36  1  0.99757638  0.04944153  0.71802730  1
  Se  Se37  1  0.49754767  0.20272898  0.53255050  1
  Se  Se38  1  0.99276161  0.73151249  0.53417245  1
  Se  Se39  1  0.68984436  0.99579370  0.94052158  1
  Se  Se40  1  0.71807726  0.78989318  0.19996004  1
  Se  Se41  1  0.31794377  0.01644244  0.40207375  1
  Se  Se42  1  0.50604317  0.53586821  0.70973381  1
  Se  Se43  1  0.28192274  0.21010682  0.80003996  1
  Se  Se44  1  0.79921005  0.17971450  0.84462251  1
  Se  Se45  1  0.81214371  0.25812305  0.19220941  1
  Se  Se46  1  0.72979918  0.53686571  0.44876117  1
  Se  Se47  1  0.81794477  0.98355756  0.09792625  1
  Se  Se48  1  0.78192274  0.78989318  0.69996004  1
  Se  Se49  1  0.81015564  0.99579370  0.44052158  1
  Se  Se50  1  0.21807726  0.21010682  0.30003996  1
  Se  Se51  1  0.18984436  0.00420630  0.55947842  1
  Se  Se52  1  0.68205523  0.98355756  0.59792625  1
  Se  Se53  1  0.30406750  0.56761444  0.90852000  1
  Se  Se54  1  0.19593250  0.56761444  0.40852000  1
  Se  Se55  1  0.69593250  0.43238556  0.09148000  1
  Se  Se56  1  0.31214371  0.74187695  0.30779059  1
  Se  Se57  1  0.20078995  0.82028550  0.15537749  1
  Se  Se58  1  0.18785629  0.74187695  0.80779059  1
  Se  Se59  1  0.50723839  0.73151249  0.03417245  1
  Se  Se60  1  0.29921005  0.82028550  0.65537749  1
  Se  Se61  1  0.68785629  0.25812305  0.69220941  1
  Se  Se62  1  0.80406750  0.43238556  0.59148000  1
  Se  Se63  1  0.77020082  0.53686571  0.94876117  1
  Se  Se64  1  0.31015564  0.00420630  0.05947842  1
  Se  Se65  1  0.49757638  0.95055847  0.78197270  1
  Se  Se66  1  0.00242362  0.95055847  0.28197270  1
  Se  Se67  1  0.49395683  0.46413179  0.29026619  1
  Se  Se68  1  0.00245233  0.20272898  0.03255050  1
  Se  Se69  1  0.70078995  0.17971450  0.34462251  1
  Se  Se70  1  0.99395683  0.53586821  0.20973381  1
  Se  Se71  1  0.50245233  0.79727102  0.46744950  1
  Se  Se72  1  0.99754767  0.79727102  0.96744950  1
  Se  Se73  1  0.18839912  0.27280481  0.65317604  1
  Se  Se74  1  0.81160088  0.72719519  0.34682396  1
  Se  Se75  1  0.27020082  0.46313429  0.55123883  1
  Se  Se76  1  0.00723839  0.26848751  0.46582755  1
  Se  Se77  1  0.68839912  0.72719519  0.84682396  1
  Se  Se78  1  0.18205523  0.01644244  0.90207375  1
  Se  Se79  1  0.22979918  0.46313429  0.05123883  1
