# generated using pymatgen
data_Na6Si8O19
_symmetry_space_group_name_H-M   'P 1'
_cell_length_a   23.76076100
_cell_length_b   4.96282500
_cell_length_c   15.58733954
_cell_angle_alpha   89.88473451
_cell_angle_beta   90.00000000
_cell_angle_gamma   90.00000000
_symmetry_Int_Tables_number   1
_chemical_formula_structural   Na6Si8O19
_chemical_formula_sum   'Na24 Si32 O76'
_cell_volume   1838.06313290
_cell_formula_units_Z   4
loop_
 _symmetry_equiv_pos_site_id
 _symmetry_equiv_pos_as_xyz
  1  'x, y, z'
loop_
 _atom_site_type_symbol
 _atom_site_label
 _atom_site_symmetry_multiplicity
 _atom_site_fract_x
 _atom_site_fract_y
 _atom_site_fract_z
 _atom_site_occupancy
  Na  Na0  1  0.77093800  0.26041100  0.50761200  1
  Na  Na1  1  0.51663200  0.76603000  0.57241800  1
  Na  Na2  1  0.95005700  0.26074200  0.47209200  1
  Na  Na3  1  0.59957700  0.23719900  0.60529500  1
  Na  Na4  1  0.36113300  0.26443100  0.04317100  1
  Na  Na5  1  0.01663200  0.23397000  0.92758200  1
  Na  Na6  1  0.45005700  0.73925800  0.02790800  1
  Na  Na7  1  0.27093800  0.73958900  0.99238800  1
  Na  Na8  1  0.18005800  0.26506100  0.96797100  1
  Na  Na9  1  0.54994300  0.26074200  0.97209200  1
  Na  Na10  1  0.09957700  0.76280100  0.89470500  1
  Na  Na11  1  0.72906200  0.26041100  0.00761200  1
  Na  Na12  1  0.40042300  0.76280100  0.39470500  1
  Na  Na13  1  0.13886700  0.26443100  0.54317100  1
  Na  Na14  1  0.04994300  0.73925800  0.52790800  1
  Na  Na15  1  0.90042300  0.23719900  0.10529500  1
  Na  Na16  1  0.48336800  0.23397000  0.42758200  1
  Na  Na17  1  0.81994200  0.73493900  0.03202900  1
  Na  Na18  1  0.22906200  0.73958900  0.49238800  1
  Na  Na19  1  0.31994200  0.26506100  0.46797100  1
  Na  Na20  1  0.68005800  0.73493900  0.53202900  1
  Na  Na21  1  0.98336800  0.76603000  0.07241800  1
  Na  Na22  1  0.63886700  0.73556900  0.95682900  1
  Na  Na23  1  0.86113300  0.73556900  0.45682900  1
  Si  Si24  1  0.71600000  0.29517700  0.25215200  1
  Si  Si25  1  0.19410400  0.20261100  0.36192300  1
  Si  Si26  1  0.60505100  0.69866100  0.73381300  1
  Si  Si27  1  0.28400000  0.70482300  0.74784800  1
  Si  Si28  1  0.36456100  0.80309900  0.58850900  1
  Si  Si29  1  0.50685800  0.78988200  0.85662800  1
  Si  Si30  1  0.99314200  0.78988200  0.35662800  1
  Si  Si31  1  0.43401000  0.29958600  0.82582600  1
  Si  Si32  1  0.93401000  0.70041400  0.67417400  1
  Si  Si33  1  0.93835500  0.69742900  0.87989200  1
  Si  Si34  1  0.06599000  0.29958600  0.32582600  1
  Si  Si35  1  0.34144900  0.80175800  0.17713100  1
  Si  Si36  1  0.63543900  0.19690100  0.41149100  1
  Si  Si37  1  0.00685800  0.21011800  0.64337200  1
  Si  Si38  1  0.49314200  0.21011800  0.14337200  1
  Si  Si39  1  0.30589600  0.20261100  0.86192300  1
  Si  Si40  1  0.06164500  0.30257100  0.12010800  1
  Si  Si41  1  0.69410400  0.79738900  0.13807700  1
  Si  Si42  1  0.10505100  0.30133900  0.76618700  1
  Si  Si43  1  0.43835500  0.30257100  0.62010800  1
  Si  Si44  1  0.56164500  0.69742900  0.37989200  1
  Si  Si45  1  0.39494900  0.30133900  0.26618700  1
  Si  Si46  1  0.65855100  0.19824200  0.82286900  1
  Si  Si47  1  0.13543900  0.80309900  0.08850900  1
  Si  Si48  1  0.15855100  0.80175800  0.67713100  1
  Si  Si49  1  0.86456100  0.19690100  0.91149100  1
  Si  Si50  1  0.84144900  0.19824200  0.32286900  1
  Si  Si51  1  0.56599000  0.70041400  0.17417400  1
  Si  Si52  1  0.80589600  0.79738900  0.63807700  1
  Si  Si53  1  0.78400000  0.29517700  0.75215200  1
  Si  Si54  1  0.89494900  0.69866100  0.23381300  1
  Si  Si55  1  0.21600000  0.70482300  0.24784800  1
  O  O56  1  0.82631100  0.26468100  0.99297300  1
  O  O57  1  0.92891800  0.72915600  0.77666400  1
  O  O58  1  0.48546900  0.10853300  0.85986500  1
  O  O59  1  0.04217100  0.26654400  0.55844800  1
  O  O60  1  0.14572900  0.12088800  0.70219400  1
  O  O61  1  0.67368900  0.26468100  0.49297300  1
  O  O62  1  0.03888600  0.26102400  0.73536800  1
  O  O63  1  0.77800600  0.72976600  0.54740300  1
  O  O64  1  0.57108200  0.72915600  0.27666400  1
  O  O65  1  0.98546900  0.89146700  0.64013500  1
  O  O66  1  0.66479800  0.22243600  0.31670000  1
  O  O67  1  0.39105500  0.24158400  0.36680800  1
  O  O68  1  0.72199400  0.72976600  0.04740300  1
  O  O69  1  0.12208900  0.62130000  0.74749300  1
  O  O70  1  0.57741400  0.38254600  0.40712500  1
  O  O71  1  0.42891800  0.27084400  0.72333600  1
  O  O72  1  0.22199400  0.27023400  0.45259700  1
  O  O73  1  0.14519200  0.74831200  0.57802700  1
  O  O74  1  0.37791100  0.62130000  0.24749300  1
  O  O75  1  0.32631100  0.73531900  0.50702700  1
  O  O76  1  0.28780400  0.39254100  0.77988200  1
  O  O77  1  0.16479800  0.77756400  0.18330000  1
  O  O78  1  0.44783300  0.60918800  0.85524900  1
  O  O79  1  0.42258600  0.61745400  0.59287500  1
  O  O80  1  0.35480800  0.74831200  0.07802700  1
  O  O81  1  0.07108200  0.27084400  0.22333600  1
  O  O82  1  0.46111400  0.26102400  0.23536800  1
  O  O83  1  0.72570200  0.24987900  0.80370100  1
  O  O84  1  0.37541300  0.21244500  0.87312500  1
  O  O85  1  0.28835800  0.89036000  0.83471600  1
  O  O86  1  0.17368900  0.73531900  0.00702700  1
  O  O87  1  0.33520200  0.77756400  0.68330000  1
  O  O88  1  0.88785700  0.88362200  0.92377600  1
  O  O89  1  0.71219600  0.60745900  0.22011800  1
  O  O90  1  0.53888600  0.73897600  0.76463200  1
  O  O91  1  0.00032500  0.23800700  0.08373800  1
  O  O92  1  0.60894500  0.75841600  0.63319200  1
  O  O93  1  0.62208900  0.37870000  0.75250700  1
  O  O94  1  0.22570200  0.75012100  0.69629900  1
  O  O95  1  0.64572900  0.87911200  0.79780600  1
  O  O96  1  0.87791100  0.37870000  0.25250700  1
  O  O97  1  0.61214300  0.88362200  0.42377600  1
  O  O98  1  0.99967500  0.76199300  0.91626200  1
  O  O99  1  0.49967500  0.23800700  0.58373800  1
  O  O100  1  0.27429800  0.75012100  0.19629900  1
  O  O101  1  0.85427100  0.87911200  0.29780600  1
  O  O102  1  0.05216700  0.60918800  0.35524900  1
  O  O103  1  0.27800600  0.27023400  0.95259700  1
  O  O104  1  0.11214300  0.11637800  0.07622400  1
  O  O105  1  0.21164200  0.89036000  0.33471600  1
  O  O106  1  0.83520200  0.22243600  0.81670000  1
  O  O107  1  0.54217100  0.73345600  0.94155200  1
  O  O108  1  0.92258600  0.38254600  0.90712500  1
  O  O109  1  0.35427100  0.12088800  0.20219400  1
  O  O110  1  0.89105500  0.75841600  0.13319200  1
  O  O111  1  0.01453100  0.10853300  0.35986500  1
  O  O112  1  0.85480800  0.25168800  0.42197300  1
  O  O113  1  0.78835800  0.10964000  0.66528400  1
  O  O114  1  0.12458700  0.21244500  0.37312500  1
  O  O115  1  0.21219600  0.39254100  0.27988200  1
  O  O116  1  0.87541300  0.78755500  0.62687500  1
  O  O117  1  0.62458700  0.78755500  0.12687500  1
  O  O118  1  0.45782900  0.26654400  0.05844800  1
  O  O119  1  0.95782900  0.73345600  0.44155200  1
  O  O120  1  0.64519200  0.25168800  0.92197300  1
  O  O121  1  0.50032500  0.76199300  0.41626200  1
  O  O122  1  0.77429800  0.24987900  0.30370100  1
  O  O123  1  0.55216700  0.39081200  0.14475100  1
  O  O124  1  0.10894500  0.24158400  0.86680800  1
  O  O125  1  0.38785700  0.11637800  0.57622400  1
  O  O126  1  0.51453100  0.89146700  0.14013500  1
  O  O127  1  0.71164200  0.10964000  0.16528400  1
  O  O128  1  0.78780400  0.60745900  0.72011800  1
  O  O129  1  0.94783300  0.39081200  0.64475100  1
  O  O130  1  0.07741400  0.61745400  0.09287500  1
  O  O131  1  0.96111400  0.73897600  0.26463200  1
