# generated using pymatgen
data_Ba(Si3N4)2
_symmetry_space_group_name_H-M   'P 1'
_cell_length_a   4.84255204
_cell_length_b   6.59949978
_cell_length_c   6.59949910
_cell_angle_alpha   73.98558991
_cell_angle_beta   68.47618219
_cell_angle_gamma   68.47618883
_symmetry_Int_Tables_number   1
_chemical_formula_structural   Ba(Si3N4)2
_chemical_formula_sum   'Ba1 Si6 N8'
_cell_volume   180.07127826
_cell_formula_units_Z   1
loop_
 _symmetry_equiv_pos_site_id
 _symmetry_equiv_pos_as_xyz
  1  'x, y, z'
loop_
 _atom_site_type_symbol
 _atom_site_label
 _atom_site_symmetry_multiplicity
 _atom_site_fract_x
 _atom_site_fract_y
 _atom_site_fract_z
 _atom_site_occupancy
  Ba  Ba0  1  0.16672363  -0.00000000  -0.00000000  1
  Si  Si1  1  0.81268493  0.54008351  0.13811836  1
  Si  Si2  1  0.49088680  0.45991649  0.86188164  1
  Si  Si3  1  0.49088680  0.86188164  0.45991649  1
  Si  Si4  1  0.81268493  0.13811836  0.54008351  1
  Si  Si5  1  0.01851674  0.62853786  0.62853786  1
  Si  Si6  1  0.27559147  0.37146214  0.37146214  1
  N  N7  1  0.98433137  0.31773284  0.31773284  1
  N  N8  1  0.50238540  0.11870263  0.47746912  1
  N  N9  1  0.09855714  0.88129737  0.52253088  1
  N  N10  1  0.70735660  0.78397066  0.21602934  1
  N  N11  1  0.50238540  0.47746912  0.11870263  1
  N  N12  1  0.09855714  0.52253088  0.88129737  1
  N  N13  1  0.70735660  0.21602934  0.78397066  1
  N  N14  1  0.61979605  0.68226716  0.68226716  1
