# generated using pymatgen
data_WO3
_symmetry_space_group_name_H-M   'P 1'
_cell_length_a   7.58914586
_cell_length_b   7.58914586
_cell_length_c   3.88593452
_cell_angle_alpha   90.00000000
_cell_angle_beta   90.00000000
_cell_angle_gamma   90.00000000
_symmetry_Int_Tables_number   1
_chemical_formula_structural   WO3
_chemical_formula_sum   'W4 O12'
_cell_volume   223.81092283
_cell_formula_units_Z   4
loop_
 _symmetry_equiv_pos_site_id
 _symmetry_equiv_pos_as_xyz
  1  'x, y, z'
loop_
 _atom_site_type_symbol
 _atom_site_label
 _atom_site_symmetry_multiplicity
 _atom_site_fract_x
 _atom_site_fract_y
 _atom_site_fract_z
 _atom_site_occupancy
  W  W0  1  0.73259959  0.23259959  0.05514139  1
  W  W1  1  0.26740041  0.76740041  0.05514139  1
  W  W2  1  0.76740041  0.73259959  0.94485861  1
  W  W3  1  0.23259959  0.26740041  0.94485861  1
  O  O4  1  0.74529798  0.24529798  0.51098840  1
  O  O5  1  0.24529798  0.25470202  0.48901160  1
  O  O6  1  0.25470202  0.75470202  0.51098840  1
  O  O7  1  0.75470202  0.74529798  0.48901160  1
  O  O8  1  0.25079638  0.00514185  0.00479230  1
  O  O9  1  0.24920362  0.50514185  0.99520770  1
  O  O10  1  0.99485815  0.25079638  0.99520770  1
  O  O11  1  0.74920362  0.99485815  0.00479230  1
  O  O12  1  0.00514185  0.74920362  0.99520770  1
  O  O13  1  0.49485815  0.24920362  0.00479230  1
  O  O14  1  0.50514185  0.75079638  0.00479230  1
  O  O15  1  0.75079638  0.49485815  0.99520770  1
