# generated using pymatgen
data_RbCO2
_symmetry_space_group_name_H-M   'P 1'
_cell_length_a   10.39254054
_cell_length_b   6.27530399
_cell_length_c   8.24016757
_cell_angle_alpha   81.47197990
_cell_angle_beta   90.00000000
_cell_angle_gamma   90.00000000
_symmetry_Int_Tables_number   1
_chemical_formula_structural   RbCO2
_chemical_formula_sum   'Rb8 C8 O16'
_cell_volume   531.45194650
_cell_formula_units_Z   8
loop_
 _symmetry_equiv_pos_site_id
 _symmetry_equiv_pos_as_xyz
  1  'x, y, z'
loop_
 _atom_site_type_symbol
 _atom_site_label
 _atom_site_symmetry_multiplicity
 _atom_site_fract_x
 _atom_site_fract_y
 _atom_site_fract_z
 _atom_site_occupancy
  Rb  Rb0  1  0.58541630  0.76882555  0.33715786  1
  Rb  Rb1  1  0.70249054  0.28542301  0.02035256  1
  Rb  Rb2  1  0.91458370  0.76882555  0.83715786  1
  Rb  Rb3  1  0.08541630  0.23117445  0.16284214  1
  Rb  Rb4  1  0.20249054  0.71457699  0.47964744  1
  Rb  Rb5  1  0.41458370  0.23117445  0.66284214  1
  Rb  Rb6  1  0.29750946  0.71457699  0.97964744  1
  Rb  Rb7  1  0.79750946  0.28542301  0.52035256  1
  C  C8  1  0.10811638  0.16771661  0.65734196  1
  C  C9  1  0.44458307  0.31315288  0.27437664  1
  C  C10  1  0.55541693  0.68684712  0.72562336  1
  C  C11  1  0.60811638  0.83228339  0.84265804  1
  C  C12  1  0.89188362  0.83228339  0.34265804  1
  C  C13  1  0.94458307  0.68684712  0.22562336  1
  C  C14  1  0.05541693  0.31315288  0.77437664  1
  C  C15  1  0.39188362  0.16771661  0.15734196  1
  O  O16  1  0.44430143  0.72948828  0.66553818  1
  O  O17  1  0.55569857  0.27051172  0.33446182  1
  O  O18  1  0.12843459  0.46278033  0.80618094  1
  O  O19  1  0.15924035  0.99385437  0.72539339  1
  O  O20  1  0.37156541  0.46278033  0.30618094  1
  O  O21  1  0.09968239  0.23197635  0.50510366  1
  O  O22  1  0.34075965  0.99385437  0.22539339  1
  O  O23  1  0.84075965  0.00614563  0.27460661  1
  O  O24  1  0.59968239  0.76802365  0.99489634  1
  O  O25  1  0.90031761  0.76802365  0.49489634  1
  O  O26  1  0.62843459  0.53721967  0.69381906  1
  O  O27  1  0.65924035  0.00614563  0.77460661  1
  O  O28  1  0.87156541  0.53721967  0.19381906  1
  O  O29  1  0.94430143  0.27051172  0.83446182  1
  O  O30  1  0.05569857  0.72948828  0.16553818  1
  O  O31  1  0.40031761  0.23197635  0.00510366  1
