# generated using pymatgen
data_ZnS
_symmetry_space_group_name_H-M   'P 1'
_cell_length_a   3.81085834
_cell_length_b   3.81085908
_cell_length_c   56.05671950
_cell_angle_alpha   90.00000842
_cell_angle_beta   89.99999335
_cell_angle_gamma   119.99893340
_symmetry_Int_Tables_number   1
_chemical_formula_structural   ZnS
_chemical_formula_sum   'Zn18 S18'
_cell_volume   705.03174618
_cell_formula_units_Z   18
loop_
 _symmetry_equiv_pos_site_id
 _symmetry_equiv_pos_as_xyz
  1  'x, y, z'
loop_
 _atom_site_type_symbol
 _atom_site_label
 _atom_site_symmetry_multiplicity
 _atom_site_fract_x
 _atom_site_fract_y
 _atom_site_fract_z
 _atom_site_occupancy
  Zn  Zn0  1  -0.00000417  1.00000417  0.16668898  1
  Zn  Zn1  1  -0.00000386  1.00000386  0.55553863  1
  Zn  Zn2  1  0.66667245  0.33332755  0.27771895  1
  Zn  Zn3  1  0.66666249  0.33333751  0.72225714  1
  Zn  Zn4  1  -0.00000503  1.00000503  0.77778922  1
  Zn  Zn5  1  1.00000253  -0.00000253  0.44443896  1
  Zn  Zn6  1  0.00000182  0.99999818  0.66670245  1
  Zn  Zn7  1  0.33333485  0.66666515  0.05558875  1
  Zn  Zn8  1  0.33333294  0.66666706  0.61107247  1
  Zn  Zn9  1  0.66666394  0.33333606  0.11107354  1
  Zn  Zn10  1  0.33333536  0.66666464  0.22222931  1
  Zn  Zn11  1  0.66666364  0.33333636  0.94441800  1
  Zn  Zn12  1  0.33333360  0.66666640  0.38889833  1
  Zn  Zn13  1  -0.00000430  1.00000430  0.33331371  1
  Zn  Zn14  1  0.33333386  0.66666614  0.83336366  1
  Zn  Zn15  1  -0.00000447  1.00000447  0.00008533  1
  Zn  Zn16  1  0.66666257  0.33333743  0.50001109  1
  Zn  Zn17  1  1.00001016  -0.00001016  0.88888469  1
  S  S18  1  0.33333139  0.66666861  0.43058611  1
  S  S19  1  -0.00000093  1.00000093  0.04170520  1
  S  S20  1  0.00000227  0.99999773  0.59717429  1
  S  S21  1  0.66666740  0.33333260  0.15276591  1
  S  S22  1  0.66666656  0.33333344  0.76394044  1
  S  S23  1  0.33333335  0.66666665  0.09722642  1
  S  S24  1  0.66666681  0.33333319  0.98615736  1
  S  S25  1  0.99999526  0.00000474  0.70830784  1
  S  S26  1  0.00000115  0.99999885  0.81941124  1
  S  S27  1  0.00000249  0.99999751  0.37494323  1
  S  S28  1  0.66667090  0.33332910  0.31940696  1
  S  S29  1  0.33333286  0.66666714  0.65280346  1
  S  S30  1  0.99999652  0.00000348  0.93052005  1
  S  S31  1  0.99999519  0.00000481  0.48606422  1
  S  S32  1  0.33334606  0.66665394  0.26387124  1
  S  S33  1  0.66666709  0.33333291  0.54169581  1
  S  S34  1  0.00000357  0.99999643  0.20833242  1
  S  S35  1  0.33333368  0.66666632  0.87504359  1
