# generated using pymatgen
data_Cs2Te2O5
_symmetry_space_group_name_H-M   'P 1'
_cell_length_a   10.83725523
_cell_length_b   12.02865129
_cell_length_c   12.04811422
_cell_angle_alpha   90.00000000
_cell_angle_beta   90.00000000
_cell_angle_gamma   90.00000000
_symmetry_Int_Tables_number   1
_chemical_formula_structural   Cs2Te2O5
_chemical_formula_sum   'Cs16 Te16 O40'
_cell_volume   1570.56282175
_cell_formula_units_Z   8
loop_
 _symmetry_equiv_pos_site_id
 _symmetry_equiv_pos_as_xyz
  1  'x, y, z'
loop_
 _atom_site_type_symbol
 _atom_site_label
 _atom_site_symmetry_multiplicity
 _atom_site_fract_x
 _atom_site_fract_y
 _atom_site_fract_z
 _atom_site_occupancy
  Cs  Cs0  1  0.24839565  0.24683512  0.75245806  1
  Cs  Cs1  1  0.78143210  0.00497051  0.00433197  1
  Cs  Cs2  1  0.24839565  0.74683512  0.74754194  1
  Cs  Cs3  1  0.71856790  0.00497051  0.50433197  1
  Cs  Cs4  1  0.75160435  0.25316488  0.25245806  1
  Cs  Cs5  1  0.25160435  0.74683512  0.24754194  1
  Cs  Cs6  1  0.25160435  0.24683512  0.25245806  1
  Cs  Cs7  1  0.28143210  0.99502949  0.49566803  1
  Cs  Cs8  1  0.74839565  0.75316488  0.74754194  1
  Cs  Cs9  1  0.71856790  0.50497051  0.99566803  1
  Cs  Cs10  1  0.21856790  0.49502949  0.50433197  1
  Cs  Cs11  1  0.78143210  0.50497051  0.49566803  1
  Cs  Cs12  1  0.74839565  0.25316488  0.75245806  1
  Cs  Cs13  1  0.21856790  0.99502949  0.99566803  1
  Cs  Cs14  1  0.75160435  0.75316488  0.24754194  1
  Cs  Cs15  1  0.28143210  0.49502949  0.00433197  1
  Te  Te16  1  0.50011771  0.99058532  0.75935378  1
  Te  Te17  1  0.00361216  0.74035692  0.98825245  1
  Te  Te18  1  0.49638784  0.74035692  0.48825245  1
  Te  Te19  1  0.00011771  0.00941468  0.74064622  1
  Te  Te20  1  0.49988229  0.50941468  0.25935378  1
  Te  Te21  1  0.50011771  0.49058532  0.74064622  1
  Te  Te22  1  0.00361216  0.24035692  0.51174755  1
  Te  Te23  1  0.99638784  0.75964308  0.48825245  1
  Te  Te24  1  -0.00011771  0.49058532  0.24064622  1
  Te  Te25  1  0.50361216  0.25964308  0.51174755  1
  Te  Te26  1  0.99638784  0.25964308  0.01174755  1
  Te  Te27  1  0.49638784  0.24035692  0.01174755  1
  Te  Te28  1  0.50361216  0.75964308  0.98825245  1
  Te  Te29  1  0.49988229  0.00941468  0.24064622  1
  Te  Te30  1  0.00011771  0.50941468  0.75935378  1
  Te  Te31  1  -0.00011771  0.99058532  0.25935378  1
  O  O32  1  0.66814960  0.00632562  0.76936971  1
  O  O33  1  0.47216549  0.88722177  0.88695324  1
  O  O34  1  0.01128501  0.38556404  0.35247374  1
  O  O35  1  0.98871499  0.61443596  0.64752626  1
  O  O36  1  0.33185040  0.49367438  0.26936971  1
  O  O37  1  0.17215222  0.73027136  -0.00159013  1
  O  O38  1  0.48871499  0.38556404  0.85247374  1
  O  O39  1  0.83185040  0.00632562  0.26936971  1
  O  O40  1  0.98619937  0.85293608  0.88436820  1
  O  O41  1  0.32784778  0.73027136  0.49840987  1
  O  O42  1  0.82784778  0.26972864  0.00159013  1
  O  O43  1  0.02783451  0.38722177  0.11304676  1
  O  O44  1  0.97216549  0.11277823  0.61304676  1
  O  O45  1  0.48619937  0.14706392  0.61563180  1
  O  O46  1  0.83185040  0.50632562  0.23063029  1
  O  O47  1  0.48619937  0.64706392  0.88436820  1
  O  O48  1  0.66814960  0.50632562  0.73063029  1
  O  O49  1  0.82784778  0.76972864  0.49840987  1
  O  O50  1  0.16814960  0.49367438  0.76936971  1
  O  O51  1  0.01380063  0.14706392  0.11563180  1
  O  O52  1  0.51380063  0.35293608  0.11563180  1
  O  O53  1  0.67215222  0.26972864  0.50159013  1
  O  O54  1  0.98619937  0.35293608  0.61563180  1
  O  O55  1  0.51128501  0.11443596  0.35247374  1
  O  O56  1  0.52783451  0.11277823  0.11304676  1
  O  O57  1  0.98871499  0.11443596  0.85247374  1
  O  O58  1  0.01128501  0.88556404  0.14752626  1
  O  O59  1  0.16814960  0.99367438  0.73063029  1
  O  O60  1  0.01380063  0.64706392  0.38436820  1
  O  O61  1  0.48871499  0.88556404  0.64752626  1
  O  O62  1  0.51380063  0.85293608  0.38436820  1
  O  O63  1  0.33185040  0.99367438  0.23063029  1
  O  O64  1  0.52783451  0.61277823  0.38695324  1
  O  O65  1  0.51128501  0.61443596  0.14752626  1
  O  O66  1  0.17215222  0.23027136  0.50159013  1
  O  O67  1  0.32784778  0.23027136  0.00159013  1
  O  O68  1  0.67215222  0.76972864  -0.00159013  1
  O  O69  1  0.97216549  0.61277823  0.88695324  1
  O  O70  1  0.02783451  0.88722177  0.38695324  1
  O  O71  1  0.47216549  0.38722177  0.61304676  1
