# generated using pymatgen
data_YSeO3F
_symmetry_space_group_name_H-M   'P 1'
_cell_length_a   6.58033106
_cell_length_b   6.87400370
_cell_length_c   7.16291824
_cell_angle_alpha   90.00000000
_cell_angle_beta   99.16271598
_cell_angle_gamma   90.00000000
_symmetry_Int_Tables_number   1
_chemical_formula_structural   YSeO3F
_chemical_formula_sum   'Y4 Se4 O12 F4'
_cell_volume   319.86762440
_cell_formula_units_Z   4
loop_
 _symmetry_equiv_pos_site_id
 _symmetry_equiv_pos_as_xyz
  1  'x, y, z'
loop_
 _atom_site_type_symbol
 _atom_site_label
 _atom_site_symmetry_multiplicity
 _atom_site_fract_x
 _atom_site_fract_y
 _atom_site_fract_z
 _atom_site_occupancy
  Y  Y0  1  0.85970567  0.64021366  0.67551074  1
  Y  Y1  1  0.14029433  0.14021366  0.82448926  1
  Y  Y2  1  0.14029433  0.35978634  0.32448926  1
  Y  Y3  1  0.85970567  0.85978634  0.17551074  1
  Se  Se4  1  0.35375454  0.88219214  0.29069270  1
  Se  Se5  1  0.64624546  0.11780786  0.70930730  1
  Se  Se6  1  0.35375454  0.61780786  0.79069270  1
  Se  Se7  1  0.64624546  0.38219214  0.20930730  1
  O  O8  1  0.82400935  0.96666530  0.85078303  1
  O  O9  1  0.48803278  0.31328238  0.36133468  1
  O  O10  1  0.17599065  0.03333470  0.14921697  1
  O  O11  1  0.82244823  0.30442532  0.71837566  1
  O  O12  1  0.17755177  0.80442532  0.78162434  1
  O  O13  1  0.51196722  0.81328238  0.13866532  1
  O  O14  1  0.82400935  0.53333470  0.35078303  1
  O  O15  1  0.17755177  0.69557468  0.28162434  1
  O  O16  1  0.17599065  0.46666530  0.64921697  1
  O  O17  1  0.51196722  0.68671762  0.63866532  1
  O  O18  1  0.82244823  0.19557468  0.21837566  1
  O  O19  1  0.48803278  0.18671762  0.86133468  1
  F  F20  1  0.16791230  0.11359753  0.52410955  1
  F  F21  1  0.16791230  0.38640247  0.02410955  1
  F  F22  1  0.83208770  0.61359753  0.97589045  1
  F  F23  1  0.83208770  0.88640247  0.47589045  1
