# generated using pymatgen
data_K2PbO3
_symmetry_space_group_name_H-M   'P 1'
_cell_length_a   6.02353639
_cell_length_b   6.96996876
_cell_length_c   10.57764246
_cell_angle_alpha   90.00000000
_cell_angle_beta   90.00000000
_cell_angle_gamma   90.00000000
_symmetry_Int_Tables_number   1
_chemical_formula_structural   K2PbO3
_chemical_formula_sum   'K8 Pb4 O12'
_cell_volume   444.09026507
_cell_formula_units_Z   4
loop_
 _symmetry_equiv_pos_site_id
 _symmetry_equiv_pos_as_xyz
  1  'x, y, z'
loop_
 _atom_site_type_symbol
 _atom_site_label
 _atom_site_symmetry_multiplicity
 _atom_site_fract_x
 _atom_site_fract_y
 _atom_site_fract_z
 _atom_site_occupancy
  K  K0  1  0.76845731  0.38799934  0.08581365  1
  K  K1  1  0.26845731  0.11200066  0.41418635  1
  K  K2  1  0.73154269  0.88799934  0.91418635  1
  K  K3  1  0.23154269  0.61200066  0.58581365  1
  K  K4  1  0.23154269  0.61200066  0.91418635  1
  K  K5  1  0.73154269  0.88799934  0.58581365  1
  K  K6  1  0.26845731  0.11200066  0.08581365  1
  K  K7  1  0.76845731  0.38799934  0.41418635  1
  Pb  Pb8  1  0.73222509  0.84914058  0.25000000  1
  Pb  Pb9  1  0.23222509  0.65085942  0.25000000  1
  Pb  Pb10  1  0.76777491  0.34914058  0.75000000  1
  Pb  Pb11  1  0.26777491  0.15085942  0.75000000  1
  O  O12  1  0.99472295  0.78157345  0.11542240  1
  O  O13  1  0.49472295  0.71842655  0.38457760  1
  O  O14  1  0.50527705  0.28157345  0.88457760  1
  O  O15  1  0.00527705  0.21842655  0.61542240  1
  O  O16  1  0.00527705  0.21842655  0.88457760  1
  O  O17  1  0.50527705  0.28157345  0.61542240  1
  O  O18  1  0.49472295  0.71842655  0.11542240  1
  O  O19  1  0.99472295  0.78157345  0.38457760  1
  O  O20  1  0.12596670  0.37381503  0.25000000  1
  O  O21  1  0.62596670  0.12618497  0.25000000  1
  O  O22  1  0.37403330  0.87381503  0.75000000  1
  O  O23  1  0.87403330  0.62618497  0.75000000  1
