# generated using pymatgen
data_Rb3InP2
_symmetry_space_group_name_H-M   'P 1'
_cell_length_a   9.46421664
_cell_length_b   12.57021648
_cell_length_c   15.95120073
_cell_angle_alpha   97.28707323
_cell_angle_beta   107.04234864
_cell_angle_gamma   106.27284375
_symmetry_Int_Tables_number   1
_chemical_formula_structural   Rb3InP2
_chemical_formula_sum   'Rb24 In8 P16'
_cell_volume   1695.91071442
_cell_formula_units_Z   8
loop_
 _symmetry_equiv_pos_site_id
 _symmetry_equiv_pos_as_xyz
  1  'x, y, z'
loop_
 _atom_site_type_symbol
 _atom_site_label
 _atom_site_symmetry_multiplicity
 _atom_site_fract_x
 _atom_site_fract_y
 _atom_site_fract_z
 _atom_site_occupancy
  Rb  Rb0  1  0.68431443  0.12002165  0.52062882  1
  Rb  Rb1  1  0.14774898  0.58762422  0.47377954  1
  Rb  Rb2  1  0.39424343  0.39773066  0.35502640  1
  Rb  Rb3  1  0.31568557  0.87997835  0.47937118  1
  Rb  Rb4  1  0.60575657  0.60226934  0.64497360  1
  Rb  Rb5  1  0.46357986  0.42215646  0.80513259  1
  Rb  Rb6  1  0.07917554  0.39319524  0.08950167  1
  Rb  Rb7  1  0.58306187  0.93020236  0.74658840  1
  Rb  Rb8  1  0.77957082  0.41236026  0.24448884  1
  Rb  Rb9  1  0.83206780  0.92252300  0.34443219  1
  Rb  Rb10  1  0.02012231  0.26724246  0.82215903  1
  Rb  Rb11  1  0.61206863  0.12246122  0.08525594  1
  Rb  Rb12  1  0.97987769  0.73275754  0.17784097  1
  Rb  Rb13  1  0.41693813  0.06979764  0.25341160  1
  Rb  Rb14  1  0.85225102  0.41237578  0.52622046  1
  Rb  Rb15  1  0.33639995  0.74853701  0.11944001  1
  Rb  Rb16  1  0.53642014  0.57784354  0.19486741  1
  Rb  Rb17  1  0.01640086  0.09644888  0.19537740  1
  Rb  Rb18  1  0.92082446  0.60680476  0.91049833  1
  Rb  Rb19  1  0.98359914  0.90355112  0.80462260  1
  Rb  Rb20  1  0.66360005  0.25146299  0.88055999  1
  Rb  Rb21  1  0.38793137  0.87753878  0.91474406  1
  Rb  Rb22  1  0.16793220  0.07747700  0.65556781  1
  Rb  Rb23  1  0.22042918  0.58763974  0.75551116  1
  In  In24  1  0.43684607  0.28330839  0.57796612  1
  In  In25  1  0.07573372  0.23171083  0.44284145  1
  In  In26  1  0.17324783  0.10879939  0.01148117  1
  In  In27  1  0.92426628  0.76828917  0.55715855  1
  In  In28  1  0.57787270  0.64459206  0.99143538  1
  In  In29  1  0.82675217  0.89120061  0.98851883  1
  In  In30  1  0.56315393  0.71669161  0.42203388  1
  In  In31  1  0.42212730  0.35540794  0.00856462  1
  P  P32  1  0.27496855  0.13031647  0.43225604  1
  P  P33  1  0.62878660  0.72192963  0.85306305  1
  P  P34  1  0.28882904  0.51288530  0.96264140  1
  P  P35  1  0.12445931  0.90176631  0.03885578  1
  P  P36  1  0.76812182  0.62102118  0.41099133  1
  P  P37  1  0.70150992  0.33910209  0.68618688  1
  P  P38  1  0.18787511  0.80464827  0.65807496  1
  P  P39  1  0.31151118  0.15635746  0.89226401  1
  P  P40  1  0.68848882  0.84364254  0.10773599  1
  P  P41  1  0.87554069  0.09823369  0.96114422  1
  P  P42  1  0.23187818  0.37897882  0.58900867  1
  P  P43  1  0.71117096  0.48711470  0.03735860  1
  P  P44  1  0.72503145  0.86968353  0.56774396  1
  P  P45  1  0.81212489  0.19535173  0.34192504  1
  P  P46  1  0.29849008  0.66089791  0.31381312  1
  P  P47  1  0.37121340  0.27807037  0.14693695  1
