# generated using pymatgen
data_UTl2(TeO4)2
_symmetry_space_group_name_H-M   'P 1'
_cell_length_a   5.43564161
_cell_length_b   8.22558175
_cell_length_c   20.82178596
_cell_angle_alpha   90.00000000
_cell_angle_beta   92.23462657
_cell_angle_gamma   90.00000000
_symmetry_Int_Tables_number   1
_chemical_formula_structural   UTl2(TeO4)2
_chemical_formula_sum   'U4 Tl8 Te8 O32'
_cell_volume   930.26144854
_cell_formula_units_Z   4
loop_
 _symmetry_equiv_pos_site_id
 _symmetry_equiv_pos_as_xyz
  1  'x, y, z'
loop_
 _atom_site_type_symbol
 _atom_site_label
 _atom_site_symmetry_multiplicity
 _atom_site_fract_x
 _atom_site_fract_y
 _atom_site_fract_z
 _atom_site_occupancy
  U  U0  1  0.73999625  0.17624618  0.14293001  1
  U  U1  1  0.26000375  0.82375382  0.85706999  1
  U  U2  1  0.23999625  0.32375382  0.64293001  1
  U  U3  1  0.76000375  0.67624618  0.35706999  1
  Tl  Tl4  1  0.73681422  0.10910848  0.94946859  1
  Tl  Tl5  1  0.77543980  0.16892064  0.35269435  1
  Tl  Tl6  1  0.72456020  0.66892064  0.14730565  1
  Tl  Tl7  1  0.76318578  0.60910948  0.55053141  1
  Tl  Tl8  1  0.23681422  0.39089052  0.44946859  1
  Tl  Tl9  1  0.22456020  0.83107936  0.64730565  1
  Tl  Tl10  1  0.27543980  0.33107936  0.85269435  1
  Tl  Tl11  1  0.26318578  0.89089052  0.05053141  1
  Te  Te12  1  0.75493215  0.07908698  0.76573343  1
  Te  Te13  1  0.72864232  0.07250777  0.55255525  1
  Te  Te14  1  0.24506785  0.92091302  0.23426657  1
  Te  Te15  1  0.22864232  0.42749223  0.05255525  1
  Te  Te16  1  0.25493215  0.42091302  0.26573343  1
  Te  Te17  1  0.27135768  0.92749223  0.44744475  1
  Te  Te18  1  0.74506785  0.57908698  0.73426657  1
  Te  Te19  1  0.77135768  0.57250777  0.94744475  1
  O  O20  1  0.85650762  0.03257801  0.08175609  1
  O  O21  1  0.96650850  0.90128055  0.78740295  1
  O  O22  1  0.03349150  0.09871945  0.21259705  1
  O  O23  1  0.99450151  0.48799442  0.32017167  1
  O  O24  1  0.42054903  0.84589235  0.52273957  1
  O  O25  1  0.51294790  0.87470250  0.38841228  1
  O  O26  1  0.53349150  0.40128055  0.71259705  1
  O  O27  1  0.37780187  0.67515772  0.79776418  1
  O  O28  1  0.00549849  0.51200558  0.67982833  1
  O  O29  1  0.12219813  0.17515772  0.70223582  1
  O  O30  1  0.94383243  0.25253455  0.57023525  1
  O  O31  1  0.35650762  0.46742199  0.58175609  1
  O  O32  1  0.62219813  0.32484228  0.20223582  1
  O  O33  1  0.86430905  0.23282523  0.82523629  1
  O  O34  1  0.57945097  0.15410765  0.47726043  1
  O  O35  1  0.55616757  0.75253455  0.92976475  1
  O  O36  1  0.92054903  0.65410765  0.02273957  1
  O  O37  1  0.64349238  0.53257801  0.41824391  1
  O  O38  1  0.46650850  0.59871945  0.28740295  1
  O  O39  1  0.48705210  0.12529750  0.61158772  1
  O  O40  1  0.05616757  0.74746545  0.42976475  1
  O  O41  1  0.50549849  0.98799442  0.17982833  1
  O  O42  1  0.87780187  0.82484228  0.29776418  1
  O  O43  1  0.07945097  0.34589235  0.97726043  1
  O  O44  1  0.36430905  0.26717477  0.32523629  1
  O  O45  1  0.49450151  0.01200558  0.82017167  1
  O  O46  1  0.63569095  0.73282523  0.67476371  1
  O  O47  1  0.98705210  0.37470250  0.11158772  1
  O  O48  1  0.44383243  0.24746545  0.07023525  1
  O  O49  1  0.13569095  0.76717477  0.17476371  1
  O  O50  1  0.14349238  0.96742199  0.91824391  1
  O  O51  1  0.01294790  0.62529750  0.88841228  1
