# generated using pymatgen
data_CeTl5Fe2(NO2)12
_symmetry_space_group_name_H-M   'P 1'
_cell_length_a   10.75382700
_cell_length_b   10.75382700
_cell_length_c   10.75382700
_cell_angle_alpha   90.00000000
_cell_angle_beta   90.00000000
_cell_angle_gamma   90.00000000
_symmetry_Int_Tables_number   1
_chemical_formula_structural   CeTl5Fe2(NO2)12
_chemical_formula_sum   'Ce2 Tl10 Fe4 N24 O48'
_cell_volume   1243.62412045
_cell_formula_units_Z   2
loop_
 _symmetry_equiv_pos_site_id
 _symmetry_equiv_pos_as_xyz
  1  'x, y, z'
loop_
 _atom_site_type_symbol
 _atom_site_label
 _atom_site_symmetry_multiplicity
 _atom_site_fract_x
 _atom_site_fract_y
 _atom_site_fract_z
 _atom_site_occupancy
  Ce  Ce0  1  0.25000000  0.25000000  0.25000000  1
  Ce  Ce1  1  0.75000000  0.75000000  0.75000000  1
  Tl  Tl2  1  0.50000000  0.50000000  0.00000000  1
  Tl  Tl3  1  0.50000000  0.00000000  0.50000000  1
  Tl  Tl4  1  0.25000000  0.75000000  0.75000000  1
  Tl  Tl5  1  0.75000000  0.25000000  0.25000000  1
  Tl  Tl6  1  0.75000000  0.25000000  0.75000000  1
  Tl  Tl7  1  0.00000000  0.00000000  0.00000000  1
  Tl  Tl8  1  0.75000000  0.75000000  0.25000000  1
  Tl  Tl9  1  0.25000000  0.75000000  0.25000000  1
  Tl  Tl10  1  0.00000000  0.50000000  0.50000000  1
  Tl  Tl11  1  0.25000000  0.25000000  0.75000000  1
  Fe  Fe12  1  0.00000000  0.00000000  0.50000000  1
  Fe  Fe13  1  0.50000000  0.00000000  0.00000000  1
  Fe  Fe14  1  0.00000000  0.50000000  0.00000000  1
  Fe  Fe15  1  0.50000000  0.50000000  0.50000000  1
  N  N16  1  0.50130600  0.50812300  0.68503200  1
  N  N17  1  0.81496800  0.99869400  0.50812300  1
  N  N18  1  0.68503200  0.99869400  0.99187700  1
  N  N19  1  0.50812300  0.81496800  0.99869400  1
  N  N20  1  0.99869400  0.99187700  0.68503200  1
  N  N21  1  0.00812300  0.31496800  0.00130600  1
  N  N22  1  0.31496800  0.00130600  0.00812300  1
  N  N23  1  0.81496800  0.50130600  0.99187700  1
  N  N24  1  0.50812300  0.68503200  0.50130600  1
  N  N25  1  0.00130600  0.49187700  0.18503200  1
  N  N26  1  0.99187700  0.81496800  0.50130600  1
  N  N27  1  0.49869400  0.49187700  0.31496800  1
  N  N28  1  0.50130600  0.99187700  0.81496800  1
  N  N29  1  0.00812300  0.18503200  0.49869400  1
  N  N30  1  0.68503200  0.50130600  0.50812300  1
  N  N31  1  0.49187700  0.18503200  0.00130600  1
  N  N32  1  0.49187700  0.31496800  0.49869400  1
  N  N33  1  0.18503200  0.00130600  0.49187700  1
  N  N34  1  0.99187700  0.68503200  0.99869400  1
  N  N35  1  0.99869400  0.50812300  0.81496800  1
  N  N36  1  0.49869400  0.00812300  0.18503200  1
  N  N37  1  0.00130600  0.00812300  0.31496800  1
  N  N38  1  0.18503200  0.49869400  0.00812300  1
  N  N39  1  0.31496800  0.49869400  0.49187700  1
  O  O40  1  0.51199600  0.24431000  0.90296900  1
  O  O41  1  0.01199600  0.74431000  0.09703100  1
  O  O42  1  0.40296900  0.01199600  0.75569000  1
  O  O43  1  0.25569000  0.59703100  0.51199600  1
  O  O44  1  0.90296900  0.51199600  0.24431000  1
  O  O45  1  0.24771600  0.09748300  0.46219400  1
  O  O46  1  0.40251700  0.46219400  0.25228400  1
  O  O47  1  0.96219400  0.75228400  0.59748300  1
  O  O48  1  0.59703100  0.98800400  0.24431000  1
  O  O49  1  0.03780600  0.24771600  0.40251700  1
  O  O50  1  0.09703100  0.01199600  0.74431000  1
  O  O51  1  0.40251700  0.03780600  0.24771600  1
  O  O52  1  0.75569000  0.40296900  0.01199600  1
  O  O53  1  0.90251700  0.96219400  0.74771600  1
  O  O54  1  0.03780600  0.25228400  0.09748300  1
  O  O55  1  0.90296900  0.98800400  0.25569000  1
  O  O56  1  0.90251700  0.53780600  0.75228400  1
  O  O57  1  0.24431000  0.90296900  0.51199600  1
  O  O58  1  0.09703100  0.48800400  0.75569000  1
  O  O59  1  0.09748300  0.03780600  0.25228400  1
  O  O60  1  0.53780600  0.75228400  0.90251700  1
  O  O61  1  0.24431000  0.59703100  0.98800400  1
  O  O62  1  0.24771600  0.40251700  0.03780600  1
  O  O63  1  0.75569000  0.09703100  0.48800400  1
  O  O64  1  0.01199600  0.75569000  0.40296900  1
  O  O65  1  0.25228400  0.40251700  0.46219400  1
  O  O66  1  0.40296900  0.48800400  0.74431000  1
  O  O67  1  0.98800400  0.24431000  0.59703100  1
  O  O68  1  0.59703100  0.51199600  0.25569000  1
  O  O69  1  0.53780600  0.74771600  0.59748300  1
  O  O70  1  0.75228400  0.59748300  0.96219400  1
  O  O71  1  0.59748300  0.96219400  0.75228400  1
  O  O72  1  0.25569000  0.90296900  0.98800400  1
  O  O73  1  0.74771600  0.90251700  0.96219400  1
  O  O74  1  0.74431000  0.09703100  0.01199600  1
  O  O75  1  0.51199600  0.25569000  0.59703100  1
  O  O76  1  0.75228400  0.90251700  0.53780600  1
  O  O77  1  0.74431000  0.40296900  0.48800400  1
  O  O78  1  0.98800400  0.25569000  0.90296900  1
  O  O79  1  0.48800400  0.75569000  0.09703100  1
  O  O80  1  0.09748300  0.46219400  0.24771600  1
  O  O81  1  0.25228400  0.09748300  0.03780600  1
  O  O82  1  0.46219400  0.25228400  0.40251700  1
  O  O83  1  0.59748300  0.53780600  0.74771600  1
  O  O84  1  0.48800400  0.74431000  0.40296900  1
  O  O85  1  0.96219400  0.74771600  0.90251700  1
  O  O86  1  0.74771600  0.59748300  0.53780600  1
  O  O87  1  0.46219400  0.24771600  0.09748300  1
