# generated using pymatgen
data_BaTeO3
_symmetry_space_group_name_H-M   'P 1'
_cell_length_a   6.15247695
_cell_length_b   12.37206862
_cell_length_c   14.88472134
_cell_angle_alpha   90.00000000
_cell_angle_beta   90.00000000
_cell_angle_gamma   90.00000000
_symmetry_Int_Tables_number   1
_chemical_formula_structural   BaTeO3
_chemical_formula_sum   'Ba12 Te12 O36'
_cell_volume   1133.00812414
_cell_formula_units_Z   12
loop_
 _symmetry_equiv_pos_site_id
 _symmetry_equiv_pos_as_xyz
  1  'x, y, z'
loop_
 _atom_site_type_symbol
 _atom_site_label
 _atom_site_symmetry_multiplicity
 _atom_site_fract_x
 _atom_site_fract_y
 _atom_site_fract_z
 _atom_site_occupancy
  Ba  Ba0  1  0.25000000  0.85660079  0.19308233  1
  Ba  Ba1  1  0.25000000  0.87252457  0.48548908  1
  Ba  Ba2  1  0.75000000  0.14339921  0.80691767  1
  Ba  Ba3  1  0.75000000  0.12747543  0.51451092  1
  Ba  Ba4  1  0.75000000  0.35660079  0.30691767  1
  Ba  Ba5  1  0.75000000  0.37252457  0.01451092  1
  Ba  Ba6  1  0.25000000  0.13813035  0.00665791  1
  Ba  Ba7  1  0.75000000  0.63813035  0.49334209  1
  Ba  Ba8  1  0.25000000  0.36186965  0.50665791  1
  Ba  Ba9  1  0.25000000  0.64339921  0.69308233  1
  Ba  Ba10  1  0.25000000  0.62747543  0.98548908  1
  Ba  Ba11  1  0.75000000  0.86186965  0.99334209  1
  Te  Te12  1  0.25000000  0.38588674  0.16178944  1
  Te  Te13  1  0.25000000  0.34952868  0.81378070  1
  Te  Te14  1  0.75000000  0.40264799  0.63975718  1
  Te  Te15  1  0.75000000  0.61411326  0.83821056  1
  Te  Te16  1  0.25000000  0.59735201  0.36024282  1
  Te  Te17  1  0.25000000  0.90264799  0.86024282  1
  Te  Te18  1  0.25000000  0.11411326  0.66178944  1
  Te  Te19  1  0.75000000  0.88588674  0.33821056  1
  Te  Te20  1  0.75000000  0.09735201  0.13975718  1
  Te  Te21  1  0.75000000  0.65047132  0.18621930  1
  Te  Te22  1  0.25000000  0.15047132  0.31378070  1
  Te  Te23  1  0.75000000  0.84952868  0.68621930  1
  O  O24  1  0.25000000  0.84647945  0.97684936  1
  O  O25  1  0.52418695  0.71067893  0.11687476  1
  O  O26  1  0.02027713  0.50021391  0.38166970  1
  O  O27  1  0.02418695  0.21067893  0.38312524  1
  O  O28  1  0.25000000  0.42298605  0.04145940  1
  O  O29  1  0.25000000  0.07701395  0.54145940  1
  O  O30  1  0.75000000  0.34647945  0.52315064  1
  O  O31  1  0.47972287  0.50021391  0.38166970  1
  O  O32  1  0.75000000  0.15352055  0.02315064  1
  O  O33  1  0.97581305  0.71067893  0.11687476  1
  O  O34  1  0.25000000  0.49626924  0.84318430  1
  O  O35  1  0.75000000  0.99626924  0.65681570  1
  O  O36  1  0.48141905  0.28720285  0.15704299  1
  O  O37  1  0.52027713  0.00021391  0.11833030  1
  O  O38  1  0.98141905  0.78720285  0.34295701  1
  O  O39  1  0.52418695  0.78932107  0.61687476  1
  O  O40  1  0.97972287  0.49978609  0.61833030  1
  O  O41  1  0.75000000  0.57701395  0.95854060  1
  O  O42  1  0.47581305  0.28932107  0.88312524  1
  O  O43  1  0.25000000  0.65352055  0.47684936  1
  O  O44  1  0.98141905  0.71279715  0.84295701  1
  O  O45  1  0.02027713  -0.00021391  0.88166970  1
  O  O46  1  0.52027713  0.49978609  0.61833030  1
  O  O47  1  0.48141905  0.21279715  0.65704299  1
  O  O48  1  0.47581305  0.21067893  0.38312524  1
  O  O49  1  0.02418695  0.28932107  0.88312524  1
  O  O50  1  0.75000000  0.92298605  0.45854060  1
  O  O51  1  0.01858095  0.21279715  0.65704299  1
  O  O52  1  0.75000000  0.50373076  0.15681570  1
  O  O53  1  0.25000000  0.00373076  0.34318430  1
  O  O54  1  0.51858095  0.71279715  0.84295701  1
  O  O55  1  0.01858095  0.28720285  0.15704299  1
  O  O56  1  0.47972287  -0.00021391  0.88166970  1
  O  O57  1  0.51858095  0.78720285  0.34295701  1
  O  O58  1  0.97581305  0.78932107  0.61687476  1
  O  O59  1  0.97972287  0.00021391  0.11833030  1
