# generated using pymatgen
data_BaMnO3
_symmetry_space_group_name_H-M   'P 1'
_cell_length_a   5.70010901
_cell_length_b   5.70010922
_cell_length_c   18.87427413
_cell_angle_alpha   90.00000970
_cell_angle_beta   89.99999135
_cell_angle_gamma   120.00001132
_symmetry_Int_Tables_number   1
_chemical_formula_structural   BaMnO3
_chemical_formula_sum   'Ba8 Mn8 O24'
_cell_volume   531.08884459
_cell_formula_units_Z   8
loop_
 _symmetry_equiv_pos_site_id
 _symmetry_equiv_pos_as_xyz
  1  'x, y, z'
loop_
 _atom_site_type_symbol
 _atom_site_label
 _atom_site_symmetry_multiplicity
 _atom_site_fract_x
 _atom_site_fract_y
 _atom_site_fract_z
 _atom_site_occupancy
  Ba  Ba0  1  0.33333341  0.66666619  0.12887063  1
  Ba  Ba1  1  0.66666615  0.33333345  0.62885983  1
  Ba  Ba2  1  -0.00000011  -0.00000003  0.24997112  1
  Ba  Ba3  1  -0.00000011  0.00000001  0.00002822  1
  Ba  Ba4  1  0.33333350  0.66666610  0.37110850  1
  Ba  Ba5  1  0.00000019  -0.00000003  0.75002889  1
  Ba  Ba6  1  0.66666663  0.33333387  0.87116081  1
  Ba  Ba7  1  -0.00000008  0.00000000  0.49997112  1
  Mn  Mn8  1  0.33333333  0.66666681  0.81555422  1
  Mn  Mn9  1  0.66666674  0.33333333  0.05261074  1
  Mn  Mn10  1  0.33333321  0.66666690  0.94740849  1
  Mn  Mn11  1  0.33333306  0.66666682  0.55260410  1
  Mn  Mn12  1  0.66666688  0.33333323  0.18445745  1
  Mn  Mn13  1  0.33333316  0.66666683  0.68447455  1
  Mn  Mn14  1  0.66666687  0.33333299  0.31551327  1
  Mn  Mn15  1  0.66666667  0.33333312  0.44737654  1
  O  O16  1  0.96274332  0.48137092  0.24998321  1
  O  O17  1  0.49999305  0.50000613  0.49998124  1
  O  O18  1  0.37402705  0.18701341  0.12039475  1
  O  O19  1  0.03727808  0.51863980  0.75001736  1
  O  O20  1  0.81298594  0.62597302  0.12039475  1
  O  O21  1  0.18702124  0.37404264  0.87963298  1
  O  O22  1  0.18702162  0.81297910  0.87963299  1
  O  O23  1  0.62595737  0.81297818  0.87963300  1
  O  O24  1  0.62594688  0.81297308  0.62039116  1
  O  O25  1  0.49999368  -0.00001301  0.49998124  1
  O  O26  1  0.48136077  0.96272209  0.75001735  1
  O  O27  1  0.51862919  0.03725676  0.24998320  1
  O  O28  1  0.18702664  0.81297395  0.62039119  1
  O  O29  1  0.18702613  0.37405297  0.62039122  1
  O  O30  1  0.49999359  -0.00001272  0.00001833  1
  O  O31  1  0.37403615  0.18701771  0.37958105  1
  O  O32  1  0.48136080  0.51863936  0.75001732  1
  O  O33  1  0.81298234  0.18701817  0.37958112  1
  O  O34  1  0.51862880  0.48137115  0.24998325  1
  O  O35  1  0.00001265  0.50000685  0.49998132  1
  O  O36  1  0.00001273  0.50000697  0.00001834  1
  O  O37  1  0.81298682  0.18701379  0.12039464  1
  O  O38  1  0.81298154  0.62596371  0.37958106  1
  O  O39  1  0.49999312  0.50000637  0.00001844  1
