# generated using pymatgen
data_La4S3NCl3
_symmetry_space_group_name_H-M   'P 1'
_cell_length_a   9.45658727
_cell_length_b   9.45658727
_cell_length_c   7.02067860
_cell_angle_alpha   90.00000000
_cell_angle_beta   90.00000000
_cell_angle_gamma   119.99999544
_symmetry_Int_Tables_number   1
_chemical_formula_structural   La4S3NCl3
_chemical_formula_sum   'La8 S6 N2 Cl6'
_cell_volume   543.72413749
_cell_formula_units_Z   2
loop_
 _symmetry_equiv_pos_site_id
 _symmetry_equiv_pos_as_xyz
  1  'x, y, z'
loop_
 _atom_site_type_symbol
 _atom_site_label
 _atom_site_symmetry_multiplicity
 _atom_site_fract_x
 _atom_site_fract_y
 _atom_site_fract_z
 _atom_site_occupancy
  La  La0  1  0.20115741  0.40231582  0.25129779  1
  La  La1  1  0.20115741  0.79884259  0.25129779  1
  La  La2  1  0.33333300  0.66666700  0.70960502  1
  La  La3  1  0.79884259  0.20115741  0.75129779  1
  La  La4  1  0.40231582  0.20115741  0.75129779  1
  La  La5  1  0.79884259  0.59768418  0.75129779  1
  La  La6  1  0.59768418  0.79884259  0.25129779  1
  La  La7  1  0.66666700  0.33333300  0.20960502  1
  S  S8  1  0.46868144  0.53131856  0.97067296  1
  S  S9  1  0.46868144  0.93736288  0.97067296  1
  S  S10  1  0.53131856  0.06263712  0.47067296  1
  S  S11  1  0.53131856  0.46868144  0.47067296  1
  S  S12  1  0.93736288  0.46868144  0.47067296  1
  S  S13  1  0.06263712  0.53131856  0.97067296  1
  N  N14  1  0.33333300  0.66666700  0.36523797  1
  N  N15  1  0.66666700  0.33333300  0.86523797  1
  Cl  Cl16  1  0.86842788  0.73685576  0.14298192  1
  Cl  Cl17  1  0.13157212  0.86842788  0.64298192  1
  Cl  Cl18  1  0.86842788  0.13157212  0.14298192  1
  Cl  Cl19  1  0.13157212  0.26314424  0.64298192  1
  Cl  Cl20  1  0.26314424  0.13157212  0.14298192  1
  Cl  Cl21  1  0.73685576  0.86842788  0.64298192  1
