# generated using pymatgen
data_SrTa4O11
_symmetry_space_group_name_H-M   'P 1'
_cell_length_a   6.27084441
_cell_length_b   6.27083873
_cell_length_c   12.37472591
_cell_angle_alpha   89.99998374
_cell_angle_beta   90.00001253
_cell_angle_gamma   119.99988323
_symmetry_Int_Tables_number   1
_chemical_formula_structural   SrTa4O11
_chemical_formula_sum   'Sr2 Ta8 O22'
_cell_volume   421.42314982
_cell_formula_units_Z   2
loop_
 _symmetry_equiv_pos_site_id
 _symmetry_equiv_pos_as_xyz
  1  'x, y, z'
loop_
 _atom_site_type_symbol
 _atom_site_label
 _atom_site_symmetry_multiplicity
 _atom_site_fract_x
 _atom_site_fract_y
 _atom_site_fract_z
 _atom_site_occupancy
  Sr  Sr0  1  0.66666699  0.33333342  0.25000093  1
  Sr  Sr1  1  0.33333338  0.66666695  0.74999917  1
  Ta  Ta2  1  0.33333349  0.66666710  0.25000222  1
  Ta  Ta3  1  0.66666681  0.33333361  0.74999804  1
  Ta  Ta4  1  0.35657942  -0.00000023  0.00000286  1
  Ta  Ta5  1  0.35658054  0.35658129  0.49999695  1
  Ta  Ta6  1  0.00000014  0.64341745  0.49999714  1
  Ta  Ta7  1  0.00000080  0.35658180  0.00000296  1
  Ta  Ta8  1  0.64342034  0.64342140  0.00000311  1
  Ta  Ta9  1  0.64341703  -0.00000098  0.49999703  1
  O  O10  1  0.33333342  0.66666657  0.53438378  1
  O  O11  1  0.66666592  0.33333282  0.03438578  1
  O  O12  1  0.66666670  0.33333357  0.46561448  1
  O  O13  1  0.33333340  0.66666658  0.96561581  1
  O  O14  1  0.75490560  0.00000082  0.00000120  1
  O  O15  1  0.75490650  0.75490567  0.49999916  1
  O  O16  1  -0.00000108  0.24509528  0.49999906  1
  O  O17  1  -0.00000026  0.75490247  0.00000145  1
  O  O18  1  0.24509399  0.24509369  0.00000105  1
  O  O19  1  0.24509570  -0.00000027  0.49999967  1
  O  O20  1  0.37135488  0.43383667  0.34573514  1
  O  O21  1  0.93751486  0.37135969  0.84573676  1
  O  O22  1  0.43384514  0.06248555  0.84573685  1
  O  O23  1  0.56616211  0.93751714  0.34573509  1
  O  O24  1  0.06248188  0.62864540  0.34573512  1
  O  O25  1  0.93751273  0.56615426  0.65426494  1
  O  O26  1  0.62864192  0.06248743  0.65426502  1
  O  O27  1  0.62864052  0.56615558  0.84573691  1
  O  O28  1  0.43384570  0.37135843  0.65426483  1
  O  O29  1  0.56615903  0.62863947  0.15426245  1
  O  O30  1  0.06248072  0.43384157  0.15426254  1
  O  O31  1  0.37136065  0.93751978  0.15426251  1
