# generated using pymatgen
data_SiC
_symmetry_space_group_name_H-M   'P 1'
_cell_length_a   3.07613653
_cell_length_b   3.07613594
_cell_length_c   45.30955144
_cell_angle_alpha   90.00000000
_cell_angle_beta   90.00000000
_cell_angle_gamma   120.00001702
_symmetry_Int_Tables_number   1
_chemical_formula_structural   SiC
_chemical_formula_sum   'Si18 C18'
_cell_volume   371.30555824
_cell_formula_units_Z   18
loop_
 _symmetry_equiv_pos_site_id
 _symmetry_equiv_pos_as_xyz
  1  'x, y, z'
loop_
 _atom_site_type_symbol
 _atom_site_label
 _atom_site_symmetry_multiplicity
 _atom_site_fract_x
 _atom_site_fract_y
 _atom_site_fract_z
 _atom_site_occupancy
  Si  Si0  1  0.00000000  0.00000000  0.22221587  1
  Si  Si1  1  0.66666700  0.33333300  0.33332604  1
  Si  Si2  1  0.33333300  0.66666700  0.72223027  1
  Si  Si3  1  0.66666700  0.33333300  0.55553042  1
  Si  Si4  1  0.00000000  0.00000000  0.44442461  1
  Si  Si5  1  0.33333300  0.66666700  0.27776095  1
  Si  Si6  1  -0.00000000  0.00000000  0.66666575  1
  Si  Si7  1  0.33333300  0.66666700  0.05551307  1
  Si  Si8  1  0.33333300  0.66666700  0.61108353  1
  Si  Si9  1  0.66666700  0.33333300  0.88888740  1
  Si  Si10  1  -0.00000000  0.00000000  0.83331470  1
  Si  Si11  1  0.33333300  0.66666700  0.94437450  1
  Si  Si12  1  0.66666700  0.33333300  0.11108866  1
  Si  Si13  1  -0.00000000  0.00000000  0.99996245  1
  Si  Si14  1  0.33333300  0.66666700  0.16664110  1
  Si  Si15  1  0.66666700  0.33333300  0.77772667  1
  Si  Si16  1  0.33333300  0.66666700  0.38886122  1
  Si  Si17  1  0.33333300  0.66666700  0.49996560  1
  C  C18  1  0.33333300  0.66666700  0.54160782  1
  C  C19  1  0.66666700  0.33333300  0.93056151  1
  C  C20  1  -0.00000000  0.00000000  0.04174943  1
  C  C21  1  0.66666700  0.33333300  0.59731333  1
  C  C22  1  0.00000000  0.00000000  0.26399546  1
  C  C23  1  0.33333300  0.66666700  0.20828883  1
  C  C24  1  0.33333300  0.66666700  0.43050089  1
  C  C25  1  0.00000000  0.00000000  0.70845630  1
  C  C26  1  0.66666700  0.33333300  0.15287507  1
  C  C27  1  0.33333300  0.66666700  0.98604529  1
  C  C28  1  0.33333300  0.66666700  0.76391004  1
  C  C29  1  0.33333300  0.66666700  0.09716250  1
  C  C30  1  0.33333300  0.66666700  0.31940351  1
  C  C31  1  -0.00000000  0.00000000  0.48620139  1
  C  C32  1  0.66666700  0.33333300  0.81939961  1
  C  C33  1  0.33333300  0.66666700  0.65274251  1
  C  C34  1  0.00000000  -0.00000000  0.87511471  1
  C  C35  1  0.66666700  0.33333300  0.37510002  1
