# generated using pymatgen
data_ZnS
_symmetry_space_group_name_H-M   'P 1'
_cell_length_a   3.80954053
_cell_length_b   3.80954005
_cell_length_c   43.62732603
_cell_angle_alpha   90.00000000
_cell_angle_beta   90.00000000
_cell_angle_gamma   120.00000424
_symmetry_Int_Tables_number   1
_chemical_formula_structural   ZnS
_chemical_formula_sum   'Zn14 S14'
_cell_volume   548.32033293
_cell_formula_units_Z   14
loop_
 _symmetry_equiv_pos_site_id
 _symmetry_equiv_pos_as_xyz
  1  'x, y, z'
loop_
 _atom_site_type_symbol
 _atom_site_label
 _atom_site_symmetry_multiplicity
 _atom_site_fract_x
 _atom_site_fract_y
 _atom_site_fract_z
 _atom_site_occupancy
  Zn  Zn0  1  0.66666700  0.33333300  0.14290554  1
  Zn  Zn1  1  0.33333300  0.66666700  0.07146361  1
  Zn  Zn2  1  0.66666700  0.33333300  0.57142373  1
  Zn  Zn3  1  0.66666700  0.33333300  0.78569168  1
  Zn  Zn4  1  0.00000000  0.00000000  0.71424838  1
  Zn  Zn5  1  0.00000000  0.00000000  0.28567159  1
  Zn  Zn6  1  0.33333300  0.66666700  0.21434975  1
  Zn  Zn7  1  0.33333300  0.66666700  0.64294581  1
  Zn  Zn8  1  0.00000000  0.00000000  0.42857020  1
  Zn  Zn9  1  0.66666700  0.33333300  0.92862341  1
  Zn  Zn10  1  0.33333300  0.66666700  0.49990914  1
  Zn  Zn11  1  0.66666700  0.33333300  0.35716375  1
  Zn  Zn12  1  -0.00000000  0.00000000  0.00009102  1
  Zn  Zn13  1  -0.00000000  0.00000000  0.85718833  1
  S  S14  1  -0.00000000  0.00000000  0.76775249  1
  S  S15  1  0.66666700  0.33333300  0.98220877  1
  S  S16  1  0.66666700  0.33333300  0.19648260  1
  S  S17  1  0.33333300  0.66666700  0.69642998  1
  S  S18  1  -0.00000000  0.00000000  0.91071683  1
  S  S19  1  -0.00000000  0.00000000  0.48206335  1
  S  S20  1  0.66666700  0.33333300  0.41075042  1
  S  S21  1  -0.00000000  0.00000000  0.33919653  1
  S  S22  1  0.33333300  0.66666700  0.55343138  1
  S  S23  1  0.66666700  0.33333300  0.83926668  1
  S  S24  1  -0.00000000  0.00000000  0.05360962  1
  S  S25  1  0.33333300  0.66666700  0.26783482  1
  S  S26  1  0.66666700  0.33333300  0.62503756  1
  S  S27  1  0.33333300  0.66666700  0.12496805  1
