# generated using pymatgen
data_NdVO3
_symmetry_space_group_name_H-M   'P 1'
_cell_length_a   5.44723174
_cell_length_b   5.67955965
_cell_length_c   7.71246632
_cell_angle_alpha   90.00000000
_cell_angle_beta   90.00000000
_cell_angle_gamma   90.00000000
_symmetry_Int_Tables_number   1
_chemical_formula_structural   NdVO3
_chemical_formula_sum   'Nd4 V4 O12'
_cell_volume   238.60733896
_cell_formula_units_Z   4
loop_
 _symmetry_equiv_pos_site_id
 _symmetry_equiv_pos_as_xyz
  1  'x, y, z'
loop_
 _atom_site_type_symbol
 _atom_site_label
 _atom_site_symmetry_multiplicity
 _atom_site_fract_x
 _atom_site_fract_y
 _atom_site_fract_z
 _atom_site_occupancy
  Nd  Nd0  1  0.98711142  0.05487260  0.25000000  1
  Nd  Nd1  1  0.48711142  0.44512740  0.75000000  1
  Nd  Nd2  1  0.51288858  0.55487260  0.25000000  1
  Nd  Nd3  1  0.01288858  0.94512740  0.75000000  1
  V  V4  1  0.50000000  -0.00000000  0.00000000  1
  V  V5  1  -0.00000000  0.50000000  0.00000000  1
  V  V6  1  -0.00000000  0.50000000  0.50000000  1
  V  V7  1  0.50000000  -0.00000000  0.50000000  1
  O  O8  1  0.08979325  0.47095824  0.25000000  1
  O  O9  1  0.58979325  0.02904176  0.75000000  1
  O  O10  1  0.41020675  0.97095824  0.25000000  1
  O  O11  1  0.91020675  0.52904176  0.75000000  1
  O  O12  1  0.70777460  0.30005565  0.04598913  1
  O  O13  1  0.20777460  0.19994435  0.95401087  1
  O  O14  1  0.79222540  0.80005565  0.45401087  1
  O  O15  1  0.29222540  0.69994435  0.54598913  1
  O  O16  1  0.29222540  0.69994435  0.95401087  1
  O  O17  1  0.79222540  0.80005565  0.04598913  1
  O  O18  1  0.20777460  0.19994435  0.54598913  1
  O  O19  1  0.70777460  0.30005565  0.45401087  1
