# generated using pymatgen
data_Na2TiSiO5
_symmetry_space_group_name_H-M   'P 1'
_cell_length_a   4.76220174
_cell_length_b   9.14458260
_cell_length_c   9.77865342
_cell_angle_alpha   90.00000000
_cell_angle_beta   90.00000000
_cell_angle_gamma   90.00000000
_symmetry_Int_Tables_number   1
_chemical_formula_structural   Na2TiSiO5
_chemical_formula_sum   'Na8 Ti4 Si4 O20'
_cell_volume   425.84419398
_cell_formula_units_Z   4
loop_
 _symmetry_equiv_pos_site_id
 _symmetry_equiv_pos_as_xyz
  1  'x, y, z'
loop_
 _atom_site_type_symbol
 _atom_site_label
 _atom_site_symmetry_multiplicity
 _atom_site_fract_x
 _atom_site_fract_y
 _atom_site_fract_z
 _atom_site_occupancy
  Na  Na0  1  0.00454163  0.25060154  0.49749656  1
  Na  Na1  1  0.00554615  0.50000000  0.24892143  1
  Na  Na2  1  0.99445385  0.50000000  0.74892143  1
  Na  Na3  1  0.40118375  0.00000000  0.99398351  1
  Na  Na4  1  0.99545837  0.25060154  0.99749656  1
  Na  Na5  1  0.99545837  0.74939846  0.99749656  1
  Na  Na6  1  0.59881625  0.00000000  0.49398351  1
  Na  Na7  1  0.00454163  0.74939846  0.49749656  1
  Ti  Ti8  1  0.53866097  0.50000000  0.00081411  1
  Ti  Ti9  1  0.97444955  0.00000000  0.21493373  1
  Ti  Ti10  1  0.02555045  0.00000000  0.71493373  1
  Ti  Ti11  1  0.46133903  0.50000000  0.50081411  1
  Si  Si12  1  0.50562803  0.74985011  0.25060161  1
  Si  Si13  1  0.49437197  0.25014989  0.75060161  1
  Si  Si14  1  0.50562803  0.25014989  0.25060161  1
  Si  Si15  1  0.49437197  0.74985011  0.75060161  1
  O  O16  1  0.64495213  0.64787420  0.86523600  1
  O  O17  1  0.24977389  0.14751126  0.81792121  1
  O  O18  1  0.73795808  0.14905124  0.68241378  1
  O  O19  1  0.82375218  0.50000000  0.50166316  1
  O  O20  1  0.65372396  0.35380581  0.13683962  1
  O  O21  1  0.34627604  0.35380581  0.63683962  1
  O  O22  1  0.64495213  0.35212580  0.86523600  1
  O  O23  1  0.24977389  0.85248874  0.81792121  1
  O  O24  1  0.65372396  0.64619419  0.13683962  1
  O  O25  1  0.34627604  0.64619419  0.63683962  1
  O  O26  1  0.84895460  0.00000000  0.05026651  1
  O  O27  1  0.26204192  0.85094876  0.18241378  1
  O  O28  1  0.35504787  0.64787420  0.36523600  1
  O  O29  1  0.26204192  0.14905124  0.18241378  1
  O  O30  1  0.75022611  0.14751126  0.31792121  1
  O  O31  1  0.73795808  0.85094876  0.68241378  1
  O  O32  1  0.15104540  0.00000000  0.55026651  1
  O  O33  1  0.75022611  0.85248874  0.31792121  1
  O  O34  1  0.17624782  0.50000000  0.00166316  1
  O  O35  1  0.35504787  0.35212580  0.36523600  1
