# generated using pymatgen
data_Pd(Se4Cl)2
_symmetry_space_group_name_H-M   'P 1'
_cell_length_a   9.09481017
_cell_length_b   9.93363318
_cell_length_c   14.04636062
_cell_angle_alpha   90.00000000
_cell_angle_beta   90.00000000
_cell_angle_gamma   90.00000000
_symmetry_Int_Tables_number   1
_chemical_formula_structural   Pd(Se4Cl)2
_chemical_formula_sum   'Pd4 Se32 Cl8'
_cell_volume   1269.01154039
_cell_formula_units_Z   4
loop_
 _symmetry_equiv_pos_site_id
 _symmetry_equiv_pos_as_xyz
  1  'x, y, z'
loop_
 _atom_site_type_symbol
 _atom_site_label
 _atom_site_symmetry_multiplicity
 _atom_site_fract_x
 _atom_site_fract_y
 _atom_site_fract_z
 _atom_site_occupancy
  Pd  Pd0  1  0.50000000  -0.00000000  -0.00000000  1
  Pd  Pd1  1  0.50000000  0.50000000  0.50000000  1
  Pd  Pd2  1  0.00000000  0.50000000  -0.00000000  1
  Pd  Pd3  1  0.00000000  -0.00000000  0.50000000  1
  Se  Se4  1  0.30060659  0.02672482  0.88566490  1
  Se  Se5  1  0.12673469  0.15518135  0.97246877  1
  Se  Se6  1  0.91862710  0.62120086  0.62386998  1
  Se  Se7  1  0.19939341  0.52672482  0.11433510  1
  Se  Se8  1  0.58137290  0.12120086  0.37613002  1
  Se  Se9  1  0.87326531  0.84481865  0.02753123  1
  Se  Se10  1  0.37326531  0.65518135  0.02753123  1
  Se  Se11  1  0.69939341  0.97327518  0.11433510  1
  Se  Se12  1  0.08993254  0.19192954  0.27860192  1
  Se  Se13  1  0.19939341  0.02672482  0.38566490  1
  Se  Se14  1  0.91862710  0.12120086  0.87613002  1
  Se  Se15  1  0.30060659  0.52672482  0.61433510  1
  Se  Se16  1  0.91006746  0.80807046  0.72139808  1
  Se  Se17  1  0.62673469  0.34481865  0.97246877  1
  Se  Se18  1  0.41006746  0.19192954  0.77860192  1
  Se  Se19  1  0.87326531  0.34481865  0.47246877  1
  Se  Se20  1  0.80060659  0.97327518  0.61433510  1
  Se  Se21  1  0.41006746  0.69192954  0.72139808  1
  Se  Se22  1  0.91006746  0.30807046  0.77860192  1
  Se  Se23  1  0.08137290  0.37879914  0.37613002  1
  Se  Se24  1  0.41862710  0.87879914  0.62386998  1
  Se  Se25  1  0.58137290  0.62120086  0.12386998  1
  Se  Se26  1  0.69939341  0.47327518  0.38566490  1
  Se  Se27  1  0.58993254  0.30807046  0.27860192  1
  Se  Se28  1  0.41862710  0.37879914  0.87613002  1
  Se  Se29  1  0.08993254  0.69192954  0.22139808  1
  Se  Se30  1  0.08137290  0.87879914  0.12386998  1
  Se  Se31  1  0.37326531  0.15518135  0.47246877  1
  Se  Se32  1  0.12673469  0.65518135  0.52753123  1
  Se  Se33  1  0.80060659  0.47327518  0.88566490  1
  Se  Se34  1  0.62673469  0.84481865  0.52753123  1
  Se  Se35  1  0.58993254  0.80807046  0.22139808  1
  Cl  Cl36  1  0.90643481  0.34386570  0.10661015  1
  Cl  Cl37  1  0.90643481  0.84386570  0.39338985  1
  Cl  Cl38  1  0.09356519  0.15613430  0.60661015  1
  Cl  Cl39  1  0.40643481  0.15613430  0.10661015  1
  Cl  Cl40  1  0.59356519  0.34386570  0.60661015  1
  Cl  Cl41  1  0.09356519  0.65613430  0.89338985  1
  Cl  Cl42  1  0.40643481  0.65613430  0.39338985  1
  Cl  Cl43  1  0.59356519  0.84386570  0.89338985  1
