# generated using pymatgen
data_Ba2ZnS3
_symmetry_space_group_name_H-M   'P 1'
_cell_length_a   4.23768742
_cell_length_b   12.14533577
_cell_length_c   12.69880626
_cell_angle_alpha   90.00000000
_cell_angle_beta   90.00000000
_cell_angle_gamma   90.00000000
_symmetry_Int_Tables_number   1
_chemical_formula_structural   Ba2ZnS3
_chemical_formula_sum   'Ba8 Zn4 S12'
_cell_volume   653.58389530
_cell_formula_units_Z   4
loop_
 _symmetry_equiv_pos_site_id
 _symmetry_equiv_pos_as_xyz
  1  'x, y, z'
loop_
 _atom_site_type_symbol
 _atom_site_label
 _atom_site_symmetry_multiplicity
 _atom_site_fract_x
 _atom_site_fract_y
 _atom_site_fract_z
 _atom_site_occupancy
  Ba  Ba0  1  0.25000000  0.48901492  0.67438079  1
  Ba  Ba1  1  0.75000000  0.51098508  0.32561921  1
  Ba  Ba2  1  0.25000000  0.98901492  0.82561921  1
  Ba  Ba3  1  0.75000000  0.01098508  0.17438079  1
  Ba  Ba4  1  0.25000000  0.82644170  0.48170589  1
  Ba  Ba5  1  0.75000000  0.17355830  0.51829411  1
  Ba  Ba6  1  0.25000000  0.32644170  0.01829411  1
  Ba  Ba7  1  0.75000000  0.67355830  0.98170589  1
  Zn  Zn8  1  0.25000000  0.74443346  0.19621279  1
  Zn  Zn9  1  0.25000000  0.24443346  0.30378721  1
  Zn  Zn10  1  0.75000000  0.25556654  0.80378721  1
  Zn  Zn11  1  0.75000000  0.75556654  0.69621279  1
  S  S12  1  0.75000000  0.93883671  0.64010600  1
  S  S13  1  0.75000000  0.43883671  0.85989400  1
  S  S14  1  0.25000000  0.06116329  0.35989400  1
  S  S15  1  0.25000000  0.56116329  0.14010600  1
  S  S16  1  0.25000000  0.22502457  0.70970296  1
  S  S17  1  0.75000000  0.77497543  0.29029704  1
  S  S18  1  0.25000000  0.72502457  0.79029704  1
  S  S19  1  0.75000000  0.27497543  0.20970296  1
  S  S20  1  0.75000000  0.63596462  0.55429718  1
  S  S21  1  0.25000000  0.36403538  0.44570282  1
  S  S22  1  0.75000000  0.13596462  0.94570282  1
  S  S23  1  0.25000000  0.86403538  0.05429718  1
