# generated using pymatgen
data_TeI4
_symmetry_space_group_name_H-M   'P 1'
_cell_length_a   13.66934115
_cell_length_b   13.66934115
_cell_length_c   13.66934115
_cell_angle_alpha   101.28756657
_cell_angle_beta   101.28756657
_cell_angle_gamma   127.48352755
_symmetry_Int_Tables_number   1
_chemical_formula_structural   TeI4
_chemical_formula_sum   'Te8 I32'
_cell_volume   1817.62887802
_cell_formula_units_Z   8
loop_
 _symmetry_equiv_pos_site_id
 _symmetry_equiv_pos_as_xyz
  1  'x, y, z'
loop_
 _atom_site_type_symbol
 _atom_site_label
 _atom_site_symmetry_multiplicity
 _atom_site_fract_x
 _atom_site_fract_y
 _atom_site_fract_z
 _atom_site_occupancy
  Te  Te0  1  0.35499829  0.49344236  0.13844508  1
  Te  Te1  1  0.50655764  0.64500171  0.86155492  1
  Te  Te2  1  0.74344236  0.10499829  0.63844508  1
  Te  Te3  1  0.35499829  0.21655421  0.86155492  1
  Te  Te4  1  0.78344579  0.64500171  0.13844508  1
  Te  Te5  1  0.89500171  0.25655764  0.36155492  1
  Te  Te6  1  0.89500171  0.53344579  0.63844508  1
  Te  Te7  1  0.46655421  0.10499829  0.36155492  1
  I  I8  1  0.76499402  0.13963784  0.13444099  1
  I  I9  1  -0.00241313  0.87349665  0.12408922  1
  I  I10  1  0.48500598  0.11944697  0.87464382  1
  I  I11  1  0.12349665  0.49940643  0.37591078  1
  I  I12  1  0.38963784  0.75519785  0.87464382  1
  I  I13  1  0.36944697  0.23500598  0.37464382  1
  I  I14  1  0.24755427  0.37355340  0.87400186  1
  I  I15  1  0.12650335  0.00241313  0.87591078  1
  I  I16  1  0.50059357  0.87650335  0.62408922  1
  I  I17  1  0.38963784  0.51499402  0.63444099  1
  I  I18  1  0.12349665  0.74758687  0.62408922  1
  I  I19  1  0.36944697  0.99480215  0.13444099  1
  I  I20  1  0.62644660  0.50044846  0.87400186  1
  I  I21  1  0.75044846  0.37644660  0.37400186  1
  I  I22  1  0.00519785  0.63055303  0.86555901  1
  I  I23  1  0.24480215  0.11944697  0.63444099  1
  I  I24  1  0.12650335  0.25059357  0.12408922  1
  I  I25  1  0.24480215  0.61036216  0.12535618  1
  I  I26  1  0.48500598  0.61036216  0.36555901  1
  I  I27  1  0.88055303  0.51499402  0.12535618  1
  I  I28  1  0.86036216  0.99480215  0.62535618  1
  I  I29  1  0.62355340  0.24955154  0.62599814  1
  I  I30  1  0.49955154  0.37355340  0.12599814  1
  I  I31  1  0.86036216  0.23500598  0.86555901  1
  I  I32  1  0.62644660  0.75244573  0.12599814  1
  I  I33  1  0.88055303  0.75519785  0.36555901  1
  I  I34  1  0.62355340  0.99755427  0.37400186  1
  I  I35  1  0.76499402  0.63055303  0.62535618  1
  I  I36  1  0.00244573  0.37644660  0.62599814  1
  I  I37  1  0.74940643  0.87349665  0.87591078  1
  I  I38  1  0.00519785  0.13963784  0.37464382  1
  I  I39  1  0.25241313  0.87650335  0.37591078  1
