# generated using pymatgen
data_Al2FeO4
_symmetry_space_group_name_H-M   'P 1'
_cell_length_a   5.83802266
_cell_length_b   5.83802221
_cell_length_c   40.76520058
_cell_angle_alpha   60.14573825
_cell_angle_beta   60.14574148
_cell_angle_gamma   59.67477406
_symmetry_Int_Tables_number   1
_chemical_formula_structural   Al2FeO4
_chemical_formula_sum   'Al28 Fe14 O56'
_cell_volume   982.14545976
_cell_formula_units_Z   14
loop_
 _symmetry_equiv_pos_site_id
 _symmetry_equiv_pos_as_xyz
  1  'x, y, z'
loop_
 _atom_site_type_symbol
 _atom_site_label
 _atom_site_symmetry_multiplicity
 _atom_site_fract_x
 _atom_site_fract_y
 _atom_site_fract_z
 _atom_site_occupancy
  Al  Al0  1  0.13622987  0.13622987  0.01493596  1
  Al  Al1  1  0.50786158  0.50786158  0.99745809  1
  Al  Al2  1  0.49954540  0.49954540  0.07139462  1
  Al  Al3  1  0.49492370  0.99857670  0.21526944  1
  Al  Al4  1  0.49131517  0.49131517  0.14535497  1
  Al  Al5  1  0.49408562  0.49408562  0.21527400  1
  Al  Al6  1  0.50016607  0.00011542  0.35719868  1
  Al  Al7  1  0.86292280  0.86292280  0.12786940  1
  Al  Al8  1  0.49788750  0.49788750  0.28602842  1
  Al  Al9  1  0.99857670  0.49492370  0.21526944  1
  Al  Al10  1  0.49948261  0.49948261  0.35738894  1
  Al  Al11  1  0.49958797  0.99966469  0.49992938  1
  Al  Al12  1  0.49972929  0.49972929  0.42859330  1
  Al  Al13  1  0.00011542  0.50016607  0.35719868  1
  Al  Al14  1  0.49872477  0.49872477  0.50030348  1
  Al  Al15  1  0.50358626  0.00273206  0.64303685  1
  Al  Al16  1  0.50112476  0.50112476  0.57147981  1
  Al  Al17  1  0.99966469  0.49958797  0.49992938  1
  Al  Al18  1  0.50442624  0.50442624  0.64243521  1
  Al  Al19  1  0.99875360  0.49850770  0.78556309  1
  Al  Al20  1  0.49850770  0.99875360  0.78556309  1
  Al  Al21  1  0.50041157  0.50041157  0.71425723  1
  Al  Al22  1  0.00273206  0.50358626  0.64303685  1
  Al  Al23  1  0.49832506  0.49832506  0.78577230  1
  Al  Al24  1  0.50428029  0.00069153  0.92754501  1
  Al  Al25  1  0.50128778  0.50128778  0.85680623  1
  Al  Al26  1  0.50507271  0.50507271  0.92756496  1
  Al  Al27  1  0.00069153  0.50428029  0.92754501  1
  Fe  Fe28  1  0.12622324  0.12622324  0.15955264  1
  Fe  Fe29  1  0.49951635  0.99951267  0.07141091  1
  Fe  Fe30  1  0.11961596  0.11961596  0.30507373  1
  Fe  Fe31  1  0.99951267  0.49951635  0.07141091  1
  Fe  Fe32  1  0.12355232  0.12355232  0.44662700  1
  Fe  Fe33  1  0.12781528  0.12781528  0.58925046  1
  Fe  Fe34  1  0.87443484  0.87443484  0.26755263  1
  Fe  Fe35  1  0.12510040  0.12510040  0.73171680  1
  Fe  Fe36  1  0.87440576  0.87440576  0.41100607  1
  Fe  Fe37  1  0.12480112  0.12480112  0.87522344  1
  Fe  Fe38  1  0.87558691  0.87558691  0.55361387  1
  Fe  Fe39  1  0.87662431  0.87662431  0.69656122  1
  Fe  Fe40  1  0.87852103  0.87852103  0.83789276  1
  Fe  Fe41  1  0.87300088  0.87300088  0.98325927  1
  O  O42  1  0.27768674  0.27768674  0.02811349  1
  O  O43  1  0.28125421  0.28125421  0.09990211  1
  O  O44  1  0.28004324  0.74932259  0.03200299  1
  O  O45  1  0.74932259  0.28004324  0.03200299  1
  O  O46  1  0.25885744  0.25885744  0.18269921  1
  O  O47  1  0.24978302  0.71897036  0.11082392  1
  O  O48  1  0.71897036  0.24978302  0.11082392  1
  O  O49  1  0.25357130  0.69989564  0.18296958  1
  O  O50  1  0.26144404  0.26144404  0.24460809  1
  O  O51  1  0.71776594  0.71776594  0.04291913  1
  O  O52  1  0.69989564  0.25357130  0.18296958  1
  O  O53  1  0.72143029  0.72143029  0.11469969  1
  O  O54  1  0.26640694  0.26640694  0.32356635  1
  O  O55  1  0.29872598  0.73421963  0.24730350  1
  O  O56  1  0.73421963  0.29872598  0.24730350  1
  O  O57  1  0.26637035  0.70169137  0.32369112  1
  O  O58  1  0.74003957  0.74003957  0.18252876  1
  O  O59  1  0.26619340  0.26619340  0.38616302  1
  O  O60  1  0.70169137  0.26637035  0.32369112  1
  O  O61  1  0.73057108  0.73057108  0.24807219  1
  O  O62  1  0.26604257  0.26604257  0.46636798  1
  O  O63  1  0.29730812  0.73712406  0.39033748  1
  O  O64  1  0.73712406  0.29730812  0.39033748  1
  O  O65  1  0.73412743  0.73412743  0.32785871  1
  O  O66  1  0.26545493  0.26545493  0.52896425  1
  O  O67  1  0.26567628  0.70265343  0.46650190  1
  O  O68  1  0.73383075  0.73383075  0.39073369  1
  O  O69  1  0.70265343  0.26567628  0.46650190  1
  O  O70  1  0.26743468  0.26743468  0.60972310  1
  O  O71  1  0.29691189  0.73377165  0.53362650  1
  O  O72  1  0.73377165  0.29691189  0.53362650  1
  O  O73  1  0.27091402  0.27091402  0.67176011  1
  O  O74  1  0.26859260  0.70598339  0.60921508  1
  O  O75  1  0.73201069  0.73201069  0.47108311  1
  O  O76  1  0.70598339  0.26859260  0.60921508  1
  O  O77  1  0.73531580  0.73531580  0.53317983  1
  O  O78  1  0.26593906  0.26593906  0.75193535  1
  O  O79  1  0.29942224  0.73946175  0.67605860  1
  O  O80  1  0.73946175  0.29942224  0.67605860  1
  O  O81  1  0.73787974  0.73787974  0.61390753  1
  O  O82  1  0.26455629  0.26455629  0.81498444  1
  O  O83  1  0.26131578  0.70194197  0.75263694  1
  O  O84  1  0.70194197  0.26131578  0.75263694  1
  O  O85  1  0.73418544  0.73418544  0.67707292  1
  O  O86  1  0.26851341  0.26851341  0.89477995  1
  O  O87  1  0.29680233  0.73249762  0.81927052  1
  O  O88  1  0.25911688  0.25911688  0.96030146  1
  O  O89  1  0.73249762  0.29680233  0.81927052  1
  O  O90  1  0.73091009  0.73091009  0.75676984  1
  O  O91  1  0.26509943  0.70051396  0.89553670  1
  O  O92  1  0.70051396  0.26509943  0.89553670  1
  O  O93  1  0.73283834  0.73283834  0.81907405  1
  O  O94  1  0.29927600  0.74557484  0.95986735  1
  O  O95  1  0.74557484  0.29927600  0.95986735  1
  O  O96  1  0.73772218  0.73772218  0.89825834  1
  O  O97  1  0.74030746  0.74030746  0.96013538  1
