# generated using pymatgen
data_Sm2(MoO4)3
_symmetry_space_group_name_H-M   'P 1'
_cell_length_a   6.87154942
_cell_length_b   6.87153106
_cell_length_c   11.57447380
_cell_angle_alpha   79.61690327
_cell_angle_beta   79.61650034
_cell_angle_gamma   113.18624764
_symmetry_Int_Tables_number   1
_chemical_formula_structural   Sm2(MoO4)3
_chemical_formula_sum   'Sm4 Mo6 O24'
_cell_volume   474.70186977
_cell_formula_units_Z   2
loop_
 _symmetry_equiv_pos_site_id
 _symmetry_equiv_pos_as_xyz
  1  'x, y, z'
loop_
 _atom_site_type_symbol
 _atom_site_label
 _atom_site_symmetry_multiplicity
 _atom_site_fract_x
 _atom_site_fract_y
 _atom_site_fract_z
 _atom_site_occupancy
  Sm  Sm0  1  0.80126442  0.54796663  0.90866320  1
  Sm  Sm1  1  0.45203271  0.19873564  0.59133661  1
  Sm  Sm2  1  0.54796980  0.80126705  0.40866098  1
  Sm  Sm3  1  0.19873290  0.45202991  0.09133891  1
  Mo  Mo4  1  0.69922725  0.97502178  0.06232933  1
  Mo  Mo5  1  0.02497722  0.30077358  0.43767054  1
  Mo  Mo6  1  0.30077374  0.02497505  0.93767435  1
  Mo  Mo7  1  0.97502634  0.69922571  0.56232610  1
  Mo  Mo8  1  0.62123194  0.37876764  0.25000049  1
  Mo  Mo9  1  0.37876846  0.62123168  0.74999954  1
  O  O10  1  0.72930514  0.14096618  0.45669505  1
  O  O11  1  0.90668638  0.48786632  0.21989088  1
  O  O12  1  0.17120959  0.59595173  0.41069329  1
  O  O13  1  0.81889886  0.88711947  0.95011391  1
  O  O14  1  0.14096253  0.72930257  0.95670399  1
  O  O15  1  0.72657608  0.85163511  0.20177817  1
  O  O16  1  0.44582782  0.53049943  0.88734623  1
  O  O17  1  0.85903321  0.27069446  0.04330525  1
  O  O18  1  0.85163755  0.72657027  0.70177051  1
  O  O19  1  0.11288068  0.18110225  0.54988663  1
  O  O20  1  0.51213343  0.09331543  0.28010875  1
  O  O21  1  0.27342840  0.14836132  0.79822888  1
  O  O22  1  0.09331625  0.51213242  0.78011262  1
  O  O23  1  0.88711490  0.81890412  0.45010199  1
  O  O24  1  0.14836543  0.27342477  0.29822306  1
  O  O25  1  0.53050235  0.44582920  0.38734371  1
  O  O26  1  0.40404919  0.82879165  0.08930709  1
  O  O27  1  0.27069849  0.85903772  0.54329650  1
  O  O28  1  0.18109543  0.11288463  0.04989755  1
  O  O29  1  0.55417176  0.46949879  0.11265622  1
  O  O30  1  0.46950091  0.55417254  0.61265352  1
  O  O31  1  0.48786644  0.90668190  0.71988794  1
  O  O32  1  0.59594372  0.17120692  0.91070276  1
  O  O33  1  0.82879266  0.40405613  0.58929642  1
