# generated using pymatgen
data_Ag3AsSe3
_symmetry_space_group_name_H-M   'P 1'
_cell_length_a   7.18505447
_cell_length_b   7.18505502
_cell_length_c   7.18505440
_cell_angle_alpha   103.91348149
_cell_angle_beta   103.91348650
_cell_angle_gamma   103.91348016
_symmetry_Int_Tables_number   1
_chemical_formula_structural   Ag3AsSe3
_chemical_formula_sum   'Ag6 As2 Se6'
_cell_volume   331.50635423
_cell_formula_units_Z   2
loop_
 _symmetry_equiv_pos_site_id
 _symmetry_equiv_pos_as_xyz
  1  'x, y, z'
loop_
 _atom_site_type_symbol
 _atom_site_label
 _atom_site_symmetry_multiplicity
 _atom_site_fract_x
 _atom_site_fract_y
 _atom_site_fract_z
 _atom_site_occupancy
  Ag  Ag0  1  0.97893403  0.41391903  0.75960361  1
  Ag  Ag1  1  0.41391903  0.75960361  0.97893403  1
  Ag  Ag2  1  0.75960361  0.97893403  0.41391903  1
  Ag  Ag3  1  0.25960361  0.91391903  0.47893403  1
  Ag  Ag4  1  0.91391903  0.47893403  0.25960361  1
  Ag  Ag5  1  0.47893403  0.25960361  0.91391903  1
  As  As6  1  0.50726362  0.50726362  0.50726362  1
  As  As7  1  0.00726362  0.00726362  0.00726362  1
  Se  Se8  1  0.77815170  0.75520049  0.09072553  1
  Se  Se9  1  0.75520049  0.09072553  0.77815170  1
  Se  Se10  1  0.27815170  0.59072553  0.25520049  1
  Se  Se11  1  0.59072553  0.25520049  0.27815170  1
  Se  Se12  1  0.25520049  0.27815170  0.59072553  1
  Se  Se13  1  0.09072553  0.77815170  0.75520049  1
