# generated using pymatgen
data_Ti5(PO5)4
_symmetry_space_group_name_H-M   'P 1'
_cell_length_a   7.51635611
_cell_length_b   12.83408906
_cell_length_c   14.42685732
_cell_angle_alpha   90.00000000
_cell_angle_beta   90.00000000
_cell_angle_gamma   90.00000000
_symmetry_Int_Tables_number   1
_chemical_formula_structural   Ti5(PO5)4
_chemical_formula_sum   'Ti20 P16 O80'
_cell_volume   1391.69521265
_cell_formula_units_Z   4
loop_
 _symmetry_equiv_pos_site_id
 _symmetry_equiv_pos_as_xyz
  1  'x, y, z'
loop_
 _atom_site_type_symbol
 _atom_site_label
 _atom_site_symmetry_multiplicity
 _atom_site_fract_x
 _atom_site_fract_y
 _atom_site_fract_z
 _atom_site_occupancy
  Ti  Ti0  1  0.60758083  0.14441250  0.17795175  1
  Ti  Ti1  1  0.87657786  0.37580267  0.44175830  1
  Ti  Ti2  1  0.64751202  0.38359719  0.05422575  1
  Ti  Ti3  1  0.10758083  0.35558750  0.82204825  1
  Ti  Ti4  1  0.39241917  0.64441250  0.32204825  1
  Ti  Ti5  1  0.62342214  0.62419733  0.94175830  1
  Ti  Ti6  1  0.14798387  0.60693894  0.70526769  1
  Ti  Ti7  1  0.12342214  0.87580267  0.05824170  1
  Ti  Ti8  1  0.90322880  0.13348926  0.32941823  1
  Ti  Ti9  1  0.14751202  0.11640281  0.94577425  1
  Ti  Ti10  1  0.59677120  0.86651074  0.82941823  1
  Ti  Ti11  1  0.85248798  0.61640281  0.55422575  1
  Ti  Ti12  1  0.89241917  0.85558750  0.67795175  1
  Ti  Ti13  1  0.40322880  0.36651074  0.67058177  1
  Ti  Ti14  1  0.35201613  0.39306106  0.20526769  1
  Ti  Ti15  1  0.09677120  0.63348926  0.17058177  1
  Ti  Ti16  1  0.37657786  0.12419733  0.55824170  1
  Ti  Ti17  1  0.35248798  0.88359719  0.44577425  1
  Ti  Ti18  1  0.85201613  0.10693894  0.79473231  1
  Ti  Ti19  1  0.64798387  0.89306106  0.29473231  1
  P  P20  1  0.47998148  0.75818944  0.12047300  1
  P  P21  1  0.73549526  0.99505903  0.50032512  1
  P  P22  1  0.97998148  0.74181056  0.87952700  1
  P  P23  1  0.26450474  0.49505903  0.99967488  1
  P  P24  1  0.02001852  0.24181056  0.62047300  1
  P  P25  1  0.76014024  0.48959746  0.75357137  1
  P  P26  1  0.52001852  0.25818944  0.37952700  1
  P  P27  1  0.26014024  0.01040254  0.24642863  1
  P  P28  1  0.49860751  0.74330279  0.62837489  1
  P  P29  1  0.76450474  0.00494097  0.00032512  1
  P  P30  1  0.99860751  0.75669721  0.37162511  1
  P  P31  1  0.00139249  0.25669721  0.12837489  1
  P  P32  1  0.23985976  0.98959746  0.74642863  1
  P  P33  1  0.73985976  0.51040254  0.25357137  1
  P  P34  1  0.23549526  0.50494097  0.49967488  1
  P  P35  1  0.50139249  0.24330279  0.87162511  1
  O  O36  1  0.11777169  0.43243225  0.44494993  1
  O  O37  1  0.16225572  0.42208650  0.93552524  1
  O  O38  1  0.88600630  0.18636221  0.19201096  1
  O  O39  1  0.13633602  0.55548392  0.06071959  1
  O  O40  1  0.86180539  0.67695311  0.94114855  1
  O  O41  1  0.88273848  0.55080538  0.68677348  1
  O  O42  1  0.13769949  0.30986127  0.68590296  1
  O  O43  1  0.36230051  0.69013873  0.18590296  1
  O  O44  1  0.63633602  0.94451608  0.93928041  1
  O  O45  1  0.86230051  0.80986127  0.81409704  1
  O  O46  1  0.37549537  0.92883684  0.80310564  1
  O  O47  1  0.90520386  0.69088635  0.44411323  1
  O  O48  1  0.79735815  0.49906679  0.50190377  1
  O  O49  1  0.66225572  0.07791350  0.06447476  1
  O  O50  1  0.62179328  0.92512384  0.43430097  1
  O  O51  1  0.46037841  0.24879606  0.62056404  1
  O  O52  1  0.61927341  0.58709981  0.30525304  1
  O  O53  1  0.90792934  0.16969604  0.68178487  1
  O  O54  1  0.70264185  0.50093321  0.00190377  1
  O  O55  1  0.63992323  0.18502146  0.81491263  1
  O  O56  1  0.13819461  0.17695311  0.55885145  1
  O  O57  1  0.61726152  0.44919462  0.18677348  1
  O  O58  1  0.40792934  0.33030396  0.31821513  1
  O  O59  1  0.46568303  0.76742091  0.35939038  1
  O  O60  1  0.87549537  0.57116316  0.19689436  1
  O  O61  1  0.86366398  0.05548392  0.43928041  1
  O  O62  1  0.62212061  0.66607398  0.58053731  1
  O  O63  1  0.11927341  0.91290019  0.69474696  1
  O  O64  1  0.90243787  0.31237799  0.56409064  1
  O  O65  1  0.61399370  0.81363779  0.69201096  1
  O  O66  1  0.96568303  0.73257909  0.64060962  1
  O  O67  1  0.22991113  0.48507690  0.74106168  1
  O  O68  1  0.53431697  0.26742091  0.14060962  1
  O  O69  1  0.09207066  0.66969604  0.81821513  1
  O  O70  1  0.72991113  0.01492310  0.25893832  1
  O  O71  1  0.36007677  0.68502146  0.68508737  1
  O  O72  1  0.61777169  0.06756775  0.55505007  1
  O  O73  1  0.59756213  0.68762201  0.06409064  1
  O  O74  1  0.33774428  0.57791350  0.43552524  1
  O  O75  1  0.03431697  0.23257909  0.85939038  1
  O  O76  1  0.88072659  0.41290019  0.80525304  1
  O  O77  1  0.59479614  0.30911365  0.94411323  1
  O  O78  1  0.13992323  0.31497854  0.18508737  1
  O  O79  1  0.63769949  0.19013873  0.31409704  1
  O  O80  1  0.11399370  0.68636221  0.30798904  1
  O  O81  1  0.40520386  0.80911365  0.55588677  1
  O  O82  1  0.59207066  0.83030396  0.18178487  1
  O  O83  1  0.33317073  0.06230812  0.68060085  1
  O  O84  1  0.87820672  0.07487616  0.93430097  1
  O  O85  1  0.36366398  0.44451608  0.56071959  1
  O  O86  1  0.12179328  0.57487616  0.56569903  1
  O  O87  1  0.11726152  0.05080538  0.81322652  1
  O  O88  1  0.20264185  0.99906679  0.99809623  1
  O  O89  1  0.86007677  0.81497854  0.31491263  1
  O  O90  1  0.53962159  0.74879606  0.87943596  1
  O  O91  1  0.03962159  0.75120394  0.12056404  1
  O  O92  1  0.88222831  0.93243225  0.05505007  1
  O  O93  1  0.83317073  0.43769188  0.31939915  1
  O  O94  1  0.09479614  0.19088635  0.05588677  1
  O  O95  1  0.63819461  0.32304689  0.44114855  1
  O  O96  1  0.37787939  0.16607398  0.91946269  1
  O  O97  1  0.36180539  0.82304689  0.05885145  1
  O  O98  1  0.83774428  0.92208650  0.56447476  1
  O  O99  1  0.38273848  0.94919462  0.31322652  1
  O  O100  1  0.66682927  0.56230812  0.81939915  1
  O  O101  1  0.38222831  0.56756775  0.94494993  1
  O  O102  1  0.16682927  0.93769188  0.18060085  1
  O  O103  1  0.96037841  0.25120394  0.37943596  1
  O  O104  1  0.09756213  0.81237799  0.93590936  1
  O  O105  1  0.62450463  0.42883684  0.69689436  1
  O  O106  1  0.27008887  0.51492310  0.24106168  1
  O  O107  1  0.40243787  0.18762201  0.43590936  1
  O  O108  1  0.77008887  0.98507690  0.75893832  1
  O  O109  1  0.38600630  0.31363779  0.80798904  1
  O  O110  1  0.12212061  0.83392602  0.41946269  1
  O  O111  1  0.37820672  0.42512384  0.06569903  1
  O  O112  1  0.38072659  0.08709981  0.19474696  1
  O  O113  1  0.12450463  0.07116316  0.30310564  1
  O  O114  1  0.87787939  0.33392602  0.08053731  1
  O  O115  1  0.29735815  0.00093321  0.49809623  1
