# generated using pymatgen
data_Cs3Cu2Cl5
_symmetry_space_group_name_H-M   'P 1'
_cell_length_a   9.30738442
_cell_length_b   10.53864909
_cell_length_c   13.08529749
_cell_angle_alpha   90.00000000
_cell_angle_beta   90.00000000
_cell_angle_gamma   90.00000000
_symmetry_Int_Tables_number   1
_chemical_formula_structural   Cs3Cu2Cl5
_chemical_formula_sum   'Cs12 Cu8 Cl20'
_cell_volume   1283.50095546
_cell_formula_units_Z   4
loop_
 _symmetry_equiv_pos_site_id
 _symmetry_equiv_pos_as_xyz
  1  'x, y, z'
loop_
 _atom_site_type_symbol
 _atom_site_label
 _atom_site_symmetry_multiplicity
 _atom_site_fract_x
 _atom_site_fract_y
 _atom_site_fract_z
 _atom_site_occupancy
  Cs  Cs0  1  0.53836621  0.51093555  0.82018084  1
  Cs  Cs1  1  0.46163379  0.48906445  0.17981916  1
  Cs  Cs2  1  0.96163379  0.01093555  0.32018084  1
  Cs  Cs3  1  0.03836621  0.98906445  0.67981916  1
  Cs  Cs4  1  0.39465040  0.75000000  0.45291246  1
  Cs  Cs5  1  0.03836621  0.51093555  0.67981916  1
  Cs  Cs6  1  0.60534960  0.25000000  0.54708754  1
  Cs  Cs7  1  0.46163379  0.01093555  0.17981916  1
  Cs  Cs8  1  0.89465040  0.75000000  0.04708754  1
  Cs  Cs9  1  0.96163379  0.48906445  0.32018084  1
  Cs  Cs10  1  0.10534960  0.25000000  0.95291246  1
  Cs  Cs11  1  0.53836621  0.98906445  0.82018084  1
  Cu  Cu12  1  0.26544673  0.25000000  0.36378880  1
  Cu  Cu13  1  0.29292017  0.75000000  0.04865703  1
  Cu  Cu14  1  0.23455327  0.75000000  0.86378880  1
  Cu  Cu15  1  0.79292017  0.75000000  0.45134297  1
  Cu  Cu16  1  0.73455327  0.75000000  0.63621120  1
  Cu  Cu17  1  0.70707983  0.25000000  0.95134297  1
  Cu  Cu18  1  0.76544673  0.25000000  0.13621120  1
  Cu  Cu19  1  0.20707983  0.25000000  0.54865703  1
  Cl  Cl20  1  0.67884835  0.25000000  0.29296654  1
  Cl  Cl21  1  0.81180289  0.06645558  0.05567502  1
  Cl  Cl22  1  0.79960638  0.25000000  0.79392636  1
  Cl  Cl23  1  0.82115165  0.75000000  0.79296654  1
  Cl  Cl24  1  0.02739639  0.75000000  0.49003231  1
  Cl  Cl25  1  0.70039362  0.75000000  0.29392636  1
  Cl  Cl26  1  0.68819711  0.56645558  0.55567502  1
  Cl  Cl27  1  0.17884835  0.25000000  0.20703346  1
  Cl  Cl28  1  0.32115165  0.75000000  0.70703346  1
  Cl  Cl29  1  0.20039362  0.75000000  0.20607364  1
  Cl  Cl30  1  0.31180289  0.43354442  0.44432498  1
  Cl  Cl31  1  0.47260361  0.25000000  0.99003231  1
  Cl  Cl32  1  0.18819711  0.93354442  0.94432498  1
  Cl  Cl33  1  0.81180289  0.43354442  0.05567502  1
  Cl  Cl34  1  0.31180289  0.06645558  0.44432498  1
  Cl  Cl35  1  0.52739639  0.75000000  0.00996769  1
  Cl  Cl36  1  0.97260361  0.25000000  0.50996769  1
  Cl  Cl37  1  0.18819711  0.56645558  0.94432498  1
  Cl  Cl38  1  0.68819711  0.93354442  0.55567502  1
  Cl  Cl39  1  0.29960638  0.25000000  0.70607364  1
