# generated using pymatgen
data_MnCrF5
_symmetry_space_group_name_H-M   'P 1'
_cell_length_a   5.32457027
_cell_length_b   5.32457027
_cell_length_c   7.35301527
_cell_angle_alpha   69.71787009
_cell_angle_beta   69.71787009
_cell_angle_gamma   72.15908196
_symmetry_Int_Tables_number   1
_chemical_formula_structural   MnCrF5
_chemical_formula_sum   'Mn2 Cr2 F10'
_cell_volume   179.26114117
_cell_formula_units_Z   2
loop_
 _symmetry_equiv_pos_site_id
 _symmetry_equiv_pos_as_xyz
  1  'x, y, z'
loop_
 _atom_site_type_symbol
 _atom_site_label
 _atom_site_symmetry_multiplicity
 _atom_site_fract_x
 _atom_site_fract_y
 _atom_site_fract_z
 _atom_site_occupancy
  Mn  Mn0  1  0.46129732  0.53870268  0.75000000  1
  Mn  Mn1  1  0.53870268  0.46129732  0.25000000  1
  Cr  Cr2  1  -0.00000000  -0.00000000  0.00000000  1
  Cr  Cr3  1  -0.00000000  -0.00000000  0.50000000  1
  F  F4  1  0.27456334  0.20913656  0.37134009  1
  F  F5  1  0.79086344  0.72543666  0.12865991  1
  F  F6  1  0.72543666  0.79086344  0.62865991  1
  F  F7  1  0.20913656  0.27456334  0.87134009  1
  F  F8  1  0.09391094  0.90608906  0.75000000  1
  F  F9  1  0.90608906  0.09391094  0.25000000  1
  F  F10  1  0.31807024  0.71812918  0.03509068  1
  F  F11  1  0.28187082  0.68192976  0.46490932  1
  F  F12  1  0.68192976  0.28187082  0.96490932  1
  F  F13  1  0.71812918  0.31807024  0.53509068  1
