# generated using pymatgen
data_CsAuSe3
_symmetry_space_group_name_H-M   'P 1'
_cell_length_a   6.59200526
_cell_length_b   7.69525620
_cell_length_c   7.73270003
_cell_angle_alpha   81.02189656
_cell_angle_beta   68.63364999
_cell_angle_gamma   64.64449123
_symmetry_Int_Tables_number   1
_chemical_formula_structural   CsAuSe3
_chemical_formula_sum   'Cs2 Au2 Se6'
_cell_volume   330.10821329
_cell_formula_units_Z   2
loop_
 _symmetry_equiv_pos_site_id
 _symmetry_equiv_pos_as_xyz
  1  'x, y, z'
loop_
 _atom_site_type_symbol
 _atom_site_label
 _atom_site_symmetry_multiplicity
 _atom_site_fract_x
 _atom_site_fract_y
 _atom_site_fract_z
 _atom_site_occupancy
  Cs  Cs0  1  0.85035464  0.29956034  0.25000554  1
  Cs  Cs1  1  0.14964536  0.70043966  0.74999446  1
  Au  Au2  1  0.42357826  0.15272918  0.75014461  1
  Au  Au3  1  0.57642174  0.84727082  0.24985539  1
  Se  Se4  1  0.80674594  0.82550804  0.44067579  1
  Se  Se5  1  0.63195973  0.17443166  0.94115975  1
  Se  Se6  1  0.19325406  0.17449196  0.55932421  1
  Se  Se7  1  0.36804027  0.82556834  0.05884025  1
  Se  Se8  1  0.19190578  0.61553393  0.24953712  1
  Se  Se9  1  0.80809422  0.38446607  0.75046288  1
