# generated using pymatgen
data_CsIn3O5
_symmetry_space_group_name_H-M   'P 1'
_cell_length_a   3.36382254
_cell_length_b   10.15120651
_cell_length_c   16.59742170
_cell_angle_alpha   90.00000000
_cell_angle_beta   90.00000000
_cell_angle_gamma   90.00000000
_symmetry_Int_Tables_number   1
_chemical_formula_structural   CsIn3O5
_chemical_formula_sum   'Cs4 In12 O20'
_cell_volume   566.74978978
_cell_formula_units_Z   4
loop_
 _symmetry_equiv_pos_site_id
 _symmetry_equiv_pos_as_xyz
  1  'x, y, z'
loop_
 _atom_site_type_symbol
 _atom_site_label
 _atom_site_symmetry_multiplicity
 _atom_site_fract_x
 _atom_site_fract_y
 _atom_site_fract_z
 _atom_site_occupancy
  Cs  Cs0  1  0.75000000  0.53023881  0.12091728  1
  Cs  Cs1  1  0.25000000  0.96976119  0.62091728  1
  Cs  Cs2  1  0.75000000  0.03023881  0.37908272  1
  Cs  Cs3  1  0.25000000  0.46976119  0.87908272  1
  In  In4  1  0.75000000  0.18117550  0.18104905  1
  In  In5  1  0.75000000  0.68117550  0.31895095  1
  In  In6  1  0.25000000  0.64503930  0.48880133  1
  In  In7  1  0.25000000  0.14503930  0.01119867  1
  In  In8  1  0.25000000  0.89028851  0.16342183  1
  In  In9  1  0.75000000  0.35496070  0.51119867  1
  In  In10  1  0.25000000  0.31882450  0.68104905  1
  In  In11  1  0.25000000  0.81882450  0.81895095  1
  In  In12  1  0.75000000  0.60971149  0.66342183  1
  In  In13  1  0.75000000  0.10971149  0.83657817  1
  In  In14  1  0.75000000  0.85496070  0.98880133  1
  In  In15  1  0.25000000  0.39028851  0.33657817  1
  O  O16  1  0.25000000  0.69492696  0.71683742  1
  O  O17  1  0.25000000  0.26923327  0.11308168  1
  O  O18  1  0.25000000  0.77854267  0.05513299  1
  O  O19  1  0.75000000  0.23076673  0.61308168  1
  O  O20  1  0.25000000  0.97725700  0.92373818  1
  O  O21  1  0.75000000  0.22145733  0.94486701  1
  O  O22  1  0.75000000  0.30507304  0.28316258  1
  O  O23  1  0.25000000  0.56647919  0.27228600  1
  O  O24  1  0.75000000  0.80507304  0.21683742  1
  O  O25  1  0.75000000  0.43352081  0.72771400  1
  O  O26  1  0.25000000  0.76923327  0.38691832  1
  O  O27  1  0.75000000  0.93352081  0.77228600  1
  O  O28  1  0.25000000  0.47725700  0.57626182  1
  O  O29  1  0.25000000  0.19492696  0.78316258  1
  O  O30  1  0.75000000  0.73076673  0.88691832  1
  O  O31  1  0.75000000  0.02274300  0.07626182  1
  O  O32  1  0.25000000  0.27854267  0.44486701  1
  O  O33  1  0.75000000  0.52274300  0.42373818  1
  O  O34  1  0.75000000  0.72145733  0.55513299  1
  O  O35  1  0.25000000  0.06647919  0.22771400  1
