# generated using pymatgen
data_Ba2SiS4
_symmetry_space_group_name_H-M   'P 1'
_cell_length_a   6.82315428
_cell_length_b   8.98361653
_cell_length_c   12.25510081
_cell_angle_alpha   90.00000000
_cell_angle_beta   90.00000000
_cell_angle_gamma   90.00000000
_symmetry_Int_Tables_number   1
_chemical_formula_structural   Ba2SiS4
_chemical_formula_sum   'Ba8 Si4 S16'
_cell_volume   751.19603163
_cell_formula_units_Z   4
loop_
 _symmetry_equiv_pos_site_id
 _symmetry_equiv_pos_as_xyz
  1  'x, y, z'
loop_
 _atom_site_type_symbol
 _atom_site_label
 _atom_site_symmetry_multiplicity
 _atom_site_fract_x
 _atom_site_fract_y
 _atom_site_fract_z
 _atom_site_occupancy
  Ba  Ba0  1  0.25000000  0.98196861  0.32785590  1
  Ba  Ba1  1  0.75000000  0.01803139  0.67214410  1
  Ba  Ba2  1  0.25000000  0.48196861  0.17214410  1
  Ba  Ba3  1  0.75000000  0.51803139  0.82785590  1
  Ba  Ba4  1  0.25000000  0.63184210  0.58235160  1
  Ba  Ba5  1  0.75000000  0.36815790  0.41764840  1
  Ba  Ba6  1  0.25000000  0.13184210  0.91764840  1
  Ba  Ba7  1  0.75000000  0.86815790  0.08235160  1
  Si  Si8  1  0.25000000  0.73060517  0.92380012  1
  Si  Si9  1  0.25000000  0.23060517  0.57619988  1
  Si  Si10  1  0.75000000  0.76939483  0.42380012  1
  Si  Si11  1  0.75000000  0.26939483  0.07619988  1
  S  S12  1  0.50311367  0.32252388  0.64778371  1
  S  S13  1  0.00311367  0.67747612  0.35221629  1
  S  S14  1  0.99688633  0.82252388  0.85221629  1
  S  S15  1  0.49688633  0.17747612  0.14778371  1
  S  S16  1  0.50311367  0.82252388  0.85221629  1
  S  S17  1  0.49688633  0.67747612  0.35221629  1
  S  S18  1  0.00311367  0.17747612  0.14778371  1
  S  S19  1  0.99688633  0.32252388  0.64778371  1
  S  S20  1  0.75000000  0.50329589  0.09377748  1
  S  S21  1  0.25000000  0.49670411  0.90622252  1
  S  S22  1  0.75000000  0.00329589  0.40622252  1
  S  S23  1  0.25000000  0.99670411  0.59377748  1
  S  S24  1  0.75000000  0.19007775  0.91265556  1
  S  S25  1  0.25000000  0.80992225  0.08734444  1
  S  S26  1  0.75000000  0.69007775  0.58734444  1
  S  S27  1  0.25000000  0.30992225  0.41265556  1
