# generated using pymatgen
data_MgCrF6
_symmetry_space_group_name_H-M   'P 1'
_cell_length_a   5.25917164
_cell_length_b   5.25914093
_cell_length_c   5.25914877
_cell_angle_alpha   56.59311430
_cell_angle_beta   56.59315776
_cell_angle_gamma   56.59300301
_symmetry_Int_Tables_number   1
_chemical_formula_structural   MgCrF6
_chemical_formula_sum   'Mg1 Cr1 F6'
_cell_volume   94.76075401
_cell_formula_units_Z   1
loop_
 _symmetry_equiv_pos_site_id
 _symmetry_equiv_pos_as_xyz
  1  'x, y, z'
loop_
 _atom_site_type_symbol
 _atom_site_label
 _atom_site_symmetry_multiplicity
 _atom_site_fract_x
 _atom_site_fract_y
 _atom_site_fract_z
 _atom_site_occupancy
  Mg  Mg0  1  0.50000000  0.50000000  0.50000000  1
  Cr  Cr1  1  -0.00000000  0.00000000  0.00000000  1
  F  F2  1  0.35548519  0.12255664  0.76256897  1
  F  F3  1  0.12255464  0.76257197  0.35548119  1
  F  F4  1  0.23742803  0.64451881  0.87744636  1
  F  F5  1  0.87744536  0.23742803  0.64451881  1
  F  F6  1  0.64451481  0.87744436  0.23743103  1
  F  F7  1  0.76257197  0.35548119  0.12255364  1
