# generated using pymatgen
data_ZnS
_symmetry_space_group_name_H-M   'P 1'
_cell_length_a   3.80810664
_cell_length_b   3.80810744
_cell_length_c   56.03647352
_cell_angle_alpha   90.00000000
_cell_angle_beta   90.00000000
_cell_angle_gamma   119.99999308
_symmetry_Int_Tables_number   1
_chemical_formula_structural   ZnS
_chemical_formula_sum   'Zn18 S18'
_cell_volume   703.75217893
_cell_formula_units_Z   18
loop_
 _symmetry_equiv_pos_site_id
 _symmetry_equiv_pos_as_xyz
  1  'x, y, z'
loop_
 _atom_site_type_symbol
 _atom_site_label
 _atom_site_symmetry_multiplicity
 _atom_site_fract_x
 _atom_site_fract_y
 _atom_site_fract_z
 _atom_site_occupancy
  Zn  Zn0  1  -0.00000000  0.00000000  0.16658497  1
  Zn  Zn1  1  -0.00000000  -0.00000000  0.44447244  1
  Zn  Zn2  1  0.66666700  0.33333300  0.33332608  1
  Zn  Zn3  1  -0.00000000  -0.00000000  0.55557938  1
  Zn  Zn4  1  -0.00000000  -0.00000000  0.72222335  1
  Zn  Zn5  1  0.33333300  0.66666700  0.05556928  1
  Zn  Zn6  1  0.33333300  0.66666700  0.61113636  1
  Zn  Zn7  1  0.66666700  0.33333300  0.11106241  1
  Zn  Zn8  1  0.00000000  0.00000000  0.00007346  1
  Zn  Zn9  1  0.33333300  0.66666700  0.22223039  1
  Zn  Zn10  1  0.00000000  0.00000000  0.27787849  1
  Zn  Zn11  1  0.66666700  0.33333300  0.77784279  1
  Zn  Zn12  1  0.66666700  0.33333300  0.94446201  1
  Zn  Zn13  1  0.33333300  0.66666700  0.38889098  1
  Zn  Zn14  1  0.33333300  0.66666700  0.83339748  1
  Zn  Zn15  1  0.66666700  0.33333300  0.66670240  1
  Zn  Zn16  1  0.66666700  0.33333300  0.49997306  1
  Zn  Zn17  1  0.00000000  0.00000000  0.88886579  1
  S  S18  1  0.00000000  0.00000000  0.93047568  1
  S  S19  1  -0.00000000  0.00000000  0.04168741  1
  S  S20  1  0.66666700  0.33333300  0.70829134  1
  S  S21  1  0.00000000  0.00000000  0.59720200  1
  S  S22  1  0.33333300  0.66666700  0.43054540  1
  S  S23  1  0.00000000  0.00000000  0.31947925  1
  S  S24  1  0.66666700  0.33333300  0.15269156  1
  S  S25  1  0.66666700  0.33333300  0.37497406  1
  S  S26  1  0.33333300  0.66666700  0.09718772  1
  S  S27  1  0.66666700  0.33333300  0.98615467  1
  S  S28  1  0.66666700  0.33333300  0.81946625  1
  S  S29  1  0.00000000  0.00000000  0.76391050  1
  S  S30  1  0.33333300  0.66666700  0.65277541  1
  S  S31  1  -0.00000000  0.00000000  0.48606352  1
  S  S32  1  0.66666700  0.33333300  0.54166644  1
  S  S33  1  0.33333300  0.66666700  0.26394779  1
  S  S34  1  0.00000000  0.00000000  0.20823446  1
  S  S35  1  0.33333300  0.66666700  0.87500542  1
