# generated using pymatgen
data_Cd3(BO3)2
_symmetry_space_group_name_H-M   'P 1'
_cell_length_a   4.79805484
_cell_length_b   6.00790309
_cell_length_c   9.06162771
_cell_angle_alpha   90.00000000
_cell_angle_beta   90.00000000
_cell_angle_gamma   90.00000000
_symmetry_Int_Tables_number   1
_chemical_formula_structural   Cd3(BO3)2
_chemical_formula_sum   'Cd6 B4 O12'
_cell_volume   261.21273218
_cell_formula_units_Z   2
loop_
 _symmetry_equiv_pos_site_id
 _symmetry_equiv_pos_as_xyz
  1  'x, y, z'
loop_
 _atom_site_type_symbol
 _atom_site_label
 _atom_site_symmetry_multiplicity
 _atom_site_fract_x
 _atom_site_fract_y
 _atom_site_fract_z
 _atom_site_occupancy
  Cd  Cd0  1  0.00000000  0.50000000  0.18852645  1
  Cd  Cd1  1  0.50000000  0.00000000  0.31147355  1
  Cd  Cd2  1  0.00000000  0.50000000  0.81147355  1
  Cd  Cd3  1  0.50000000  0.00000000  0.68852645  1
  Cd  Cd4  1  0.50000000  0.50000000  0.50000000  1
  Cd  Cd5  1  0.00000000  0.00000000  0.00000000  1
  B  B6  1  0.03451458  0.24024695  0.50000000  1
  B  B7  1  0.46548542  0.74024695  0.00000000  1
  B  B8  1  0.96548542  0.75975305  0.50000000  1
  B  B9  1  0.53451458  0.25975305  0.00000000  1
  O  O10  1  0.32076474  0.78220282  0.86946140  1
  O  O11  1  0.82076474  0.71779718  0.63053860  1
  O  O12  1  0.32076474  0.78220282  0.13053860  1
  O  O13  1  0.67923526  0.21779718  0.13053860  1
  O  O14  1  0.82076474  0.71779718  0.36946140  1
  O  O15  1  0.17923526  0.28220282  0.36946140  1
  O  O16  1  0.74201895  0.67955319  0.00000000  1
  O  O17  1  0.24201895  0.82044681  0.50000000  1
  O  O18  1  0.75798105  0.17955319  0.50000000  1
  O  O19  1  0.25798105  0.32044681  0.00000000  1
  O  O20  1  0.67923526  0.21779718  0.86946140  1
  O  O21  1  0.17923526  0.28220282  0.63053860  1
