# generated using pymatgen
data_K2Zn6O7
_symmetry_space_group_name_H-M   'P 1'
_cell_length_a   10.83888171
_cell_length_b   10.83888171
_cell_length_c   3.32097546
_cell_angle_alpha   90.00000000
_cell_angle_beta   90.00000000
_cell_angle_gamma   90.00000000
_symmetry_Int_Tables_number   1
_chemical_formula_structural   K2Zn6O7
_chemical_formula_sum   'K4 Zn12 O14'
_cell_volume   390.15270269
_cell_formula_units_Z   2
loop_
 _symmetry_equiv_pos_site_id
 _symmetry_equiv_pos_as_xyz
  1  'x, y, z'
loop_
 _atom_site_type_symbol
 _atom_site_label
 _atom_site_symmetry_multiplicity
 _atom_site_fract_x
 _atom_site_fract_y
 _atom_site_fract_z
 _atom_site_occupancy
  K  K0  1  0.35829870  0.35829870  0.50198940  1
  K  K1  1  0.85829870  0.14170130  0.00198940  1
  K  K2  1  0.64170130  0.64170130  0.50198940  1
  K  K3  1  0.14170130  0.85829870  0.00198940  1
  Zn  Zn4  1  0.58772192  0.15177952  0.49990760  1
  Zn  Zn5  1  0.08772192  0.34822048  0.99990760  1
  Zn  Zn6  1  0.87833149  0.87833149  0.50042422  1
  Zn  Zn7  1  0.15177952  0.58772192  0.49990760  1
  Zn  Zn8  1  0.62166851  0.37833149  0.00042422  1
  Zn  Zn9  1  0.91227808  0.65177952  0.99990760  1
  Zn  Zn10  1  0.12166851  0.12166851  0.50042422  1
  Zn  Zn11  1  0.34822048  0.08772192  0.99990760  1
  Zn  Zn12  1  0.37833149  0.62166851  0.00042422  1
  Zn  Zn13  1  0.41227808  0.84822048  0.49990760  1
  Zn  Zn14  1  0.65177952  0.91227808  0.99990760  1
  Zn  Zn15  1  0.84822048  0.41227808  0.49990760  1
  O  O16  1  0.99656074  0.31187293  0.49986721  1
  O  O17  1  0.18812707  0.49656074  0.99986721  1
  O  O18  1  0.31187293  0.99656074  0.49986721  1
  O  O19  1  0.81187293  0.50343926  0.99986721  1
  O  O20  1  0.69312716  0.30687284  0.50077547  1
  O  O21  1  0.50000000  0.50000000  0.00741961  1
  O  O22  1  0.19312716  0.19312716  0.00077547  1
  O  O23  1  0.30687284  0.69312716  0.50077547  1
  O  O24  1  0.80687284  0.80687284  0.00077547  1
  O  O25  1  0.00343926  0.68812707  0.49986721  1
  O  O26  1  0.50343926  0.81187293  0.99986721  1
  O  O27  1  -0.00000000  -0.00000000  0.50741961  1
  O  O28  1  0.68812707  0.00343926  0.49986721  1
  O  O29  1  0.49656074  0.18812707  0.99986721  1
