# generated using pymatgen
data_Sr3SiO5
_symmetry_space_group_name_H-M   'P 1'
_cell_length_a   6.95771690
_cell_length_b   6.95771690
_cell_length_c   10.80115392
_cell_angle_alpha   90.00000000
_cell_angle_beta   90.00000000
_cell_angle_gamma   90.00000000
_symmetry_Int_Tables_number   1
_chemical_formula_structural   Sr3SiO5
_chemical_formula_sum   'Sr12 Si4 O20'
_cell_volume   522.88196524
_cell_formula_units_Z   4
loop_
 _symmetry_equiv_pos_site_id
 _symmetry_equiv_pos_as_xyz
  1  'x, y, z'
loop_
 _atom_site_type_symbol
 _atom_site_label
 _atom_site_symmetry_multiplicity
 _atom_site_fract_x
 _atom_site_fract_y
 _atom_site_fract_z
 _atom_site_occupancy
  Sr  Sr0  1  0.50000000  -0.00000000  0.49125654  1
  Sr  Sr1  1  0.00000000  0.50000000  0.00874346  1
  Sr  Sr2  1  0.00000000  0.50000000  0.50874346  1
  Sr  Sr3  1  0.50000000  -0.00000000  0.99125654  1
  Sr  Sr4  1  0.18786321  0.18786321  0.25000000  1
  Sr  Sr5  1  0.31213679  0.68786321  0.25000000  1
  Sr  Sr6  1  0.68786321  0.31213679  0.25000000  1
  Sr  Sr7  1  0.81213679  0.81213679  0.25000000  1
  Sr  Sr8  1  0.31213679  0.31213679  0.75000000  1
  Sr  Sr9  1  0.18786321  0.81213679  0.75000000  1
  Sr  Sr10  1  0.81213679  0.18786321  0.75000000  1
  Sr  Sr11  1  0.68786321  0.68786321  0.75000000  1
  Si  Si12  1  0.50000000  0.50000000  0.50000000  1
  Si  Si13  1  0.00000000  -0.00000000  0.50000000  1
  Si  Si14  1  0.00000000  -0.00000000  0.00000000  1
  Si  Si15  1  0.50000000  0.50000000  0.00000000  1
  O  O16  1  0.50000000  -0.00000000  0.72057036  1
  O  O17  1  0.00000000  0.50000000  0.77942964  1
  O  O18  1  0.00000000  0.50000000  0.27942964  1
  O  O19  1  0.50000000  -0.00000000  0.22057036  1
  O  O20  1  0.90116289  0.15838824  0.09208849  1
  O  O21  1  0.09883711  0.84161176  0.09208849  1
  O  O22  1  0.15838824  0.90116289  0.40791151  1
  O  O23  1  0.65838824  0.59883711  0.09208849  1
  O  O24  1  0.34161176  0.40116289  0.09208849  1
  O  O25  1  0.59883711  0.65838824  0.40791151  1
  O  O26  1  0.40116289  0.34161176  0.40791151  1
  O  O27  1  0.84161176  0.09883711  0.40791151  1
  O  O28  1  0.59883711  0.34161176  0.90791151  1
  O  O29  1  0.40116289  0.65838824  0.90791151  1
  O  O30  1  0.34161176  0.59883711  0.59208849  1
  O  O31  1  0.84161176  0.90116289  0.90791151  1
  O  O32  1  0.65838824  0.40116289  0.59208849  1
  O  O33  1  0.09883711  0.15838824  0.59208849  1
  O  O34  1  0.90116289  0.84161176  0.59208849  1
  O  O35  1  0.15838824  0.09883711  0.90791151  1
