# generated using pymatgen
data_Tl3AsS4
_symmetry_space_group_name_H-M   'P 1'
_cell_length_a   9.06200029
_cell_length_b   9.22778934
_cell_length_c   10.95771963
_cell_angle_alpha   90.00000000
_cell_angle_beta   90.00000000
_cell_angle_gamma   90.00000000
_symmetry_Int_Tables_number   1
_chemical_formula_structural   Tl3AsS4
_chemical_formula_sum   'Tl12 As4 S16'
_cell_volume   916.30894762
_cell_formula_units_Z   4
loop_
 _symmetry_equiv_pos_site_id
 _symmetry_equiv_pos_as_xyz
  1  'x, y, z'
loop_
 _atom_site_type_symbol
 _atom_site_label
 _atom_site_symmetry_multiplicity
 _atom_site_fract_x
 _atom_site_fract_y
 _atom_site_fract_z
 _atom_site_occupancy
  Tl  Tl0  1  0.93045560  0.19507391  0.44842535  1
  Tl  Tl1  1  0.43045560  0.30492609  0.05157465  1
  Tl  Tl2  1  0.56954440  0.69507391  0.55157465  1
  Tl  Tl3  1  0.06954440  0.80492609  0.94842535  1
  Tl  Tl4  1  0.06954440  0.80492609  0.55157465  1
  Tl  Tl5  1  0.56954440  0.69507391  0.94842535  1
  Tl  Tl6  1  0.43045560  0.30492609  0.44842535  1
  Tl  Tl7  1  0.93045560  0.19507391  0.05157465  1
  Tl  Tl8  1  0.39578242  0.10671123  0.75000000  1
  Tl  Tl9  1  0.89578242  0.39328877  0.75000000  1
  Tl  Tl10  1  0.10421758  0.60671123  0.25000000  1
  Tl  Tl11  1  0.60421758  0.89328877  0.25000000  1
  As  As12  1  0.28133539  0.52687593  0.75000000  1
  As  As13  1  0.21866461  0.02687593  0.25000000  1
  As  As14  1  0.78133539  0.97312407  0.75000000  1
  As  As15  1  0.71866461  0.47312407  0.25000000  1
  S  S16  1  0.99961109  0.93218298  0.25000000  1
  S  S17  1  0.50038891  0.43218298  0.75000000  1
  S  S18  1  0.49961109  0.56781702  0.25000000  1
  S  S19  1  0.00038891  0.06781702  0.75000000  1
  S  S20  1  0.84228431  0.53366519  0.41177769  1
  S  S21  1  0.34228431  0.96633481  0.08822231  1
  S  S22  1  0.65771569  0.03366519  0.58822231  1
  S  S23  1  0.15771569  0.46633481  0.91177769  1
  S  S24  1  0.15771569  0.46633481  0.58822231  1
  S  S25  1  0.65771569  0.03366519  0.91177769  1
  S  S26  1  0.34228431  0.96633481  0.41177769  1
  S  S27  1  0.84228431  0.53366519  0.08822231  1
  S  S28  1  0.69129056  0.23699941  0.25000000  1
  S  S29  1  0.19129056  0.26300059  0.25000000  1
  S  S30  1  0.80870944  0.73699941  0.75000000  1
  S  S31  1  0.30870944  0.76300059  0.75000000  1
