# generated using pymatgen
data_Ba(BSe3)2
_symmetry_space_group_name_H-M   'P 1'
_cell_length_a   6.88322729
_cell_length_b   6.88322896
_cell_length_c   10.49573739
_cell_angle_alpha   90.00000000
_cell_angle_beta   90.00000000
_cell_angle_gamma   111.42947520
_symmetry_Int_Tables_number   1
_chemical_formula_structural   Ba(BSe3)2
_chemical_formula_sum   'Ba2 B4 Se12'
_cell_volume   462.89807702
_cell_formula_units_Z   2
loop_
 _symmetry_equiv_pos_site_id
 _symmetry_equiv_pos_as_xyz
  1  'x, y, z'
loop_
 _atom_site_type_symbol
 _atom_site_label
 _atom_site_symmetry_multiplicity
 _atom_site_fract_x
 _atom_site_fract_y
 _atom_site_fract_z
 _atom_site_occupancy
  Ba  Ba0  1  0.50000000  0.50000000  0.50000000  1
  Ba  Ba1  1  -0.00000000  -0.00000000  -0.00000000  1
  B  B2  1  0.61353438  0.38646562  -0.00000000  1
  B  B3  1  0.38646562  0.61353438  -0.00000000  1
  B  B4  1  0.88646562  0.11353438  0.50000000  1
  B  B5  1  0.11353438  0.88646562  0.50000000  1
  Se  Se6  1  0.89313211  0.47615693  0.09227499  1
  Se  Se7  1  0.40119910  0.40119910  0.13700145  1
  Se  Se8  1  0.52384307  0.10686789  0.90772501  1
  Se  Se9  1  0.97615693  0.39313211  0.40772501  1
  Se  Se10  1  0.02384307  0.60686789  0.59227499  1
  Se  Se11  1  0.47615693  0.89313211  0.09227499  1
  Se  Se12  1  0.60686789  0.02384307  0.59227499  1
  Se  Se13  1  0.10686789  0.52384307  0.90772501  1
  Se  Se14  1  0.09880090  0.09880090  0.63700145  1
  Se  Se15  1  0.59880090  0.59880090  0.86299855  1
  Se  Se16  1  0.90119910  0.90119910  0.36299855  1
  Se  Se17  1  0.39313211  0.97615693  0.40772501  1
