# generated using pymatgen
data_SnGeS3
_symmetry_space_group_name_H-M   'P 1'
_cell_length_a   10.73326962
_cell_length_b   6.84458475
_cell_length_c   7.53629849
_cell_angle_alpha   73.92042028
_cell_angle_beta   90.00000000
_cell_angle_gamma   90.00000000
_symmetry_Int_Tables_number   1
_chemical_formula_structural   SnGeS3
_chemical_formula_sum   'Sn4 Ge4 S12'
_cell_volume   531.99243079
_cell_formula_units_Z   4
loop_
 _symmetry_equiv_pos_site_id
 _symmetry_equiv_pos_as_xyz
  1  'x, y, z'
loop_
 _atom_site_type_symbol
 _atom_site_label
 _atom_site_symmetry_multiplicity
 _atom_site_fract_x
 _atom_site_fract_y
 _atom_site_fract_z
 _atom_site_occupancy
  Sn  Sn0  1  0.44003786  0.71580277  0.13036899  1
  Sn  Sn1  1  0.94003786  0.78419723  0.86963101  1
  Sn  Sn2  1  0.55996214  0.28419723  0.86963101  1
  Sn  Sn3  1  0.05996214  0.21580277  0.13036899  1
  Ge  Ge4  1  0.72023966  0.01376536  0.30343380  1
  Ge  Ge5  1  0.77976034  0.51376536  0.30343380  1
  Ge  Ge6  1  0.27976034  0.98623464  0.69656620  1
  Ge  Ge7  1  0.22023966  0.48623464  0.69656620  1
  S  S8  1  0.16585007  0.90339258  0.94829817  1
  S  S9  1  0.76916237  0.19902064  0.49645888  1
  S  S10  1  0.26916237  0.30097936  0.50354112  1
  S  S11  1  0.23083763  0.80097936  0.50354112  1
  S  S12  1  0.52411299  0.07286519  0.21237155  1
  S  S13  1  0.02411299  0.42713481  0.78762845  1
  S  S14  1  0.47588701  0.92713481  0.78762845  1
  S  S15  1  0.97588701  0.57286519  0.21237155  1
  S  S16  1  0.83414993  0.09660742  0.05170183  1
  S  S17  1  0.33414993  0.40339258  0.94829817  1
  S  S18  1  0.66585007  0.59660742  0.05170183  1
  S  S19  1  0.73083763  0.69902064  0.49645888  1
