# generated using pymatgen
data_ZnCl2
_symmetry_space_group_name_H-M   'P 1'
_cell_length_a   6.55022043
_cell_length_b   11.41699565
_cell_length_c   12.26049832
_cell_angle_alpha   90.00000000
_cell_angle_beta   89.01340120
_cell_angle_gamma   90.00000000
_symmetry_Int_Tables_number   1
_chemical_formula_structural   ZnCl2
_chemical_formula_sum   'Zn12 Cl24'
_cell_volume   916.75119356
_cell_formula_units_Z   12
loop_
 _symmetry_equiv_pos_site_id
 _symmetry_equiv_pos_as_xyz
  1  'x, y, z'
loop_
 _atom_site_type_symbol
 _atom_site_label
 _atom_site_symmetry_multiplicity
 _atom_site_fract_x
 _atom_site_fract_y
 _atom_site_fract_z
 _atom_site_occupancy
  Zn  Zn0  1  0.67098921  0.66305250  0.18142464  1
  Zn  Zn1  1  0.66435267  0.31978271  0.57442624  1
  Zn  Zn2  1  0.82901079  0.16305250  0.31857536  1
  Zn  Zn3  1  0.32901079  0.33694750  0.81857536  1
  Zn  Zn4  1  0.16435267  0.18021729  0.07442624  1
  Zn  Zn5  1  0.33564733  0.68021729  0.42557376  1
  Zn  Zn6  1  0.32946554  0.00247862  0.30994108  1
  Zn  Zn7  1  0.83564733  0.81978271  0.92557376  1
  Zn  Zn8  1  0.17098921  0.83694750  0.68142464  1
  Zn  Zn9  1  0.67053446  0.99752138  0.69005892  1
  Zn  Zn10  1  0.17053446  0.50247862  0.19005892  1
  Zn  Zn11  1  0.82946554  0.49752138  0.80994108  1
  Cl  Cl12  1  0.33410012  0.32517432  0.63302414  1
  Cl  Cl13  1  0.17169088  0.51266201  0.37517144  1
  Cl  Cl14  1  0.66754136  0.32359928  0.38814519  1
  Cl  Cl15  1  0.84124918  0.16199252  0.63510342  1
  Cl  Cl16  1  0.16754136  0.17640072  0.88814519  1
  Cl  Cl17  1  0.66589988  0.67482568  0.36697586  1
  Cl  Cl18  1  0.15478918  0.50096426  0.87142618  1
  Cl  Cl19  1  0.65513481  0.34056517  0.87957021  1
  Cl  Cl20  1  0.83410012  0.17482568  0.13302414  1
  Cl  Cl21  1  0.34124818  0.33800748  0.13510342  1
  Cl  Cl22  1  0.33245864  0.67640072  0.61185481  1
  Cl  Cl23  1  0.65478918  0.99903574  0.37142618  1
  Cl  Cl24  1  0.84486519  0.84056517  0.62042979  1
  Cl  Cl25  1  0.82830912  0.48733799  0.62482856  1
  Cl  Cl26  1  0.15513481  0.15943483  0.37957021  1
  Cl  Cl27  1  0.83245864  0.82359928  0.11185481  1
  Cl  Cl28  1  0.32830912  0.01266201  0.12482856  1
  Cl  Cl29  1  0.67169088  0.98733799  0.87517144  1
  Cl  Cl30  1  0.15875082  0.83800748  0.36489658  1
  Cl  Cl31  1  0.84521082  0.49903574  0.12857382  1
  Cl  Cl32  1  0.65875082  0.66199252  0.86489658  1
  Cl  Cl33  1  0.34486519  0.65943483  0.12042979  1
  Cl  Cl34  1  0.16589988  0.82517432  0.86697586  1
  Cl  Cl35  1  0.34521082  0.00096426  0.62857382  1
