# generated using pymatgen
data_K2Cu(Si2O5)2
_symmetry_space_group_name_H-M   'P 1'
_cell_length_a   8.24520298
_cell_length_b   11.05115608
_cell_length_c   11.29824193
_cell_angle_alpha   68.98108351
_cell_angle_beta   90.00000000
_cell_angle_gamma   90.00000000
_symmetry_Int_Tables_number   1
_chemical_formula_structural   K2Cu(Si2O5)2
_chemical_formula_sum   'K8 Cu4 Si16 O40'
_cell_volume   960.98499053
_cell_formula_units_Z   4
loop_
 _symmetry_equiv_pos_site_id
 _symmetry_equiv_pos_as_xyz
  1  'x, y, z'
loop_
 _atom_site_type_symbol
 _atom_site_label
 _atom_site_symmetry_multiplicity
 _atom_site_fract_x
 _atom_site_fract_y
 _atom_site_fract_z
 _atom_site_occupancy
  K  K0  1  0.25000000  0.58198176  0.91335448  1
  K  K1  1  0.75000000  0.94310749  0.44352164  1
  K  K2  1  0.75000000  0.02275645  0.04480295  1
  K  K3  1  0.25000000  0.97724355  0.95519705  1
  K  K4  1  0.75000000  0.41801824  0.08664552  1
  K  K5  1  0.25000000  0.46312183  0.52905485  1
  K  K6  1  0.25000000  0.05689251  0.55647836  1
  K  K7  1  0.75000000  0.53687817  0.47094515  1
  Cu  Cu8  1  0.49601632  0.21137210  0.71293389  1
  Cu  Cu9  1  0.50398368  0.78862790  0.28706611  1
  Cu  Cu10  1  0.00398368  0.21137210  0.71293389  1
  Cu  Cu11  1  0.99601632  0.78862790  0.28706611  1
  Si  Si12  1  0.93489764  0.48630653  0.74979364  1
  Si  Si13  1  0.44406140  0.09568628  0.23919119  1
  Si  Si14  1  0.44090700  0.75234190  0.58792211  1
  Si  Si15  1  0.56510236  0.48630653  0.74979364  1
  Si  Si16  1  0.55909300  0.24765810  0.41207789  1
  Si  Si17  1  0.94232073  0.72836274  0.03556033  1
  Si  Si18  1  0.55767927  0.72836274  0.03556033  1
  Si  Si19  1  0.05767927  0.27163726  0.96443967  1
  Si  Si20  1  0.06510236  0.51369347  0.25020636  1
  Si  Si21  1  0.94090700  0.24765810  0.41207789  1
  Si  Si22  1  0.94406140  0.90431372  0.76080881  1
  Si  Si23  1  0.43489764  0.51369347  0.25020636  1
  Si  Si24  1  0.05909300  0.75234190  0.58792211  1
  Si  Si25  1  0.44232073  0.27163726  0.96443967  1
  Si  Si26  1  0.05593860  0.09568628  0.23919119  1
  Si  Si27  1  0.55593860  0.90431372  0.76080881  1
  O  O28  1  0.99653365  0.21738371  0.11209900  1
  O  O29  1  0.00346635  0.78261629  0.88790100  1
  O  O30  1  0.45694816  0.03063192  0.74799719  1
  O  O31  1  0.05589767  0.61199436  0.70585657  1
  O  O32  1  0.25000000  0.07788123  0.22768134  1
  O  O33  1  0.53408401  0.74869089  0.46734826  1
  O  O34  1  0.96591599  0.74869089  0.46734826  1
  O  O35  1  0.97746326  0.85946431  0.63971145  1
  O  O36  1  0.50346635  0.21738371  0.11209900  1
  O  O37  1  0.04305184  0.03063192  0.74799719  1
  O  O38  1  0.03408401  0.25130911  0.53265174  1
  O  O39  1  0.01319834  0.17433752  0.89490334  1
  O  O40  1  0.94410233  0.38800564  0.29414343  1
  O  O41  1  0.97050765  0.39468930  0.67251347  1
  O  O42  1  0.52949235  0.39468930  0.67251347  1
  O  O43  1  0.53268340  0.41365861  0.90286168  1
  O  O44  1  0.75000000  0.69271606  0.03777912  1
  O  O45  1  0.47050765  0.60531070  0.32748653  1
  O  O46  1  0.02949235  0.60531070  0.32748653  1
  O  O47  1  0.02253674  0.14053569  0.36028855  1
  O  O48  1  0.25000000  0.45703497  0.26755209  1
  O  O49  1  0.52253674  0.85946431  0.63971145  1
  O  O50  1  0.54305184  0.96936808  0.25200281  1
  O  O51  1  0.44410233  0.61199436  0.70585657  1
  O  O52  1  0.46591599  0.25130911  0.53265174  1
  O  O53  1  0.96731660  0.41365861  0.90286168  1
  O  O54  1  0.98680166  0.82566248  0.10509666  1
  O  O55  1  0.75000000  0.92211877  0.77231866  1
  O  O56  1  0.25000000  0.79317807  0.56407448  1
  O  O57  1  0.46731660  0.58634139  0.09713832  1
  O  O58  1  0.75000000  0.54296503  0.73244791  1
  O  O59  1  0.49653365  0.78261629  0.88790100  1
  O  O60  1  0.95694816  0.96936808  0.25200281  1
  O  O61  1  0.48680166  0.17433752  0.89490334  1
  O  O62  1  0.51319834  0.82566248  0.10509666  1
  O  O63  1  0.25000000  0.30728394  0.96222088  1
  O  O64  1  0.47746326  0.14053569  0.36028855  1
  O  O65  1  0.55589767  0.38800564  0.29414343  1
  O  O66  1  0.03268340  0.58634139  0.09713832  1
  O  O67  1  0.75000000  0.20682193  0.43592552  1
