# generated using pymatgen
data_Th(TeO3)2
_symmetry_space_group_name_H-M   'P 1'
_cell_length_a   11.26866160
_cell_length_b   7.21972374
_cell_length_c   8.66252971
_cell_angle_alpha   55.28776684
_cell_angle_beta   90.00000000
_cell_angle_gamma   90.00000000
_symmetry_Int_Tables_number   1
_chemical_formula_structural   Th(TeO3)2
_chemical_formula_sum   'Th4 Te8 O24'
_cell_volume   579.32376772
_cell_formula_units_Z   4
loop_
 _symmetry_equiv_pos_site_id
 _symmetry_equiv_pos_as_xyz
  1  'x, y, z'
loop_
 _atom_site_type_symbol
 _atom_site_label
 _atom_site_symmetry_multiplicity
 _atom_site_fract_x
 _atom_site_fract_y
 _atom_site_fract_z
 _atom_site_occupancy
  Th  Th0  1  0.09322387  0.25076817  0.00902023  1
  Th  Th1  1  0.59322387  0.74923183  0.49097977  1
  Th  Th2  1  0.90677613  0.74923183  0.99097977  1
  Th  Th3  1  0.40677613  0.25076817  0.50902023  1
  Te  Te4  1  0.27679437  0.79942951  0.43959876  1
  Te  Te5  1  0.77679437  0.20057049  0.06040124  1
  Te  Te6  1  0.72320563  0.20057049  0.56040124  1
  Te  Te7  1  0.22320563  0.79942951  0.93959876  1
  Te  Te8  1  0.92697780  0.72609134  0.53795474  1
  Te  Te9  1  0.42697780  0.27390866  0.96204526  1
  Te  Te10  1  0.07302220  0.27390866  0.46204526  1
  Te  Te11  1  0.57302220  0.72609134  0.03795474  1
  O  O12  1  0.24793941  0.96292388  0.18203960  1
  O  O13  1  0.74793941  0.03707612  0.31796040  1
  O  O14  1  0.75206059  0.03707612  0.81796040  1
  O  O15  1  0.25206059  0.96292388  0.68203960  1
  O  O16  1  0.40046957  0.99030068  0.41966783  1
  O  O17  1  0.90046957  0.00969932  0.08033217  1
  O  O18  1  0.59953043  0.00969932  0.58033217  1
  O  O19  1  0.09953043  0.99030068  0.91966783  1
  O  O20  1  0.40097951  0.61282523  0.45646621  1
  O  O21  1  0.90097951  0.38717477  0.04353379  1
  O  O22  1  0.59902049  0.38717477  0.54353379  1
  O  O23  1  0.09902049  0.61282523  0.95646621  1
  O  O24  1  0.02228088  0.47344553  0.70370902  1
  O  O25  1  0.52228088  0.52655447  0.79629098  1
  O  O26  1  0.97771912  0.52655447  0.29629098  1
  O  O27  1  0.47771912  0.47344553  0.20370902  1
  O  O28  1  0.90350143  0.85041881  0.67763898  1
  O  O29  1  0.40350143  0.14958119  0.82236102  1
  O  O30  1  0.09649857  0.14958119  0.32236102  1
  O  O31  1  0.59649857  0.85041881  0.17763898  1
  O  O32  1  0.78217606  0.57071489  0.60484521  1
  O  O33  1  0.28217606  0.42928511  0.89515479  1
  O  O34  1  0.21782394  0.42928511  0.39515479  1
  O  O35  1  0.71782394  0.57071489  0.10484521  1
