# generated using pymatgen
data_CsReCl4
_symmetry_space_group_name_H-M   'P 1'
_cell_length_a   10.04756772
_cell_length_b   10.04756772
_cell_length_c   10.80265575
_cell_angle_alpha   90.00000000
_cell_angle_beta   90.00000000
_cell_angle_gamma   90.55069353
_symmetry_Int_Tables_number   1
_chemical_formula_structural   CsReCl4
_chemical_formula_sum   'Cs6 Re6 Cl24'
_cell_volume   1090.51679853
_cell_formula_units_Z   6
loop_
 _symmetry_equiv_pos_site_id
 _symmetry_equiv_pos_as_xyz
  1  'x, y, z'
loop_
 _atom_site_type_symbol
 _atom_site_label
 _atom_site_symmetry_multiplicity
 _atom_site_fract_x
 _atom_site_fract_y
 _atom_site_fract_z
 _atom_site_occupancy
  Cs  Cs0  1  0.80279500  0.44379592  0.75000000  1
  Cs  Cs1  1  0.48291076  0.30089253  0.25000000  1
  Cs  Cs2  1  0.30089253  0.48291076  0.75000000  1
  Cs  Cs3  1  0.00138776  0.00138776  0.00000000  1
  Cs  Cs4  1  0.44379592  0.80279500  0.25000000  1
  Cs  Cs5  1  0.00138776  0.00138776  0.50000000  1
  Re  Re6  1  0.01284712  0.44862297  0.36340340  1
  Re  Re7  1  0.44862297  0.01284712  0.63659660  1
  Re  Re8  1  0.63677498  0.91962361  0.75000000  1
  Re  Re9  1  0.44862297  0.01284712  0.86340340  1
  Re  Re10  1  0.91962361  0.63677498  0.25000000  1
  Re  Re11  1  0.01284712  0.44862297  0.13659660  1
  Cl  Cl12  1  0.52930478  0.22806239  0.90017511  1
  Cl  Cl13  1  0.69671722  0.57363800  0.25000000  1
  Cl  Cl14  1  0.32699497  0.81915169  0.60065609  1
  Cl  Cl15  1  0.06578668  0.33477847  0.92730941  1
  Cl  Cl16  1  0.63632613  0.92079485  0.97429999  1
  Cl  Cl17  1  0.77900860  0.10353962  0.75000000  1
  Cl  Cl18  1  0.22806239  0.52930478  0.40017511  1
  Cl  Cl19  1  0.33477847  0.06578668  0.42730941  1
  Cl  Cl20  1  0.81915169  0.32699497  0.39934391  1
  Cl  Cl21  1  0.57363800  0.69671722  0.75000000  1
  Cl  Cl22  1  0.92079485  0.63632613  0.47429999  1
  Cl  Cl23  1  0.26280061  0.10535183  0.75000000  1
  Cl  Cl24  1  0.92079485  0.63632613  0.02570001  1
  Cl  Cl25  1  0.22806239  0.52930478  0.09982489  1
  Cl  Cl26  1  0.63632613  0.92079485  0.52570001  1
  Cl  Cl27  1  0.86877847  0.80665421  0.75000000  1
  Cl  Cl28  1  0.06578668  0.33477847  0.57269059  1
  Cl  Cl29  1  0.32699497  0.81915169  0.89934391  1
  Cl  Cl30  1  0.10353962  0.77900860  0.25000000  1
  Cl  Cl31  1  0.81915169  0.32699497  0.10065609  1
  Cl  Cl32  1  0.52930478  0.22806239  0.59982489  1
  Cl  Cl33  1  0.33477847  0.06578668  0.07269059  1
  Cl  Cl34  1  0.10535183  0.26280061  0.25000000  1
  Cl  Cl35  1  0.80665421  0.86877847  0.25000000  1
