# generated using pymatgen
data_Ba3V4O13
_symmetry_space_group_name_H-M   'P 1'
_cell_length_a   9.19262203
_cell_length_b   9.19262203
_cell_length_c   10.26163635
_cell_angle_alpha   70.60715063
_cell_angle_beta   70.60715063
_cell_angle_gamma   58.06573848
_symmetry_Int_Tables_number   1
_chemical_formula_structural   Ba3V4O13
_chemical_formula_sum   'Ba6 V8 O26'
_cell_volume   680.78153403
_cell_formula_units_Z   2
loop_
 _symmetry_equiv_pos_site_id
 _symmetry_equiv_pos_as_xyz
  1  'x, y, z'
loop_
 _atom_site_type_symbol
 _atom_site_label
 _atom_site_symmetry_multiplicity
 _atom_site_fract_x
 _atom_site_fract_y
 _atom_site_fract_z
 _atom_site_occupancy
  Ba  Ba0  1  0.10470644  0.89529356  0.75000000  1
  Ba  Ba1  1  0.89529356  0.10470644  0.25000000  1
  Ba  Ba2  1  0.96582799  0.62723694  0.19151943  1
  Ba  Ba3  1  0.37276306  0.03417201  0.30848057  1
  Ba  Ba4  1  0.03417201  0.37276306  0.80848057  1
  Ba  Ba5  1  0.62723694  0.96582799  0.69151943  1
  V  V6  1  0.63167892  0.59168451  0.13384097  1
  V  V7  1  0.40831549  0.36832108  0.36615903  1
  V  V8  1  0.36832108  0.40831549  0.86615903  1
  V  V9  1  0.59168451  0.63167892  0.63384097  1
  V  V10  1  0.28283397  0.89907290  0.00013299  1
  V  V11  1  0.10092710  0.71716603  0.49986701  1
  V  V12  1  0.71716603  0.10092710  0.99986701  1
  V  V13  1  0.89907290  0.28283397  0.50013299  1
  O  O14  1  0.57144040  0.42855960  0.25000000  1
  O  O15  1  0.42855960  0.57144040  0.75000000  1
  O  O16  1  0.28085065  0.00891427  0.83084570  1
  O  O17  1  0.99108573  0.71914935  0.66915430  1
  O  O18  1  0.71914935  0.99108573  0.16915430  1
  O  O19  1  0.00891427  0.28085065  0.33084570  1
  O  O20  1  0.14040025  0.81959729  0.04455618  1
  O  O21  1  0.18040271  0.85959975  0.45544382  1
  O  O22  1  0.85959975  0.18040271  0.95544382  1
  O  O23  1  0.81959729  0.14040025  0.54455618  1
  O  O24  1  0.22301582  0.03565191  0.10716912  1
  O  O25  1  0.96434809  0.77698418  0.39283088  1
  O  O26  1  0.77698418  0.96434809  0.89283088  1
  O  O27  1  0.03565191  0.22301582  0.60716912  1
  O  O28  1  0.72335204  0.50534693  0.50216920  1
  O  O29  1  0.49465307  0.27664796  0.99783080  1
  O  O30  1  0.27664796  0.49465307  0.49783080  1
  O  O31  1  0.50534693  0.72335204  0.00216920  1
  O  O32  1  0.48220095  0.84224259  0.56381482  1
  O  O33  1  0.15775741  0.51779905  0.93618518  1
  O  O34  1  0.61538160  0.71872422  0.22656398  1
  O  O35  1  0.84224259  0.48220095  0.06381482  1
  O  O36  1  0.71872422  0.61538160  0.72656398  1
  O  O37  1  0.38461840  0.28127578  0.77343602  1
  O  O38  1  0.28127578  0.38461840  0.27343602  1
  O  O39  1  0.51779905  0.15775741  0.43618518  1
