# generated using pymatgen
data_Mn4Si7
_symmetry_space_group_name_H-M   'P 1'
_cell_length_a   5.43272198
_cell_length_b   5.43266687
_cell_length_c   17.12332659
_cell_angle_alpha   90.00000000
_cell_angle_beta   90.00000000
_cell_angle_gamma   89.99541165
_symmetry_Int_Tables_number   1
_chemical_formula_structural   Mn4Si7
_chemical_formula_sum   'Mn16 Si28'
_cell_volume   505.38074912
_cell_formula_units_Z   4
loop_
 _symmetry_equiv_pos_site_id
 _symmetry_equiv_pos_as_xyz
  1  'x, y, z'
loop_
 _atom_site_type_symbol
 _atom_site_label
 _atom_site_symmetry_multiplicity
 _atom_site_fract_x
 _atom_site_fract_y
 _atom_site_fract_z
 _atom_site_occupancy
  Mn  Mn0  1  -0.00000000  0.50000000  0.31106501  1
  Mn  Mn1  1  0.50000000  0.50000000  0.87045888  1
  Mn  Mn2  1  0.50000000  0.00000000  0.19220303  1
  Mn  Mn3  1  0.50000000  0.50000000  0.62887585  1
  Mn  Mn4  1  0.50000000  0.50000000  0.12883185  1
  Mn  Mn5  1  0.50000000  0.50000000  0.37041569  1
  Mn  Mn6  1  -0.00000000  0.00000000  0.49865784  1
  Mn  Mn7  1  0.50000000  0.00000000  0.93364718  1
  Mn  Mn8  1  -0.00000000  0.00000000  0.25190756  1
  Mn  Mn9  1  0.50000000  0.00000000  0.43372008  1
  Mn  Mn10  1  -0.00000000  0.50000000  0.56391805  1
  Mn  Mn11  1  -0.00000000  0.00000000  0.99862388  1
  Mn  Mn12  1  0.50000000  0.00000000  0.69218665  1
  Mn  Mn13  1  -0.00000000  0.50000000  0.06387849  1
  Mn  Mn14  1  -0.00000000  0.50000000  0.81109550  1
  Mn  Mn15  1  -0.00000000  0.00000000  0.75189343  1
  Si  Si16  1  0.78859828  0.84668384  0.10772519  1
  Si  Si17  1  0.32733093  0.66305297  0.74770093  1
  Si  Si18  1  0.20968032  0.34647727  0.95422222  1
  Si  Si19  1  0.21140172  0.15331616  0.10772519  1
  Si  Si20  1  0.15815195  0.31251878  0.67932758  1
  Si  Si21  1  0.21109020  0.84660129  0.60780981  1
  Si  Si22  1  0.15839431  0.81353203  0.88298075  1
  Si  Si23  1  0.67197751  0.16339033  0.31473295  1
  Si  Si24  1  0.84184805  0.68748122  0.67932758  1
  Si  Si25  1  0.15837030  0.18658338  0.38302024  1
  Si  Si26  1  0.67268954  0.66302152  0.24768491  1
  Si  Si27  1  0.15809448  0.68760551  0.17928907  1
  Si  Si28  1  0.79031968  0.65352273  0.95422222  1
  Si  Si29  1  0.32802149  0.83660967  0.31473295  1
  Si  Si30  1  0.78890980  0.15339871  0.60780981  1
  Si  Si31  1  0.34726597  0.74874285  0.03087777  1
  Si  Si32  1  0.32803906  0.16341033  0.81471885  1
  Si  Si33  1  0.32731046  0.33697848  0.24768491  1
  Si  Si34  1  0.67196094  0.83658967  0.81471885  1
  Si  Si35  1  0.65273403  0.25125715  0.03087777  1
  Si  Si36  1  0.20998839  0.65343999  0.45430290  1
  Si  Si37  1  0.79001161  0.34656001  0.45430290  1
  Si  Si38  1  0.84162970  0.81341662  0.38302024  1
  Si  Si39  1  0.65275563  0.74932945  0.53106485  1
  Si  Si40  1  0.34724437  0.25067055  0.53106485  1
  Si  Si41  1  0.67266907  0.33694703  0.74770093  1
  Si  Si42  1  0.84190552  0.31239449  0.17928907  1
  Si  Si43  1  0.84160569  0.18646797  0.88298075  1
