# generated using pymatgen
data_AgTeO3
_symmetry_space_group_name_H-M   'P 1'
_cell_length_a   5.46174568
_cell_length_b   6.91813729
_cell_length_c   7.39980156
_cell_angle_alpha   90.00000081
_cell_angle_beta   89.99999287
_cell_angle_gamma   101.30216516
_symmetry_Int_Tables_number   1
_chemical_formula_structural   AgTeO3
_chemical_formula_sum   'Ag4 Te4 O12'
_cell_volume   274.18003351
_cell_formula_units_Z   4
loop_
 _symmetry_equiv_pos_site_id
 _symmetry_equiv_pos_as_xyz
  1  'x, y, z'
loop_
 _atom_site_type_symbol
 _atom_site_label
 _atom_site_symmetry_multiplicity
 _atom_site_fract_x
 _atom_site_fract_y
 _atom_site_fract_z
 _atom_site_occupancy
  Ag  Ag0  1  0.00000330  -0.00000045  0.49999616  1
  Ag  Ag1  1  0.00000306  -0.00000035  0.00000374  1
  Ag  Ag2  1  0.56888113  0.82073887  0.75000039  1
  Ag  Ag3  1  0.43112475  0.17926026  0.24999991  1
  Te  Te4  1  0.51859755  0.68250154  0.25000001  1
  Te  Te5  1  0.48141223  0.31749900  0.75000002  1
  Te  Te6  1  0.00000125  0.50000096  0.00000090  1
  Te  Te7  1  0.00000128  0.50000095  0.49999909  1
  O  O8  1  0.22949888  0.32499019  0.48745645  1
  O  O9  1  0.73876186  0.27621876  0.93578014  1
  O  O10  1  0.66188279  0.94744618  0.24999985  1
  O  O11  1  0.89857719  0.43780272  0.24999999  1
  O  O12  1  0.22949880  0.32499014  0.01254340  1
  O  O13  1  0.10141165  0.56220323  0.75000000  1
  O  O14  1  0.73876191  0.27621876  0.56421986  1
  O  O15  1  0.26123205  0.72378304  0.06422267  1
  O  O16  1  0.77049058  0.67500585  0.98746528  1
  O  O17  1  0.77049052  0.67500574  0.51253480  1
  O  O18  1  0.26123190  0.72378319  0.43577723  1
  O  O19  1  0.33813733  0.05255142  0.75000011  1
