# generated using pymatgen
data_KCrF3
_symmetry_space_group_name_H-M   'P 1'
_cell_length_a   5.91409105
_cell_length_b   5.91409105
_cell_length_c   5.91409105
_cell_angle_alpha   121.02082467
_cell_angle_beta   121.02082467
_cell_angle_gamma   88.24079061
_symmetry_Int_Tables_number   1
_chemical_formula_structural   KCrF3
_chemical_formula_sum   'K2 Cr2 F6'
_cell_volume   143.93737201
_cell_formula_units_Z   2
loop_
 _symmetry_equiv_pos_site_id
 _symmetry_equiv_pos_as_xyz
  1  'x, y, z'
loop_
 _atom_site_type_symbol
 _atom_site_label
 _atom_site_symmetry_multiplicity
 _atom_site_fract_x
 _atom_site_fract_y
 _atom_site_fract_z
 _atom_site_occupancy
  K  K0  1  0.25000000  0.75000000  0.50000000  1
  K  K1  1  0.75000000  0.25000000  0.50000000  1
  Cr  Cr2  1  0.50000000  0.50000000  -0.00000000  1
  Cr  Cr3  1  -0.00000000  -0.00000000  -0.00000000  1
  F  F4  1  0.23164595  0.23164595  -0.00000000  1
  F  F5  1  0.76835405  0.76835405  -0.00000000  1
  F  F6  1  0.26575695  0.75037119  0.01613014  1
  F  F7  1  0.73424305  0.24962881  0.98386986  1
  F  F8  1  0.24962881  0.26575695  0.51538576  1
  F  F9  1  0.75037119  0.73424305  0.48461424  1
