# generated using pymatgen
data_GeS2
_symmetry_space_group_name_H-M   'P 1'
_cell_length_a   6.87140211
_cell_length_b   6.87198756
_cell_length_c   22.67392368
_cell_angle_alpha   90.00000000
_cell_angle_beta   90.00000000
_cell_angle_gamma   116.20197418
_symmetry_Int_Tables_number   1
_chemical_formula_structural   GeS2
_chemical_formula_sum   'Ge12 S24'
_cell_volume   960.64862067
_cell_formula_units_Z   12
loop_
 _symmetry_equiv_pos_site_id
 _symmetry_equiv_pos_as_xyz
  1  'x, y, z'
loop_
 _atom_site_type_symbol
 _atom_site_label
 _atom_site_symmetry_multiplicity
 _atom_site_fract_x
 _atom_site_fract_y
 _atom_site_fract_z
 _atom_site_occupancy
  Ge  Ge0  1  0.74759362  0.25198370  0.73797126  1
  Ge  Ge1  1  0.37171600  0.61878815  0.37506207  1
  Ge  Ge2  1  0.86734981  0.61343917  0.12510311  1
  Ge  Ge3  1  0.00171244  0.99013332  0.01201676  1
  Ge  Ge4  1  0.86734981  0.11343917  0.87489689  1
  Ge  Ge5  1  0.37171600  0.11878815  0.62493793  1
  Ge  Ge6  1  0.00171244  0.49013332  0.98798324  1
  Ge  Ge7  1  0.50786833  0.99695096  0.48773626  1
  Ge  Ge8  1  0.24730002  0.25139953  0.76236657  1
  Ge  Ge9  1  0.50786833  0.49695096  0.51226374  1
  Ge  Ge10  1  0.74759362  0.75198370  0.26202874  1
  Ge  Ge11  1  0.24730002  0.75139953  0.23763343  1
  S  S12  1  0.18249749  0.11103572  0.85255291  1
  S  S13  1  0.09938113  0.47679615  0.74686774  1
  S  S14  1  0.68671793  0.11640747  0.64729801  1
  S  S15  1  0.68671793  0.61640747  0.35270199  1
  S  S16  1  0.59926016  0.97663894  0.24581890  1
  S  S17  1  0.23161629  0.88227555  0.55125558  1
  S  S18  1  0.73292648  0.84883085  0.50363048  1
  S  S19  1  0.72632851  0.37526584  0.05183021  1
  S  S20  1  0.72632851  0.87526584  0.94816979  1
  S  S21  1  0.37024400  0.43442027  0.60275900  1
  S  S22  1  0.18249749  0.61103572  0.14744709  1
  S  S23  1  0.23161629  0.38227555  0.44874442  1
  S  S24  1  0.37024400  0.93442027  0.39724100  1
  S  S25  1  0.86267842  0.92711024  0.10231091  1
  S  S26  1  0.13400124  0.97694084  0.69826540  1
  S  S27  1  0.86267842  0.42711024  0.89768909  1
  S  S28  1  0.73292648  0.34883085  0.49636952  1
  S  S29  1  0.63120436  0.47454749  0.19890404  1
  S  S30  1  0.22690176  0.84203280  0.99648484  1
  S  S31  1  0.59926016  0.47663894  0.75418110  1
  S  S32  1  0.13400124  0.47694084  0.30173460  1
  S  S33  1  0.22690176  0.34203280  0.00351516  1
  S  S34  1  0.09938113  0.97679615  0.25313226  1
  S  S35  1  0.63120436  0.97454749  0.80109596  1
