# generated using pymatgen
data_Rb4(BSe)9
_symmetry_space_group_name_H-M   'P 1'
_cell_length_a   10.49425583
_cell_length_b   10.62351375
_cell_length_c   11.01886582
_cell_angle_alpha   91.38672975
_cell_angle_beta   104.33903952
_cell_angle_gamma   109.44811104
_symmetry_Int_Tables_number   1
_chemical_formula_structural   Rb4(BSe)9
_chemical_formula_sum   'Rb8 B18 Se18'
_cell_volume   1114.59586478
_cell_formula_units_Z   2
loop_
 _symmetry_equiv_pos_site_id
 _symmetry_equiv_pos_as_xyz
  1  'x, y, z'
loop_
 _atom_site_type_symbol
 _atom_site_label
 _atom_site_symmetry_multiplicity
 _atom_site_fract_x
 _atom_site_fract_y
 _atom_site_fract_z
 _atom_site_occupancy
  Rb  Rb0  1  0.35950698  0.99608842  0.63140146  1
  Rb  Rb1  1  0.64049302  0.00391158  0.36859854  1
  Rb  Rb2  1  0.38770752  0.62693941  0.86846541  1
  Rb  Rb3  1  0.61229248  0.37306059  0.13153459  1
  Rb  Rb4  1  0.24762212  0.37073479  0.52522538  1
  Rb  Rb5  1  0.75237788  0.62926521  0.47477462  1
  Rb  Rb6  1  0.17002147  0.61536290  0.25521573  1
  Rb  Rb7  1  0.82997853  0.38463710  0.74478427  1
  B  B8  1  0.87355519  0.86158144  0.91457365  1
  B  B9  1  0.12644481  0.13841856  0.08542635  1
  B  B10  1  0.87895632  0.02436953  0.87710323  1
  B  B11  1  0.12104368  0.97563047  0.12289677  1
  B  B12  1  0.83756203  0.96739868  0.01769450  1
  B  B13  1  0.16243797  0.03260132  0.98230550  1
  B  B14  1  0.94017926  0.86842884  0.08044614  1
  B  B15  1  0.05982074  0.13157116  0.91955386  1
  B  B16  1  0.04794555  0.86496969  0.97858682  1
  B  B17  1  0.95205445  0.13503031  0.02141318  1
  B  B18  1  0.01021240  0.96238811  0.85481376  1
  B  B19  1  0.98978760  0.03761189  0.14518624  1
  B  B20  1  0.63575211  0.82072771  0.68563379  1
  B  B21  1  0.36424789  0.17927229  0.31436621  1
  B  B22  1  0.66546283  0.75954225  0.14392057  1
  B  B23  1  0.33453717  0.24045775  0.85607943  1
  B  B24  1  0.07827805  0.74378644  0.74382718  1
  B  B25  1  0.92172195  0.25621356  0.25617282  1
  Se  Se26  1  0.71711905  0.71013707  0.79972080  1
  Se  Se27  1  0.28288095  0.28986293  0.20027920  1
  Se  Se28  1  0.72452236  0.01991721  0.72514052  1
  Se  Se29  1  0.27547764  0.98008279  0.27485948  1
  Se  Se30  1  0.64933432  0.91274329  0.05147150  1
  Se  Se31  1  0.35066568  0.08725671  0.94852850  1
  Se  Se32  1  0.84314035  0.72109927  0.17131830  1
  Se  Se33  1  0.15685965  0.27890073  0.82868170  1
  Se  Se34  1  0.09688179  0.70971083  0.92348459  1
  Se  Se35  1  0.90311821  0.29028917  0.07651541  1
  Se  Se36  1  0.02698837  0.90031442  0.68912429  1
  Se  Se37  1  0.97301163  0.09968558  0.31087571  1
  Se  Se38  1  0.47781754  0.74044842  0.54396371  1
  Se  Se39  1  0.52218246  0.25955158  0.45603629  1
  Se  Se40  1  0.51511855  0.64971427  0.20435432  1
  Se  Se41  1  0.48488145  0.35028573  0.79564568  1
  Se  Se42  1  0.10244383  0.62723295  0.62528482  1
  Se  Se43  1  0.89755617  0.37276705  0.37471518  1
