# generated using pymatgen
data_ZnS
_symmetry_space_group_name_H-M   'P 1'
_cell_length_a   18.80589304
_cell_length_b   18.80589304
_cell_length_c   18.80589326
_cell_angle_alpha   11.62270855
_cell_angle_beta   11.62270855
_cell_angle_gamma   11.62270638
_symmetry_Int_Tables_number   1
_chemical_formula_structural   ZnS
_chemical_formula_sum   'Zn6 S6'
_cell_volume   234.58666022
_cell_formula_units_Z   6
loop_
 _symmetry_equiv_pos_site_id
 _symmetry_equiv_pos_as_xyz
  1  'x, y, z'
loop_
 _atom_site_type_symbol
 _atom_site_label
 _atom_site_symmetry_multiplicity
 _atom_site_fract_x
 _atom_site_fract_y
 _atom_site_fract_z
 _atom_site_occupancy
  Zn  Zn0  1  0.55555670  0.55555670  0.55555670  1
  Zn  Zn1  1  0.16666019  0.16666019  0.16666019  1
  Zn  Zn2  1  0.38893419  0.38893419  0.38893419  1
  Zn  Zn3  1  0.27779328  0.27779328  0.27779328  1
  Zn  Zn4  1  0.00000607  0.00000607  0.00000607  1
  Zn  Zn5  1  0.77779657  0.77779657  0.77779657  1
  S  S6  1  0.59724873  0.59724873  0.59724873  1
  S  S7  1  0.04170436  0.04170436  0.04170436  1
  S  S8  1  0.43056893  0.43056893  0.43056893  1
  S  S9  1  0.20828628  0.20828628  0.20828628  1
  S  S10  1  0.31940015  0.31940015  0.31940015  1
  S  S11  1  0.81944156  0.81944156  0.81944156  1
