# generated using pymatgen
data_Ti4Bi2O11
_symmetry_space_group_name_H-M   'P 1'
_cell_length_a   7.58566072
_cell_length_b   7.58566072
_cell_length_c   14.98301253
_cell_angle_alpha   86.92724789
_cell_angle_beta   86.92724789
_cell_angle_gamma   29.00710378
_symmetry_Int_Tables_number   1
_chemical_formula_structural   Ti4Bi2O11
_chemical_formula_sum   'Ti8 Bi4 O22'
_cell_volume   417.43379262
_cell_formula_units_Z   2
loop_
 _symmetry_equiv_pos_site_id
 _symmetry_equiv_pos_as_xyz
  1  'x, y, z'
loop_
 _atom_site_type_symbol
 _atom_site_label
 _atom_site_symmetry_multiplicity
 _atom_site_fract_x
 _atom_site_fract_y
 _atom_site_fract_z
 _atom_site_occupancy
  Ti  Ti0  1  0.40315980  0.89018698  0.48350990  1
  Ti  Ti1  1  0.19648118  0.69673937  0.64083506  1
  Ti  Ti2  1  0.69673937  0.19648118  0.14083506  1
  Ti  Ti3  1  0.59684020  0.10981302  0.51649010  1
  Ti  Ti4  1  0.80351882  0.30326063  0.35916494  1
  Ti  Ti5  1  0.10981302  0.59684020  0.01649010  1
  Ti  Ti6  1  0.89018698  0.40315980  0.98350990  1
  Ti  Ti7  1  0.30326063  0.80351882  0.85916494  1
  Bi  Bi8  1  0.36782903  0.98996947  0.17986464  1
  Bi  Bi9  1  0.01003053  0.63217097  0.32013536  1
  Bi  Bi10  1  0.98996947  0.36782903  0.67986464  1
  Bi  Bi11  1  0.63217097  0.01003053  0.82013536  1
  O  O12  1  0.53276000  0.00657730  0.41634544  1
  O  O13  1  0.46724000  0.99342270  0.58365456  1
  O  O14  1  0.66860122  0.17226242  0.62923564  1
  O  O15  1  0.10825621  0.61428419  0.53456420  1
  O  O16  1  0.80383776  0.30302188  0.07428156  1
  O  O17  1  0.44089771  0.92612436  0.77632630  1
  O  O18  1  0.22999802  0.77000198  0.75000000  1
  O  O19  1  0.07387564  0.55910229  0.72367370  1
  O  O20  1  0.38571581  0.89174379  0.96543580  1
  O  O21  1  0.30302188  0.80383776  0.57428156  1
  O  O22  1  0.33139878  0.82773758  0.37076436  1
  O  O23  1  0.92612436  0.44089771  0.27632630  1
  O  O24  1  0.82773758  0.33139878  0.87076436  1
  O  O25  1  0.00657730  0.53276000  0.91634544  1
  O  O26  1  0.55910229  0.07387564  0.22367370  1
  O  O27  1  0.19616224  0.69697812  0.92571844  1
  O  O28  1  0.69697812  0.19616224  0.42571844  1
  O  O29  1  0.99342270  0.46724000  0.08365456  1
  O  O30  1  0.77000198  0.22999802  0.25000000  1
  O  O31  1  0.17226242  0.66860122  0.12923564  1
  O  O32  1  0.61428419  0.10825621  0.03456420  1
  O  O33  1  0.89174379  0.38571581  0.46543580  1
