# generated using pymatgen
data_Rb3MnO3
_symmetry_space_group_name_H-M   'P 1'
_cell_length_a   6.89761846
_cell_length_b   7.04614347
_cell_length_c   11.85839221
_cell_angle_alpha   89.99713639
_cell_angle_beta   90.00164123
_cell_angle_gamma   98.41478587
_symmetry_Int_Tables_number   1
_chemical_formula_structural   Rb3MnO3
_chemical_formula_sum   'Rb12 Mn4 O12'
_cell_volume   570.13244693
_cell_formula_units_Z   4
loop_
 _symmetry_equiv_pos_site_id
 _symmetry_equiv_pos_as_xyz
  1  'x, y, z'
loop_
 _atom_site_type_symbol
 _atom_site_label
 _atom_site_symmetry_multiplicity
 _atom_site_fract_x
 _atom_site_fract_y
 _atom_site_fract_z
 _atom_site_occupancy
  Rb  Rb0  1  0.00808314  0.07385848  0.27411149  1
  Rb  Rb1  1  0.99195796  0.92612098  0.72591975  1
  Rb  Rb2  1  0.00808004  0.57384624  0.22586078  1
  Rb  Rb3  1  0.99192741  0.42613673  0.77411671  1
  Rb  Rb4  1  0.53076292  0.50383169  0.70900388  1
  Rb  Rb5  1  0.53079728  0.00382957  0.79101296  1
  Rb  Rb6  1  0.46923944  0.49616996  0.29100326  1
  Rb  Rb7  1  0.46924004  0.99617810  0.20898110  1
  Rb  Rb8  1  0.34058616  0.64368180  0.98847630  1
  Rb  Rb9  1  0.34058180  0.14368795  0.51154038  1
  Rb  Rb10  1  0.65943736  0.85635599  0.48845658  1
  Rb  Rb11  1  0.65937891  0.35629553  0.01153193  1
  Mn  Mn12  1  0.84156857  0.84384811  0.00352972  1
  Mn  Mn13  1  0.15841827  0.65616817  0.50351670  1
  Mn  Mn14  1  0.15841945  0.15613792  0.99649388  1
  Mn  Mn15  1  0.84158217  0.34382604  0.49646663  1
  O  O16  1  0.27247534  0.80018331  0.38423102  1
  O  O17  1  0.72751367  0.69978329  0.88423108  1
  O  O18  1  0.72754821  0.19982922  0.61577486  1
  O  O19  1  0.27247718  0.30020681  0.11577309  1
  O  O20  1  0.90065109  0.09080646  0.92751037  1
  O  O21  1  0.09931739  0.40922234  0.42751211  1
  O  O22  1  0.90071768  0.59086149  0.57247343  1
  O  O23  1  0.09929105  0.90917763  0.07249927  1
  O  O24  1  0.29982102  0.77269161  0.62404326  1
  O  O25  1  0.70016753  0.22730544  0.37592943  1
  O  O26  1  0.70011954  0.72730942  0.12404794  1
  O  O27  1  0.29984238  0.27264772  0.87594911  1
