# generated using pymatgen
data_HgNO3
_symmetry_space_group_name_H-M   'P 1'
_cell_length_a   8.31497555
_cell_length_b   6.28662499
_cell_length_c   11.72064329
_cell_angle_alpha   87.06225777
_cell_angle_beta   90.00000000
_cell_angle_gamma   90.00000000
_symmetry_Int_Tables_number   1
_chemical_formula_structural   HgNO3
_chemical_formula_sum   'Hg8 N8 O24'
_cell_volume   611.86957745
_cell_formula_units_Z   8
loop_
 _symmetry_equiv_pos_site_id
 _symmetry_equiv_pos_as_xyz
  1  'x, y, z'
loop_
 _atom_site_type_symbol
 _atom_site_label
 _atom_site_symmetry_multiplicity
 _atom_site_fract_x
 _atom_site_fract_y
 _atom_site_fract_z
 _atom_site_occupancy
  Hg  Hg0  1  0.33677306  0.81990531  0.35691207  1
  Hg  Hg1  1  0.83677306  0.18009469  0.64308793  1
  Hg  Hg2  1  0.95230507  0.80673755  0.67467899  1
  Hg  Hg3  1  0.45230507  0.19326245  0.32532101  1
  Hg  Hg4  1  0.98187714  0.65388661  0.08907152  1
  Hg  Hg5  1  0.48187714  0.34611339  0.91092848  1
  Hg  Hg6  1  0.99509746  0.28121465  0.18492289  1
  Hg  Hg7  1  0.49509746  0.71878535  0.81507711  1
  N  N8  1  0.83985803  0.99903120  0.93810669  1
  N  N9  1  0.33985803  0.00096880  0.06189331  1
  N  N10  1  0.86768147  0.93091400  0.32730091  1
  N  N11  1  0.36768147  0.06908600  0.67269909  1
  N  N12  1  0.60424259  0.54107274  0.17575981  1
  N  N13  1  0.10424259  0.45892726  0.82424019  1
  N  N14  1  0.61544930  0.50458862  0.55461291  1
  N  N15  1  0.11544930  0.49541138  0.44538709  1
  O  O16  1  0.29503702  0.82257045  0.09899343  1
  O  O17  1  0.79503702  0.17742955  0.90100657  1
  O  O18  1  0.79303875  0.82876929  0.89871349  1
  O  O19  1  0.29303875  0.17123071  0.10128651  1
  O  O20  1  0.94356737  0.98856019  0.02142368  1
  O  O21  1  0.44356737  0.01143981  0.97857632  1
  O  O22  1  0.84036220  0.75724020  0.37566395  1
  O  O23  1  0.34036220  0.24275980  0.62433605  1
  O  O24  1  0.27909330  0.90959776  0.66903852  1
  O  O25  1  0.77909330  0.09040224  0.33096148  1
  O  O26  1  0.00158904  0.95267370  0.26622216  1
  O  O27  1  0.50158904  0.04732630  0.73377784  1
  O  O28  1  0.65375249  0.71924573  0.14316662  1
  O  O29  1  0.15375249  0.28075427  0.85683338  1
  O  O30  1  0.62952158  0.37553357  0.12379512  1
  O  O31  1  0.12952158  0.62446643  0.87620488  1
  O  O32  1  0.52347535  0.52446794  0.27121081  1
  O  O33  1  0.02347535  0.47553206  0.72878919  1
  O  O34  1  0.62431577  0.35216816  0.49085025  1
  O  O35  1  0.12431577  0.64783184  0.50914975  1
  O  O36  1  0.52266181  0.65635392  0.54134842  1
  O  O37  1  0.02266181  0.34364608  0.45865158  1
  O  O38  1  0.71220922  0.49955246  0.64303048  1
  O  O39  1  0.21220922  0.50044754  0.35696952  1
