# generated using pymatgen
data_RbP4N7
_symmetry_space_group_name_H-M   'P 1'
_cell_length_a   4.68460667
_cell_length_b   9.89701691
_cell_length_c   12.32682564
_cell_angle_alpha   90.00000000
_cell_angle_beta   90.00000000
_cell_angle_gamma   90.00000000
_symmetry_Int_Tables_number   1
_chemical_formula_structural   RbP4N7
_chemical_formula_sum   'Rb4 P16 N28'
_cell_volume   571.51640067
_cell_formula_units_Z   4
loop_
 _symmetry_equiv_pos_site_id
 _symmetry_equiv_pos_as_xyz
  1  'x, y, z'
loop_
 _atom_site_type_symbol
 _atom_site_label
 _atom_site_symmetry_multiplicity
 _atom_site_fract_x
 _atom_site_fract_y
 _atom_site_fract_z
 _atom_site_occupancy
  Rb  Rb0  1  0.27167150  0.14669083  0.75000000  1
  Rb  Rb1  1  0.77167150  0.35330917  0.25000000  1
  Rb  Rb2  1  0.72832850  0.85330917  0.25000000  1
  Rb  Rb3  1  0.22832850  0.64669083  0.75000000  1
  P  P4  1  0.78615278  0.41142774  0.86986194  1
  P  P5  1  0.28615278  0.08857226  0.13013806  1
  P  P6  1  0.21384722  0.58857226  0.36986194  1
  P  P7  1  0.71384722  0.91142774  0.63013806  1
  P  P8  1  0.21384722  0.58857226  0.13013806  1
  P  P9  1  0.71384722  0.91142774  0.86986194  1
  P  P10  1  0.78615278  0.41142774  0.63013806  1
  P  P11  1  0.28615278  0.08857226  0.36986194  1
  P  P12  1  0.77854470  0.15694505  0.00006944  1
  P  P13  1  0.27854470  0.34305495  0.99993056  1
  P  P14  1  0.22145530  0.84305495  0.50006944  1
  P  P15  1  0.72145530  0.65694505  0.49993056  1
  P  P16  1  0.22145530  0.84305495  0.99993056  1
  P  P17  1  0.72145530  0.65694505  0.00006944  1
  P  P18  1  0.77854470  0.15694505  0.49993056  1
  P  P19  1  0.27854470  0.34305495  0.50006944  1
  N  N20  1  0.70346212  0.37230335  0.75000000  1
  N  N21  1  0.20346212  0.12769665  0.25000000  1
  N  N22  1  0.29653788  0.62769665  0.25000000  1
  N  N23  1  0.79653788  0.87230335  0.75000000  1
  N  N24  1  0.11576672  0.38542135  0.89397408  1
  N  N25  1  0.61576672  0.11457865  0.10602592  1
  N  N26  1  0.88423328  0.61457865  0.39397408  1
  N  N27  1  0.38423328  0.88542135  0.60602592  1
  N  N28  1  0.88423328  0.61457865  0.10602592  1
  N  N29  1  0.38423328  0.88542135  0.89397408  1
  N  N30  1  0.11576672  0.38542135  0.60602592  1
  N  N31  1  0.61576672  0.11457865  0.39397408  1
  N  N32  1  0.81838289  0.05985655  0.90012509  1
  N  N33  1  0.31838289  0.44014345  0.09987491  1
  N  N34  1  0.18161711  0.94014345  0.40012509  1
  N  N35  1  0.68161711  0.55985655  0.59987491  1
  N  N36  1  0.18161711  0.94014345  0.09987491  1
  N  N37  1  0.68161711  0.55985655  0.90012509  1
  N  N38  1  0.81838289  0.05985655  0.59987491  1
  N  N39  1  0.31838289  0.44014345  0.40012509  1
  N  N40  1  0.61408764  0.29964962  0.95611950  1
  N  N41  1  0.11408764  0.20035038  0.04388050  1
  N  N42  1  0.38591236  0.70035038  0.45611950  1
  N  N43  1  0.88591236  0.79964962  0.54388050  1
  N  N44  1  0.38591236  0.70035038  0.04388050  1
  N  N45  1  0.88591236  0.79964962  0.95611950  1
  N  N46  1  0.61408764  0.29964962  0.54388050  1
  N  N47  1  0.11408764  0.20035038  0.45611950  1
