# generated using pymatgen
data_Na3AlP2
_symmetry_space_group_name_H-M   'P 1'
_cell_length_a   5.98695038
_cell_length_b   6.77535238
_cell_length_c   7.97871205
_cell_angle_alpha   115.13141521
_cell_angle_beta   112.03560800
_cell_angle_gamma   89.99999874
_symmetry_Int_Tables_number   1
_chemical_formula_structural   Na3AlP2
_chemical_formula_sum   'Na6 Al2 P4'
_cell_volume   266.66380361
_cell_formula_units_Z   2
loop_
 _symmetry_equiv_pos_site_id
 _symmetry_equiv_pos_as_xyz
  1  'x, y, z'
loop_
 _atom_site_type_symbol
 _atom_site_label
 _atom_site_symmetry_multiplicity
 _atom_site_fract_x
 _atom_site_fract_y
 _atom_site_fract_z
 _atom_site_occupancy
  Na  Na0  1  0.74964130  0.50000000  0.00000000  1
  Na  Na1  1  0.25035870  0.50000000  -0.00000000  1
  Na  Na2  1  0.80829692  0.99253291  0.61659484  1
  Na  Na3  1  0.30809361  0.62454248  0.61618822  1
  Na  Na4  1  0.69190639  0.37545752  0.38381178  1
  Na  Na5  1  0.19170308  0.00746709  0.38340516  1
  Al  Al6  1  0.25000478  -0.00000000  -0.00000000  1
  Al  Al7  1  0.74999522  0.00000000  0.00000000  1
  P  P8  1  0.39875960  0.09641553  0.79752119  1
  P  P9  1  0.60124040  0.90358447  0.20247881  1
  P  P10  1  0.89885219  0.70104629  0.79770238  1
  P  P11  1  0.10114781  0.29895371  0.20229762  1
