# generated using pymatgen
data_PbS
_symmetry_space_group_name_H-M   'P 1'
_cell_length_a   4.21961036
_cell_length_b   4.21961036
_cell_length_c   32.51740387
_cell_angle_alpha   90.00000000
_cell_angle_beta   90.00000000
_cell_angle_gamma   89.99979184
_symmetry_Int_Tables_number   1
_chemical_formula_structural   PbS
_chemical_formula_sum   'Pb4 S4'
_cell_volume   578.97600471
_cell_formula_units_Z   4
loop_
 _symmetry_equiv_pos_site_id
 _symmetry_equiv_pos_as_xyz
  1  'x, y, z'
loop_
 _atom_site_type_symbol
 _atom_site_label
 _atom_site_symmetry_multiplicity
 _atom_site_fract_x
 _atom_site_fract_y
 _atom_site_fract_z
 _atom_site_occupancy
  Pb  Pb0  1  0.83701531  0.16298469  0.20620021  1
  Pb  Pb1  1  0.16298469  0.83701531  0.79379979  1
  Pb  Pb2  1  0.33701531  0.66298469  0.29379979  1
  Pb  Pb3  1  0.66298469  0.33701531  0.70620021  1
  S  S4  1  0.16172904  0.83827096  0.71202147  1
  S  S5  1  0.83827096  0.16172904  0.28797853  1
  S  S6  1  0.66172904  0.33827096  0.78797853  1
  S  S7  1  0.33827096  0.66172904  0.21202147  1
