# generated using pymatgen
data_CdI2
_symmetry_space_group_name_H-M   'P 1'
_cell_length_a   4.28929489
_cell_length_b   4.28929489
_cell_length_c   42.90433581
_cell_angle_alpha   90.00000000
_cell_angle_beta   90.00000000
_cell_angle_gamma   119.99998959
_symmetry_Int_Tables_number   1
_chemical_formula_structural   CdI2
_chemical_formula_sum   'Cd6 I12'
_cell_volume   683.60254304
_cell_formula_units_Z   6
loop_
 _symmetry_equiv_pos_site_id
 _symmetry_equiv_pos_as_xyz
  1  'x, y, z'
loop_
 _atom_site_type_symbol
 _atom_site_label
 _atom_site_symmetry_multiplicity
 _atom_site_fract_x
 _atom_site_fract_y
 _atom_site_fract_z
 _atom_site_occupancy
  Cd  Cd0  1  0.33333300  0.66666700  0.83419177  1
  Cd  Cd1  1  -0.00000000  -0.00000000  0.00000000  1
  Cd  Cd2  1  -0.00000000  -0.00000000  0.33436503  1
  Cd  Cd3  1  -0.00000000  -0.00000000  0.50000000  1
  Cd  Cd4  1  0.66666700  0.33333300  0.16580823  1
  Cd  Cd5  1  -0.00000000  -0.00000000  0.66563497  1
  I  I6  1  0.66666700  0.33333300  0.96004316  1
  I  I7  1  -0.00000000  -0.00000000  0.87439878  1
  I  I8  1  -0.00000000  -0.00000000  0.12560122  1
  I  I9  1  0.66666700  0.33333300  0.62543128  1
  I  I10  1  0.33333300  0.66666700  0.37456872  1
  I  I11  1  0.33333300  0.66666700  0.20594535  1
  I  I12  1  0.66666700  0.33333300  0.79405465  1
  I  I13  1  0.33333300  0.66666700  0.70573244  1
  I  I14  1  0.33333300  0.66666700  0.03995684  1
  I  I15  1  0.66666700  0.33333300  0.46004844  1
  I  I16  1  0.66666700  0.33333300  0.29426756  1
  I  I17  1  0.33333300  0.66666700  0.53995156  1
