# generated using pymatgen
data_Nb3Se10Cl3
_symmetry_space_group_name_H-M   'P 1'
_cell_length_a   19.24395548
_cell_length_b   7.55232470
_cell_length_c   12.18918395
_cell_angle_alpha   83.07249947
_cell_angle_beta   90.00000000
_cell_angle_gamma   90.00000000
_symmetry_Int_Tables_number   1
_chemical_formula_structural   Nb3Se10Cl3
_chemical_formula_sum   'Nb12 Se40 Cl12'
_cell_volume   1758.60158215
_cell_formula_units_Z   4
loop_
 _symmetry_equiv_pos_site_id
 _symmetry_equiv_pos_as_xyz
  1  'x, y, z'
loop_
 _atom_site_type_symbol
 _atom_site_label
 _atom_site_symmetry_multiplicity
 _atom_site_fract_x
 _atom_site_fract_y
 _atom_site_fract_z
 _atom_site_occupancy
  Nb  Nb0  1  0.14895969  0.84702577  0.15784787  1
  Nb  Nb1  1  0.50008568  0.24654477  0.74895725  1
  Nb  Nb2  1  0.49991432  0.75345523  0.25104275  1
  Nb  Nb3  1  0.85104031  0.15297423  0.84215213  1
  Nb  Nb4  1  0.35104031  0.84702577  0.15784787  1
  Nb  Nb5  1  0.35130877  0.33373188  0.65463738  1
  Nb  Nb6  1  0.00008568  0.75345523  0.25104275  1
  Nb  Nb7  1  0.64895969  0.15297423  0.84215213  1
  Nb  Nb8  1  0.99991432  0.24654477  0.74895725  1
  Nb  Nb9  1  0.14869123  0.33373188  0.65463738  1
  Nb  Nb10  1  0.64869123  0.66626812  0.34536262  1
  Nb  Nb11  1  0.85130877  0.66626812  0.34536262  1
  Se  Se12  1  0.92591587  0.94343452  0.73736805  1
  Se  Se13  1  0.46214028  0.54994043  0.62851754  1
  Se  Se14  1  0.08738735  0.50228797  0.80283321  1
  Se  Se15  1  0.42852470  0.07750873  0.60029902  1
  Se  Se16  1  0.57147530  0.92249127  0.39970098  1
  Se  Se17  1  0.25000000  0.37379314  0.80532675  1
  Se  Se18  1  0.91431072  0.45628575  0.85468374  1
  Se  Se19  1  0.75000000  0.27130485  0.97311540  1
  Se  Se20  1  0.08568928  0.54371425  0.14531626  1
  Se  Se21  1  0.75000000  0.40247274  0.79126394  1
  Se  Se22  1  0.25000000  0.59752726  0.20873606  1
  Se  Se23  1  0.53601394  0.21433213  0.96142317  1
  Se  Se24  1  0.25000000  0.58827661  0.65220886  1
  Se  Se25  1  0.11111428  0.04092799  0.78434479  1
  Se  Se26  1  0.03785972  0.54994043  0.62851754  1
  Se  Se27  1  0.91261265  0.49771203  0.19716679  1
  Se  Se28  1  0.88700126  0.20503975  0.63034486  1
  Se  Se29  1  0.38700126  0.79496025  0.36965514  1
  Se  Se30  1  0.96214028  0.45005957  0.37148246  1
  Se  Se31  1  0.53785972  0.45005957  0.37148246  1
  Se  Se32  1  0.42591587  0.05656548  0.26263195  1
  Se  Se33  1  0.61299874  0.20503975  0.63034486  1
  Se  Se34  1  0.75000000  0.62620686  0.19467325  1
  Se  Se35  1  0.58738735  0.49771203  0.19716679  1
  Se  Se36  1  0.96398606  0.21433213  0.96142317  1
  Se  Se37  1  0.07147530  0.07750873  0.60029902  1
  Se  Se38  1  0.41431072  0.54371425  0.14531626  1
  Se  Se39  1  0.25000000  0.72869515  0.02688460  1
  Se  Se40  1  0.75000000  0.41172339  0.34779114  1
  Se  Se41  1  0.11299874  0.79496025  0.36965514  1
  Se  Se42  1  0.58568928  0.45628575  0.85468374  1
  Se  Se43  1  0.41261265  0.50228797  0.80283321  1
  Se  Se44  1  0.61111428  0.95907201  0.21565521  1
  Se  Se45  1  0.92852470  0.92249127  0.39970098  1
  Se  Se46  1  0.46398606  0.78566787  0.03857683  1
  Se  Se47  1  0.03601394  0.78566787  0.03857683  1
  Se  Se48  1  0.88888572  0.95907201  0.21565521  1
  Se  Se49  1  0.07408413  0.05656548  0.26263195  1
  Se  Se50  1  0.57408413  0.94343452  0.73736805  1
  Se  Se51  1  0.38888572  0.04092799  0.78434479  1
  Cl  Cl52  1  0.15176503  0.11744949  0.01483626  1
  Cl  Cl53  1  0.15136699  0.41530272  0.44821517  1
  Cl  Cl54  1  0.65136699  0.58469728  0.55178483  1
  Cl  Cl55  1  0.75000000  0.86517279  0.39832499  1
  Cl  Cl56  1  0.34823497  0.11744949  0.01483626  1
  Cl  Cl57  1  0.65176503  0.88255051  0.98516374  1
  Cl  Cl58  1  0.34863301  0.41530272  0.44821517  1
  Cl  Cl59  1  0.84823497  0.88255051  0.98516374  1
  Cl  Cl60  1  0.75000000  0.97751969  0.76775577  1
  Cl  Cl61  1  0.84863301  0.58469728  0.55178483  1
  Cl  Cl62  1  0.25000000  0.02248031  0.23224423  1
  Cl  Cl63  1  0.25000000  0.13482721  0.60167501  1
