# generated using pymatgen
data_ZnS
_symmetry_space_group_name_H-M   'P 1'
_cell_length_a   3.80979322
_cell_length_b   3.80979259
_cell_length_c   62.26826173
_cell_angle_alpha   90.00000000
_cell_angle_beta   90.00000000
_cell_angle_gamma   120.00000550
_symmetry_Int_Tables_number   1
_chemical_formula_structural   ZnS
_chemical_formula_sum   'Zn20 S20'
_cell_volume   782.70856595
_cell_formula_units_Z   20
loop_
 _symmetry_equiv_pos_site_id
 _symmetry_equiv_pos_as_xyz
  1  'x, y, z'
loop_
 _atom_site_type_symbol
 _atom_site_label
 _atom_site_symmetry_multiplicity
 _atom_site_fract_x
 _atom_site_fract_y
 _atom_site_fract_z
 _atom_site_occupancy
  Zn  Zn0  1  0.33333300  0.66666700  0.94989930  1
  Zn  Zn1  1  0.00000000  -0.00000000  0.14997072  1
  Zn  Zn2  1  0.66666700  0.33333300  0.39991932  1
  Zn  Zn3  1  0.66666700  0.33333300  0.89995323  1
  Zn  Zn4  1  0.00000000  -0.00000000  0.84997687  1
  Zn  Zn5  1  0.66666700  0.33333300  0.69999812  1
  Zn  Zn6  1  0.66666700  0.33333300  0.10000650  1
  Zn  Zn7  1  0.66666700  0.33333300  0.55006219  1
  Zn  Zn8  1  0.00000000  -0.00000000  0.65002010  1
  Zn  Zn9  1  0.33333300  0.66666700  0.05000332  1
  Zn  Zn10  1  0.00000000  0.00000000  0.99991087  1
  Zn  Zn11  1  0.00000000  0.00000000  0.44994662  1
  Zn  Zn12  1  0.33333300  0.66666700  0.19999308  1
  Zn  Zn13  1  0.33333300  0.66666700  0.30008760  1
  Zn  Zn14  1  0.33333300  0.66666700  0.49995231  1
  Zn  Zn15  1  0.00000000  -0.00000000  0.34992353  1
  Zn  Zn16  1  0.66666700  0.33333300  0.25006912  1
  Zn  Zn17  1  0.33333300  0.66666700  0.60011413  1
  Zn  Zn18  1  0.66666700  0.33333300  0.80006003  1
  Zn  Zn19  1  0.33333300  0.66666700  0.75006476  1
  S  S20  1  0.66666700  0.33333300  0.58761112  1
  S  S21  1  0.66666700  0.33333300  0.13750032  1
  S  S22  1  0.33333300  0.66666700  0.63757603  1
  S  S23  1  0.66666700  0.33333300  0.83750558  1
  S  S24  1  0.33333300  0.66666700  0.33753771  1
  S  S25  1  0.33333300  0.66666700  0.98736224  1
  S  S26  1  0.33333300  0.66666700  0.08752244  1
  S  S27  1  0.33333300  0.66666700  0.23749748  1
  S  S28  1  0.66666700  0.33333300  0.73750012  1
  S  S29  1  0.66666700  0.33333300  0.93742993  1
  S  S30  1  0.00000000  -0.00000000  0.88751224  1
  S  S31  1  0.66666700  0.33333300  0.43747702  1
  S  S32  1  0.66666700  0.33333300  0.28760195  1
  S  S33  1  0.00000000  -0.00000000  0.48744654  1
  S  S34  1  0.33333300  0.66666700  0.78759220  1
  S  S35  1  0.00000000  -0.00000000  0.38738618  1
  S  S36  1  -0.00000000  0.00000000  0.03747976  1
  S  S37  1  0.00000000  -0.00000000  0.18751316  1
  S  S38  1  0.33333300  0.66666700  0.53748470  1
  S  S39  1  -0.00000000  0.00000000  0.68752756  1
