# generated using pymatgen
data_ZrI4
_symmetry_space_group_name_H-M   'P 1'
_cell_length_a   8.65854444
_cell_length_b   8.63378513
_cell_length_c   18.21191838
_cell_angle_alpha   103.26711552
_cell_angle_beta   90.00000000
_cell_angle_gamma   90.00000000
_symmetry_Int_Tables_number   1
_chemical_formula_structural   ZrI4
_chemical_formula_sum   'Zr6 I24'
_cell_volume   1325.11430038
_cell_formula_units_Z   6
loop_
 _symmetry_equiv_pos_site_id
 _symmetry_equiv_pos_as_xyz
  1  'x, y, z'
loop_
 _atom_site_type_symbol
 _atom_site_label
 _atom_site_symmetry_multiplicity
 _atom_site_fract_x
 _atom_site_fract_y
 _atom_site_fract_z
 _atom_site_occupancy
  Zr  Zr0  1  0.87928808  0.19533248  0.58318020  1
  Zr  Zr1  1  0.12071192  0.80466752  0.41681980  1
  Zr  Zr2  1  0.60783656  0.00000000  0.75000000  1
  Zr  Zr3  1  0.87928808  0.80466752  0.91681980  1
  Zr  Zr4  1  0.12071192  0.19533248  0.08318020  1
  Zr  Zr5  1  0.39216344  0.00000000  0.25000000  1
  I  I6  1  0.11563348  0.59381217  0.90783743  1
  I  I7  1  0.59551945  0.24309009  0.25816187  1
  I  I8  1  0.11795681  0.93072502  0.57823153  1
  I  I9  1  0.36064063  0.60734625  0.42591417  1
  I  I10  1  0.12501258  0.23004712  0.24482997  1
  I  I11  1  0.12501258  0.76995288  0.25517003  1
  I  I12  1  0.11795681  0.06927498  0.92176847  1
  I  I13  1  0.40448055  0.75690991  0.74183813  1
  I  I14  1  0.88436652  0.40618783  0.09216257  1
  I  I15  1  0.87498742  0.76995288  0.75517003  1
  I  I16  1  0.40448055  0.24309009  0.75816187  1
  I  I17  1  0.88436652  0.59381217  0.40783743  1
  I  I18  1  0.59551945  0.75690991  0.24183813  1
  I  I19  1  0.65292005  0.92596104  0.58851512  1
  I  I20  1  0.34707995  0.07403896  0.41148488  1
  I  I21  1  0.87498742  0.23004712  0.74482997  1
  I  I22  1  0.11563348  0.40618783  0.59216257  1
  I  I23  1  0.63935937  0.60734625  0.92591417  1
  I  I24  1  0.34707995  0.92596104  0.08851512  1
  I  I25  1  0.88204319  0.93072502  0.07823153  1
  I  I26  1  0.63935937  0.39265375  0.57408583  1
  I  I27  1  0.65292005  0.07403896  0.91148488  1
  I  I28  1  0.36064063  0.39265375  0.07408583  1
  I  I29  1  0.88204319  0.06927498  0.42176747  1
