# generated using pymatgen
data_Rb2ZnBr4
_symmetry_space_group_name_H-M   'P 1'
_cell_length_a   7.61667702
_cell_length_b   9.74691340
_cell_length_c   13.44919887
_cell_angle_alpha   90.00000000
_cell_angle_beta   90.00000000
_cell_angle_gamma   90.00000000
_symmetry_Int_Tables_number   1
_chemical_formula_structural   Rb2ZnBr4
_chemical_formula_sum   'Rb8 Zn4 Br16'
_cell_volume   998.45630295
_cell_formula_units_Z   4
loop_
 _symmetry_equiv_pos_site_id
 _symmetry_equiv_pos_as_xyz
  1  'x, y, z'
loop_
 _atom_site_type_symbol
 _atom_site_label
 _atom_site_symmetry_multiplicity
 _atom_site_fract_x
 _atom_site_fract_y
 _atom_site_fract_z
 _atom_site_occupancy
  Rb  Rb0  1  0.25000000  0.48167145  0.67283866  1
  Rb  Rb1  1  0.75000000  0.37833794  0.92130763  1
  Rb  Rb2  1  0.75000000  0.87833794  0.57869237  1
  Rb  Rb3  1  0.25000000  0.12166206  0.42130763  1
  Rb  Rb4  1  0.25000000  0.62166206  0.07869237  1
  Rb  Rb5  1  0.75000000  0.01832855  0.17283866  1
  Rb  Rb6  1  0.75000000  0.51832855  0.32716134  1
  Rb  Rb7  1  0.25000000  0.98167145  0.82716134  1
  Zn  Zn8  1  0.25000000  0.22524225  0.07701026  1
  Zn  Zn9  1  0.75000000  0.27475775  0.57701026  1
  Zn  Zn10  1  0.25000000  0.72524225  0.42298974  1
  Zn  Zn11  1  0.75000000  0.77475775  0.92298974  1
  Br  Br12  1  0.25000000  0.81496107  0.59120970  1
  Br  Br13  1  0.50635071  0.82272493  0.34626797  1
  Br  Br14  1  0.50635071  0.32272493  0.15373203  1
  Br  Br15  1  0.49364929  0.17727507  0.65373203  1
  Br  Br16  1  0.99364929  0.82272493  0.34626797  1
  Br  Br17  1  0.25000000  0.48030072  0.41181586  1
  Br  Br18  1  0.75000000  0.01969928  0.91181586  1
  Br  Br19  1  0.99364929  0.32272493  0.15373203  1
  Br  Br20  1  0.25000000  0.98030072  0.08818414  1
  Br  Br21  1  0.75000000  0.18503893  0.40879030  1
  Br  Br22  1  0.00635071  0.67727507  0.84626797  1
  Br  Br23  1  0.25000000  0.31496107  0.90879030  1
  Br  Br24  1  0.75000000  0.68503893  0.09120970  1
  Br  Br25  1  0.00635071  0.17727507  0.65373203  1
  Br  Br26  1  0.75000000  0.51969928  0.58818414  1
  Br  Br27  1  0.49364929  0.67727507  0.84626797  1
