# generated using pymatgen
data_Rb4Ti3S14
_symmetry_space_group_name_H-M   'P 1'
_cell_length_a   11.42236442
_cell_length_b   11.42237000
_cell_length_c   13.47390468
_cell_angle_alpha   68.39980247
_cell_angle_beta   68.39982465
_cell_angle_gamma   42.15741484
_symmetry_Int_Tables_number   1
_chemical_formula_structural   Rb4Ti3S14
_chemical_formula_sum   'Rb8 Ti6 S28'
_cell_volume   1084.17423928
_cell_formula_units_Z   2
loop_
 _symmetry_equiv_pos_site_id
 _symmetry_equiv_pos_as_xyz
  1  'x, y, z'
loop_
 _atom_site_type_symbol
 _atom_site_label
 _atom_site_symmetry_multiplicity
 _atom_site_fract_x
 _atom_site_fract_y
 _atom_site_fract_z
 _atom_site_occupancy
  Rb  Rb0  1  0.11749421  0.47751477  0.11217656  1
  Rb  Rb1  1  0.52248539  0.88250523  0.38782328  1
  Rb  Rb2  1  0.88250649  0.52248635  0.88781990  1
  Rb  Rb3  1  0.47751423  0.11748915  0.61217975  1
  Rb  Rb4  1  0.82881623  0.30456855  0.35242039  1
  Rb  Rb5  1  0.69543179  0.17118346  0.14757979  1
  Rb  Rb6  1  0.17118393  0.69543716  0.64758064  1
  Rb  Rb7  1  0.30456305  0.82881673  0.85241922  1
  Ti  Ti8  1  0.08734774  0.57765467  0.41615183  1
  Ti  Ti9  1  0.42234510  0.91265243  0.08384869  1
  Ti  Ti10  1  0.91265360  0.42234333  0.58384864  1
  Ti  Ti11  1  0.57765653  0.08734700  0.91615127  1
  Ti  Ti12  1  0.26485871  0.73514112  0.25000017  1
  Ti  Ti13  1  0.73513893  0.26486102  0.74999987  1
  S  S14  1  0.07055292  0.73814177  0.21134782  1
  S  S15  1  0.26185758  0.92944780  0.28865240  1
  S  S16  1  0.92944142  0.26186090  0.78865174  1
  S  S17  1  0.73813840  0.07055946  0.71134783  1
  S  S18  1  0.93447163  0.50751081  0.40062139  1
  S  S19  1  0.49248837  0.06552914  0.09937873  1
  S  S20  1  0.06553251  0.49248218  0.59937921  1
  S  S21  1  0.50751678  0.93446815  0.90062142  1
  S  S22  1  0.97970922  0.15914754  0.58329784  1
  S  S23  1  0.84085190  0.02029250  0.91670181  1
  S  S24  1  0.02029399  0.84085110  0.41670370  1
  S  S25  1  0.15914793  0.97970686  0.08329658  1
  S  S26  1  0.31220604  0.34270699  0.83939793  1
  S  S27  1  0.65729405  0.68779308  0.66060207  1
  S  S28  1  0.68779313  0.65729207  0.16060454  1
  S  S29  1  0.34270882  0.31220596  0.33939540  1
  S  S30  1  0.30716839  0.61361120  0.10887506  1
  S  S31  1  0.38638916  0.69283154  0.39112492  1
  S  S32  1  0.69283124  0.38639025  0.89112316  1
  S  S33  1  0.61360996  0.30716896  0.60887612  1
  S  S34  1  0.43147535  0.39694514  0.86927176  1
  S  S35  1  0.60305562  0.56852411  0.63072784  1
  S  S36  1  0.56852453  0.60305450  0.13072841  1
  S  S37  1  0.39694621  0.43147476  0.36927173  1
  S  S38  1  0.10539017  0.18854545  0.10051788  1
  S  S39  1  0.81145571  0.89460833  0.39948250  1
  S  S40  1  0.89460886  0.81145595  0.89948154  1
  S  S41  1  0.18854417  0.10539257  0.60051869  1
