# generated using pymatgen
data_Na2Hg3S4
_symmetry_space_group_name_H-M   'P 1'
_cell_length_a   7.44463837
_cell_length_b   8.29965135
_cell_length_c   14.01858074
_cell_angle_alpha   90.00000000
_cell_angle_beta   90.00000000
_cell_angle_gamma   90.00000000
_symmetry_Int_Tables_number   1
_chemical_formula_structural   Na2Hg3S4
_chemical_formula_sum   'Na8 Hg12 S16'
_cell_volume   866.17870553
_cell_formula_units_Z   4
loop_
 _symmetry_equiv_pos_site_id
 _symmetry_equiv_pos_as_xyz
  1  'x, y, z'
loop_
 _atom_site_type_symbol
 _atom_site_label
 _atom_site_symmetry_multiplicity
 _atom_site_fract_x
 _atom_site_fract_y
 _atom_site_fract_z
 _atom_site_occupancy
  Na  Na0  1  0.43371988  0.61802045  0.60878530  1
  Na  Na1  1  0.93371988  0.38197955  0.89121470  1
  Na  Na2  1  0.06628012  0.11802045  0.39121470  1
  Na  Na3  1  0.56628012  0.88197955  0.10878530  1
  Na  Na4  1  0.56628012  0.38197955  0.39121470  1
  Na  Na5  1  0.06628012  0.61802045  0.10878530  1
  Na  Na6  1  0.93371988  0.88197955  0.60878530  1
  Na  Na7  1  0.43371988  0.11802045  0.89121470  1
  Hg  Hg8  1  0.26717706  0.77255196  0.30856319  1
  Hg  Hg9  1  0.76717706  0.22744804  0.19143681  1
  Hg  Hg10  1  0.23282294  0.27255196  0.69143681  1
  Hg  Hg11  1  0.73282294  0.72744804  0.80856319  1
  Hg  Hg12  1  0.73282294  0.22744804  0.69143681  1
  Hg  Hg13  1  0.23282294  0.77255196  0.80856319  1
  Hg  Hg14  1  0.76717706  0.72744804  0.30856319  1
  Hg  Hg15  1  0.26717706  0.27255196  0.19143681  1
  Hg  Hg16  1  0.50000000  -0.00000000  0.50000000  1
  Hg  Hg17  1  0.00000000  -0.00000000  0.00000000  1
  Hg  Hg18  1  0.00000000  0.50000000  0.50000000  1
  Hg  Hg19  1  0.50000000  0.50000000  0.00000000  1
  S  S20  1  0.73630995  0.65586896  0.48498354  1
  S  S21  1  0.23630995  0.34413104  0.01501646  1
  S  S22  1  0.76369005  0.15586896  0.51501646  1
  S  S23  1  0.26369005  0.84413104  0.98498354  1
  S  S24  1  0.26369005  0.34413104  0.51501646  1
  S  S25  1  0.76369005  0.65586896  0.98498354  1
  S  S26  1  0.23630995  0.84413104  0.48498354  1
  S  S27  1  0.73630995  0.15586896  0.01501646  1
  S  S28  1  0.51075541  0.89852559  0.73109814  1
  S  S29  1  0.01075541  0.10147441  0.76890186  1
  S  S30  1  0.98924459  0.39852559  0.26890186  1
  S  S31  1  0.48924459  0.60147441  0.23109814  1
  S  S32  1  0.48924459  0.10147441  0.26890186  1
  S  S33  1  0.98924459  0.89852559  0.23109814  1
  S  S34  1  0.01075541  0.60147441  0.73109814  1
  S  S35  1  0.51075541  0.39852559  0.76890186  1
