# generated using pymatgen
data_Li2Te2O5
_symmetry_space_group_name_H-M   'P 1'
_cell_length_a   5.14531580
_cell_length_b   8.23938151
_cell_length_c   24.04037074
_cell_angle_alpha   90.00000000
_cell_angle_beta   90.00000000
_cell_angle_gamma   90.00000000
_symmetry_Int_Tables_number   1
_chemical_formula_structural   Li2Te2O5
_chemical_formula_sum   'Li16 Te16 O40'
_cell_volume   1019.17276280
_cell_formula_units_Z   8
loop_
 _symmetry_equiv_pos_site_id
 _symmetry_equiv_pos_as_xyz
  1  'x, y, z'
loop_
 _atom_site_type_symbol
 _atom_site_label
 _atom_site_symmetry_multiplicity
 _atom_site_fract_x
 _atom_site_fract_y
 _atom_site_fract_z
 _atom_site_occupancy
  Li  Li0  1  0.82039089  0.84037526  0.83147906  1
  Li  Li1  1  0.32039089  0.84037526  0.66852094  1
  Li  Li2  1  0.36164509  0.15191299  0.41753165  1
  Li  Li3  1  0.17960911  0.34037526  0.33147906  1
  Li  Li4  1  0.32039089  0.65962474  0.83147906  1
  Li  Li5  1  0.86164509  0.34808701  0.41753165  1
  Li  Li6  1  0.17960911  0.15962474  0.16852094  1
  Li  Li7  1  0.63835491  0.65191299  0.91753165  1
  Li  Li8  1  0.67960911  0.34037526  0.16852094  1
  Li  Li9  1  0.63835491  0.84808701  0.58246835  1
  Li  Li10  1  0.13835491  0.65191299  0.58246835  1
  Li  Li11  1  0.86164509  0.15191299  0.08246835  1
  Li  Li12  1  0.36164509  0.34808701  0.08246835  1
  Li  Li13  1  0.67960911  0.15962474  0.33147906  1
  Li  Li14  1  0.13835491  0.84808701  0.91753165  1
  Li  Li15  1  0.82039089  0.65962474  0.66852094  1
  Te  Te16  1  0.64331114  0.07161801  0.94393638  1
  Te  Te17  1  0.85668886  0.57161801  0.05606362  1
  Te  Te18  1  0.85668886  0.92838199  0.44393638  1
  Te  Te19  1  0.67273397  0.56454108  0.30539686  1
  Te  Te20  1  0.35668886  0.92838199  0.05606362  1
  Te  Te21  1  0.17273397  0.56454108  0.19460314  1
  Te  Te22  1  0.82726603  0.06454108  0.69460314  1
  Te  Te23  1  0.32726603  0.43545892  0.69460314  1
  Te  Te24  1  0.14331114  0.42838199  0.94393638  1
  Te  Te25  1  0.35668886  0.57161801  0.44393638  1
  Te  Te26  1  0.17273397  0.93545892  0.30539686  1
  Te  Te27  1  0.82726603  0.43545892  0.80539686  1
  Te  Te28  1  0.64331114  0.42838199  0.55606362  1
  Te  Te29  1  0.14331114  0.07161801  0.55606362  1
  Te  Te30  1  0.32726603  0.06454108  0.80539686  1
  Te  Te31  1  0.67273397  0.93545892  0.19460314  1
  O  O32  1  0.69188970  0.88063718  0.66141618  1
  O  O33  1  0.69537937  0.50667630  0.46608269  1
  O  O34  1  0.36415895  0.47331407  0.27801032  1
  O  O35  1  0.23729177  0.12583346  0.08313536  1
  O  O36  1  0.80462063  0.49332370  0.96608269  1
  O  O37  1  0.19537937  0.50667630  0.03391731  1
  O  O38  1  0.13584105  0.52668593  0.77801032  1
  O  O39  1  0.99645098  0.85247378  0.37202670  1
  O  O40  1  0.69188970  0.61936282  0.83858382  1
  O  O41  1  0.63584105  0.52668593  0.72198968  1
  O  O42  1  0.19537937  0.99332370  0.46608269  1
  O  O43  1  0.69537937  0.99332370  0.03391731  1
  O  O44  1  0.26270823  0.62583346  0.91686464  1
  O  O45  1  0.86415895  0.47331407  0.22198968  1
  O  O46  1  0.19188970  0.88063718  0.83858382  1
  O  O47  1  0.30811030  0.11936282  0.33858382  1
  O  O48  1  0.00354902  0.35247378  0.87202670  1
  O  O49  1  0.73729177  0.12583346  0.41686464  1
  O  O50  1  0.50354902  0.35247378  0.62797330  1
  O  O51  1  0.23729177  0.37416654  0.41686464  1
  O  O52  1  0.99645098  0.64752622  0.12797330  1
  O  O53  1  0.76270823  0.87416654  0.91686464  1
  O  O54  1  0.30462063  0.49332370  0.53391731  1
  O  O55  1  0.73729177  0.37416654  0.08313536  1
  O  O56  1  0.19188970  0.61936282  0.66141618  1
  O  O57  1  0.50354902  0.14752622  0.87202670  1
  O  O58  1  0.30462063  0.00667630  0.96608269  1
  O  O59  1  0.86415895  0.02668593  0.27801032  1
  O  O60  1  0.63584105  0.97331407  0.77801032  1
  O  O61  1  0.49645098  0.85247378  0.12797330  1
  O  O62  1  0.26270823  0.87416654  0.58313536  1
  O  O63  1  0.80811030  0.38063718  0.33858382  1
  O  O64  1  0.49645098  0.64752622  0.37202670  1
  O  O65  1  0.00354902  0.14752622  0.62797330  1
  O  O66  1  0.36415895  0.02668593  0.22198968  1
  O  O67  1  0.76270823  0.62583346  0.58313536  1
  O  O68  1  0.80462063  0.00667630  0.53391731  1
  O  O69  1  0.80811030  0.11936282  0.16141618  1
  O  O70  1  0.13584105  0.97331407  0.72198968  1
  O  O71  1  0.30811030  0.38063718  0.16141618  1
