# generated using pymatgen
data_ZrF4
_symmetry_space_group_name_H-M   'P 1'
_cell_length_a   7.72817380
_cell_length_b   7.90661134
_cell_length_c   7.90661134
_cell_angle_alpha   90.00000000
_cell_angle_beta   90.00000000
_cell_angle_gamma   90.00000000
_symmetry_Int_Tables_number   1
_chemical_formula_structural   ZrF4
_chemical_formula_sum   'Zr8 F32'
_cell_volume   483.12294335
_cell_formula_units_Z   8
loop_
 _symmetry_equiv_pos_site_id
 _symmetry_equiv_pos_as_xyz
  1  'x, y, z'
loop_
 _atom_site_type_symbol
 _atom_site_label
 _atom_site_symmetry_multiplicity
 _atom_site_fract_x
 _atom_site_fract_y
 _atom_site_fract_z
 _atom_site_occupancy
  Zr  Zr0  1  0.76967847  0.18263160  0.31932868  1
  Zr  Zr1  1  0.23032153  0.81736840  0.68067132  1
  Zr  Zr2  1  0.23032153  0.18263160  0.31932868  1
  Zr  Zr3  1  0.73032153  0.31932868  0.81736840  1
  Zr  Zr4  1  0.76967847  0.81736840  0.68067132  1
  Zr  Zr5  1  0.73032153  0.68067132  0.18263160  1
  Zr  Zr6  1  0.26967847  0.68067132  0.18263160  1
  Zr  Zr7  1  0.26967847  0.31932868  0.81736840  1
  F  F8  1  0.50000000  0.29107038  0.67118753  1
  F  F9  1  0.80775548  0.71149887  0.44019458  1
  F  F10  1  0.21231847  0.20309587  0.06259749  1
  F  F11  1  0.19224452  0.28850113  0.55980542  1
  F  F12  1  0.28768153  0.06259749  0.79690413  1
  F  F13  1  0.69224452  0.44019458  0.28850113  1
  F  F14  1  0.70095423  -0.00000000  0.50000000  1
  F  F15  1  0.71231847  0.93740251  0.20309587  1
  F  F16  1  -0.00000000  0.96216844  0.66450228  1
  F  F17  1  0.78768153  0.20309587  0.06259749  1
  F  F18  1  0.79904577  0.50000000  0.00000000  1
  F  F19  1  0.78768153  0.79690413  0.93740251  1
  F  F20  1  0.28768153  0.93740251  0.20309587  1
  F  F21  1  0.20095423  0.50000000  0.00000000  1
  F  F22  1  -0.00000000  0.03783156  0.33549772  1
  F  F23  1  0.69224452  0.55980542  0.71149887  1
  F  F24  1  0.71231847  0.06259749  0.79690413  1
  F  F25  1  0.80775548  0.28850113  0.55980542  1
  F  F26  1  -0.00000000  0.69550906  0.18160340  1
  F  F27  1  0.50000000  0.33549772  0.96216844  1
  F  F28  1  -0.00000000  0.67118753  0.70892962  1
  F  F29  1  0.50000000  0.66450228  0.03783156  1
  F  F30  1  0.50000000  0.18160340  0.30449094  1
  F  F31  1  0.21231847  0.79690413  0.93740251  1
  F  F32  1  -0.00000000  0.30449094  0.81839660  1
  F  F33  1  0.30775548  0.44019458  0.28850113  1
  F  F34  1  -0.00000000  0.32881247  0.29107038  1
  F  F35  1  0.29904577  -0.00000000  0.50000000  1
  F  F36  1  0.30775548  0.55980542  0.71149887  1
  F  F37  1  0.50000000  0.81839660  0.69550906  1
  F  F38  1  0.19224452  0.71149887  0.44019458  1
  F  F39  1  0.50000000  0.70892962  0.32881247  1
