# generated using pymatgen
data_Sm10S14O
_symmetry_space_group_name_H-M   'P 1'
_cell_length_a   14.49911326
_cell_length_b   14.49911326
_cell_length_c   14.49911326
_cell_angle_alpha   117.89433710
_cell_angle_beta   117.89433710
_cell_angle_gamma   93.68752738
_symmetry_Int_Tables_number   1
_chemical_formula_structural   Sm10S14O
_chemical_formula_sum   'Sm40 S56 O4'
_cell_volume   2218.93386432
_cell_formula_units_Z   4
loop_
 _symmetry_equiv_pos_site_id
 _symmetry_equiv_pos_as_xyz
  1  'x, y, z'
loop_
 _atom_site_type_symbol
 _atom_site_label
 _atom_site_symmetry_multiplicity
 _atom_site_fract_x
 _atom_site_fract_y
 _atom_site_fract_z
 _atom_site_occupancy
  Sm  Sm0  1  0.36490600  0.86490600  0.22981300  1
  Sm  Sm1  1  0.94912300  0.29936000  0.90488900  1
  Sm  Sm2  1  0.06092100  0.93552900  0.86164500  1
  Sm  Sm3  1  0.44912300  0.54423300  0.64976300  1
  Sm  Sm4  1  0.30087700  0.70576700  0.85023700  1
  Sm  Sm5  1  0.88509400  0.61490600  0.00000000  1
  Sm  Sm6  1  0.95576700  0.05087700  0.35023700  1
  Sm  Sm7  1  0.67611600  0.05072400  0.36164500  1
  Sm  Sm8  1  0.29423300  0.14447100  0.59511100  1
  Sm  Sm9  1  0.86490600  0.63509400  0.50000000  1
  Sm  Sm10  1  0.63509400  0.13509400  0.77018700  1
  Sm  Sm11  1  0.17611600  0.81447100  0.62539300  1
  Sm  Sm12  1  0.39447100  0.04423300  0.09511100  1
  Sm  Sm13  1  0.68552900  0.32388400  0.37460700  1
  Sm  Sm14  1  0.56447100  0.43907900  0.13835500  1
  Sm  Sm15  1  0.18552900  0.81092100  0.36164500  1
  Sm  Sm16  1  0.80087700  0.95064000  0.59511100  1
  Sm  Sm17  1  0.11490600  0.11490600  0.72981300  1
  Sm  Sm18  1  0.44927600  0.82388400  0.63835500  1
  Sm  Sm19  1  0.57388400  0.43552900  0.87460700  1
  Sm  Sm20  1  0.80072400  0.93907900  0.87460700  1
  Sm  Sm21  1  0.68907900  0.31447100  0.63835500  1
  Sm  Sm22  1  0.85552900  0.45064000  0.14976300  1
  Sm  Sm23  1  0.35552900  0.20576700  0.40488900  1
  Sm  Sm24  1  0.04936000  0.64447100  0.85023700  1
  Sm  Sm25  1  0.56092100  0.69927600  0.12539300  1
  Sm  Sm26  1  0.13509400  0.36490600  0.50000000  1
  Sm  Sm27  1  0.18907900  0.55072400  0.37460700  1
  Sm  Sm28  1  0.45576700  0.10552900  0.90488900  1
  Sm  Sm29  1  0.79423300  0.19912300  0.14976300  1
  Sm  Sm30  1  0.89447100  0.79936000  0.35023700  1
  Sm  Sm31  1  0.30072400  0.42611600  0.86164500  1
  Sm  Sm32  1  0.07388400  0.19927600  0.13835500  1
  Sm  Sm33  1  0.54936000  0.69912300  0.40488900  1
  Sm  Sm34  1  0.06447100  0.92611600  0.12539300  1
  Sm  Sm35  1  0.61490600  0.88509400  0.00000000  1
  Sm  Sm36  1  0.38509400  0.38509400  0.27018700  1
  Sm  Sm37  1  0.20064000  0.55087700  0.09511100  1
  Sm  Sm38  1  0.94927600  0.31092100  0.62539300  1
  Sm  Sm39  1  0.70064000  0.60552900  0.64976300  1
  S  S40  1  0.98827700  0.64583500  0.39213600  1
  S  S41  1  0.49630100  0.65385900  0.89213600  1
  S  S42  1  0.26172300  0.15385900  0.15755800  1
  S  S43  1  0.76172300  0.60416500  0.10786400  1
  S  S44  1  0.77380500  0.41532000  0.28216800  1
  S  S45  1  0.25369900  0.59614100  0.60786400  1
  S  S46  1  0.81263000  0.79149400  0.66729100  1
  S  S47  1  0.34614100  0.23827700  0.84244200  1
  S  S48  1  0.97648300  0.87500000  0.60148300  1
  S  S49  1  0.27351700  0.37500000  0.39851700  1
  S  S50  1  0.63315100  0.91532000  0.64151500  1
  S  S51  1  0.97619500  0.83468000  0.21783200  1
  S  S52  1  0.12420300  0.14533900  0.33270900  1
  S  S53  1  0.61684900  0.75836300  0.78216800  1
  S  S54  1  0.11684900  0.33468000  0.85848500  1
  S  S55  1  0.62500000  0.02351700  0.89851700  1
  S  S56  1  0.85416500  0.51172300  0.60786400  1
  S  S57  1  0.66532000  0.52380500  0.78216800  1
  S  S58  1  0.58468000  0.86684900  0.35848500  1
  S  S59  1  0.99630100  0.10416500  0.84244200  1
  S  S60  1  0.47648300  0.87500000  0.10148300  1
  S  S61  1  0.62579700  0.10466100  0.16729100  1
  S  S62  1  0.89533900  0.06263000  0.52113600  1
  S  S63  1  0.40385900  0.01172300  0.65755800  1
  S  S64  1  0.24163700  0.02380500  0.85848500  1
  S  S65  1  0.48827700  0.09614100  0.34244200  1
  S  S66  1  0.62420300  0.29149400  0.97886400  1
  S  S67  1  0.00836300  0.36684900  0.28216800  1
  S  S68  1  0.12579700  0.95850600  0.52113600  1
  S  S69  1  0.35466100  0.37579700  0.66729100  1
  S  S70  1  0.13315100  0.49163700  0.71783200  1
  S  S71  1  0.04149400  0.56263000  0.16729100  1
  S  S72  1  0.90385900  0.24630100  0.39213600  1
  S  S73  1  0.47619500  0.25836300  0.14151500  1
  S  S74  1  0.75369900  0.14583500  0.65755800  1
  S  S75  1  0.20850600  0.87579700  0.02113600  1
  S  S76  1  0.77351700  0.37500000  0.89851700  1
  S  S77  1  0.27380500  0.99163700  0.35848500  1
  S  S78  1  0.43737000  0.60466100  0.47886400  1
  S  S79  1  0.70850600  0.68737000  0.33270900  1
  S  S80  1  0.74163700  0.88315100  0.21783200  1
  S  S81  1  0.54149400  0.37420300  0.47886400  1
  S  S82  1  0.62500000  0.52351700  0.39851700  1
  S  S83  1  0.12500000  0.22648300  0.60148300  1
  S  S84  1  0.35416500  0.74630100  0.34244200  1
  S  S85  1  0.50836300  0.22619500  0.64151500  1
  S  S86  1  0.39583500  0.50369900  0.15755800  1
  S  S87  1  0.39533900  0.87420300  0.83270900  1
  S  S88  1  0.89583500  0.73827700  0.89213600  1
  S  S89  1  0.84614100  0.00369900  0.10786400  1
  S  S90  1  0.12500000  0.72648300  0.10148300  1
  S  S91  1  0.31263000  0.64533900  0.02113600  1
  S  S92  1  0.93737000  0.45850600  0.83270900  1
  S  S93  1  0.85466100  0.18737000  0.97886400  1
  S  S94  1  0.08468000  0.72619500  0.71783200  1
  S  S95  1  0.16532000  0.38315100  0.14151500  1
  O  O96  1  0.00000000  0.00000000  0.00000000  1
  O  O97  1  0.50000000  0.50000000  0.00000000  1
  O  O98  1  0.75000000  0.25000000  0.50000000  1
  O  O99  1  0.25000000  0.75000000  0.50000000  1
