# generated using pymatgen
data_K6PdSe20
_symmetry_space_group_name_H-M   'P 1'
_cell_length_a   12.80182213
_cell_length_b   14.27438412
_cell_length_c   19.44707302
_cell_angle_alpha   90.00000000
_cell_angle_beta   90.00000000
_cell_angle_gamma   90.00000000
_symmetry_Int_Tables_number   1
_chemical_formula_structural   K6PdSe20
_chemical_formula_sum   'K24 Pd4 Se80'
_cell_volume   3553.72168996
_cell_formula_units_Z   4
loop_
 _symmetry_equiv_pos_site_id
 _symmetry_equiv_pos_as_xyz
  1  'x, y, z'
loop_
 _atom_site_type_symbol
 _atom_site_label
 _atom_site_symmetry_multiplicity
 _atom_site_fract_x
 _atom_site_fract_y
 _atom_site_fract_z
 _atom_site_occupancy
  K  K0  1  0.00000000  0.98742245  0.75000000  1
  K  K1  1  0.00000000  0.01257755  0.25000000  1
  K  K2  1  0.50000000  0.48742245  0.75000000  1
  K  K3  1  0.50000000  0.80424716  0.75000000  1
  K  K4  1  0.35316474  0.20627461  0.99898677  1
  K  K5  1  0.00000000  0.69575284  0.25000000  1
  K  K6  1  0.00000000  0.30424716  0.75000000  1
  K  K7  1  0.00000000  0.00000000  0.00000000  1
  K  K8  1  0.14683526  0.70627461  0.99898677  1
  K  K9  1  0.50000000  0.51257755  0.25000000  1
  K  K10  1  0.50000000  0.50000000  0.00000000  1
  K  K11  1  0.85316474  0.29372539  0.00101323  1
  K  K12  1  0.50000000  0.16511519  0.75000000  1
  K  K13  1  0.00000000  0.00000000  0.50000000  1
  K  K14  1  0.50000000  0.83488481  0.25000000  1
  K  K15  1  0.50000000  0.50000000  0.50000000  1
  K  K16  1  0.14683526  0.29372539  0.49898677  1
  K  K17  1  0.64683526  0.79372539  0.00101323  1
  K  K18  1  0.00000000  0.33488481  0.25000000  1
  K  K19  1  0.00000000  0.66511519  0.75000000  1
  K  K20  1  0.64683526  0.20627461  0.50101323  1
  K  K21  1  0.85316474  0.70627461  0.50101323  1
  K  K22  1  0.50000000  0.19575284  0.25000000  1
  K  K23  1  0.35316474  0.79372539  0.49898677  1
  Pd  Pd24  1  0.50000000  0.00000000  0.50000000  1
  Pd  Pd25  1  0.50000000  0.00000000  0.00000000  1
  Pd  Pd26  1  0.00000000  0.50000000  0.50000000  1
  Pd  Pd27  1  0.00000000  0.50000000  0.00000000  1
  Se  Se28  1  0.25519302  0.95055640  0.87782129  1
  Se  Se29  1  0.18959275  0.48720487  0.16063606  1
  Se  Se30  1  0.25688699  0.36888957  0.70960122  1
  Se  Se31  1  0.61293820  0.69499133  0.60417420  1
  Se  Se32  1  0.56174051  0.65036209  0.87391390  1
  Se  Se33  1  0.24480698  0.45055640  0.87782129  1
  Se  Se34  1  0.34235229  0.72868355  0.12681632  1
  Se  Se35  1  0.88706180  0.19499133  0.60417420  1
  Se  Se36  1  0.93825949  0.15036209  0.87391390  1
  Se  Se37  1  0.24480698  0.54944360  0.37782129  1
  Se  Se38  1  0.68959275  0.01279513  0.83936394  1
  Se  Se39  1  0.98642300  0.48443091  0.87367397  1
  Se  Se40  1  0.48363610  0.32770364  0.87859993  1
  Se  Se41  1  0.98363610  0.82770364  0.62140007  1
  Se  Se42  1  0.01357700  0.48443091  0.62632603  1
  Se  Se43  1  0.75519302  0.54944360  0.12217871  1
  Se  Se44  1  0.19106157  0.53044037  0.49328749  1
  Se  Se45  1  0.31040725  0.01279513  0.66063606  1
  Se  Se46  1  0.81040725  0.48720487  0.33936394  1
  Se  Se47  1  0.18959275  0.51279513  0.66063606  1
  Se  Se48  1  0.69106157  0.03044037  0.00671251  1
  Se  Se49  1  0.75519302  0.45055640  0.62217871  1
  Se  Se50  1  0.31040725  0.98720487  0.16063606  1
  Se  Se51  1  0.38706180  0.69499133  0.89582580  1
  Se  Se52  1  0.80893843  0.46955963  0.50671251  1
  Se  Se53  1  0.51357700  0.98443091  0.87367397  1
  Se  Se54  1  0.25519302  0.04944360  0.37782129  1
  Se  Se55  1  0.43825949  0.65036209  0.62608610  1
  Se  Se56  1  0.80893843  0.53044037  0.00671251  1
  Se  Se57  1  0.51636390  0.32770364  0.62140007  1
  Se  Se58  1  0.19106157  0.46955963  0.99328749  1
  Se  Se59  1  0.72808320  0.39419588  0.17324756  1
  Se  Se60  1  0.22808320  0.10580412  0.82675244  1
  Se  Se61  1  0.43825949  0.34963791  0.12608610  1
  Se  Se62  1  0.48642300  0.01556909  0.12632603  1
  Se  Se63  1  0.77191680  0.10580412  0.67324756  1
  Se  Se64  1  0.24311301  0.13111043  0.20960122  1
  Se  Se65  1  0.72808320  0.60580412  0.67324756  1
  Se  Se66  1  0.34235229  0.27131645  0.62681632  1
  Se  Se67  1  0.27191680  0.60580412  0.82675244  1
  Se  Se68  1  0.48642300  0.98443091  0.62632603  1
  Se  Se69  1  0.84235229  0.22868355  0.37318368  1
  Se  Se70  1  0.01636390  0.17229636  0.37859993  1
  Se  Se71  1  0.68959275  0.98720487  0.33936394  1
  Se  Se72  1  0.98642300  0.51556909  0.37367397  1
  Se  Se73  1  0.06174051  0.84963791  0.12608610  1
  Se  Se74  1  0.75688699  0.13111043  0.29039878  1
  Se  Se75  1  0.01636390  0.82770364  0.87859993  1
  Se  Se76  1  0.74480698  0.04944360  0.12217871  1
  Se  Se77  1  0.69106157  0.96955963  0.50671251  1
  Se  Se78  1  0.65764771  0.72868355  0.37318368  1
  Se  Se79  1  0.15764771  0.77131645  0.62681632  1
  Se  Se80  1  0.11293820  0.80500867  0.39582580  1
  Se  Se81  1  0.01357700  0.51556909  0.12632603  1
  Se  Se82  1  0.27191680  0.39419588  0.32675244  1
  Se  Se83  1  0.93825949  0.84963791  0.37391390  1
  Se  Se84  1  0.30893843  0.03044037  0.49328749  1
  Se  Se85  1  0.81040725  0.51279513  0.83936394  1
  Se  Se86  1  0.06174051  0.15036209  0.62608610  1
  Se  Se87  1  0.77191680  0.89419588  0.17324756  1
  Se  Se88  1  0.22808320  0.89419588  0.32675244  1
  Se  Se89  1  0.11293820  0.19499133  0.89582580  1
  Se  Se90  1  0.98363610  0.17229636  0.12140007  1
  Se  Se91  1  0.74480698  0.95055640  0.62217871  1
  Se  Se92  1  0.75688699  0.86888957  0.79039878  1
  Se  Se93  1  0.88706180  0.80500867  0.10417420  1
  Se  Se94  1  0.61293820  0.30500867  0.10417420  1
  Se  Se95  1  0.56174051  0.34963791  0.37391390  1
  Se  Se96  1  0.65764771  0.27131645  0.87318368  1
  Se  Se97  1  0.24311301  0.86888957  0.70960122  1
  Se  Se98  1  0.84235229  0.77131645  0.87318368  1
  Se  Se99  1  0.51357700  0.01556909  0.37367397  1
  Se  Se100  1  0.48363610  0.67229636  0.37859993  1
  Se  Se101  1  0.51636390  0.67229636  0.12140007  1
  Se  Se102  1  0.15764771  0.22868355  0.12681632  1
  Se  Se103  1  0.25688699  0.63111043  0.20960122  1
  Se  Se104  1  0.30893843  0.96955963  0.99328749  1
  Se  Se105  1  0.74311301  0.63111043  0.29039878  1
  Se  Se106  1  0.74311301  0.36888957  0.79039878  1
  Se  Se107  1  0.38706180  0.30500867  0.39582580  1
