# generated using pymatgen
data_Ta2Ni3S8
_symmetry_space_group_name_H-M   'P 1'
_cell_length_a   3.32830943
_cell_length_b   10.28473494
_cell_length_c   14.23320594
_cell_angle_alpha   90.00000000
_cell_angle_beta   90.00000000
_cell_angle_gamma   90.00000000
_symmetry_Int_Tables_number   1
_chemical_formula_structural   Ta2Ni3S8
_chemical_formula_sum   'Ta4 Ni6 S16'
_cell_volume   487.21374530
_cell_formula_units_Z   2
loop_
 _symmetry_equiv_pos_site_id
 _symmetry_equiv_pos_as_xyz
  1  'x, y, z'
loop_
 _atom_site_type_symbol
 _atom_site_label
 _atom_site_symmetry_multiplicity
 _atom_site_fract_x
 _atom_site_fract_y
 _atom_site_fract_z
 _atom_site_occupancy
  Ta  Ta0  1  0.50000000  0.19315160  0.12363945  1
  Ta  Ta1  1  0.50000000  0.69315160  0.37636055  1
  Ta  Ta2  1  0.50000000  0.30684840  0.62363945  1
  Ta  Ta3  1  0.50000000  0.80684840  0.87636055  1
  Ni  Ni4  1  -0.00000000  0.35767943  0.22949026  1
  Ni  Ni5  1  -0.00000000  0.64232057  0.77050974  1
  Ni  Ni6  1  -0.00000000  -0.00000000  0.00000000  1
  Ni  Ni7  1  0.00000000  0.85767943  0.27050974  1
  Ni  Ni8  1  0.00000000  0.14232057  0.72949026  1
  Ni  Ni9  1  -0.00000000  0.50000000  0.50000000  1
  S  S10  1  -0.00000000  0.98107350  0.84541224  1
  S  S11  1  0.50000000  0.73766003  0.21063796  1
  S  S12  1  0.50000000  0.76233997  0.71063796  1
  S  S13  1  0.00000000  0.51892650  0.34541224  1
  S  S14  1  0.50000000  0.23766003  0.28936204  1
  S  S15  1  -0.00000000  0.71395254  0.50237902  1
  S  S16  1  -0.00000000  0.21395254  0.99762098  1
  S  S17  1  0.50000000  0.57246491  0.86311852  1
  S  S18  1  0.00000000  0.28604746  0.49762098  1
  S  S19  1  0.50000000  0.42753509  0.13688148  1
  S  S20  1  0.50000000  0.07246491  0.63688148  1
  S  S21  1  0.00000000  0.01892650  0.15458776  1
  S  S22  1  0.50000000  0.92753509  0.36311852  1
  S  S23  1  0.00000000  0.78604746  0.00237902  1
  S  S24  1  0.50000000  0.26233997  0.78936204  1
  S  S25  1  -0.00000000  0.48107350  0.65458776  1
