# generated using pymatgen
data_Tb3Ga5O12
_symmetry_space_group_name_H-M   'P 1'
_cell_length_a   10.66804874
_cell_length_b   10.66804874
_cell_length_c   10.66804874
_cell_angle_alpha   109.47122063
_cell_angle_beta   109.47122063
_cell_angle_gamma   109.47122063
_symmetry_Int_Tables_number   1
_chemical_formula_structural   Tb3Ga5O12
_chemical_formula_sum   'Tb12 Ga20 O48'
_cell_volume   934.61572228
_cell_formula_units_Z   4
loop_
 _symmetry_equiv_pos_site_id
 _symmetry_equiv_pos_as_xyz
  1  'x, y, z'
loop_
 _atom_site_type_symbol
 _atom_site_label
 _atom_site_symmetry_multiplicity
 _atom_site_fract_x
 _atom_site_fract_y
 _atom_site_fract_z
 _atom_site_occupancy
  Tb  Tb0  1  0.87500000  0.75000000  0.62500000  1
  Tb  Tb1  1  0.87500000  0.62500000  0.25000000  1
  Tb  Tb2  1  0.62500000  0.87500000  0.75000000  1
  Tb  Tb3  1  0.25000000  0.87500000  0.62500000  1
  Tb  Tb4  1  0.75000000  0.62500000  0.87500000  1
  Tb  Tb5  1  0.62500000  0.25000000  0.87500000  1
  Tb  Tb6  1  0.12500000  0.25000000  0.37500000  1
  Tb  Tb7  1  0.12500000  0.37500000  0.75000000  1
  Tb  Tb8  1  0.37500000  0.12500000  0.25000000  1
  Tb  Tb9  1  0.75000000  0.12500000  0.37500000  1
  Tb  Tb10  1  0.25000000  0.37500000  0.12500000  1
  Tb  Tb11  1  0.37500000  0.75000000  0.12500000  1
  Ga  Ga12  1  0.12500000  0.75000000  0.87500000  1
  Ga  Ga13  1  0.87500000  0.25000000  0.12500000  1
  Ga  Ga14  1  0.75000000  0.37500000  0.62500000  1
  Ga  Ga15  1  0.12500000  0.87500000  0.25000000  1
  Ga  Ga16  1  0.25000000  0.12500000  0.87500000  1
  Ga  Ga17  1  0.37500000  0.62500000  0.75000000  1
  Ga  Ga18  1  0.37500000  0.25000000  0.62500000  1
  Ga  Ga19  1  0.87500000  0.12500000  0.75000000  1
  Ga  Ga20  1  0.62500000  0.37500000  0.25000000  1
  Ga  Ga21  1  0.75000000  0.87500000  0.12500000  1
  Ga  Ga22  1  0.25000000  0.62500000  0.37500000  1
  Ga  Ga23  1  0.62500000  0.75000000  0.37500000  1
  Ga  Ga24  1  0.50000000  0.00000000  0.50000000  1
  Ga  Ga25  1  -0.00000000  0.50000000  0.00000000  1
  Ga  Ga26  1  0.50000000  0.50000000  0.50000000  1
  Ga  Ga27  1  -0.00000000  0.00000000  0.50000000  1
  Ga  Ga28  1  -0.00000000  0.00000000  0.00000000  1
  Ga  Ga29  1  -0.00000000  0.50000000  0.50000000  1
  Ga  Ga30  1  0.50000000  0.50000000  0.00000000  1
  Ga  Ga31  1  0.50000000  0.00000000  0.00000000  1
  O  O32  1  0.58317175  0.90569801  0.37803471  1
  O  O33  1  0.37803471  0.58317175  0.90569801  1
  O  O34  1  0.29486296  0.32252626  0.91682825  1
  O  O35  1  0.47233671  0.59430199  0.17747374  1
  O  O36  1  0.32252626  0.90569801  0.02766329  1
  O  O37  1  0.12196529  0.02766329  0.20513704  1
  O  O38  1  0.37803471  0.29486296  0.47233671  1
  O  O39  1  0.90569801  0.37803471  0.58317175  1
  O  O40  1  0.17747374  0.20513704  0.58317175  1
  O  O41  1  0.47233671  0.37803471  0.29486296  1
  O  O42  1  0.90569801  0.02766329  0.32252626  1
  O  O43  1  0.59430199  0.91682825  0.12196529  1
  O  O44  1  0.91682825  0.12196529  0.59430199  1
  O  O45  1  0.29486296  0.47233671  0.37803471  1
  O  O46  1  0.58317175  0.17747374  0.20513704  1
  O  O47  1  0.20513704  0.58317175  0.17747374  1
  O  O48  1  0.02766329  0.32252626  0.90569801  1
  O  O49  1  0.91682825  0.29486296  0.32252626  1
  O  O50  1  0.02766329  0.20513704  0.12196529  1
  O  O51  1  0.82252626  0.79486296  0.41682825  1
  O  O52  1  0.17747374  0.47233671  0.59430199  1
  O  O53  1  0.59430199  0.17747374  0.47233671  1
  O  O54  1  0.20513704  0.12196529  0.02766329  1
  O  O55  1  0.12196529  0.59430199  0.91682825  1
  O  O56  1  0.41682825  0.09430199  0.62196529  1
  O  O57  1  0.62196529  0.41682825  0.09430199  1
  O  O58  1  0.70513704  0.67747374  0.08317175  1
  O  O59  1  0.52766329  0.40569801  0.82252626  1
  O  O60  1  0.67747374  0.09430199  0.97233671  1
  O  O61  1  0.87803471  0.97233671  0.79486296  1
  O  O62  1  0.62196529  0.70513704  0.52766329  1
  O  O63  1  0.09430199  0.62196529  0.41682825  1
  O  O64  1  0.87803471  0.40569801  0.08317175  1
  O  O65  1  0.79486296  0.87803471  0.97233671  1
  O  O66  1  0.40569801  0.82252626  0.52766329  1
  O  O67  1  0.67747374  0.08317175  0.70513704  1
  O  O68  1  0.82252626  0.52766329  0.40569801  1
  O  O69  1  0.97233671  0.79486296  0.87803471  1
  O  O70  1  0.08317175  0.70513704  0.67747374  1
  O  O71  1  0.97233671  0.67747374  0.09430199  1
  O  O72  1  0.79486296  0.41682825  0.82252626  1
  O  O73  1  0.41682825  0.82252626  0.79486296  1
  O  O74  1  0.70513704  0.52766329  0.62196529  1
  O  O75  1  0.08317175  0.87803471  0.40569801  1
  O  O76  1  0.40569801  0.08317175  0.87803471  1
  O  O77  1  0.09430199  0.97233671  0.67747374  1
  O  O78  1  0.52766329  0.62196529  0.70513704  1
  O  O79  1  0.32252626  0.91682825  0.29486296  1
