# generated using pymatgen
data_Tl3PO4
_symmetry_space_group_name_H-M   'P 1'
_cell_length_a   8.46457754
_cell_length_b   8.46457742
_cell_length_c   5.10637282
_cell_angle_alpha   90.00000000
_cell_angle_beta   90.00000000
_cell_angle_gamma   120.00000054
_symmetry_Int_Tables_number   1
_chemical_formula_structural   Tl3PO4
_chemical_formula_sum   'Tl6 P2 O8'
_cell_volume   316.85000506
_cell_formula_units_Z   2
loop_
 _symmetry_equiv_pos_site_id
 _symmetry_equiv_pos_as_xyz
  1  'x, y, z'
loop_
 _atom_site_type_symbol
 _atom_site_label
 _atom_site_symmetry_multiplicity
 _atom_site_fract_x
 _atom_site_fract_y
 _atom_site_fract_z
 _atom_site_occupancy
  Tl  Tl0  1  0.73585778  0.09347547  0.99533822  1
  Tl  Tl1  1  0.90652453  0.64238131  0.99533822  1
  Tl  Tl2  1  0.64238131  0.73585778  0.49533822  1
  Tl  Tl3  1  0.26414222  0.90652453  0.49533822  1
  Tl  Tl4  1  0.09347547  0.35761869  0.49533822  1
  Tl  Tl5  1  0.35761869  0.26414222  0.99533822  1
  P  P6  1  0.33333300  0.66666700  0.98827272  1
  P  P7  1  0.66666700  0.33333300  0.48827272  1
  O  O8  1  0.59766107  0.13690187  0.58462259  1
  O  O9  1  0.46075820  0.59766107  0.08462259  1
  O  O10  1  0.13690187  0.53924180  0.08462259  1
  O  O11  1  0.86309813  0.46075820  0.58462259  1
  O  O12  1  0.33333300  0.66666700  0.68244384  1
  O  O13  1  0.40233893  0.86309813  0.08462259  1
  O  O14  1  0.66666700  0.33333300  0.18244384  1
  O  O15  1  0.53924180  0.40233893  0.58462259  1
