# generated using pymatgen
data_CdI2
_symmetry_space_group_name_H-M   'P 1'
_cell_length_a   4.28762540
_cell_length_b   4.28762529
_cell_length_c   71.54783573
_cell_angle_alpha   90.00000000
_cell_angle_beta   90.00000000
_cell_angle_gamma   119.99999288
_symmetry_Int_Tables_number   1
_chemical_formula_structural   CdI2
_chemical_formula_sum   'Cd10 I20'
_cell_volume   1139.09730000
_cell_formula_units_Z   10
loop_
 _symmetry_equiv_pos_site_id
 _symmetry_equiv_pos_as_xyz
  1  'x, y, z'
loop_
 _atom_site_type_symbol
 _atom_site_label
 _atom_site_symmetry_multiplicity
 _atom_site_fract_x
 _atom_site_fract_y
 _atom_site_fract_z
 _atom_site_occupancy
  Cd  Cd0  1  0.00000000  -0.00000000  0.72537197  1
  Cd  Cd1  1  0.00000000  -0.00000000  0.92559484  1
  Cd  Cd2  1  0.66666700  0.33333300  0.42440293  1
  Cd  Cd3  1  0.66666700  0.33333300  0.02558800  1
  Cd  Cd4  1  0.00000000  0.00000000  0.22462909  1
  Cd  Cd5  1  0.00000000  0.00000000  0.32441282  1
  Cd  Cd6  1  0.00000000  0.00000000  0.52441254  1
  Cd  Cd7  1  -0.00000000  -0.00000000  0.12500367  1
  Cd  Cd8  1  0.00000000  0.00000000  0.82559430  1
  Cd  Cd9  1  -0.00000000  -0.00000000  0.62500626  1
  I  I10  1  -0.00000000  0.00000000  0.40026540  1
  I  I11  1  0.33333300  0.66666700  0.44850866  1
  I  I12  1  0.33333300  0.66666700  0.34849903  1
  I  I13  1  0.66666700  0.33333300  0.10093214  1
  I  I14  1  0.66666700  0.33333300  0.90149645  1
  I  I15  1  0.33333300  0.66666700  0.94971664  1
  I  I16  1  0.66666700  0.33333300  0.70143221  1
  I  I17  1  0.66666700  0.33333300  0.80148409  1
  I  I18  1  0.33333300  0.66666700  0.04971888  1
  I  I19  1  0.66666700  0.33333300  0.30028282  1
  I  I20  1  -0.00000000  0.00000000  0.00148658  1
  I  I21  1  0.33333300  0.66666700  0.54851807  1
  I  I22  1  0.66666700  0.33333300  0.60093054  1
  I  I23  1  0.33333300  0.66666700  0.14906999  1
  I  I24  1  0.33333300  0.66666700  0.24857325  1
  I  I25  1  0.66666700  0.33333300  0.50027587  1
  I  I26  1  0.33333300  0.66666700  0.84971921  1
  I  I27  1  0.33333300  0.66666700  0.64906997  1
  I  I28  1  0.66666700  0.33333300  0.20069401  1
  I  I29  1  0.33333300  0.66666700  0.74930479  1
