# generated using pymatgen
data_Ba2U2O7
_symmetry_space_group_name_H-M   'P 1'
_cell_length_a   8.12065678
_cell_length_b   8.12065505
_cell_length_c   8.12066169
_cell_angle_alpha   119.44307984
_cell_angle_beta   118.97431443
_cell_angle_gamma   91.37654900
_symmetry_Int_Tables_number   1
_chemical_formula_structural   Ba2U2O7
_chemical_formula_sum   'Ba4 U4 O14'
_cell_volume   383.06982320
_cell_formula_units_Z   2
loop_
 _symmetry_equiv_pos_site_id
 _symmetry_equiv_pos_as_xyz
  1  'x, y, z'
loop_
 _atom_site_type_symbol
 _atom_site_label
 _atom_site_symmetry_multiplicity
 _atom_site_fract_x
 _atom_site_fract_y
 _atom_site_fract_z
 _atom_site_occupancy
  Ba  Ba0  1  -0.00000029  0.00000003  -0.00000016  1
  Ba  Ba1  1  0.49999999  0.49999988  -0.00000011  1
  Ba  Ba2  1  0.49999997  -0.00000004  -0.00000026  1
  Ba  Ba3  1  0.49999988  0.50000019  0.49999996  1
  U  U4  1  0.00000044  0.00000013  0.50000035  1
  U  U5  1  -0.00000019  0.49999986  0.49999933  1
  U  U6  1  0.00000026  0.49999963  0.00000060  1
  U  U7  1  0.50000098  -0.00000087  0.50000211  1
  O  O8  1  0.91085181  0.74999995  0.16085112  1
  O  O9  1  0.68750833  0.91545030  0.36475880  1
  O  O10  1  0.62083496  0.90680683  0.71402810  1
  O  O11  1  0.68750852  0.32274991  0.77205831  1
  O  O12  1  0.31249121  0.67725022  0.22794104  1
  O  O13  1  0.31249132  0.08454996  0.63524070  1
  O  O14  1  0.69277784  0.40680633  0.28597173  1
  O  O15  1  0.05069064  0.82274931  0.63524077  1
  O  O16  1  0.05069091  0.41544998  0.22794135  1
  O  O17  1  0.08914814  0.25000027  0.83914859  1
  O  O18  1  0.37916447  0.09319362  0.28597082  1
  O  O19  1  0.94930944  0.17725081  0.36475950  1
  O  O20  1  0.94930915  0.58455016  0.77205877  1
  O  O21  1  0.30722223  0.59319353  0.71402858  1
