# generated using pymatgen
data_Tb(IO3)3
_symmetry_space_group_name_H-M   'P 1'
_cell_length_a   5.96351102
_cell_length_b   8.70440314
_cell_length_c   16.45137285
_cell_angle_alpha   65.41129182
_cell_angle_beta   90.00000000
_cell_angle_gamma   90.00000000
_symmetry_Int_Tables_number   1
_chemical_formula_structural   Tb(IO3)3
_chemical_formula_sum   'Tb4 I12 O36'
_cell_volume   776.53139608
_cell_formula_units_Z   4
loop_
 _symmetry_equiv_pos_site_id
 _symmetry_equiv_pos_as_xyz
  1  'x, y, z'
loop_
 _atom_site_type_symbol
 _atom_site_label
 _atom_site_symmetry_multiplicity
 _atom_site_fract_x
 _atom_site_fract_y
 _atom_site_fract_z
 _atom_site_occupancy
  Tb  Tb0  1  0.28376773  0.14497448  0.39780795  1
  Tb  Tb1  1  0.21623227  0.14497448  0.89780795  1
  Tb  Tb2  1  0.78376773  0.85502552  0.10219205  1
  Tb  Tb3  1  0.71623227  0.85502552  0.60219205  1
  I  I4  1  0.14902951  0.64277198  0.02104120  1
  I  I5  1  0.68581894  0.92543493  0.85421009  1
  I  I6  1  0.31418106  0.07456507  0.14578991  1
  I  I7  1  0.18581894  0.07456507  0.64578991  1
  I  I8  1  0.40217140  0.58156501  0.80016106  1
  I  I9  1  0.59782860  0.41843499  0.19983894  1
  I  I10  1  0.81418106  0.92543493  0.35421009  1
  I  I11  1  0.90217140  0.41843499  0.69983894  1
  I  I12  1  0.85097049  0.35722802  0.97895880  1
  I  I13  1  0.35097049  0.64277198  0.52104120  1
  I  I14  1  0.09782860  0.58156501  0.30016106  1
  I  I15  1  0.64902951  0.35722802  0.47895880  1
  O  O16  1  0.41119572  0.65988451  0.88677851  1
  O  O17  1  0.11670960  0.11338090  0.53204763  1
  O  O18  1  0.52633373  0.60483757  0.61836217  1
  O  O19  1  0.97366627  0.60483757  0.11836217  1
  O  O20  1  0.60831938  0.09479074  0.32973671  1
  O  O21  1  0.39168062  0.90520926  0.67026329  1
  O  O22  1  0.44092409  0.05834311  0.80831542  1
  O  O23  1  0.47366627  0.39516243  0.38163783  1
  O  O24  1  0.91119572  0.34011549  0.61322149  1
  O  O25  1  0.58880428  0.34011549  0.11322149  1
  O  O26  1  0.42725548  0.35549910  0.55741839  1
  O  O27  1  0.10831938  0.90520926  0.17026329  1
  O  O28  1  0.88222102  0.12899327  0.01209961  1
  O  O29  1  0.92725548  0.64450090  0.94258161  1
  O  O30  1  0.61670960  0.88661910  0.96795237  1
  O  O31  1  0.94092409  0.94165689  0.69168458  1
  O  O32  1  0.55907591  0.94165689  0.19168458  1
  O  O33  1  0.89168062  0.09479074  0.82973671  1
  O  O34  1  0.07274452  0.35549910  0.05741839  1
  O  O35  1  0.00878916  0.36378442  0.36488079  1
  O  O36  1  0.02633373  0.39516243  0.88163783  1
  O  O37  1  0.57274452  0.64450090  0.44258161  1
  O  O38  1  0.50878916  0.63621558  0.13511921  1
  O  O39  1  0.08880428  0.65988451  0.38677851  1
  O  O40  1  0.32109168  0.34368001  0.24423123  1
  O  O41  1  0.11777898  0.87100673  0.98790039  1
  O  O42  1  0.05907591  0.05834311  0.30831542  1
  O  O43  1  0.38329040  0.11338090  0.03204763  1
  O  O44  1  0.61777898  0.12899327  0.51209961  1
  O  O45  1  0.38222102  0.87100673  0.48790039  1
  O  O46  1  0.82109168  0.65631999  0.25576877  1
  O  O47  1  0.67890832  0.65631999  0.75576877  1
  O  O48  1  0.99121084  0.63621558  0.63511921  1
  O  O49  1  0.88329040  0.88661910  0.46795237  1
  O  O50  1  0.49121084  0.36378442  0.86488079  1
  O  O51  1  0.17890832  0.34368001  0.74423123  1
