# generated using pymatgen
data_RbS
_symmetry_space_group_name_H-M   'P 1'
_cell_length_a   4.99485667
_cell_length_b   6.08071001
_cell_length_c   6.08071099
_cell_angle_alpha   68.62193856
_cell_angle_beta   65.75035508
_cell_angle_gamma   65.75034778
_symmetry_Int_Tables_number   1
_chemical_formula_structural   RbS
_chemical_formula_sum   'Rb2 S2'
_cell_volume   149.21049408
_cell_formula_units_Z   2
loop_
 _symmetry_equiv_pos_site_id
 _symmetry_equiv_pos_as_xyz
  1  'x, y, z'
loop_
 _atom_site_type_symbol
 _atom_site_label
 _atom_site_symmetry_multiplicity
 _atom_site_fract_x
 _atom_site_fract_y
 _atom_site_fract_z
 _atom_site_occupancy
  Rb  Rb0  1  0.72514283  0.77485717  0.77485717  1
  Rb  Rb1  1  0.27485717  0.22514283  0.22514283  1
  S  S2  1  -0.00000000  0.15438990  0.84561010  1
  S  S3  1  0.00000000  0.84561010  0.15438990  1
