# generated using pymatgen
data_ReO2F3
_symmetry_space_group_name_H-M   'P 1'
_cell_length_a   7.46898575
_cell_length_b   7.46898575
_cell_length_c   13.54776242
_cell_angle_alpha   90.00000000
_cell_angle_beta   90.00000000
_cell_angle_gamma   96.41792956
_symmetry_Int_Tables_number   1
_chemical_formula_structural   ReO2F3
_chemical_formula_sum   'Re8 O16 F24'
_cell_volume   751.03562917
_cell_formula_units_Z   8
loop_
 _symmetry_equiv_pos_site_id
 _symmetry_equiv_pos_as_xyz
  1  'x, y, z'
loop_
 _atom_site_type_symbol
 _atom_site_label
 _atom_site_symmetry_multiplicity
 _atom_site_fract_x
 _atom_site_fract_y
 _atom_site_fract_z
 _atom_site_occupancy
  Re  Re0  1  0.23399271  0.76600729  0.50000000  1
  Re  Re1  1  0.73399271  0.26600729  0.00000000  1
  Re  Re2  1  0.67181193  0.67181193  0.67877868  1
  Re  Re3  1  0.76600729  0.23399271  0.50000000  1
  Re  Re4  1  0.82818807  0.82818807  0.17877868  1
  Re  Re5  1  0.26600729  0.73399271  0.00000000  1
  Re  Re6  1  0.17181193  0.17181193  0.82122132  1
  Re  Re7  1  0.32818807  0.32818807  0.32122132  1
  O  O8  1  0.14466410  0.38122559  0.25992667  1
  O  O9  1  0.92965561  0.20812351  0.58318409  1
  O  O10  1  0.85533590  0.61877441  0.74007333  1
  O  O11  1  0.64466410  0.88122559  0.24007333  1
  O  O12  1  0.42965561  0.70812351  0.91681591  1
  O  O13  1  0.61877441  0.85533590  0.74007333  1
  O  O14  1  0.07034439  0.79187649  0.41681591  1
  O  O15  1  0.20812351  0.92965561  0.58318409  1
  O  O16  1  0.70812351  0.42965561  0.91681591  1
  O  O17  1  0.35533590  0.11877441  0.75992667  1
  O  O18  1  0.79187649  0.07034439  0.41681591  1
  O  O19  1  0.88122559  0.64466410  0.24007333  1
  O  O20  1  0.11877441  0.35533590  0.75992667  1
  O  O21  1  0.38122559  0.14466410  0.25992667  1
  O  O22  1  0.29187649  0.57034439  0.08318409  1
  O  O23  1  0.57034439  0.29187649  0.08318409  1
  F  F24  1  0.79121942  0.79121942  0.57250290  1
  F  F25  1  0.68781819  0.45317887  0.58140697  1
  F  F26  1  0.81218181  0.04682113  0.08140697  1
  F  F27  1  0.42567948  0.88140336  0.42852496  1
  F  F28  1  0.99838259  0.99838259  0.23516040  1
  F  F29  1  0.49838259  0.49838259  0.26483960  1
  F  F30  1  0.20878058  0.20878058  0.42749710  1
  F  F31  1  0.38140336  0.92567948  0.07147504  1
  F  F32  1  0.88140336  0.42567948  0.42852496  1
  F  F33  1  0.07432052  0.61859664  0.92852496  1
  F  F34  1  0.29121942  0.29121942  0.92749710  1
  F  F35  1  0.00161741  0.00161741  0.76483960  1
  F  F36  1  0.54682113  0.31218181  0.41859303  1
  F  F37  1  0.50161741  0.50161741  0.73516040  1
  F  F38  1  0.18781819  0.95317887  0.91859303  1
  F  F39  1  0.11859664  0.57432052  0.57147504  1
  F  F40  1  0.92567948  0.38140336  0.07147504  1
  F  F41  1  0.95317887  0.18781819  0.91859303  1
  F  F42  1  0.70878058  0.70878058  0.07250290  1
  F  F43  1  0.45317887  0.68781819  0.58140697  1
  F  F44  1  0.61859664  0.07432052  0.92852496  1
  F  F45  1  0.57432052  0.11859664  0.57147504  1
  F  F46  1  0.31218181  0.54682113  0.41859303  1
  F  F47  1  0.04682113  0.81218181  0.08140697  1
