# generated using pymatgen
data_CdI2
_symmetry_space_group_name_H-M   'P 1'
_cell_length_a   4.28579162
_cell_length_b   4.28545581
_cell_length_c   71.53861093
_cell_angle_alpha   90.00066118
_cell_angle_beta   89.98384702
_cell_angle_gamma   119.99967898
_symmetry_Int_Tables_number   1
_chemical_formula_structural   CdI2
_chemical_formula_sum   'Cd10 I20'
_cell_volume   1137.89081255
_cell_formula_units_Z   10
loop_
 _symmetry_equiv_pos_site_id
 _symmetry_equiv_pos_as_xyz
  1  'x, y, z'
loop_
 _atom_site_type_symbol
 _atom_site_label
 _atom_site_symmetry_multiplicity
 _atom_site_fract_x
 _atom_site_fract_y
 _atom_site_fract_z
 _atom_site_occupancy
  Cd  Cd0  1  0.66704009  0.33306058  0.32499573  1
  Cd  Cd1  1  0.00024017  -0.00006783  0.72484456  1
  Cd  Cd2  1  0.66657851  0.33345318  0.02558921  1
  Cd  Cd3  1  0.66673793  0.33337455  0.22512460  1
  Cd  Cd4  1  0.66666870  0.33385887  0.12559808  1
  Cd  Cd5  1  -0.00013516  -0.00003719  0.52435417  1
  Cd  Cd6  1  0.66665032  0.33330787  0.42463166  1
  Cd  Cd7  1  0.00016929  0.00005700  0.62437883  1
  Cd  Cd8  1  0.00038676  -0.00035093  0.82483066  1
  Cd  Cd9  1  0.66668674  0.33335401  0.92557381  1
  I  I10  1  -0.00017592  0.00087357  0.10151828  1
  I  I11  1  0.33309160  0.66639719  0.44857270  1
  I  I12  1  0.33352985  0.66669076  0.34906556  1
  I  I13  1  0.33353607  0.66699576  0.94973104  1
  I  I14  1  0.00013165  0.00003396  0.30092609  1
  I  I15  1  0.66619472  0.33300905  0.70074866  1
  I  I16  1  -0.00001239  0.00002665  0.40068607  1
  I  I17  1  0.99961546  0.00002512  0.20102465  1
  I  I18  1  0.66681973  0.33307216  0.80074623  1
  I  I19  1  0.00003386  0.00003537  0.90147009  1
  I  I20  1  0.33284999  0.66655034  0.04973728  1
  I  I21  1  0.66685979  0.33344921  0.60026500  1
  I  I22  1  -0.00004340  -0.00000254  0.00147677  1
  I  I23  1  0.33189013  0.66532017  0.54844850  1
  I  I24  1  0.33368894  0.66646508  0.84895889  1
  I  I25  1  0.33345200  0.66673576  0.24925112  1
  I  I26  1  0.66698654  0.33403924  0.50024679  1
  I  I27  1  0.33342454  0.66698315  0.14973185  1
  I  I28  1  0.33358897  0.66656121  0.64850592  1
  I  I29  1  0.33351555  0.66672671  0.74896821  1
