# generated using pymatgen
data_K17Fe5O16
_symmetry_space_group_name_H-M   'P 1'
_cell_length_a   18.31563230
_cell_length_b   18.31563230
_cell_length_c   6.68315869
_cell_angle_alpha   84.87543273
_cell_angle_beta   84.87543273
_cell_angle_gamma   158.96950492
_symmetry_Int_Tables_number   1
_chemical_formula_structural   K17Fe5O16
_chemical_formula_sum   'K17 Fe5 O16'
_cell_volume   701.60298569
_cell_formula_units_Z   1
loop_
 _symmetry_equiv_pos_site_id
 _symmetry_equiv_pos_as_xyz
  1  'x, y, z'
loop_
 _atom_site_type_symbol
 _atom_site_label
 _atom_site_symmetry_multiplicity
 _atom_site_fract_x
 _atom_site_fract_y
 _atom_site_fract_z
 _atom_site_occupancy
  K  K0  1  0.91532173  0.08363638  0.87982181  1
  K  K1  1  0.77916966  0.32796424  0.45807346  1
  K  K2  1  0.16479568  0.82817058  0.60738074  1
  K  K3  1  0.31250549  0.59131683  0.01881141  1
  K  K4  1  0.58852249  0.49651083  0.45744385  1
  K  K5  1  0.99725335  0.99725335  0.58260577  1
  K  K6  1  0.82817058  0.16479568  0.60738074  1
  K  K7  1  0.49651083  0.58852249  0.45744385  1
  K  K8  1  0.20683202  0.67353279  0.01020276  1
  K  K9  1  0.32796424  0.77916966  0.45807346  1
  K  K10  1  0.67353279  0.20683202  0.01020276  1
  K  K11  1  0.08363638  0.91532173  0.87982181  1
  K  K12  1  0.68258425  0.40701471  0.47318186  1
  K  K13  1  0.59131683  0.31250549  0.01881141  1
  K  K14  1  0.50145866  0.40802057  0.00103933  1
  K  K15  1  0.40802057  0.50145866  0.00103933  1
  K  K16  1  0.40701471  0.68258425  0.47318186  1
  Fe  Fe17  1  0.99878401  0.99878401  0.07383931  1
  Fe  Fe18  1  0.81925713  0.17813106  0.08460607  1
  Fe  Fe19  1  0.17813106  0.81925713  0.08460607  1
  Fe  Fe20  1  0.90924788  0.08854109  0.39007758  1
  Fe  Fe21  1  0.08854109  0.90924788  0.39007758  1
  O  O22  1  0.35962985  0.17346126  0.40938309  1
  O  O23  1  0.12473217  0.86753785  0.19682790  1
  O  O24  1  0.82597246  0.63985897  0.67425499  1
  O  O25  1  0.17346126  0.35962985  0.40938309  1
  O  O26  1  0.54339940  0.91734202  0.06507878  1
  O  O27  1  0.63985897  0.82597246  0.67425499  1
  O  O28  1  0.86753785  0.12473217  0.19682790  1
  O  O29  1  0.72980227  0.72980227  0.05611731  1
  O  O30  1  0.78504939  0.21151385  0.29865264  1
  O  O31  1  0.08258296  0.45375178  0.80322169  1
  O  O32  1  0.91734202  0.54339940  0.06507878  1
  O  O33  1  0.21151385  0.78504939  0.29865264  1
  O  O34  1  0.45375178  0.08258296  0.80322169  1
  O  O35  1  0.95586740  0.04185517  0.24475426  1
  O  O36  1  0.26572775  0.26572775  0.79014517  1
  O  O37  1  0.04185517  0.95586740  0.24475426  1
