# generated using pymatgen
data_K3Mo12PO40
_symmetry_space_group_name_H-M   'P 1'
_cell_length_a   11.58943449
_cell_length_b   11.58943449
_cell_length_c   11.58943449
_cell_angle_alpha   90.00000000
_cell_angle_beta   90.00000000
_cell_angle_gamma   90.00000000
_symmetry_Int_Tables_number   1
_chemical_formula_structural   K3Mo12PO40
_chemical_formula_sum   'K6 Mo24 P2 O80'
_cell_volume   1556.63479847
_cell_formula_units_Z   2
loop_
 _symmetry_equiv_pos_site_id
 _symmetry_equiv_pos_as_xyz
  1  'x, y, z'
loop_
 _atom_site_type_symbol
 _atom_site_label
 _atom_site_symmetry_multiplicity
 _atom_site_fract_x
 _atom_site_fract_y
 _atom_site_fract_z
 _atom_site_occupancy
  K  K0  1  0.50000000  0.50000000  0.00000000  1
  K  K1  1  0.50000000  -0.00000000  0.00000000  1
  K  K2  1  0.50000000  -0.00000000  0.50000000  1
  K  K3  1  -0.00000000  0.50000000  0.50000000  1
  K  K4  1  -0.00000000  0.50000000  0.00000000  1
  K  K5  1  -0.00000000  -0.00000000  0.50000000  1
  Mo  Mo6  1  0.50831426  0.71735821  0.28264179  1
  Mo  Mo7  1  0.21735821  0.99168574  0.78264179  1
  Mo  Mo8  1  0.78264179  0.78264179  0.00831426  1
  Mo  Mo9  1  0.49168574  0.71735821  0.71735821  1
  Mo  Mo10  1  0.21735821  0.00831426  0.21735821  1
  Mo  Mo11  1  0.28264179  0.71735821  0.50831426  1
  Mo  Mo12  1  0.28264179  0.28264179  0.49168574  1
  Mo  Mo13  1  0.78264179  0.21735821  0.99168574  1
  Mo  Mo14  1  0.71735821  0.71735821  0.49168574  1
  Mo  Mo15  1  0.50831426  0.28264179  0.71735821  1
  Mo  Mo16  1  0.71735821  0.49168574  0.71735821  1
  Mo  Mo17  1  0.71735821  0.50831426  0.28264179  1
  Mo  Mo18  1  0.21735821  0.78264179  0.99168574  1
  Mo  Mo19  1  0.49168574  0.28264179  0.28264179  1
  Mo  Mo20  1  0.99168574  0.21735821  0.78264179  1
  Mo  Mo21  1  0.78264179  0.99168574  0.21735821  1
  Mo  Mo22  1  0.00831426  0.21735821  0.21735821  1
  Mo  Mo23  1  0.00831426  0.78264179  0.78264179  1
  Mo  Mo24  1  0.28264179  0.50831426  0.71735821  1
  Mo  Mo25  1  0.78264179  0.00831426  0.78264179  1
  Mo  Mo26  1  0.71735821  0.28264179  0.50831426  1
  Mo  Mo27  1  0.28264179  0.49168574  0.28264179  1
  Mo  Mo28  1  0.21735821  0.21735821  0.00831426  1
  Mo  Mo29  1  0.99168574  0.78264179  0.21735821  1
  P  P30  1  0.50000000  0.50000000  0.50000000  1
  P  P31  1  -0.00000000  -0.00000000  0.00000000  1
  O  O32  1  0.37345147  0.21182367  0.37345147  1
  O  O33  1  0.28817633  0.87345147  0.87345147  1
  O  O34  1  0.48134377  0.18207337  0.81792663  1
  O  O35  1  0.37345147  0.78817633  0.62654853  1
  O  O36  1  0.87345147  0.87345147  0.28817633  1
  O  O37  1  0.18207337  0.18207337  0.51865623  1
  O  O38  1  0.24427195  0.40174687  0.59825313  1
  O  O39  1  0.90174687  0.74427195  0.90174687  1
  O  O40  1  0.21182367  0.62654853  0.62654853  1
  O  O41  1  0.31792663  0.98134377  0.31792663  1
  O  O42  1  0.68207337  0.01865623  0.31792663  1
  O  O43  1  0.12654853  0.71182367  0.87345147  1
  O  O44  1  0.62654853  0.78817633  0.37345147  1
  O  O45  1  0.40174687  0.24427195  0.59825313  1
  O  O46  1  0.42381228  0.42381228  0.42381228  1
  O  O47  1  0.25572805  0.09825313  0.90174687  1
  O  O48  1  0.40174687  0.59825313  0.24427195  1
  O  O49  1  0.92381228  0.92381228  0.07618772  1
  O  O50  1  0.51865623  0.18207337  0.18207337  1
  O  O51  1  0.01865623  0.68207337  0.31792663  1
  O  O52  1  0.37345147  0.37345147  0.21182367  1
  O  O53  1  0.09825313  0.74427195  0.09825313  1
  O  O54  1  0.78817633  0.37345147  0.62654853  1
  O  O55  1  0.57618772  0.57618772  0.42381228  1
  O  O56  1  0.09825313  0.25572805  0.90174687  1
  O  O57  1  0.42381228  0.57618772  0.57618772  1
  O  O58  1  0.71182367  0.87345147  0.12654853  1
  O  O59  1  0.81792663  0.81792663  0.51865623  1
  O  O60  1  0.21182367  0.37345147  0.37345147  1
  O  O61  1  0.57618772  0.42381228  0.57618772  1
  O  O62  1  0.90174687  0.25572805  0.09825313  1
  O  O63  1  0.87345147  0.28817633  0.87345147  1
  O  O64  1  0.09825313  0.09825313  0.74427195  1
  O  O65  1  0.37345147  0.62654853  0.78817633  1
  O  O66  1  0.59825313  0.75572805  0.59825313  1
  O  O67  1  0.18207337  0.81792663  0.48134377  1
  O  O68  1  0.81792663  0.51865623  0.81792663  1
  O  O69  1  0.40174687  0.40174687  0.75572805  1
  O  O70  1  0.59825313  0.40174687  0.24427195  1
  O  O71  1  0.18207337  0.51865623  0.18207337  1
  O  O72  1  0.24427195  0.59825313  0.40174687  1
  O  O73  1  0.90174687  0.09825313  0.25572805  1
  O  O74  1  0.12654853  0.28817633  0.12654853  1
  O  O75  1  0.78817633  0.62654853  0.37345147  1
  O  O76  1  0.68207337  0.31792663  0.01865623  1
  O  O77  1  0.71182367  0.12654853  0.87345147  1
  O  O78  1  0.48134377  0.81792663  0.18207337  1
  O  O79  1  0.87345147  0.71182367  0.12654853  1
  O  O80  1  0.98134377  0.68207337  0.68207337  1
  O  O81  1  0.18207337  0.48134377  0.81792663  1
  O  O82  1  0.01865623  0.31792663  0.68207337  1
  O  O83  1  0.12654853  0.87345147  0.71182367  1
  O  O84  1  0.62654853  0.62654853  0.21182367  1
  O  O85  1  0.90174687  0.90174687  0.74427195  1
  O  O86  1  0.12654853  0.12654853  0.28817633  1
  O  O87  1  0.51865623  0.81792663  0.81792663  1
  O  O88  1  0.07618772  0.07618772  0.07618772  1
  O  O89  1  0.07618772  0.92381228  0.92381228  1
  O  O90  1  0.81792663  0.48134377  0.18207337  1
  O  O91  1  0.62654853  0.21182367  0.62654853  1
  O  O92  1  0.09825313  0.90174687  0.25572805  1
  O  O93  1  0.87345147  0.12654853  0.71182367  1
  O  O94  1  0.75572805  0.59825313  0.59825313  1
  O  O95  1  0.98134377  0.31792663  0.31792663  1
  O  O96  1  0.31792663  0.68207337  0.01865623  1
  O  O97  1  0.74427195  0.09825313  0.09825313  1
  O  O98  1  0.40174687  0.75572805  0.40174687  1
  O  O99  1  0.28817633  0.12654853  0.12654853  1
  O  O100  1  0.59825313  0.24427195  0.40174687  1
  O  O101  1  0.62654853  0.37345147  0.78817633  1
  O  O102  1  0.59825313  0.59825313  0.75572805  1
  O  O103  1  0.68207337  0.98134377  0.68207337  1
  O  O104  1  0.68207337  0.68207337  0.98134377  1
  O  O105  1  0.81792663  0.18207337  0.48134377  1
  O  O106  1  0.25572805  0.90174687  0.09825313  1
  O  O107  1  0.75572805  0.40174687  0.40174687  1
  O  O108  1  0.74427195  0.90174687  0.90174687  1
  O  O109  1  0.92381228  0.07618772  0.92381228  1
  O  O110  1  0.31792663  0.31792663  0.98134377  1
  O  O111  1  0.31792663  0.01865623  0.68207337  1
