# generated using pymatgen
data_Cs3Cu2Br5
_symmetry_space_group_name_H-M   'P 1'
_cell_length_a   9.68313910
_cell_length_b   11.01567967
_cell_length_c   13.62250681
_cell_angle_alpha   90.00000000
_cell_angle_beta   90.00000000
_cell_angle_gamma   90.00000000
_symmetry_Int_Tables_number   1
_chemical_formula_structural   Cs3Cu2Br5
_chemical_formula_sum   'Cs12 Cu8 Br20'
_cell_volume   1453.06319541
_cell_formula_units_Z   4
loop_
 _symmetry_equiv_pos_site_id
 _symmetry_equiv_pos_as_xyz
  1  'x, y, z'
loop_
 _atom_site_type_symbol
 _atom_site_label
 _atom_site_symmetry_multiplicity
 _atom_site_fract_x
 _atom_site_fract_y
 _atom_site_fract_z
 _atom_site_occupancy
  Cs  Cs0  1  0.40318497  0.75000000  0.45208079  1
  Cs  Cs1  1  0.54679864  0.51193754  0.82250362  1
  Cs  Cs2  1  0.09681503  0.25000000  0.95208079  1
  Cs  Cs3  1  0.04679864  0.51193754  0.67749638  1
  Cs  Cs4  1  0.45320136  0.48806246  0.17749638  1
  Cs  Cs5  1  0.04679864  0.98806246  0.67749638  1
  Cs  Cs6  1  0.54679864  0.98806246  0.82250362  1
  Cs  Cs7  1  0.95320136  0.48806246  0.32250362  1
  Cs  Cs8  1  0.95320136  0.01193754  0.32250362  1
  Cs  Cs9  1  0.90318497  0.75000000  0.04791921  1
  Cs  Cs10  1  0.59681503  0.25000000  0.54791921  1
  Cs  Cs11  1  0.45320136  0.01193754  0.17749638  1
  Cu  Cu12  1  0.74566099  0.75000000  0.63071654  1
  Cu  Cu13  1  0.29278133  0.75000000  0.04719109  1
  Cu  Cu14  1  0.25433901  0.25000000  0.36928346  1
  Cu  Cu15  1  0.75433901  0.25000000  0.13071654  1
  Cu  Cu16  1  0.20721867  0.25000000  0.54719109  1
  Cu  Cu17  1  0.70721867  0.25000000  0.95280891  1
  Cu  Cu18  1  0.79278133  0.75000000  0.45280891  1
  Cu  Cu19  1  0.24566099  0.75000000  0.86928346  1
  Br  Br20  1  0.53404047  0.75000000  0.01213468  1
  Br  Br21  1  0.66770325  0.25000000  0.29146090  1
  Br  Br22  1  0.29678303  0.25000000  0.70985378  1
  Br  Br23  1  0.16770325  0.25000000  0.20853910  1
  Br  Br24  1  0.03404047  0.75000000  0.48786532  1
  Br  Br25  1  0.19201429  0.93710304  0.94844863  1
  Br  Br26  1  0.70321697  0.75000000  0.29014622  1
  Br  Br27  1  0.80798571  0.06289696  0.05155137  1
  Br  Br28  1  0.30798571  0.06289696  0.44844863  1
  Br  Br29  1  0.83229675  0.75000000  0.79146090  1
  Br  Br30  1  0.96595953  0.25000000  0.51213468  1
  Br  Br31  1  0.80798571  0.43710304  0.05155137  1
  Br  Br32  1  0.46595953  0.25000000  0.98786532  1
  Br  Br33  1  0.33229675  0.75000000  0.70853910  1
  Br  Br34  1  0.69201429  0.56289696  0.55155137  1
  Br  Br35  1  0.69201429  0.93710304  0.55155137  1
  Br  Br36  1  0.30798571  0.43710304  0.44844863  1
  Br  Br37  1  0.79678303  0.25000000  0.79014622  1
  Br  Br38  1  0.20321697  0.75000000  0.20985378  1
  Br  Br39  1  0.19201429  0.56289696  0.94844863  1
