# generated using pymatgen
data_K2Mo4O13
_symmetry_space_group_name_H-M   'P 1'
_cell_length_a   8.01158654
_cell_length_b   8.35216511
_cell_length_c   10.05282415
_cell_angle_alpha   107.22025849
_cell_angle_beta   103.23741893
_cell_angle_gamma   109.61117236
_symmetry_Int_Tables_number   1
_chemical_formula_structural   K2Mo4O13
_chemical_formula_sum   'K4 Mo8 O26'
_cell_volume   563.50995770
_cell_formula_units_Z   2
loop_
 _symmetry_equiv_pos_site_id
 _symmetry_equiv_pos_as_xyz
  1  'x, y, z'
loop_
 _atom_site_type_symbol
 _atom_site_label
 _atom_site_symmetry_multiplicity
 _atom_site_fract_x
 _atom_site_fract_y
 _atom_site_fract_z
 _atom_site_occupancy
  K  K0  1  0.74513362  0.78462458  0.43374901  1
  K  K1  1  0.25484160  0.21537088  0.56624709  1
  K  K2  1  0.69014380  0.23919697  0.31048489  1
  K  K3  1  0.30984478  0.76079870  0.68950359  1
  Mo  Mo4  1  0.81141119  0.50376672  0.05001638  1
  Mo  Mo5  1  0.18859058  0.49623151  0.94998408  1
  Mo  Mo6  1  0.82722130  0.90817855  0.06201672  1
  Mo  Mo7  1  0.17277918  0.09182212  0.93798403  1
  Mo  Mo8  1  0.77514089  0.60489475  0.72623848  1
  Mo  Mo9  1  0.22485914  0.39510555  0.27376422  1
  Mo  Mo10  1  0.77275260  0.19992991  0.70628374  1
  Mo  Mo11  1  0.22725068  0.80006998  0.29371523  1
  O  O12  1  0.65312705  0.94160011  0.96000208  1
  O  O13  1  0.34687064  0.05840079  0.04000169  1
  O  O14  1  0.95004715  0.86279697  0.88045464  1
  O  O15  1  0.04994963  0.13720484  0.11954511  1
  O  O16  1  0.89646747  0.61657710  0.60689090  1
  O  O17  1  0.10353731  0.38342787  0.39311380  1
  O  O18  1  0.70969311  0.63445756  0.94430661  1
  O  O19  1  0.29031008  0.36554107  0.05569174  1
  O  O20  1  0.71499212  0.50990453  0.18461485  1
  O  O21  1  0.28501235  0.49010012  0.81538597  1
  O  O22  1  0.86810450  0.18683368  0.56834876  1
  O  O23  1  0.13189470  0.81316716  0.43165143  1
  O  O24  1  0.63875379  0.34484711  0.66138553  1
  O  O25  1  0.36124504  0.65515266  0.33861774  1
  O  O26  1  0.02439684  0.78606876  0.14565614  1
  O  O27  1  0.97560913  0.21393322  0.85434284  1
  O  O28  1  0.67859986  0.28210183  0.90809418  1
  O  O29  1  0.32140850  0.71789800  0.09190841  1
  O  O30  1  0.59646845  0.98202412  0.64270890  1
  O  O31  1  0.40353830  0.01797791  0.35729470  1
  O  O32  1  0.58653222  0.64342751  0.65353335  1
  O  O33  1  0.41346644  0.35656931  0.34646338  1
  O  O34  1  0.96345911  0.51506949  0.86420201  1
  O  O35  1  0.03654305  0.48493107  0.13579888  1
  O  O36  1  0.79430280  0.94317146  0.22877798  1
  O  O37  1  0.20570202  0.05682751  0.77122292  1
