# generated using pymatgen
data_Rb3Nb2S11
_symmetry_space_group_name_H-M   'P 1'
_cell_length_a   8.07785457
_cell_length_b   11.92472086
_cell_length_c   19.47050173
_cell_angle_alpha   75.85693289
_cell_angle_beta   90.00000000
_cell_angle_gamma   90.00000000
_symmetry_Int_Tables_number   1
_chemical_formula_structural   Rb3Nb2S11
_chemical_formula_sum   'Rb12 Nb8 S44'
_cell_volume   1818.66913279
_cell_formula_units_Z   4
loop_
 _symmetry_equiv_pos_site_id
 _symmetry_equiv_pos_as_xyz
  1  'x, y, z'
loop_
 _atom_site_type_symbol
 _atom_site_label
 _atom_site_symmetry_multiplicity
 _atom_site_fract_x
 _atom_site_fract_y
 _atom_site_fract_z
 _atom_site_occupancy
  Rb  Rb0  1  0.83159512  0.99882916  0.65862257  1
  Rb  Rb1  1  0.33159512  0.00117084  0.84137743  1
  Rb  Rb2  1  0.16840488  0.00117084  0.34137743  1
  Rb  Rb3  1  0.66840488  0.99882916  0.15862257  1
  Rb  Rb4  1  0.31327374  0.76777063  0.61253501  1
  Rb  Rb5  1  0.81327374  0.23222937  0.88746499  1
  Rb  Rb6  1  0.68672626  0.23222937  0.38746499  1
  Rb  Rb7  1  0.18672626  0.76777063  0.11253501  1
  Rb  Rb8  1  0.84454436  0.45761910  0.64256155  1
  Rb  Rb9  1  0.34454436  0.54238090  0.85743845  1
  Rb  Rb10  1  0.15545564  0.54238090  0.35743845  1
  Rb  Rb11  1  0.65545564  0.45761910  0.14256155  1
  Nb  Nb12  1  0.63977821  0.71128871  0.33516390  1
  Nb  Nb13  1  0.13977821  0.28871129  0.16483610  1
  Nb  Nb14  1  0.36022179  0.28871129  0.66483610  1
  Nb  Nb15  1  0.86022179  0.71128871  0.83516390  1
  Nb  Nb16  1  0.77069064  0.80262621  0.49338870  1
  Nb  Nb17  1  0.27069064  0.19737379  0.00661130  1
  Nb  Nb18  1  0.22930936  0.19737379  0.50661130  1
  Nb  Nb19  1  0.72930936  0.80262621  0.99338870  1
  S  S20  1  0.42685952  0.76847511  0.26185426  1
  S  S21  1  0.92685952  0.23152489  0.23814574  1
  S  S22  1  0.57314048  0.23152489  0.73814574  1
  S  S23  1  0.07314048  0.76847511  0.76185426  1
  S  S24  1  0.72350852  0.52257331  0.31412634  1
  S  S25  1  0.22350852  0.47742669  0.18587366  1
  S  S26  1  0.27649148  0.47742669  0.68587366  1
  S  S27  1  0.77649148  0.52257331  0.81412634  1
  S  S28  1  0.57198412  0.51295470  0.40126682  1
  S  S29  1  0.07198412  0.48704530  0.09873318  1
  S  S30  1  0.42801588  0.48704530  0.59873318  1
  S  S31  1  0.92801588  0.51295470  0.90126682  1
  S  S32  1  0.89467500  0.79922054  0.27690872  1
  S  S33  1  0.39467500  0.20077946  0.22309128  1
  S  S34  1  0.10532500  0.20077946  0.72309128  1
  S  S35  1  0.60532500  0.79922054  0.77690872  1
  S  S36  1  0.77429502  0.89548611  0.33720696  1
  S  S37  1  0.27429502  0.10451389  0.16279304  1
  S  S38  1  0.22570498  0.10451389  0.66279304  1
  S  S39  1  0.72570498  0.89548611  0.83720696  1
  S  S40  1  0.50039582  0.74580697  0.44750695  1
  S  S41  1  0.00039582  0.25419303  0.05249305  1
  S  S42  1  0.49960418  0.25419303  0.55249305  1
  S  S43  1  -0.00039582  0.74580697  0.94750695  1
  S  S44  1  0.51499159  0.91717138  0.45151631  1
  S  S45  1  0.01499159  0.08282862  0.04848369  1
  S  S46  1  0.48500841  0.08282862  0.54848369  1
  S  S47  1  0.98500841  0.91717138  0.95151631  1
  S  S48  1  0.87262815  0.63026797  0.45883946  1
  S  S49  1  0.37262815  0.36973203  0.04116054  1
  S  S50  1  0.12737185  0.36973203  0.54116054  1
  S  S51  1  0.62737185  0.63026797  0.95883946  1
  S  S52  1  0.05454934  0.74799428  0.46928232  1
  S  S53  1  0.55454934  0.25200572  0.03071768  1
  S  S54  1  0.94545066  0.25200572  0.53071768  1
  S  S55  1  0.44545066  0.74799428  0.96928232  1
  S  S56  1  0.73477134  0.74052039  0.60991119  1
  S  S57  1  0.23477134  0.25947961  0.89008881  1
  S  S58  1  0.26522866  0.25947961  0.39008881  1
  S  S59  1  0.76522866  0.74052039  0.10991119  1
  S  S60  1  0.87623349  0.00311089  0.48531728  1
  S  S61  1  0.37623349  0.99688911  0.01468272  1
  S  S62  1  0.12376651  0.99688911  0.51468272  1
  S  S63  1  0.62376651  0.00311089  0.98531728  1
