# generated using pymatgen
data_SrDy2O4
_symmetry_space_group_name_H-M   'P 1'
_cell_length_a   3.40993292
_cell_length_b   10.05860192
_cell_length_c   11.90448888
_cell_angle_alpha   90.00000000
_cell_angle_beta   90.00000000
_cell_angle_gamma   90.00000000
_symmetry_Int_Tables_number   1
_chemical_formula_structural   SrDy2O4
_chemical_formula_sum   'Sr4 Dy8 O16'
_cell_volume   408.31394282
_cell_formula_units_Z   4
loop_
 _symmetry_equiv_pos_site_id
 _symmetry_equiv_pos_as_xyz
  1  'x, y, z'
loop_
 _atom_site_type_symbol
 _atom_site_label
 _atom_site_symmetry_multiplicity
 _atom_site_fract_x
 _atom_site_fract_y
 _atom_site_fract_z
 _atom_site_occupancy
  Sr  Sr0  1  0.75000000  0.75223335  0.64943875  1
  Sr  Sr1  1  0.25000000  0.74776665  0.14943875  1
  Sr  Sr2  1  0.75000000  0.25223335  0.85056125  1
  Sr  Sr3  1  0.25000000  0.24776665  0.35056125  1
  Dy  Dy4  1  0.25000000  0.07639056  0.61107976  1
  Dy  Dy5  1  0.75000000  0.92183777  0.88828358  1
  Dy  Dy6  1  0.25000000  0.07816223  0.11171642  1
  Dy  Dy7  1  0.75000000  0.92360944  0.38892024  1
  Dy  Dy8  1  0.25000000  0.57639056  0.88892024  1
  Dy  Dy9  1  0.25000000  0.57816223  0.38828358  1
  Dy  Dy10  1  0.75000000  0.42183777  0.61171642  1
  Dy  Dy11  1  0.75000000  0.42360944  0.11107976  1
  O  O12  1  0.25000000  0.87378986  0.51947263  1
  O  O13  1  0.25000000  0.48612390  0.21638136  1
  O  O14  1  0.25000000  0.07393102  0.92226068  1
  O  O15  1  0.75000000  0.42606898  0.42226068  1
  O  O16  1  0.75000000  0.71196963  0.32487171  1
  O  O17  1  0.75000000  0.62621014  0.01947263  1
  O  O18  1  0.25000000  0.78803037  0.82487171  1
  O  O19  1  0.25000000  0.98612390  0.28361864  1
  O  O20  1  0.25000000  0.57393102  0.57773932  1
  O  O21  1  0.75000000  0.21196963  0.17512829  1
  O  O22  1  0.75000000  0.51387610  0.78361864  1
  O  O23  1  0.75000000  0.92606898  0.07773932  1
  O  O24  1  0.75000000  0.12621014  0.48052737  1
  O  O25  1  0.75000000  0.01387610  0.71638136  1
  O  O26  1  0.25000000  0.37378986  0.98052737  1
  O  O27  1  0.25000000  0.28803037  0.67512829  1
