# generated using pymatgen
data_InGa2Cl7
_symmetry_space_group_name_H-M   'P 1'
_cell_length_a   9.02605707
_cell_length_b   10.67307659
_cell_length_c   12.04124662
_cell_angle_alpha   90.00000000
_cell_angle_beta   90.00000000
_cell_angle_gamma   90.00000000
_symmetry_Int_Tables_number   1
_chemical_formula_structural   InGa2Cl7
_chemical_formula_sum   'In4 Ga8 Cl28'
_cell_volume   1160.00310704
_cell_formula_units_Z   4
loop_
 _symmetry_equiv_pos_site_id
 _symmetry_equiv_pos_as_xyz
  1  'x, y, z'
loop_
 _atom_site_type_symbol
 _atom_site_label
 _atom_site_symmetry_multiplicity
 _atom_site_fract_x
 _atom_site_fract_y
 _atom_site_fract_z
 _atom_site_occupancy
  In  In0  1  0.63401854  0.37538144  0.89147387  1
  In  In1  1  0.13401854  0.87538144  0.60852613  1
  In  In2  1  0.86598146  0.37538144  0.39147387  1
  In  In3  1  0.36598146  0.87538144  0.10852613  1
  Ga  Ga4  1  0.61889161  0.74201303  0.61627857  1
  Ga  Ga5  1  0.93412621  0.00103297  0.32304109  1
  Ga  Ga6  1  0.38110839  0.24201303  0.38372143  1
  Ga  Ga7  1  0.43412621  0.50103297  0.17695891  1
  Ga  Ga8  1  0.88110839  0.74201303  0.11627857  1
  Ga  Ga9  1  0.56587379  0.00103297  0.82304109  1
  Ga  Ga10  1  0.06587379  0.50103297  0.67695891  1
  Ga  Ga11  1  0.11889161  0.24201303  0.88372143  1
  Cl  Cl12  1  0.23838260  0.36803197  0.75465523  1
  Cl  Cl13  1  0.80248358  0.68687841  0.51214970  1
  Cl  Cl14  1  0.86872148  0.38528029  0.66042429  1
  Cl  Cl15  1  0.54281266  0.15605910  0.70994986  1
  Cl  Cl16  1  0.98357373  0.59367313  0.20929169  1
  Cl  Cl17  1  0.46384731  0.86402698  0.53146629  1
  Cl  Cl18  1  0.19751642  0.18687841  0.48785030  1
  Cl  Cl19  1  0.69751642  0.68687841  0.01214970  1
  Cl  Cl20  1  0.13127852  0.88528029  0.33957571  1
  Cl  Cl21  1  0.48357373  0.09367313  0.29070831  1
  Cl  Cl22  1  0.51642627  0.59367313  0.70929169  1
  Cl  Cl23  1  0.73838260  0.86803197  0.74534477  1
  Cl  Cl24  1  0.45718734  0.65605910  0.29005014  1
  Cl  Cl25  1  0.04281266  0.65605910  0.79005014  1
  Cl  Cl26  1  0.66202937  0.05493068  0.98009511  1
  Cl  Cl27  1  0.16202937  0.55493068  0.51990489  1
  Cl  Cl28  1  0.36872148  0.88528029  0.83957571  1
  Cl  Cl29  1  0.30248358  0.18687841  0.98785030  1
  Cl  Cl30  1  0.53615269  0.36402698  0.46853371  1
  Cl  Cl31  1  0.63127852  0.38528029  0.16042429  1
  Cl  Cl32  1  0.96384731  0.36402698  0.96853371  1
  Cl  Cl33  1  0.26161740  0.36803197  0.25465523  1
  Cl  Cl34  1  0.03615269  0.86402698  0.03146629  1
  Cl  Cl35  1  0.76161740  0.86803197  0.24534477  1
  Cl  Cl36  1  0.33797063  0.55493068  0.01990489  1
  Cl  Cl37  1  0.95718734  0.15605910  0.20994986  1
  Cl  Cl38  1  0.83797063  0.05493068  0.48009511  1
  Cl  Cl39  1  0.01642627  0.09367313  0.79070831  1
