# generated using pymatgen
data_Hg2SeO3
_symmetry_space_group_name_H-M   'P 1'
_cell_length_a   8.91843911
_cell_length_b   8.91848029
_cell_length_c   8.91849510
_cell_angle_alpha   127.74658752
_cell_angle_beta   107.21925484
_cell_angle_gamma   95.26734927
_symmetry_Int_Tables_number   1
_chemical_formula_structural   Hg2SeO3
_chemical_formula_sum   'Hg8 Se4 O12'
_cell_volume   499.54456885
_cell_formula_units_Z   4
loop_
 _symmetry_equiv_pos_site_id
 _symmetry_equiv_pos_as_xyz
  1  'x, y, z'
loop_
 _atom_site_type_symbol
 _atom_site_label
 _atom_site_symmetry_multiplicity
 _atom_site_fract_x
 _atom_site_fract_y
 _atom_site_fract_z
 _atom_site_occupancy
  Hg  Hg0  1  0.43818660  0.85046881  0.07517105  1
  Hg  Hg1  1  0.22470435  0.13698517  0.57517083  1
  Hg  Hg2  1  0.43818638  0.36301558  0.58771821  1
  Hg  Hg3  1  0.56181335  0.63698485  0.41228167  1
  Hg  Hg4  1  0.77529286  0.35046357  0.91227861  1
  Hg  Hg5  1  0.56181263  0.14953052  0.92482793  1
  Hg  Hg6  1  0.77529465  0.86301474  0.42482962  1
  Hg  Hg7  1  0.22470672  0.64953591  0.08772149  1
  Se  Se8  1  0.83587520  0.30065207  0.53522479  1
  Se  Se9  1  0.76543218  0.80064856  0.96478337  1
  Se  Se10  1  0.16412605  0.69934834  0.46477538  1
  Se  Se11  1  0.23456668  0.19935084  0.03521556  1
  O  O12  1  0.35306452  0.38630408  0.30680399  1
  O  O13  1  0.63834504  0.17530356  0.46304154  1
  O  O14  1  0.07949714  0.88630487  0.53323582  1
  O  O15  1  0.71226072  0.67529998  0.03695979  1
  O  O16  1  0.36165582  0.82469648  0.53695871  1
  O  O17  1  0.64693353  0.61369586  0.69319493  1
  O  O18  1  0.64693417  0.95373954  0.03323902  1
  O  O19  1  0.92050355  0.45374020  0.80681105  1
  O  O20  1  0.07949656  0.54626070  0.19319023  1
  O  O21  1  0.28773884  0.32469949  0.96303924  1
  O  O22  1  0.35306586  0.04626053  0.96676139  1
  O  O23  1  0.92050460  0.11369474  0.46676577  1
