# generated using pymatgen
data_K3WF6
_symmetry_space_group_name_H-M   'P 1'
_cell_length_a   6.38510283
_cell_length_b   6.38510425
_cell_length_c   6.38510549
_cell_angle_alpha   59.99994802
_cell_angle_beta   59.99996901
_cell_angle_gamma   59.99998421
_symmetry_Int_Tables_number   1
_chemical_formula_structural   K3WF6
_chemical_formula_sum   'K3 W1 F6'
_cell_volume   184.07238655
_cell_formula_units_Z   1
loop_
 _symmetry_equiv_pos_site_id
 _symmetry_equiv_pos_as_xyz
  1  'x, y, z'
loop_
 _atom_site_type_symbol
 _atom_site_label
 _atom_site_symmetry_multiplicity
 _atom_site_fract_x
 _atom_site_fract_y
 _atom_site_fract_z
 _atom_site_occupancy
  K  K0  1  0.74999999  0.74999995  0.74999993  1
  K  K1  1  0.25000004  0.25000002  0.25000002  1
  K  K2  1  0.50000001  0.49999998  0.49999999  1
  W  W3  1  -0.00000093  0.00000089  0.00000097  1
  F  F4  1  0.22814209  0.77185777  0.22814127  1
  F  F5  1  0.77185739  0.77185744  0.22814276  1
  F  F6  1  0.22814255  0.22814262  0.77185728  1
  F  F7  1  0.22814200  0.77185816  0.77185815  1
  F  F8  1  0.77185870  0.22814145  0.77185792  1
  F  F9  1  0.77185813  0.22814172  0.22814171  1
