# generated using pymatgen
data_MgSiO3
_symmetry_space_group_name_H-M   'P 1'
_cell_length_a   5.31230984
_cell_length_b   8.71185874
_cell_length_c   9.26667111
_cell_angle_alpha   90.00000000
_cell_angle_beta   90.00000000
_cell_angle_gamma   90.00000000
_symmetry_Int_Tables_number   1
_chemical_formula_structural   MgSiO3
_chemical_formula_sum   'Mg8 Si8 O24'
_cell_volume   428.86239993
_cell_formula_units_Z   8
loop_
 _symmetry_equiv_pos_site_id
 _symmetry_equiv_pos_as_xyz
  1  'x, y, z'
loop_
 _atom_site_type_symbol
 _atom_site_label
 _atom_site_symmetry_multiplicity
 _atom_site_fract_x
 _atom_site_fract_y
 _atom_site_fract_z
 _atom_site_occupancy
  Mg  Mg0  1  0.25000000  0.90424725  0.00000000  1
  Mg  Mg1  1  0.75000000  0.59575275  0.50000000  1
  Mg  Mg2  1  0.75000000  0.09575275  0.00000000  1
  Mg  Mg3  1  0.25000000  0.40424725  0.50000000  1
  Mg  Mg4  1  0.75000000  0.73740468  0.00000000  1
  Mg  Mg5  1  0.25000000  0.76259532  0.50000000  1
  Mg  Mg6  1  0.25000000  0.26259532  0.00000000  1
  Mg  Mg7  1  0.75000000  0.23740468  0.50000000  1
  Si  Si8  1  0.93487242  0.90871458  0.29214214  1
  Si  Si9  1  0.43487242  0.59128542  0.20785786  1
  Si  Si10  1  0.56512758  0.90871458  0.70785786  1
  Si  Si11  1  0.06512758  0.59128542  0.79214214  1
  Si  Si12  1  0.06512758  0.09128542  0.70785786  1
  Si  Si13  1  0.56512758  0.40871458  0.79214214  1
  Si  Si14  1  0.43487242  0.09128542  0.29214214  1
  Si  Si15  1  0.93487242  0.40871458  0.20785786  1
  O  O16  1  0.71225959  0.52586881  0.15058939  1
  O  O17  1  0.21225959  0.97413119  0.34941061  1
  O  O18  1  0.78774041  0.52586881  0.84941061  1
  O  O19  1  0.28774041  0.97413119  0.65058939  1
  O  O20  1  0.28774041  0.47413119  0.84941061  1
  O  O21  1  0.78774041  0.02586881  0.65058939  1
  O  O22  1  0.21225959  0.47413119  0.15058939  1
  O  O23  1  0.71225959  0.02586881  0.34941061  1
  O  O24  1  0.92997829  0.24975521  0.12314628  1
  O  O25  1  0.42997829  0.25024479  0.37685372  1
  O  O26  1  0.57002171  0.24975521  0.87685372  1
  O  O27  1  0.07002171  0.25024479  0.62314628  1
  O  O28  1  0.07002171  0.75024479  0.87685372  1
  O  O29  1  0.57002171  0.74975521  0.62314628  1
  O  O30  1  0.42997829  0.75024479  0.12314628  1
  O  O31  1  0.92997829  0.74975521  0.37685372  1
  O  O32  1  0.92179601  0.90622851  0.11804184  1
  O  O33  1  0.42179601  0.59377149  0.38195816  1
  O  O34  1  0.57820399  0.90622851  0.88195816  1
  O  O35  1  0.07820399  0.59377149  0.61804184  1
  O  O36  1  0.07820399  0.09377149  0.88195816  1
  O  O37  1  0.57820399  0.40622851  0.61804184  1
  O  O38  1  0.42179601  0.09377149  0.11804184  1
  O  O39  1  0.92179601  0.40622851  0.38195816  1
