# generated using pymatgen
data_Os2O3F7
_symmetry_space_group_name_H-M   'P 1'
_cell_length_a   9.94598971
_cell_length_b   5.46428164
_cell_length_c   12.19023120
_cell_angle_alpha   80.71691159
_cell_angle_beta   90.00000000
_cell_angle_gamma   90.00000000
_symmetry_Int_Tables_number   1
_chemical_formula_structural   Os2O3F7
_chemical_formula_sum   'Os8 O12 F28'
_cell_volume   653.83423533
_cell_formula_units_Z   4
loop_
 _symmetry_equiv_pos_site_id
 _symmetry_equiv_pos_as_xyz
  1  'x, y, z'
loop_
 _atom_site_type_symbol
 _atom_site_label
 _atom_site_symmetry_multiplicity
 _atom_site_fract_x
 _atom_site_fract_y
 _atom_site_fract_z
 _atom_site_occupancy
  Os  Os0  1  0.25265076  0.00985098  0.99902675  1
  Os  Os1  1  0.75265076  0.99014902  0.50097325  1
  Os  Os2  1  0.74734924  0.99014902  0.00097325  1
  Os  Os3  1  0.51165362  0.35125909  0.28002759  1
  Os  Os4  1  0.24734924  0.00985098  0.49902675  1
  Os  Os5  1  0.98834638  0.35125909  0.78002759  1
  Os  Os6  1  0.01165362  0.64874091  0.21997241  1
  Os  Os7  1  0.48834638  0.64874091  0.71997241  1
  O  O8  1  0.56451712  0.46146715  0.64056981  1
  O  O9  1  0.07434514  0.40760172  0.65888809  1
  O  O10  1  0.66239336  0.48908347  0.24966274  1
  O  O11  1  0.93548288  0.46146715  0.14056981  1
  O  O12  1  0.06451712  0.53853285  0.85943019  1
  O  O13  1  0.33760664  0.51091653  0.75033726  1
  O  O14  1  0.92565486  0.59239828  0.34111191  1
  O  O15  1  0.43548288  0.53853285  0.35943019  1
  O  O16  1  0.57434514  0.59239828  0.84111191  1
  O  O17  1  0.83760664  0.48908347  0.74966274  1
  O  O18  1  0.16239336  0.51091653  0.25033726  1
  O  O19  1  0.42565486  0.40760172  0.15888809  1
  F  F20  1  0.40072096  0.19874998  0.94383193  1
  F  F21  1  0.83370973  0.08968823  0.36287776  1
  F  F22  1  0.17477609  0.28361422  0.05038814  1
  F  F23  1  0.84163511  0.89850738  0.14410149  1
  F  F24  1  0.93898515  0.02271004  0.77169992  1
  F  F25  1  0.59927904  0.80125002  0.05616807  1
  F  F26  1  0.33370973  0.91031177  0.13712224  1
  F  F27  1  0.32292537  0.73361545  0.94412302  1
  F  F28  1  0.15836489  0.10149262  0.85589851  1
  F  F29  1  0.67477609  0.71638578  0.44961186  1
  F  F30  1  0.82522391  0.71638578  0.94961186  1
  F  F31  1  0.17707463  0.73361545  0.44412302  1
  F  F32  1  0.67707463  0.26638455  0.05587698  1
  F  F33  1  0.65836489  0.89850738  0.64410149  1
  F  F34  1  0.90594576  0.19319991  0.94740637  1
  F  F35  1  0.59405424  0.19319991  0.44740637  1
  F  F36  1  0.90072096  0.80125002  0.55616807  1
  F  F37  1  0.32522391  0.28361422  0.55038814  1
  F  F38  1  0.16629027  0.91031177  0.63712224  1
  F  F39  1  0.40594576  0.80680009  0.55259363  1
  F  F40  1  0.34163511  0.10149262  0.35589851  1
  F  F41  1  0.82292537  0.26638455  0.55587698  1
  F  F42  1  0.66629027  0.08968823  0.86287776  1
  F  F43  1  0.43898515  0.97728996  0.72830008  1
  F  F44  1  0.06101485  0.97728996  0.22830008  1
  F  F45  1  0.09405424  0.80680009  0.05259363  1
  F  F46  1  0.09927904  0.19874998  0.44383193  1
  F  F47  1  0.56101485  0.02271004  0.27169992  1
