# generated using pymatgen
data_As4S5
_symmetry_space_group_name_H-M   'P 1'
_cell_length_a   7.41513522
_cell_length_b   8.12706591
_cell_length_c   8.31325198
_cell_angle_alpha   90.00000000
_cell_angle_beta   90.00000000
_cell_angle_gamma   101.55306123
_symmetry_Int_Tables_number   1
_chemical_formula_structural   As4S5
_chemical_formula_sum   'As8 S10'
_cell_volume   490.83382751
_cell_formula_units_Z   2
loop_
 _symmetry_equiv_pos_site_id
 _symmetry_equiv_pos_as_xyz
  1  'x, y, z'
loop_
 _atom_site_type_symbol
 _atom_site_label
 _atom_site_symmetry_multiplicity
 _atom_site_fract_x
 _atom_site_fract_y
 _atom_site_fract_z
 _atom_site_occupancy
  As  As0  1  0.74203778  0.38965538  0.01618074  1
  As  As1  1  0.25796222  0.61034462  0.51618074  1
  As  As2  1  0.25796222  0.61034462  0.98381926  1
  As  As3  1  0.74203778  0.38965538  0.48381926  1
  As  As4  1  0.53605268  0.95240303  0.75000000  1
  As  As5  1  0.46394732  0.04759697  0.25000000  1
  As  As6  1  0.19878026  0.97627559  0.75000000  1
  As  As7  1  0.80121974  0.02372441  0.25000000  1
  S  S8  1  0.21394895  0.46350095  0.75000000  1
  S  S9  1  0.78605105  0.53649905  0.25000000  1
  S  S10  1  0.45996693  0.22460385  0.04084329  1
  S  S11  1  0.54003307  0.77539615  0.54084329  1
  S  S12  1  0.54003307  0.77539615  0.95915671  1
  S  S13  1  0.45996693  0.22460385  0.45915671  1
  S  S14  1  0.90549659  0.18562631  0.03777460  1
  S  S15  1  0.09450341  0.81437369  0.53777460  1
  S  S16  1  0.90549659  0.18562631  0.46222540  1
  S  S17  1  0.09450341  0.81437369  0.96222540  1
