# generated using pymatgen
data_PBr2N
_symmetry_space_group_name_H-M   'P 1'
_cell_length_a   11.51215495
_cell_length_b   11.51215495
_cell_length_c   6.42679356
_cell_angle_alpha   90.00000000
_cell_angle_beta   90.00000000
_cell_angle_gamma   90.00000000
_symmetry_Int_Tables_number   1
_chemical_formula_structural   PBr2N
_chemical_formula_sum   'P8 Br16 N8'
_cell_volume   851.74109697
_cell_formula_units_Z   8
loop_
 _symmetry_equiv_pos_site_id
 _symmetry_equiv_pos_as_xyz
  1  'x, y, z'
loop_
 _atom_site_type_symbol
 _atom_site_label
 _atom_site_symmetry_multiplicity
 _atom_site_fract_x
 _atom_site_fract_y
 _atom_site_fract_z
 _atom_site_occupancy
  P  P0  1  0.04385983  0.83434722  0.94677768  1
  P  P1  1  0.33434722  0.45614017  0.44677768  1
  P  P2  1  0.83434722  0.95614017  0.05322232  1
  P  P3  1  0.45614017  0.66565278  0.55322232  1
  P  P4  1  0.54385983  0.33434722  0.55322232  1
  P  P5  1  0.16565278  0.04385983  0.05322232  1
  P  P6  1  0.66565278  0.54385983  0.44677768  1
  P  P7  1  0.95614017  0.16565278  0.94677768  1
  Br  Br8  1  0.10548669  0.80586543  0.62960110  1
  Br  Br9  1  0.66242623  0.94474630  0.90905931  1
  Br  Br10  1  0.39451331  0.69413457  0.87039890  1
  Br  Br11  1  0.16242623  0.44474630  0.59094069  1
  Br  Br12  1  0.30586543  0.39451331  0.12960110  1
  Br  Br13  1  0.60548669  0.30586543  0.87039890  1
  Br  Br14  1  0.80586543  0.89451331  0.37039890  1
  Br  Br15  1  0.83757377  0.55525370  0.59094069  1
  Br  Br16  1  0.94474630  0.33757377  0.09094069  1
  Br  Br17  1  0.44474630  0.83757377  0.40905931  1
  Br  Br18  1  0.55525370  0.16242623  0.40905931  1
  Br  Br19  1  0.05525370  0.66242623  0.09094069  1
  Br  Br20  1  0.19413457  0.10548669  0.37039890  1
  Br  Br21  1  0.33757377  0.05525370  0.90905931  1
  Br  Br22  1  0.89451331  0.19413457  0.62960110  1
  Br  Br23  1  0.69413457  0.60548669  0.12960110  1
  N  N24  1  0.41262040  0.37040366  0.57628688  1
  N  N25  1  0.37040366  0.58737960  0.42371312  1
  N  N26  1  0.87040366  0.08737960  0.07628688  1
  N  N27  1  0.58737960  0.62959634  0.57628688  1
  N  N28  1  0.91262040  0.87040366  0.92371312  1
  N  N29  1  0.12959634  0.91262040  0.07628688  1
  N  N30  1  0.08737960  0.12959634  0.92371312  1
  N  N31  1  0.62959634  0.41262040  0.42371312  1
