# generated using pymatgen
data_Cs4Ti3S14
_symmetry_space_group_name_H-M   'P 1'
_cell_length_a   11.60701398
_cell_length_b   11.60701398
_cell_length_c   14.00862175
_cell_angle_alpha   67.52997696
_cell_angle_beta   67.52997696
_cell_angle_gamma   43.16106926
_symmetry_Int_Tables_number   1
_chemical_formula_structural   Cs4Ti3S14
_chemical_formula_sum   'Cs8 Ti6 S28'
_cell_volume   1176.91213395
_cell_formula_units_Z   2
loop_
 _symmetry_equiv_pos_site_id
 _symmetry_equiv_pos_as_xyz
  1  'x, y, z'
loop_
 _atom_site_type_symbol
 _atom_site_label
 _atom_site_symmetry_multiplicity
 _atom_site_fract_x
 _atom_site_fract_y
 _atom_site_fract_z
 _atom_site_occupancy
  Cs  Cs0  1  0.02389043  0.38468073  0.88691398  1
  Cs  Cs1  1  0.61531927  0.97610957  0.61308602  1
  Cs  Cs2  1  0.97610957  0.61531927  0.11308602  1
  Cs  Cs3  1  0.38468073  0.02389043  0.38691398  1
  Cs  Cs4  1  0.20033464  0.67411453  0.64769802  1
  Cs  Cs5  1  0.32588547  0.79966536  0.85230198  1
  Cs  Cs6  1  0.79966536  0.32588547  0.35230198  1
  Cs  Cs7  1  0.67411453  0.20033464  0.14769802  1
  Ti  Ti8  1  0.92235135  0.41235208  0.58304714  1
  Ti  Ti9  1  0.58764792  0.07764865  0.91695286  1
  Ti  Ti10  1  0.07764865  0.58764792  0.41695286  1
  Ti  Ti11  1  0.41235208  0.92235135  0.08304714  1
  Ti  Ti12  1  0.76411103  0.23588897  0.75000000  1
  Ti  Ti13  1  0.23588897  0.76411103  0.25000000  1
  S  S14  1  0.88381005  0.19688542  0.88310174  1
  S  S15  1  0.80311458  0.11618995  0.61689826  1
  S  S16  1  0.11618995  0.80311458  0.11689826  1
  S  S17  1  0.19688542  0.88381005  0.38310174  1
  S  S18  1  0.66585702  0.47269531  0.58621318  1
  S  S19  1  0.52730469  0.33414298  0.91378682  1
  S  S20  1  0.33414298  0.52730469  0.41378682  1
  S  S21  1  0.47269531  0.66585702  0.08621318  1
  S  S22  1  0.05845662  0.11190502  0.63108283  1
  S  S23  1  0.88809498  0.94154338  0.86891717  1
  S  S24  1  0.94154338  0.88809498  0.36891717  1
  S  S25  1  0.11190502  0.05845662  0.13108283  1
  S  S26  1  0.76571588  0.42597285  0.78259949  1
  S  S27  1  0.57402715  0.23428412  0.71740051  1
  S  S28  1  0.23428412  0.57402715  0.21740051  1
  S  S29  1  0.42597285  0.76571588  0.28259949  1
  S  S30  1  0.99448502  0.56269333  0.59463881  1
  S  S31  1  0.43730667  0.00551498  0.90536119  1
  S  S32  1  0.00551498  0.43730667  0.40536119  1
  S  S33  1  0.56269333  0.99448502  0.09463881  1
  S  S34  1  0.83519030  0.82136302  0.84375300  1
  S  S35  1  0.17863698  0.16480970  0.65624700  1
  S  S36  1  0.16480970  0.17863698  0.15624700  1
  S  S37  1  0.82136302  0.83519030  0.34375300  1
  S  S38  1  0.32305030  0.38399584  0.90010985  1
  S  S39  1  0.61600416  0.67694970  0.59989015  1
  S  S40  1  0.67694970  0.61600416  0.09989015  1
  S  S41  1  0.38399584  0.32305030  0.40010985  1
