# generated using pymatgen
data_La3CBr5
_symmetry_space_group_name_H-M   'P 1'
_cell_length_a   9.01117710
_cell_length_b   9.01117710
_cell_length_c   14.63913755
_cell_angle_alpha   76.75390753
_cell_angle_beta   76.75390753
_cell_angle_gamma   74.90066540
_symmetry_Int_Tables_number   1
_chemical_formula_structural   La3CBr5
_chemical_formula_sum   'La12 C4 Br20'
_cell_volume   1098.83482548
_cell_formula_units_Z   4
loop_
 _symmetry_equiv_pos_site_id
 _symmetry_equiv_pos_as_xyz
  1  'x, y, z'
loop_
 _atom_site_type_symbol
 _atom_site_label
 _atom_site_symmetry_multiplicity
 _atom_site_fract_x
 _atom_site_fract_y
 _atom_site_fract_z
 _atom_site_occupancy
  La  La0  1  0.61947239  0.66085024  0.59432123  1
  La  La1  1  0.98969003  0.71241180  0.67453052  1
  La  La2  1  0.32000943  0.98511157  0.08723368  1
  La  La3  1  0.01030997  0.28758820  0.32546948  1
  La  La4  1  0.67999057  0.01488843  0.91276632  1
  La  La5  1  0.01488843  0.67999057  0.41276632  1
  La  La6  1  0.98511157  0.32000943  0.58723368  1
  La  La7  1  0.71241180  0.98969003  0.17453052  1
  La  La8  1  0.38052761  0.33914976  0.40567877  1
  La  La9  1  0.66085024  0.61947239  0.09432123  1
  La  La10  1  0.33914976  0.38052761  0.90567877  1
  La  La11  1  0.28758820  0.01030997  0.82546948  1
  C  C12  1  0.11187905  0.39515869  0.42058607  1
  C  C13  1  0.88812095  0.60484131  0.57941393  1
  C  C14  1  0.39515869  0.11187905  0.92058607  1
  C  C15  1  0.60484131  0.88812095  0.07941393  1
  Br  Br16  1  0.97735420  0.02264580  0.75000000  1
  Br  Br17  1  0.88250490  0.63694657  0.22766767  1
  Br  Br18  1  0.63694657  0.88250490  0.72766767  1
  Br  Br19  1  0.35824770  0.64175230  0.25000000  1
  Br  Br20  1  0.66320171  0.87887276  0.40710558  1
  Br  Br21  1  0.38166673  0.69995046  0.98106485  1
  Br  Br22  1  0.69659867  0.30340133  0.25000000  1
  Br  Br23  1  0.30004954  0.61833327  0.51893515  1
  Br  Br24  1  0.64175230  0.35824770  0.75000000  1
  Br  Br25  1  0.12112724  0.33679829  0.09289442  1
  Br  Br26  1  0.30340133  0.69659867  0.75000000  1
  Br  Br27  1  0.87887276  0.66320171  0.90710558  1
  Br  Br28  1  0.36305343  0.11749510  0.27233233  1
  Br  Br29  1  -0.00000000  0.00000000  0.00000000  1
  Br  Br30  1  0.02264580  0.97735420  0.25000000  1
  Br  Br31  1  0.61833327  0.30004954  0.01893515  1
  Br  Br32  1  0.33679829  0.12112724  0.59289442  1
  Br  Br33  1  0.69995046  0.38166673  0.48106485  1
  Br  Br34  1  0.11749510  0.36305343  0.77233233  1
  Br  Br35  1  -0.00000000  0.00000000  0.50000000  1
