# generated using pymatgen
data_CsSbCl6
_symmetry_space_group_name_H-M   'P 1'
_cell_length_a   6.54971428
_cell_length_b   6.99861553
_cell_length_c   12.49613518
_cell_angle_alpha   101.10227184
_cell_angle_beta   90.00000000
_cell_angle_gamma   117.89995605
_symmetry_Int_Tables_number   1
_chemical_formula_structural   CsSbCl6
_chemical_formula_sum   'Cs2 Sb2 Cl12'
_cell_volume   494.06690873
_cell_formula_units_Z   2
loop_
 _symmetry_equiv_pos_site_id
 _symmetry_equiv_pos_as_xyz
  1  'x, y, z'
loop_
 _atom_site_type_symbol
 _atom_site_label
 _atom_site_symmetry_multiplicity
 _atom_site_fract_x
 _atom_site_fract_y
 _atom_site_fract_z
 _atom_site_occupancy
  Cs  Cs0  1  0.12893120  0.49980908  0.00095541  1
  Cs  Cs1  1  0.37087788  0.49980908  0.50095541  1
  Sb  Sb2  1  0.24869004  0.99904314  0.75091014  1
  Sb  Sb3  1  0.75035310  0.99904314  0.25091014  1
  Cl  Cl4  1  0.54553408  0.34242675  0.85871268  1
  Cl  Cl5  1  0.79689267  0.34242675  0.35871268  1
  Cl  Cl6  1  0.61815393  0.07160894  0.09214621  1
  Cl  Cl7  1  0.95189624  0.65543698  0.64320625  1
  Cl  Cl8  1  0.45345501  0.07160894  0.59214621  1
  Cl  Cl9  1  0.88253595  0.92637190  0.40941242  1
  Cl  Cl10  1  0.14223102  0.18701056  0.20911187  1
  Cl  Cl11  1  0.04477854  0.18701056  0.70911187  1
  Cl  Cl12  1  0.35826769  0.81129264  0.29264503  1
  Cl  Cl13  1  0.04383796  0.92637190  0.90941242  1
  Cl  Cl14  1  0.45302495  0.81129264  0.79264503  1
  Cl  Cl15  1  0.70354174  0.65543698  0.14320625  1
