# generated using pymatgen
data_CsNb4Cl11
_symmetry_space_group_name_H-M   'P 1'
_cell_length_a   7.00060562
_cell_length_b   6.92156682
_cell_length_c   16.29411193
_cell_angle_alpha   90.00000000
_cell_angle_beta   90.00000000
_cell_angle_gamma   90.00000000
_symmetry_Int_Tables_number   1
_chemical_formula_structural   CsNb4Cl11
_chemical_formula_sum   'Cs2 Nb8 Cl22'
_cell_volume   789.53379377
_cell_formula_units_Z   2
loop_
 _symmetry_equiv_pos_site_id
 _symmetry_equiv_pos_as_xyz
  1  'x, y, z'
loop_
 _atom_site_type_symbol
 _atom_site_label
 _atom_site_symmetry_multiplicity
 _atom_site_fract_x
 _atom_site_fract_y
 _atom_site_fract_z
 _atom_site_occupancy
  Cs  Cs0  1  0.50000000  0.52103084  0.75000000  1
  Cs  Cs1  1  0.50000000  0.47896916  0.25000000  1
  Nb  Nb2  1  -0.00000000  0.88019937  0.35949679  1
  Nb  Nb3  1  0.78723793  -0.00000000  0.00000000  1
  Nb  Nb4  1  0.21276207  -0.00000000  0.00000000  1
  Nb  Nb5  1  -0.00000000  0.88019937  0.14050321  1
  Nb  Nb6  1  -0.00000000  0.11980063  0.64050321  1
  Nb  Nb7  1  0.21276207  -0.00000000  0.50000000  1
  Nb  Nb8  1  0.78723793  -0.00000000  0.50000000  1
  Nb  Nb9  1  -0.00000000  0.11980063  0.85949679  1
  Cl  Cl10  1  0.50000000  0.13479527  0.08288443  1
  Cl  Cl11  1  0.25080706  0.68828418  0.07766106  1
  Cl  Cl12  1  0.76734209  0.01337537  0.25000000  1
  Cl  Cl13  1  -0.00000000  0.78893437  0.91359143  1
  Cl  Cl14  1  -0.00000000  0.21106563  0.08640857  1
  Cl  Cl15  1  0.50000000  0.86520473  0.91711557  1
  Cl  Cl16  1  0.76734209  0.98662463  0.75000000  1
  Cl  Cl17  1  -0.00000000  0.78893437  0.58640857  1
  Cl  Cl18  1  0.74919294  0.68828418  0.07766106  1
  Cl  Cl19  1  -0.00000000  0.59948930  0.25000000  1
  Cl  Cl20  1  -0.00000000  0.21106563  0.41359143  1
  Cl  Cl21  1  -0.00000000  0.40051070  0.75000000  1
  Cl  Cl22  1  0.23265791  0.98662463  0.75000000  1
  Cl  Cl23  1  0.74919294  0.68828418  0.42233894  1
  Cl  Cl24  1  0.74919294  0.31171582  0.57766106  1
  Cl  Cl25  1  0.25080706  0.31171582  0.92233894  1
  Cl  Cl26  1  0.74919294  0.31171582  0.92233894  1
  Cl  Cl27  1  0.25080706  0.68828418  0.42233894  1
  Cl  Cl28  1  0.50000000  0.13479527  0.41711557  1
  Cl  Cl29  1  0.25080706  0.31171582  0.57766106  1
  Cl  Cl30  1  0.23265791  0.01337537  0.25000000  1
  Cl  Cl31  1  0.50000000  0.86520473  0.58288443  1
