# generated using pymatgen
data_InI3
_symmetry_space_group_name_H-M   'P 1'
_cell_length_a   6.31336591
_cell_length_b   10.02615427
_cell_length_c   12.41716815
_cell_angle_alpha   107.53129493
_cell_angle_beta   90.00000000
_cell_angle_gamma   90.00000000
_symmetry_Int_Tables_number   1
_chemical_formula_structural   InI3
_chemical_formula_sum   'In4 I12'
_cell_volume   749.48430690
_cell_formula_units_Z   4
loop_
 _symmetry_equiv_pos_site_id
 _symmetry_equiv_pos_as_xyz
  1  'x, y, z'
loop_
 _atom_site_type_symbol
 _atom_site_label
 _atom_site_symmetry_multiplicity
 _atom_site_fract_x
 _atom_site_fract_y
 _atom_site_fract_z
 _atom_site_occupancy
  In  In0  1  0.99878856  0.79460408  0.94969148  1
  In  In1  1  0.00121144  0.20539592  0.05030852  1
  In  In2  1  0.50121144  0.79460408  0.44969148  1
  In  In3  1  0.49878856  0.20539592  0.55030852  1
  I  I4  1  0.76269051  0.33426197  0.71740969  1
  I  I5  1  0.26818654  0.99932463  0.62010970  1
  I  I6  1  0.76451174  0.66414858  0.55319875  1
  I  I7  1  0.26269051  0.66573803  0.78259031  1
  I  I8  1  0.73730949  0.33426197  0.21740969  1
  I  I9  1  0.73181346  0.00067537  0.37989030  1
  I  I10  1  0.26451174  0.33585142  0.94680125  1
  I  I11  1  0.76818654  0.00067537  0.87989030  1
  I  I12  1  0.73548826  0.66414858  0.05319875  1
  I  I13  1  0.23730949  0.66573803  0.28259031  1
  I  I14  1  0.23548826  0.33585142  0.44680125  1
  I  I15  1  0.23181346  0.99932463  0.12010970  1
