# generated using pymatgen
data_Cr2P2O7
_symmetry_space_group_name_H-M   'P 1'
_cell_length_a   10.93144818
_cell_length_b   10.93144818
_cell_length_c   9.27815383
_cell_angle_alpha   84.24817086
_cell_angle_beta   84.24817086
_cell_angle_gamma   45.02673610
_symmetry_Int_Tables_number   1
_chemical_formula_structural   Cr2P2O7
_chemical_formula_sum   'Cr12 P12 O42'
_cell_volume   779.71097129
_cell_formula_units_Z   6
loop_
 _symmetry_equiv_pos_site_id
 _symmetry_equiv_pos_as_xyz
  1  'x, y, z'
loop_
 _atom_site_type_symbol
 _atom_site_label
 _atom_site_symmetry_multiplicity
 _atom_site_fract_x
 _atom_site_fract_y
 _atom_site_fract_z
 _atom_site_occupancy
  Cr  Cr0  1  0.36703593  0.98960276  0.81090475  1
  Cr  Cr1  1  0.69815272  0.32196736  0.97810425  1
  Cr  Cr2  1  0.02197506  0.65000477  0.16036968  1
  Cr  Cr3  1  0.98960276  0.36703593  0.31090475  1
  Cr  Cr4  1  0.01039724  0.63296407  0.68909525  1
  Cr  Cr5  1  0.30184728  0.67803264  0.02189575  1
  Cr  Cr6  1  0.32196736  0.69815272  0.47810425  1
  Cr  Cr7  1  0.65000477  0.02197506  0.66036968  1
  Cr  Cr8  1  0.63296407  0.01039724  0.18909525  1
  Cr  Cr9  1  0.97802494  0.34999523  0.83963032  1
  Cr  Cr10  1  0.67803264  0.30184728  0.52189575  1
  Cr  Cr11  1  0.34999523  0.97802494  0.33963032  1
  P  P12  1  0.38093552  0.40723861  0.32251636  1
  P  P13  1  0.61906448  0.59276139  0.67748364  1
  P  P14  1  0.25078076  0.28383792  0.53075824  1
  P  P15  1  0.40723861  0.38093552  0.82251636  1
  P  P16  1  0.28383792  0.25078076  0.03075824  1
  P  P17  1  0.74921924  0.71616208  0.46924176  1
  P  P18  1  0.95570632  0.91887244  0.85291440  1
  P  P19  1  0.04429368  0.08112756  0.14708560  1
  P  P20  1  0.71616208  0.74921924  0.96924176  1
  P  P21  1  0.91887244  0.95570632  0.35291440  1
  P  P22  1  0.59276139  0.61906448  0.17748364  1
  P  P23  1  0.08112756  0.04429368  0.64708560  1
  O  O24  1  0.08473524  0.91526476  0.75000000  1
  O  O25  1  0.21209391  0.21950039  0.42099457  1
  O  O26  1  0.73133732  0.59685496  0.55750863  1
  O  O27  1  0.59685496  0.73133732  0.05750863  1
  O  O28  1  0.81003511  0.09415639  0.91166047  1
  O  O29  1  0.78049961  0.78790609  0.07900543  1
  O  O30  1  0.18996489  0.90584361  0.08833953  1
  O  O31  1  0.41418028  0.13234000  0.60670542  1
  O  O32  1  0.90328245  0.59165618  0.36660729  1
  O  O33  1  0.40314504  0.26866268  0.94249137  1
  O  O34  1  0.07261747  0.77602958  0.96623704  1
  O  O35  1  0.54252910  0.54657650  0.09310546  1
  O  O36  1  0.74548078  0.45063622  0.78720992  1
  O  O37  1  0.78790609  0.78049961  0.57900543  1
  O  O38  1  0.58581972  0.86766000  0.39329458  1
  O  O39  1  0.09415639  0.81003511  0.41166047  1
  O  O40  1  0.54936378  0.25451922  0.71279008  1
  O  O41  1  0.45342350  0.45747090  0.40689454  1
  O  O42  1  0.87112324  0.88773642  0.25774971  1
  O  O43  1  0.77602958  0.07261747  0.46623704  1
  O  O44  1  0.76636423  0.47787825  0.23962860  1
  O  O45  1  0.52212175  0.23363577  0.26037140  1
  O  O46  1  0.45063622  0.74548178  0.28720992  1
  O  O47  1  0.47787825  0.76636423  0.73962860  1
  O  O48  1  0.26866268  0.40314504  0.44249137  1
  O  O49  1  0.59165618  0.90328245  0.86660729  1
  O  O50  1  0.23363577  0.52212175  0.76037140  1
  O  O51  1  0.88773642  0.87112324  0.75774971  1
  O  O52  1  0.22397042  0.92738253  0.53376296  1
  O  O53  1  0.11226358  0.12887676  0.24225029  1
  O  O54  1  0.86766000  0.58581972  0.89329458  1
  O  O55  1  0.09671655  0.40834382  0.63339271  1
  O  O56  1  0.54657650  0.54252910  0.59310546  1
  O  O57  1  0.21950039  0.21209391  0.92099457  1
  O  O58  1  0.92738253  0.22397042  0.03376296  1
  O  O59  1  0.40834382  0.09671755  0.13339271  1
  O  O60  1  0.91526476  0.08473524  0.25000000  1
  O  O61  1  0.45747090  0.45342350  0.90689454  1
  O  O62  1  0.12887676  0.11226358  0.74225029  1
  O  O63  1  0.13234000  0.41418028  0.10670542  1
  O  O64  1  0.25451822  0.54936378  0.21279008  1
  O  O65  1  0.90584361  0.18996489  0.58833953  1
