# generated using pymatgen
data_Na2TeO3
_symmetry_space_group_name_H-M   'P 1'
_cell_length_a   10.18601968
_cell_length_b   4.91811685
_cell_length_c   6.79890354
_cell_angle_alpha   87.96527999
_cell_angle_beta   90.00000000
_cell_angle_gamma   90.00000000
_symmetry_Int_Tables_number   1
_chemical_formula_structural   Na2TeO3
_chemical_formula_sum   'Na8 Te4 O12'
_cell_volume   340.38336147
_cell_formula_units_Z   4
loop_
 _symmetry_equiv_pos_site_id
 _symmetry_equiv_pos_as_xyz
  1  'x, y, z'
loop_
 _atom_site_type_symbol
 _atom_site_label
 _atom_site_symmetry_multiplicity
 _atom_site_fract_x
 _atom_site_fract_y
 _atom_site_fract_z
 _atom_site_occupancy
  Na  Na0  1  0.41223981  0.75447700  0.14050731  1
  Na  Na1  1  0.91223981  0.24552300  0.35949269  1
  Na  Na2  1  0.58776019  0.24552300  0.85949269  1
  Na  Na3  1  0.08776019  0.75447700  0.64050731  1
  Na  Na4  1  0.24546671  0.25590959  0.40478463  1
  Na  Na5  1  0.74546671  0.74409041  0.09521537  1
  Na  Na6  1  0.75453329  0.74409041  0.59521537  1
  Na  Na7  1  0.25453329  0.25590959  0.90478463  1
  Te  Te8  1  0.08186911  0.74031051  0.16518948  1
  Te  Te9  1  0.58186911  0.25968949  0.33481052  1
  Te  Te10  1  0.91813089  0.25968949  0.83481052  1
  Te  Te11  1  0.41813089  0.74031051  0.66518948  1
  O  O12  1  0.21670147  0.77140245  0.35397532  1
  O  O13  1  0.71670147  0.22859755  0.14602468  1
  O  O14  1  0.78329853  0.22859755  0.64602468  1
  O  O15  1  0.28329853  0.77140245  0.85397532  1
  O  O16  1  0.43633404  0.24901322  0.16413224  1
  O  O17  1  0.93633404  0.75098678  0.33586776  1
  O  O18  1  0.56366596  0.75098678  0.83586776  1
  O  O19  1  0.06366596  0.24901322  0.66413224  1
  O  O20  1  0.09452265  0.35983582  0.14868320  1
  O  O21  1  0.59452265  0.64016418  0.35131680  1
  O  O22  1  0.90547735  0.64016418  0.85131680  1
  O  O23  1  0.40547735  0.35983582  0.64868320  1
