# generated using pymatgen
data_ZnTe6O13
_symmetry_space_group_name_H-M   'P 1'
_cell_length_a   8.65462324
_cell_length_b   8.65462265
_cell_length_c   8.65462256
_cell_angle_alpha   71.86050723
_cell_angle_beta   71.86051031
_cell_angle_gamma   71.86050848
_symmetry_Int_Tables_number   1
_chemical_formula_structural   ZnTe6O13
_chemical_formula_sum   'Zn2 Te12 O26'
_cell_volume   568.68113434
_cell_formula_units_Z   2
loop_
 _symmetry_equiv_pos_site_id
 _symmetry_equiv_pos_as_xyz
  1  'x, y, z'
loop_
 _atom_site_type_symbol
 _atom_site_label
 _atom_site_symmetry_multiplicity
 _atom_site_fract_x
 _atom_site_fract_y
 _atom_site_fract_z
 _atom_site_occupancy
  Zn  Zn0  1  0.74266814  0.74266814  0.74266814  1
  Zn  Zn1  1  0.25733186  0.25733186  0.25733186  1
  Te  Te2  1  0.01428377  0.33344743  0.93886496  1
  Te  Te3  1  0.33344743  0.93886496  0.01428377  1
  Te  Te4  1  0.98571623  0.66655257  0.06113504  1
  Te  Te5  1  0.47172836  0.17459964  0.58017564  1
  Te  Te6  1  0.06113504  0.98571623  0.66655257  1
  Te  Te7  1  0.93886496  0.01428377  0.33344743  1
  Te  Te8  1  0.66655257  0.06113504  0.98571623  1
  Te  Te9  1  0.82540036  0.41982436  0.52827164  1
  Te  Te10  1  0.41982436  0.52827164  0.82540036  1
  Te  Te11  1  0.58017564  0.47172836  0.17459964  1
  Te  Te12  1  0.52827164  0.82540036  0.41982436  1
  Te  Te13  1  0.17459964  0.58017564  0.47172836  1
  O  O14  1  0.69988382  0.62611160  0.38770637  1
  O  O15  1  0.61229363  0.30011618  0.37388840  1
  O  O16  1  0.08701995  0.08701995  0.08701995  1
  O  O17  1  0.62611160  0.38770637  0.69988382  1
  O  O18  1  0.69568329  0.94948273  0.20017676  1
  O  O19  1  0.45643003  0.36493681  0.11656205  1
  O  O20  1  0.89581697  0.92331980  0.60375796  1
  O  O21  1  0.39624204  0.10418303  0.07668020  1
  O  O22  1  0.63506319  0.88343795  0.54356997  1
  O  O23  1  0.11656205  0.45643003  0.36493681  1
  O  O24  1  0.92331980  0.60375796  0.89581697  1
  O  O25  1  0.38770637  0.69988382  0.62611160  1
  O  O26  1  0.30431671  0.05051727  0.79982324  1
  O  O27  1  0.54356997  0.63506319  0.88343795  1
  O  O28  1  0.88343795  0.54356997  0.63506319  1
  O  O29  1  0.91298005  0.91298005  0.91298005  1
  O  O30  1  0.37388840  0.61229363  0.30011618  1
  O  O31  1  0.30011618  0.37388840  0.61229363  1
  O  O32  1  0.20017676  0.69568329  0.94948273  1
  O  O33  1  0.36493681  0.11656205  0.45643003  1
  O  O34  1  0.07668020  0.39624204  0.10418303  1
  O  O35  1  0.05051727  0.79982324  0.30431671  1
  O  O36  1  0.60375796  0.89581697  0.92331980  1
  O  O37  1  0.94948273  0.20017676  0.69568329  1
  O  O38  1  0.79982324  0.30431671  0.05051727  1
  O  O39  1  0.10418303  0.07668020  0.39624204  1
