# generated using pymatgen
data_K2TcI6
_symmetry_space_group_name_H-M   'P 1'
_cell_length_a   7.95028016
_cell_length_b   8.16405255
_cell_length_c   11.25352039
_cell_angle_alpha   89.99800354
_cell_angle_beta   90.29440019
_cell_angle_gamma   89.98324005
_symmetry_Int_Tables_number   1
_chemical_formula_structural   K2TcI6
_chemical_formula_sum   'K4 Tc2 I12'
_cell_volume   730.41700344
_cell_formula_units_Z   2
loop_
 _symmetry_equiv_pos_site_id
 _symmetry_equiv_pos_as_xyz
  1  'x, y, z'
loop_
 _atom_site_type_symbol
 _atom_site_label
 _atom_site_symmetry_multiplicity
 _atom_site_fract_x
 _atom_site_fract_y
 _atom_site_fract_z
 _atom_site_occupancy
  K  K0  1  0.01968611  0.43031454  0.74899950  1
  K  K1  1  0.48030981  0.93037997  0.75096744  1
  K  K2  1  0.51969019  0.06962003  0.24903256  1
  K  K3  1  0.98031389  0.56968546  0.25100050  1
  Tc  Tc4  1  0.00000000  -0.00000000  -0.00000000  1
  Tc  Tc5  1  0.50000000  0.50000000  0.50000000  1
  I  I6  1  0.71928806  0.80794212  0.03728398  1
  I  I7  1  0.57103282  0.50176897  0.73932079  1
  I  I8  1  0.42896718  0.49823103  0.26067921  1
  I  I9  1  0.81095716  0.27926126  0.03163254  1
  I  I10  1  0.78085009  0.30796293  0.46275339  1
  I  I11  1  0.31091439  0.22075122  0.53162285  1
  I  I12  1  0.28071194  0.19205788  0.96271602  1
  I  I13  1  0.68908561  0.77924878  0.46837715  1
  I  I14  1  0.18904284  0.72073874  0.96836746  1
  I  I15  1  0.92891897  0.00183550  0.76067245  1
  I  I16  1  0.07108103  0.99816450  0.23932755  1
  I  I17  1  0.21914991  0.69203707  0.53724661  1
