# generated using pymatgen
data_ZnS
_symmetry_space_group_name_H-M   'P 1'
_cell_length_a   3.80838714
_cell_length_b   3.80838583
_cell_length_c   24.89095901
_cell_angle_alpha   90.00000000
_cell_angle_beta   90.00000000
_cell_angle_gamma   120.00001136
_symmetry_Int_Tables_number   1
_chemical_formula_structural   ZnS
_chemical_formula_sum   'Zn8 S8'
_cell_volume   312.64698314
_cell_formula_units_Z   8
loop_
 _symmetry_equiv_pos_site_id
 _symmetry_equiv_pos_as_xyz
  1  'x, y, z'
loop_
 _atom_site_type_symbol
 _atom_site_label
 _atom_site_symmetry_multiplicity
 _atom_site_fract_x
 _atom_site_fract_y
 _atom_site_fract_z
 _atom_site_occupancy
  Zn  Zn0  1  0.33333300  0.66666700  0.74991292  1
  Zn  Zn1  1  0.33333300  0.66666700  0.12478582  1
  Zn  Zn2  1  0.00000000  -0.00000000  0.00004287  1
  Zn  Zn3  1  0.66666700  0.33333300  0.87532473  1
  Zn  Zn4  1  0.66666700  0.33333300  0.24991292  1
  Zn  Zn5  1  0.33333300  0.66666700  0.37532473  1
  Zn  Zn6  1  -0.00000000  0.00000000  0.50004287  1
  Zn  Zn7  1  0.66666700  0.33333300  0.62478582  1
  S  S8  1  -0.00000000  -0.00000000  0.59371274  1
  S  S9  1  0.66666700  0.33333300  0.96898812  1
  S  S10  1  0.33333300  0.66666700  0.21850247  1
  S  S11  1  0.66666700  0.33333300  0.34392833  1
  S  S12  1  0.33333300  0.66666700  0.84392833  1
  S  S13  1  0.33333300  0.66666700  0.46898812  1
  S  S14  1  0.66666700  0.33333300  0.71850247  1
  S  S15  1  0.00000000  -0.00000000  0.09371274  1
