# generated using pymatgen
data_Hg2TeO5
_symmetry_space_group_name_H-M   'P 1'
_cell_length_a   5.92179313
_cell_length_b   7.36529296
_cell_length_c   10.03430183
_cell_angle_alpha   90.00000000
_cell_angle_beta   90.00000000
_cell_angle_gamma   90.00000000
_symmetry_Int_Tables_number   1
_chemical_formula_structural   Hg2TeO5
_chemical_formula_sum   'Hg8 Te4 O20'
_cell_volume   437.65351225
_cell_formula_units_Z   4
loop_
 _symmetry_equiv_pos_site_id
 _symmetry_equiv_pos_as_xyz
  1  'x, y, z'
loop_
 _atom_site_type_symbol
 _atom_site_label
 _atom_site_symmetry_multiplicity
 _atom_site_fract_x
 _atom_site_fract_y
 _atom_site_fract_z
 _atom_site_occupancy
  Hg  Hg0  1  0.22299334  0.73399518  0.17424359  1
  Hg  Hg1  1  0.77700666  0.26600482  0.67424359  1
  Hg  Hg2  1  0.27700666  0.23399518  0.17424359  1
  Hg  Hg3  1  0.72299334  0.76600482  0.67424359  1
  Hg  Hg4  1  0.23029453  0.52001874  0.83549722  1
  Hg  Hg5  1  0.76970547  0.47998126  0.33549722  1
  Hg  Hg6  1  0.26970547  0.02001874  0.83549722  1
  Hg  Hg7  1  0.73029453  0.97998126  0.33549722  1
  Te  Te8  1  0.24092448  0.86511078  0.50219455  1
  Te  Te9  1  0.75907552  0.13488922  0.00219455  1
  Te  Te10  1  0.25907552  0.36511078  0.50219455  1
  Te  Te11  1  0.74092448  0.63488922  0.00219455  1
  O  O12  1  0.15016754  0.83428291  0.68351024  1
  O  O13  1  0.84983246  0.16571709  0.18351024  1
  O  O14  1  0.34983246  0.33428291  0.68351024  1
  O  O15  1  0.65016754  0.66571709  0.18351024  1
  O  O16  1  0.45588504  0.71487560  0.94027763  1
  O  O17  1  0.54411496  0.28512440  0.44027763  1
  O  O18  1  0.04411496  0.21487560  0.94027763  1
  O  O19  1  0.95588504  0.78512440  0.44027763  1
  O  O20  1  0.37066701  0.61733430  0.50154126  1
  O  O21  1  0.62933299  0.38266570  0.00154126  1
  O  O22  1  0.12933299  0.11733430  0.50154126  1
  O  O23  1  0.87066701  0.88266570  0.00154126  1
  O  O24  1  0.54083132  0.94262410  0.55368759  1
  O  O25  1  0.45916868  0.05737590  0.05368759  1
  O  O26  1  0.95916868  0.44262410  0.55368759  1
  O  O27  1  0.04083132  0.55737590  0.05368759  1
  O  O28  1  0.34175470  0.90924551  0.32019791  1
  O  O29  1  0.65824530  0.09075449  0.82019791  1
  O  O30  1  0.15824530  0.40924551  0.32019791  1
  O  O31  1  0.84175470  0.59075449  0.82019791  1
