# generated using pymatgen
data_TbRhO3
_symmetry_space_group_name_H-M   'P 1'
_cell_length_a   5.22941294
_cell_length_b   5.77580762
_cell_length_c   7.60007790
_cell_angle_alpha   90.00000000
_cell_angle_beta   90.00000000
_cell_angle_gamma   90.00000000
_symmetry_Int_Tables_number   1
_chemical_formula_structural   TbRhO3
_chemical_formula_sum   'Tb4 Rh4 O12'
_cell_volume   229.55338451
_cell_formula_units_Z   4
loop_
 _symmetry_equiv_pos_site_id
 _symmetry_equiv_pos_as_xyz
  1  'x, y, z'
loop_
 _atom_site_type_symbol
 _atom_site_label
 _atom_site_symmetry_multiplicity
 _atom_site_fract_x
 _atom_site_fract_y
 _atom_site_fract_z
 _atom_site_occupancy
  Tb  Tb0  1  0.47011779  0.58399804  0.75000000  1
  Tb  Tb1  1  0.97011779  0.91600196  0.25000000  1
  Tb  Tb2  1  0.02988221  0.08399804  0.75000000  1
  Tb  Tb3  1  0.52988221  0.41600196  0.25000000  1
  Rh  Rh4  1  0.50000000  0.00000000  0.50000000  1
  Rh  Rh5  1  0.00000000  0.50000000  0.50000000  1
  Rh  Rh6  1  0.00000000  0.50000000  0.00000000  1
  Rh  Rh7  1  0.50000000  0.00000000  0.00000000  1
  O  O8  1  0.82353633  0.19055480  0.43976310  1
  O  O9  1  0.32353633  0.30944520  0.56023690  1
  O  O10  1  0.67646367  0.69055480  0.06023690  1
  O  O11  1  0.17646367  0.80944520  0.93976310  1
  O  O12  1  0.17646367  0.80944520  0.56023690  1
  O  O13  1  0.67646367  0.69055480  0.43976310  1
  O  O14  1  0.32353633  0.30944520  0.93976310  1
  O  O15  1  0.82353633  0.19055480  0.06023690  1
  O  O16  1  0.36955436  0.04898991  0.25000000  1
  O  O17  1  0.86955436  0.45101009  0.75000000  1
  O  O18  1  0.13044564  0.54898991  0.25000000  1
  O  O19  1  0.63044564  0.95101009  0.75000000  1
