# generated using pymatgen
data_Rb3PO4
_symmetry_space_group_name_H-M   'P 1'
_cell_length_a   6.16980084
_cell_length_b   8.43347446
_cell_length_c   11.68455447
_cell_angle_alpha   90.00000000
_cell_angle_beta   90.00000000
_cell_angle_gamma   90.00000000
_symmetry_Int_Tables_number   1
_chemical_formula_structural   Rb3PO4
_chemical_formula_sum   'Rb12 P4 O16'
_cell_volume   607.98076128
_cell_formula_units_Z   4
loop_
 _symmetry_equiv_pos_site_id
 _symmetry_equiv_pos_as_xyz
  1  'x, y, z'
loop_
 _atom_site_type_symbol
 _atom_site_label
 _atom_site_symmetry_multiplicity
 _atom_site_fract_x
 _atom_site_fract_y
 _atom_site_fract_z
 _atom_site_occupancy
  Rb  Rb0  1  0.13873648  0.25000000  0.07237150  1
  Rb  Rb1  1  0.69105517  0.49248355  0.14351172  1
  Rb  Rb2  1  0.86126352  0.75000000  0.92762850  1
  Rb  Rb3  1  0.19105517  0.50751645  0.35648828  1
  Rb  Rb4  1  0.69105517  0.00751645  0.14351172  1
  Rb  Rb5  1  0.19105517  0.99248355  0.35648828  1
  Rb  Rb6  1  0.63873648  0.75000000  0.42762850  1
  Rb  Rb7  1  0.30894483  0.99248355  0.85648828  1
  Rb  Rb8  1  0.30894483  0.50751645  0.85648828  1
  Rb  Rb9  1  0.80894483  0.00751645  0.64351172  1
  Rb  Rb10  1  0.80894483  0.49248355  0.64351172  1
  Rb  Rb11  1  0.36126352  0.25000000  0.57237150  1
  P  P12  1  0.77838994  0.25000000  0.38522536  1
  P  P13  1  0.27838994  0.75000000  0.11477464  1
  P  P14  1  0.22161006  0.75000000  0.61477464  1
  P  P15  1  0.72161006  0.25000000  0.88522536  1
  O  O16  1  0.36391877  0.59904561  0.60891528  1
  O  O17  1  0.41025342  0.75000000  0.22775701  1
  O  O18  1  0.86391877  0.40095439  0.89108472  1
  O  O19  1  0.13608123  0.90095439  0.10891528  1
  O  O20  1  0.86391877  0.09904561  0.89108472  1
  O  O21  1  0.55960492  0.25000000  0.98708520  1
  O  O22  1  0.05960492  0.75000000  0.51291480  1
  O  O23  1  0.94039508  0.25000000  0.48708520  1
  O  O24  1  0.63608123  0.09904561  0.39108472  1
  O  O25  1  0.36391877  0.90095439  0.60891528  1
  O  O26  1  0.44039508  0.75000000  0.01291480  1
  O  O27  1  0.63608123  0.40095439  0.39108472  1
  O  O28  1  0.08974658  0.75000000  0.72775701  1
  O  O29  1  0.91025342  0.25000000  0.27224299  1
  O  O30  1  0.58974658  0.25000000  0.77224299  1
  O  O31  1  0.13608123  0.59904561  0.10891528  1
