# generated using pymatgen
data_Pr2SiTeO4
_symmetry_space_group_name_H-M   'P 1'
_cell_length_a   6.49168813
_cell_length_b   8.76350459
_cell_length_c   9.91719864
_cell_angle_alpha   85.54095370
_cell_angle_beta   90.00000000
_cell_angle_gamma   90.00000000
_symmetry_Int_Tables_number   1
_chemical_formula_structural   Pr2SiTeO4
_chemical_formula_sum   'Pr8 Si4 Te4 O16'
_cell_volume   562.48111330
_cell_formula_units_Z   4
loop_
 _symmetry_equiv_pos_site_id
 _symmetry_equiv_pos_as_xyz
  1  'x, y, z'
loop_
 _atom_site_type_symbol
 _atom_site_label
 _atom_site_symmetry_multiplicity
 _atom_site_fract_x
 _atom_site_fract_y
 _atom_site_fract_z
 _atom_site_occupancy
  Pr  Pr0  1  0.69510962  0.33502286  0.15361762  1
  Pr  Pr1  1  0.19510962  0.16497714  0.84638238  1
  Pr  Pr2  1  0.30489038  0.66497714  0.84638238  1
  Pr  Pr3  1  0.80489038  0.83502286  0.15361762  1
  Pr  Pr4  1  0.15156982  0.19308645  0.39591139  1
  Pr  Pr5  1  0.65156982  0.30691355  0.60408861  1
  Pr  Pr6  1  0.84843018  0.80691355  0.60408861  1
  Pr  Pr7  1  0.34843018  0.69308645  0.39591139  1
  Si  Si8  1  0.69008711  0.05714489  0.37516517  1
  Si  Si9  1  0.19008711  0.44285511  0.62483483  1
  Si  Si10  1  0.30991289  0.94285511  0.62483483  1
  Si  Si11  1  0.80991289  0.55714489  0.37516517  1
  Te  Te12  1  0.21358552  0.38563678  0.09613164  1
  Te  Te13  1  0.71358552  0.11436322  0.90386836  1
  Te  Te14  1  0.78641448  0.61436322  0.90386836  1
  Te  Te15  1  0.28641448  0.88563678  0.09613164  1
  O  O16  1  0.30793959  0.42121578  0.48234084  1
  O  O17  1  0.80793959  0.07878422  0.51765916  1
  O  O18  1  0.69206041  0.57878422  0.51765916  1
  O  O19  1  0.19206041  0.92121578  0.48234084  1
  O  O20  1  0.86697723  0.37741578  0.37488993  1
  O  O21  1  0.36697723  0.12258422  0.62511007  1
  O  O22  1  0.13302277  0.62258422  0.62511007  1
  O  O23  1  0.63302277  0.87741578  0.37488993  1
  O  O24  1  0.51264494  0.18443164  0.34839034  1
  O  O25  1  0.01264494  0.31556836  0.65160966  1
  O  O26  1  0.48735506  0.81556836  0.65160966  1
  O  O27  1  0.98735506  0.68443164  0.34839034  1
  O  O28  1  0.85618355  0.09045801  0.25178351  1
  O  O29  1  0.35618355  0.40954199  0.74821649  1
  O  O30  1  0.14381645  0.90954199  0.74821649  1
  O  O31  1  0.64381645  0.59045801  0.25178351  1
