# generated using pymatgen
data_AlBPbO4
_symmetry_space_group_name_H-M   'P 1'
_cell_length_a   5.73781189
_cell_length_b   6.96473999
_cell_length_c   8.02147638
_cell_angle_alpha   90.00000000
_cell_angle_beta   90.00000000
_cell_angle_gamma   90.00000000
_symmetry_Int_Tables_number   1
_chemical_formula_structural   AlBPbO4
_chemical_formula_sum   'Al4 B4 Pb4 O16'
_cell_volume   320.55719040
_cell_formula_units_Z   4
loop_
 _symmetry_equiv_pos_site_id
 _symmetry_equiv_pos_as_xyz
  1  'x, y, z'
loop_
 _atom_site_type_symbol
 _atom_site_label
 _atom_site_symmetry_multiplicity
 _atom_site_fract_x
 _atom_site_fract_y
 _atom_site_fract_z
 _atom_site_occupancy
  Al  Al0  1  0.00000000  0.50000000  0.50000000  1
  Al  Al1  1  0.00000000  -0.00000000  0.00000000  1
  Al  Al2  1  0.50000000  -0.00000000  0.00000000  1
  Al  Al3  1  0.50000000  0.50000000  0.50000000  1
  B  B4  1  0.75000000  0.72824914  0.24231423  1
  B  B5  1  0.75000000  0.22824914  0.25768577  1
  B  B6  1  0.25000000  0.77175086  0.74231423  1
  B  B7  1  0.25000000  0.27175086  0.75768577  1
  Pb  Pb8  1  0.25000000  0.06401282  0.36393193  1
  Pb  Pb9  1  0.25000000  0.56401282  0.13606807  1
  Pb  Pb10  1  0.75000000  0.93598718  0.63606807  1
  Pb  Pb11  1  0.75000000  0.43598718  0.86393193  1
  O  O12  1  0.95647923  0.17198817  0.18451604  1
  O  O13  1  0.95647923  0.67198817  0.31548396  1
  O  O14  1  0.45647923  0.32801183  0.68451604  1
  O  O15  1  0.75000000  0.10013489  0.88937202  1
  O  O16  1  0.04352077  0.32801183  0.68451604  1
  O  O17  1  0.25000000  0.89986511  0.11062798  1
  O  O18  1  0.75000000  0.33494936  0.40187730  1
  O  O19  1  0.25000000  0.16505064  0.90187730  1
  O  O20  1  0.54352077  0.17198817  0.18451604  1
  O  O21  1  0.04352077  0.82801183  0.81548396  1
  O  O22  1  0.25000000  0.66505064  0.59812270  1
  O  O23  1  0.75000000  0.60013489  0.61062798  1
  O  O24  1  0.54352077  0.67198817  0.31548396  1
  O  O25  1  0.75000000  0.83494936  0.09812270  1
  O  O26  1  0.25000000  0.39986511  0.38937202  1
  O  O27  1  0.45647923  0.82801183  0.81548396  1
