# generated using pymatgen
data_CdI2
_symmetry_space_group_name_H-M   'P 1'
_cell_length_a   4.28509111
_cell_length_b   4.28509269
_cell_length_c   64.55542355
_cell_angle_alpha   90.00000000
_cell_angle_beta   90.00000000
_cell_angle_gamma   120.00000377
_symmetry_Int_Tables_number   1
_chemical_formula_structural   CdI2
_chemical_formula_sum   'Cd9 I18'
_cell_volume   1026.55832857
_cell_formula_units_Z   9
loop_
 _symmetry_equiv_pos_site_id
 _symmetry_equiv_pos_as_xyz
  1  'x, y, z'
loop_
 _atom_site_type_symbol
 _atom_site_label
 _atom_site_symmetry_multiplicity
 _atom_site_fract_x
 _atom_site_fract_y
 _atom_site_fract_z
 _atom_site_occupancy
  Cd  Cd0  1  -0.00000000  0.00000000  0.80555755  1
  Cd  Cd1  1  0.33333300  0.66666700  0.36070641  1
  Cd  Cd2  1  -0.00000000  -0.00000000  0.69444858  1
  Cd  Cd3  1  0.00000000  -0.00000000  0.91626774  1
  Cd  Cd4  1  0.66666700  0.33333300  0.58373423  1
  Cd  Cd5  1  0.66666700  0.33333300  0.02779898  1
  Cd  Cd6  1  -0.00000000  -0.00000000  0.13930238  1
  Cd  Cd7  1  0.66666700  0.33333300  0.47223432  1
  Cd  Cd8  1  0.66666700  0.33333300  0.24997617  1
  I  I9  1  -0.00000000  -0.00000000  0.22329037  1
  I  I10  1  -0.00000000  -0.00000000  0.55712515  1
  I  I11  1  -0.00000000  -0.00000000  0.44551266  1
  I  I12  1  0.33333300  0.66666700  0.27670846  1
  I  I13  1  0.33333300  0.66666700  0.05448700  1
  I  I14  1  0.33333300  0.66666700  0.61032722  1
  I  I15  1  0.66666700  0.33333300  0.88967145  1
  I  I16  1  0.66666700  0.33333300  0.77884676  1
  I  I17  1  0.33333300  0.66666700  0.94284662  1
  I  I18  1  0.66666700  0.33333300  0.11271677  1
  I  I19  1  -0.00000000  -0.00000000  0.00106898  1
  I  I20  1  0.33333300  0.66666700  0.16588291  1
  I  I21  1  0.66666700  0.33333300  0.38728309  1
  I  I22  1  -0.00000000  -0.00000000  0.33411730  1
  I  I23  1  0.33333300  0.66666700  0.83226483  1
  I  I24  1  0.66666700  0.33333300  0.66773583  1
  I  I25  1  0.33333300  0.66666700  0.49893174  1
  I  I26  1  0.33333300  0.66666700  0.72115352  1
