# generated using pymatgen
data_Pb3(ClO)2
_symmetry_space_group_name_H-M   'P 1'
_cell_length_a   5.85827491
_cell_length_b   9.66025163
_cell_length_c   11.95093456
_cell_angle_alpha   90.00000000
_cell_angle_beta   90.00000000
_cell_angle_gamma   90.00000000
_symmetry_Int_Tables_number   1
_chemical_formula_structural   Pb3(ClO)2
_chemical_formula_sum   'Pb12 Cl8 O8'
_cell_volume   676.33218549
_cell_formula_units_Z   4
loop_
 _symmetry_equiv_pos_site_id
 _symmetry_equiv_pos_as_xyz
  1  'x, y, z'
loop_
 _atom_site_type_symbol
 _atom_site_label
 _atom_site_symmetry_multiplicity
 _atom_site_fract_x
 _atom_site_fract_y
 _atom_site_fract_z
 _atom_site_occupancy
  Pb  Pb0  1  0.25000000  0.08013889  0.08122828  1
  Pb  Pb1  1  0.75000000  0.91986111  0.91877172  1
  Pb  Pb2  1  0.75000000  0.58013889  0.41877172  1
  Pb  Pb3  1  0.25000000  0.41986111  0.58122828  1
  Pb  Pb4  1  0.25000000  0.36554001  0.28296220  1
  Pb  Pb5  1  0.75000000  0.63445999  0.71703780  1
  Pb  Pb6  1  0.75000000  0.86554001  0.21703780  1
  Pb  Pb7  1  0.25000000  0.13445999  0.78296220  1
  Pb  Pb8  1  0.25000000  0.79418799  0.56009057  1
  Pb  Pb9  1  0.75000000  0.20581201  0.43990943  1
  Pb  Pb10  1  0.75000000  0.29418799  0.93990943  1
  Pb  Pb11  1  0.25000000  0.70581201  0.06009057  1
  Cl  Cl12  1  0.25000000  0.08492473  0.36537725  1
  Cl  Cl13  1  0.75000000  0.91507527  0.63462275  1
  Cl  Cl14  1  0.75000000  0.58492473  0.13462275  1
  Cl  Cl15  1  0.25000000  0.41507527  0.86537725  1
  Cl  Cl16  1  0.25000000  0.80865818  0.80867626  1
  Cl  Cl17  1  0.75000000  0.19134182  0.19132374  1
  Cl  Cl18  1  0.75000000  0.30865818  0.69132374  1
  Cl  Cl19  1  0.25000000  0.69134182  0.30867626  1
  O  O20  1  0.99477322  0.38736253  0.42049705  1
  O  O21  1  0.49477322  0.61263747  0.57950295  1
  O  O22  1  0.00522678  0.88736253  0.07950295  1
  O  O23  1  0.50522678  0.11263747  0.92049705  1
  O  O24  1  0.00522678  0.61263747  0.57950295  1
  O  O25  1  0.50522678  0.38736253  0.42049705  1
  O  O26  1  0.99477322  0.11263747  0.92049705  1
  O  O27  1  0.49477322  0.88736253  0.07950295  1
