# generated using pymatgen
data_ZnS
_symmetry_space_group_name_H-M   'P 1'
_cell_length_a   3.80747599
_cell_length_b   3.80747464
_cell_length_c   43.59572846
_cell_angle_alpha   90.00000000
_cell_angle_beta   90.00000000
_cell_angle_gamma   119.99997641
_symmetry_Int_Tables_number   1
_chemical_formula_structural   ZnS
_chemical_formula_sum   'Zn14 S14'
_cell_volume   547.32951253
_cell_formula_units_Z   14
loop_
 _symmetry_equiv_pos_site_id
 _symmetry_equiv_pos_as_xyz
  1  'x, y, z'
loop_
 _atom_site_type_symbol
 _atom_site_label
 _atom_site_symmetry_multiplicity
 _atom_site_fract_x
 _atom_site_fract_y
 _atom_site_fract_z
 _atom_site_occupancy
  Zn  Zn0  1  0.66666700  0.33333300  0.07150508  1
  Zn  Zn1  1  -0.00000000  0.00000000  0.64288134  1
  Zn  Zn2  1  0.33333300  0.66666700  0.78574914  1
  Zn  Zn3  1  0.33333300  0.66666700  0.57150508  1
  Zn  Zn4  1  -0.00000000  -0.00000000  0.14288134  1
  Zn  Zn5  1  -0.00000000  0.00000000  0.35715447  1
  Zn  Zn6  1  0.66666700  0.33333300  0.92855966  1
  Zn  Zn7  1  0.33333300  0.66666700  0.21431043  1
  Zn  Zn8  1  0.66666700  0.33333300  0.71431043  1
  Zn  Zn9  1  0.66666700  0.33333300  0.28574914  1
  Zn  Zn10  1  0.33333300  0.66666700  0.00002869  1
  Zn  Zn11  1  0.66666700  0.33333300  0.50002869  1
  Zn  Zn12  1  0.00000000  -0.00000000  0.85715347  1
  Zn  Zn13  1  0.33333300  0.66666700  0.42855966  1
  S  S14  1  0.33333300  0.66666700  0.48204905  1
  S  S15  1  0.33333300  0.66666700  0.05360974  1
  S  S16  1  0.66666700  0.33333300  0.33926316  1
  S  S17  1  0.00000000  -0.00000000  0.41066517  1
  S  S18  1  0.66666700  0.33333300  0.76783467  1
  S  S19  1  -0.00000000  0.00000000  0.91066517  1
  S  S20  1  -0.00000000  0.00000000  0.19640018  1
  S  S21  1  0.66666700  0.33333300  0.12499023  1
  S  S22  1  0.33333300  0.66666700  0.83926316  1
  S  S23  1  0.66666700  0.33333300  0.98204805  1
  S  S24  1  0.66666700  0.33333300  0.55360974  1
  S  S25  1  0.33333300  0.66666700  0.26783467  1
  S  S26  1  0.00000000  -0.00000000  0.69640018  1
  S  S27  1  0.33333300  0.66666700  0.62499023  1
