# generated using pymatgen
data_SrCr2O7
_symmetry_space_group_name_H-M   'P 1'
_cell_length_a   11.13961747
_cell_length_b   11.13961747
_cell_length_c   9.61458437
_cell_angle_alpha   90.00000000
_cell_angle_beta   90.00000000
_cell_angle_gamma   90.00000000
_symmetry_Int_Tables_number   1
_chemical_formula_structural   SrCr2O7
_chemical_formula_sum   'Sr8 Cr16 O56'
_cell_volume   1193.08413301
_cell_formula_units_Z   8
loop_
 _symmetry_equiv_pos_site_id
 _symmetry_equiv_pos_as_xyz
  1  'x, y, z'
loop_
 _atom_site_type_symbol
 _atom_site_label
 _atom_site_symmetry_multiplicity
 _atom_site_fract_x
 _atom_site_fract_y
 _atom_site_fract_z
 _atom_site_occupancy
  Sr  Sr0  1  0.80135594  0.80135594  0.00000000  1
  Sr  Sr1  1  0.30135594  0.69864406  0.50000000  1
  Sr  Sr2  1  0.19864406  0.19864406  0.00000000  1
  Sr  Sr3  1  0.80135594  0.19864406  0.00000000  1
  Sr  Sr4  1  0.30135594  0.30135594  0.50000000  1
  Sr  Sr5  1  0.69864406  0.69864406  0.50000000  1
  Sr  Sr6  1  0.69864406  0.30135594  0.50000000  1
  Sr  Sr7  1  0.19864406  0.80135594  0.00000000  1
  Cr  Cr8  1  0.14965025  -0.00000000  0.30446291  1
  Cr  Cr9  1  -0.00000000  0.14965025  0.69553709  1
  Cr  Cr10  1  0.50000000  0.86156717  0.23479184  1
  Cr  Cr11  1  0.13843283  0.50000000  0.76520816  1
  Cr  Cr12  1  0.86156717  0.50000000  0.76520816  1
  Cr  Cr13  1  0.50000000  0.35034975  0.80446291  1
  Cr  Cr14  1  0.36156717  -0.00000000  0.73479184  1
  Cr  Cr15  1  0.85034975  -0.00000000  0.30446291  1
  Cr  Cr16  1  0.50000000  0.13843283  0.23479184  1
  Cr  Cr17  1  -0.00000000  0.85034975  0.69553709  1
  Cr  Cr18  1  0.63843283  -0.00000000  0.73479184  1
  Cr  Cr19  1  -0.00000000  0.36156717  0.26520816  1
  Cr  Cr20  1  0.50000000  0.64965025  0.80446291  1
  Cr  Cr21  1  -0.00000000  0.63843283  0.26520816  1
  Cr  Cr22  1  0.35034975  0.50000000  0.19553709  1
  Cr  Cr23  1  0.64965025  0.50000000  0.19553709  1
  O  O24  1  0.50000000  -0.00000000  0.32233346  1
  O  O25  1  0.50000000  0.34860609  0.63396024  1
  O  O26  1  0.61728948  0.85575684  0.13804230  1
  O  O27  1  0.61910430  0.28493203  0.86153366  1
  O  O28  1  0.25501132  -0.00000000  0.85294027  1
  O  O29  1  0.75501132  0.50000000  0.64705973  1
  O  O30  1  0.38089570  0.28493203  0.86153366  1
  O  O31  1  0.88271052  0.64424316  0.36195770  1
  O  O32  1  0.78493203  0.11910430  0.36153366  1
  O  O33  1  0.11728948  0.64424316  0.36195770  1
  O  O34  1  -0.00000000  0.50000000  0.17766654  1
  O  O35  1  0.61728948  0.14424316  0.13804230  1
  O  O36  1  0.64424316  0.88271052  0.63804230  1
  O  O37  1  0.71506797  0.61910430  0.13846634  1
  O  O38  1  0.61910430  0.71506797  0.86153366  1
  O  O39  1  0.14424316  0.61728948  0.86195770  1
  O  O40  1  0.11728948  0.35575684  0.36195770  1
  O  O41  1  -0.00000000  0.15139391  0.86603976  1
  O  O42  1  0.88089570  0.21506797  0.63846634  1
  O  O43  1  0.21506797  0.11910430  0.36153366  1
  O  O44  1  0.35575684  0.11728948  0.63804230  1
  O  O45  1  0.65139391  0.50000000  0.36603976  1
  O  O46  1  0.38089570  0.71506797  0.86153366  1
  O  O47  1  0.50000000  0.50000000  0.85844883  1
  O  O48  1  0.11910430  0.78493203  0.63846634  1
  O  O49  1  0.84860609  -0.00000000  0.13396024  1
  O  O50  1  0.50000000  0.50000000  0.14155117  1
  O  O51  1  -0.00000000  0.74498868  0.14705973  1
  O  O52  1  0.34860609  0.50000000  0.36603976  1
  O  O53  1  0.78493203  0.88089570  0.36153366  1
  O  O54  1  0.85575684  0.38271052  0.86195770  1
  O  O55  1  0.64424316  0.11728948  0.63804230  1
  O  O56  1  0.88089570  0.78493203  0.63846634  1
  O  O57  1  0.85575684  0.61728948  0.86195770  1
  O  O58  1  0.38271052  0.85575684  0.13804230  1
  O  O59  1  -0.00000000  0.50000000  0.67766654  1
  O  O60  1  0.50000000  0.24498868  0.35294027  1
  O  O61  1  -0.00000000  0.25501132  0.14705973  1
  O  O62  1  -0.00000000  -0.00000000  0.64155117  1
  O  O63  1  0.88271052  0.35575684  0.36195770  1
  O  O64  1  0.35575684  0.88271052  0.63804230  1
  O  O65  1  0.14424316  0.38271052  0.86195770  1
  O  O66  1  0.71506797  0.38089570  0.13846634  1
  O  O67  1  0.11910430  0.21506797  0.63846634  1
  O  O68  1  0.50000000  0.65139391  0.63396024  1
  O  O69  1  -0.00000000  -0.00000000  0.35844883  1
  O  O70  1  -0.00000000  0.84860609  0.86603976  1
  O  O71  1  0.74498868  -0.00000000  0.85294027  1
  O  O72  1  0.21506797  0.88089570  0.36153366  1
  O  O73  1  0.50000000  -0.00000000  0.82233346  1
  O  O74  1  0.38271052  0.14424316  0.13804230  1
  O  O75  1  0.28493203  0.38089570  0.13846634  1
  O  O76  1  0.15139391  -0.00000000  0.13396024  1
  O  O77  1  0.24498868  0.50000000  0.64705973  1
  O  O78  1  0.28493203  0.61910430  0.13846634  1
  O  O79  1  0.50000000  0.75501132  0.35294027  1
