# generated using pymatgen
data_S
_symmetry_space_group_name_H-M   'P 1'
_cell_length_a   7.40969128
_cell_length_b   10.80825486
_cell_length_c   12.41614071
_cell_angle_alpha   92.55471165
_cell_angle_beta   90.00000000
_cell_angle_gamma   90.00000000
_symmetry_Int_Tables_number   1
_chemical_formula_structural   S
_chemical_formula_sum   S36
_cell_volume   993.36867925
_cell_formula_units_Z   36
loop_
 _symmetry_equiv_pos_site_id
 _symmetry_equiv_pos_as_xyz
  1  'x, y, z'
loop_
 _atom_site_type_symbol
 _atom_site_label
 _atom_site_symmetry_multiplicity
 _atom_site_fract_x
 _atom_site_fract_y
 _atom_site_fract_z
 _atom_site_occupancy
  S  S0  1  0.48195989  0.71202696  0.56303158  1
  S  S1  1  0.41465270  0.30659968  0.59043592  1
  S  S2  1  0.51065188  0.98380368  0.33605377  1
  S  S3  1  0.01804011  0.21202696  0.06303158  1
  S  S4  1  0.98934812  0.48380368  0.83605377  1
  S  S5  1  0.06408613  0.30237633  0.81173056  1
  S  S6  1  0.94016092  0.81553331  0.64855593  1
  S  S7  1  0.26667712  0.98911248  0.75838659  1
  S  S8  1  0.44016092  0.68446669  0.85144407  1
  S  S9  1  0.24968490  0.10897777  0.06883090  1
  S  S10  1  0.58534730  0.69340032  0.40956408  1
  S  S11  1  0.91465270  0.19340032  0.90956408  1
  S  S12  1  0.04350047  0.99114037  0.65801216  1
  S  S13  1  0.56408613  0.19762367  0.68826944  1
  S  S14  1  0.54413628  0.78168892  0.98338459  1
  S  S15  1  0.45649953  0.49114037  0.15801216  1
  S  S16  1  0.08534730  0.80659968  0.09043592  1
  S  S17  1  0.75031510  0.89102223  0.93116910  1
  S  S18  1  0.55983908  0.31553331  0.14855593  1
  S  S19  1  0.74968490  0.39102223  0.43116910  1
  S  S20  1  0.01065188  0.51619632  0.16394623  1
  S  S21  1  0.43591387  0.80237633  0.31173056  1
  S  S22  1  0.51804011  0.28797304  0.43696842  1
  S  S23  1  0.45586372  0.21831108  0.01661541  1
  S  S24  1  0.48934812  0.01619632  0.66394623  1
  S  S25  1  0.05983908  0.18446669  0.35144407  1
  S  S26  1  0.95649953  0.00885963  0.34198784  1
  S  S27  1  0.73332288  0.01088752  0.24161341  1
  S  S28  1  0.23332288  0.48911248  0.25838659  1
  S  S29  1  0.93591387  0.69762367  0.18826944  1
  S  S30  1  0.25031510  0.60897777  0.56883090  1
  S  S31  1  0.76667712  0.51088752  0.74161341  1
  S  S32  1  0.04413628  0.71831108  0.51661541  1
  S  S33  1  0.98195989  0.78797304  0.93696842  1
  S  S34  1  0.54350047  0.50885963  0.84198784  1
  S  S35  1  0.95586372  0.28168892  0.48338459  1
