# generated using pymatgen
data_Li2CdSiO4
_symmetry_space_group_name_H-M   'P 1'
_cell_length_a   5.09766382
_cell_length_b   6.50772083
_cell_length_c   10.62069487
_cell_angle_alpha   90.00000000
_cell_angle_beta   90.00000000
_cell_angle_gamma   90.00000000
_symmetry_Int_Tables_number   1
_chemical_formula_structural   Li2CdSiO4
_chemical_formula_sum   'Li8 Cd4 Si4 O16'
_cell_volume   352.33276927
_cell_formula_units_Z   4
loop_
 _symmetry_equiv_pos_site_id
 _symmetry_equiv_pos_as_xyz
  1  'x, y, z'
loop_
 _atom_site_type_symbol
 _atom_site_label
 _atom_site_symmetry_multiplicity
 _atom_site_fract_x
 _atom_site_fract_y
 _atom_site_fract_z
 _atom_site_occupancy
  Li  Li0  1  0.82943547  0.00119596  0.58807830  1
  Li  Li1  1  0.32943547  0.99880404  0.91192170  1
  Li  Li2  1  0.17056453  0.50119596  0.41192170  1
  Li  Li3  1  0.32943547  0.50119596  0.91192170  1
  Li  Li4  1  0.17056453  0.99880404  0.41192170  1
  Li  Li5  1  0.82943547  0.49880404  0.58807830  1
  Li  Li6  1  0.67056453  0.00119596  0.08807830  1
  Li  Li7  1  0.67056453  0.49880404  0.08807830  1
  Cd  Cd8  1  0.67173405  0.75000000  0.33927696  1
  Cd  Cd9  1  0.17173405  0.25000000  0.16072304  1
  Cd  Cd10  1  0.82826595  0.75000000  0.83927696  1
  Cd  Cd11  1  0.32826595  0.25000000  0.66072304  1
  Si  Si12  1  0.66549830  0.25000000  0.34288502  1
  Si  Si13  1  0.16549830  0.75000000  0.15711498  1
  Si  Si14  1  0.83450170  0.25000000  0.84288502  1
  Si  Si15  1  0.33450170  0.75000000  0.65711498  1
  O  O16  1  0.79186898  0.04757905  0.41089732  1
  O  O17  1  0.70813102  0.45242095  0.91089732  1
  O  O18  1  0.15450599  0.25000000  0.85678557  1
  O  O19  1  0.73820050  0.25000000  0.19126553  1
  O  O20  1  0.20813102  0.54757905  0.58910268  1
  O  O21  1  0.29186898  0.95242095  0.08910268  1
  O  O22  1  0.23820050  0.75000000  0.30873447  1
  O  O23  1  0.84549401  0.75000000  0.14321443  1
  O  O24  1  0.79186898  0.45242095  0.41089732  1
  O  O25  1  0.26179950  0.75000000  0.80873447  1
  O  O26  1  0.34549401  0.25000000  0.35678557  1
  O  O27  1  0.20813102  0.95242095  0.58910268  1
  O  O28  1  0.76179950  0.25000000  0.69126553  1
  O  O29  1  0.29186898  0.54757905  0.08910268  1
  O  O30  1  0.70813102  0.04757905  0.91089732  1
  O  O31  1  0.65450599  0.75000000  0.64321443  1
