# generated using pymatgen
data_Tl2O
_symmetry_space_group_name_H-M   'P 1'
_cell_length_a   3.54193290
_cell_length_b   3.54193223
_cell_length_c   13.29983120
_cell_angle_alpha   82.32817626
_cell_angle_beta   82.32818162
_cell_angle_gamma   60.08519546
_symmetry_Int_Tables_number   1
_chemical_formula_structural   Tl2O
_chemical_formula_sum   'Tl4 O2'
_cell_volume   142.89029008
_cell_formula_units_Z   2
loop_
 _symmetry_equiv_pos_site_id
 _symmetry_equiv_pos_as_xyz
  1  'x, y, z'
loop_
 _atom_site_type_symbol
 _atom_site_label
 _atom_site_symmetry_multiplicity
 _atom_site_fract_x
 _atom_site_fract_y
 _atom_site_fract_z
 _atom_site_occupancy
  Tl  Tl0  1  0.12589373  0.12589373  0.63594744  1
  Tl  Tl1  1  0.28385081  0.28385081  0.13427323  1
  Tl  Tl2  1  0.87410627  0.87410627  0.36405256  1
  Tl  Tl3  1  0.71614919  0.71614919  0.86572577  1
  O  O4  1  0.57845010  0.57845010  0.24931673  1
  O  O5  1  0.42154990  0.42154990  0.75068327  1
