# generated using pymatgen
data_BaTiO3
_symmetry_space_group_name_H-M   'P 1'
_cell_length_a   5.75288743
_cell_length_b   5.75288743
_cell_length_c   14.01903216
_cell_angle_alpha   90.00000000
_cell_angle_beta   90.00000000
_cell_angle_gamma   119.72477257
_symmetry_Int_Tables_number   1
_chemical_formula_structural   BaTiO3
_chemical_formula_sum   'Ba6 Ti6 O18'
_cell_volume   402.91942798
_cell_formula_units_Z   6
loop_
 _symmetry_equiv_pos_site_id
 _symmetry_equiv_pos_as_xyz
  1  'x, y, z'
loop_
 _atom_site_type_symbol
 _atom_site_label
 _atom_site_symmetry_multiplicity
 _atom_site_fract_x
 _atom_site_fract_y
 _atom_site_fract_z
 _atom_site_occupancy
  Ba  Ba0  1  0.34699731  0.67893065  0.40371352  1
  Ba  Ba1  1  0.67893065  0.34699731  0.59628648  1
  Ba  Ba2  1  0.65300269  0.32106935  0.90371352  1
  Ba  Ba3  1  0.00075526  0.99924474  0.25000000  1
  Ba  Ba4  1  0.99924474  0.00075526  0.75000000  1
  Ba  Ba5  1  0.32106935  0.65300269  0.09628648  1
  Ti  Ti6  1  0.35270424  0.68906022  0.65386952  1
  Ti  Ti7  1  0.68906022  0.35270424  0.34613048  1
  Ti  Ti8  1  0.97581967  0.97581967  0.00000000  1
  Ti  Ti9  1  0.31093978  0.64729576  0.84613048  1
  Ti  Ti10  1  0.02418033  0.02418033  0.50000000  1
  Ti  Ti11  1  0.64729576  0.31093978  0.15386952  1
  O  O12  1  0.16370690  0.83412141  0.91986164  1
  O  O13  1  0.83421323  0.67024411  0.08058558  1
  O  O14  1  0.51983002  0.03262784  0.24732290  1
  O  O15  1  0.83558482  0.66755973  0.41921055  1
  O  O16  1  0.83412141  0.16370690  0.08013836  1
  O  O17  1  0.16578677  0.32975589  0.58058558  1
  O  O18  1  0.66755973  0.83558482  0.58078945  1
  O  O19  1  0.96737216  0.48016998  0.25267710  1
  O  O20  1  0.47946123  0.52053877  0.75000000  1
  O  O21  1  0.16587859  0.83629310  0.58013836  1
  O  O22  1  0.33244027  0.16441518  0.08078945  1
  O  O23  1  0.52053877  0.47946123  0.25000000  1
  O  O24  1  0.67024411  0.83421323  0.91941442  1
  O  O25  1  0.83629310  0.16587859  0.41986164  1
  O  O26  1  0.32975589  0.16578677  0.41941442  1
  O  O27  1  0.48016998  0.96737216  0.74732290  1
  O  O28  1  0.03262784  0.51983002  0.75267710  1
  O  O29  1  0.16441518  0.33244027  0.91921055  1
