# generated using pymatgen
data_CaCrF5
_symmetry_space_group_name_H-M   'P 1'
_cell_length_a   5.53262405
_cell_length_b   5.53262405
_cell_length_c   7.53121819
_cell_angle_alpha   69.99706307
_cell_angle_beta   69.99706307
_cell_angle_gamma   71.43944539
_symmetry_Int_Tables_number   1
_chemical_formula_structural   CaCrF5
_chemical_formula_sum   'Ca2 Cr2 F10'
_cell_volume   198.19551921
_cell_formula_units_Z   2
loop_
 _symmetry_equiv_pos_site_id
 _symmetry_equiv_pos_as_xyz
  1  'x, y, z'
loop_
 _atom_site_type_symbol
 _atom_site_label
 _atom_site_symmetry_multiplicity
 _atom_site_fract_x
 _atom_site_fract_y
 _atom_site_fract_z
 _atom_site_occupancy
  Ca  Ca0  1  0.45474130  0.54525870  0.25000000  1
  Ca  Ca1  1  0.54525870  0.45474130  0.75000000  1
  Cr  Cr2  1  0.00000000  -0.00000000  0.00000000  1
  Cr  Cr3  1  0.00000000  -0.00000000  0.50000000  1
  F  F4  1  0.20901779  0.25041628  0.38155388  1
  F  F5  1  0.74958372  0.79098221  0.11844612  1
  F  F6  1  0.79098221  0.74958372  0.61844612  1
  F  F7  1  0.25041628  0.20901779  0.88155388  1
  F  F8  1  0.07505637  0.92494363  0.25000000  1
  F  F9  1  0.92494363  0.07505637  0.75000000  1
  F  F10  1  0.28171200  0.69491054  0.97069542  1
  F  F11  1  0.30508946  0.71828800  0.52930458  1
  F  F12  1  0.71828800  0.30508946  0.02930458  1
  F  F13  1  0.69491054  0.28171200  0.47069542  1
