# generated using pymatgen
data_Sr11InSb9
_symmetry_space_group_name_H-M   'P 1'
_cell_length_a   12.68983991
_cell_length_b   12.68981836
_cell_length_c   12.68982944
_cell_angle_alpha   120.91692518
_cell_angle_beta   117.06487200
_cell_angle_gamma   91.78913905
_symmetry_Int_Tables_number   1
_chemical_formula_structural   Sr11InSb9
_chemical_formula_sum   'Sr22 In2 Sb18'
_cell_volume   1464.20910749
_cell_formula_units_Z   2
loop_
 _symmetry_equiv_pos_site_id
 _symmetry_equiv_pos_as_xyz
  1  'x, y, z'
loop_
 _atom_site_type_symbol
 _atom_site_label
 _atom_site_symmetry_multiplicity
 _atom_site_fract_x
 _atom_site_fract_y
 _atom_site_fract_z
 _atom_site_occupancy
  Sr  Sr0  1  0.32008689  0.32008202  -0.00000300  1
  Sr  Sr1  1  0.82669490  0.84155829  0.66821857  1
  Sr  Sr2  1  0.43114062  0.06815610  0.18246906  1
  Sr  Sr3  1  0.82008987  0.82009028  0.00000545  1
  Sr  Sr4  1  0.68727724  0.94505160  0.37178423  1
  Sr  Sr5  1  0.42576475  0.68864143  0.37045455  1
  Sr  Sr6  1  0.32669992  0.65847453  0.98514118  1
  Sr  Sr7  1  0.81817722  0.18863616  0.26286941  1
  Sr  Sr8  1  0.62052753  0.41673459  0.35196091  1
  Sr  Sr9  1  0.88567912  0.24866524  0.81752746  1
  Sr  Sr10  1  0.12054115  0.76856409  0.20380109  1
  Sr  Sr11  1  0.18726635  0.81550312  0.74224481  1
  Sr  Sr12  1  0.92577163  0.55531781  0.73713575  1
  Sr  Sr13  1  0.38567538  0.56815044  0.63700821  1
  Sr  Sr14  1  0.06477051  0.26856514  0.64803293  1
  Sr  Sr15  1  0.56476715  0.91673071  0.79620376  1
  Sr  Sr16  1  0.93113791  0.74866016  0.36298859  1
  Sr  Sr17  1  0.67333197  0.34155527  0.01485346  1
  Sr  Sr18  1  0.57326834  0.31550232  0.62822499  1
  Sr  Sr19  1  0.17333667  0.15847223  0.33177910  1
  Sr  Sr20  1  0.07325737  0.44502708  0.25775622  1
  Sr  Sr21  1  0.31818430  0.05531169  0.62954216  1
  In  In22  1  0.60628303  0.60627860  0.99999003  1
  In  In23  1  0.10626899  0.10626195  -0.00000380  1
  Sb  Sb24  1  0.63940533  0.64192506  0.64552578  1
  Sb  Sb25  1  0.39975138  0.96979801  0.36281396  1
  Sb  Sb26  1  0.99640196  0.99387619  0.35448349  1
  Sb  Sb27  1  0.61369841  0.62693021  0.24540533  1
  Sb  Sb28  1  0.05037008  0.04308493  0.71632766  1
  Sb  Sb29  1  0.24944703  0.74944679  0.50002163  1
  Sb  Sb30  1  0.55037937  0.83403954  0.00725853  1
  Sb  Sb31  1  0.74945784  0.24947112  0.50001848  1
  Sb  Sb32  1  0.88151782  0.12692655  0.01322226  1
  Sb  Sb33  1  0.49640159  0.14191649  0.00251861  1
  Sb  Sb34  1  0.13941077  0.49387333  0.99749991  1
  Sb  Sb35  1  0.38149815  0.36829678  0.75456758  1
  Sb  Sb36  1  0.32674631  0.33403757  0.28366335  1
  Sb  Sb37  1  0.89974599  0.53692425  0.42994517  1
  Sb  Sb38  1  0.10697059  0.46978046  0.57002607  1
  Sb  Sb39  1  0.82677678  0.54310390  0.99271388  1
  Sb  Sb40  1  0.60696566  0.03692350  0.63717571  1
  Sb  Sb41  1  0.11373912  0.86833647  0.98682748  1
