# generated using pymatgen
data_Zn2GeO4
_symmetry_space_group_name_H-M   'P 1'
_cell_length_a   8.83137532
_cell_length_b   8.83137533
_cell_length_c   8.83137513
_cell_angle_alpha   107.81515668
_cell_angle_beta   107.81515671
_cell_angle_gamma   107.81516445
_symmetry_Int_Tables_number   1
_chemical_formula_structural   Zn2GeO4
_chemical_formula_sum   'Zn12 Ge6 O24'
_cell_volume   560.38381565
_cell_formula_units_Z   6
loop_
 _symmetry_equiv_pos_site_id
 _symmetry_equiv_pos_as_xyz
  1  'x, y, z'
loop_
 _atom_site_type_symbol
 _atom_site_label
 _atom_site_symmetry_multiplicity
 _atom_site_fract_x
 _atom_site_fract_y
 _atom_site_fract_z
 _atom_site_occupancy
  Zn  Zn0  1  0.27465250  0.10548878  0.87327330  1
  Zn  Zn1  1  0.87327330  0.27465250  0.10548878  1
  Zn  Zn2  1  0.10548878  0.87327330  0.27465250  1
  Zn  Zn3  1  0.72534750  0.89451122  0.12672670  1
  Zn  Zn4  1  0.12672670  0.72534750  0.89451122  1
  Zn  Zn5  1  0.89451122  0.12672670  0.72534750  1
  Zn  Zn6  1  0.60827480  0.44061248  0.20219654  1
  Zn  Zn7  1  0.20219654  0.60827480  0.44061248  1
  Zn  Zn8  1  0.44061248  0.20219654  0.60827480  1
  Zn  Zn9  1  0.39172520  0.55938752  0.79780346  1
  Zn  Zn10  1  0.79780346  0.39172520  0.55938752  1
  Zn  Zn11  1  0.55938752  0.79780346  0.39172520  1
  Ge  Ge12  1  0.94485848  0.76892830  0.53568721  1
  Ge  Ge13  1  0.53568721  0.94485848  0.76892830  1
  Ge  Ge14  1  0.76892830  0.53568721  0.94485848  1
  Ge  Ge15  1  0.05514152  0.23107170  0.46431279  1
  Ge  Ge16  1  0.46431279  0.05514152  0.23107170  1
  Ge  Ge17  1  0.23107170  0.46431279  0.05514152  1
  O  O18  1  0.07377495  0.75120784  0.42034154  1
  O  O19  1  0.42034154  0.07377495  0.75120784  1
  O  O20  1  0.75120784  0.42034154  0.07377495  1
  O  O21  1  0.92622505  0.24879216  0.57965846  1
  O  O22  1  0.57965846  0.92622505  0.24879216  1
  O  O23  1  0.24879216  0.57965846  0.92622505  1
  O  O24  1  0.36332787  0.35168464  0.03523866  1
  O  O25  1  0.03523866  0.36332787  0.35168464  1
  O  O26  1  0.35168464  0.03523866  0.36332787  1
  O  O27  1  0.63667213  0.64831536  0.96476134  1
  O  O28  1  0.96476134  0.63667213  0.64831536  1
  O  O29  1  0.64831536  0.96476134  0.63667213  1
  O  O30  1  0.72057635  0.68445188  0.38768503  1
  O  O31  1  0.38768503  0.72057635  0.68445188  1
  O  O32  1  0.68445188  0.38768503  0.72057635  1
  O  O33  1  0.27942365  0.31554812  0.61231497  1
  O  O34  1  0.61231497  0.27942365  0.31554812  1
  O  O35  1  0.31554812  0.61231497  0.27942365  1
  O  O36  1  0.01258179  0.30478847  0.97167348  1
  O  O37  1  0.30478847  0.97167348  0.01258179  1
  O  O38  1  0.97167348  0.01258179  0.30478847  1
  O  O39  1  0.98741821  0.69521153  0.02832652  1
  O  O40  1  0.69521153  0.02832652  0.98741821  1
  O  O41  1  0.02832652  0.98741821  0.69521153  1
