# generated using pymatgen
data_Y(AlCl4)3
_symmetry_space_group_name_H-M   'P 1'
_cell_length_a   10.62133318
_cell_length_b   10.61969820
_cell_length_c   15.73588523
_cell_angle_alpha   90.05111241
_cell_angle_beta   89.97443332
_cell_angle_gamma   119.99576624
_symmetry_Int_Tables_number   1
_chemical_formula_structural   Y(AlCl4)3
_chemical_formula_sum   'Y3 Al9 Cl36'
_cell_volume   1537.20352500
_cell_formula_units_Z   3
loop_
 _symmetry_equiv_pos_site_id
 _symmetry_equiv_pos_as_xyz
  1  'x, y, z'
loop_
 _atom_site_type_symbol
 _atom_site_label
 _atom_site_symmetry_multiplicity
 _atom_site_fract_x
 _atom_site_fract_y
 _atom_site_fract_z
 _atom_site_occupancy
  Y  Y0  1  0.50431084  0.49554313  0.33337760  1
  Y  Y1  1  0.99131919  0.49566665  -0.00000115  1
  Y  Y2  1  0.50430737  0.00876196  0.66662010  1
  Al  Al3  1  0.63609559  0.76160696  0.73071353  1
  Al  Al4  1  0.73081779  0.26926014  0.83332808  1
  Al  Al5  1  0.63609137  0.87448350  0.26927935  1
  Al  Al6  1  0.23839782  0.36389655  0.93553014  1
  Al  Al7  1  0.23840820  0.87450740  0.06447679  1
  Al  Al8  1  0.12549828  0.36405367  0.39778698  1
  Al  Al9  1  0.53829762  0.26914420  0.49999051  1
  Al  Al10  1  0.12549383  0.76144477  0.60221379  1
  Al  Al11  1  0.73081365  0.46155277  0.16668243  1
  Cl  Cl12  1  0.65683310  0.87816449  0.61077642  1
  Cl  Cl13  1  0.40723551  0.19967736  0.61301278  1
  Cl  Cl14  1  0.83715014  0.84004333  0.79028919  1
  Cl  Cl15  1  0.83489196  0.33510388  0.14997188  1
  Cl  Cl16  1  0.50519702  0.84122544  0.79741311  1
  Cl  Cl17  1  0.00263145  0.83973544  0.54282232  1
  Cl  Cl18  1  0.16017605  0.99748683  0.12392999  1
  Cl  Cl19  1  0.66503069  0.16541198  0.51666979  1
  Cl  Cl20  1  0.02805939  0.53711221  0.62278978  1
  Cl  Cl21  1  0.50912698  0.53721858  0.71018947  1
  Cl  Cl22  1  0.15896880  0.49486867  0.86899341  1
  Cl  Cl23  1  0.83714952  0.99711709  0.20971066  1
  Cl  Cl24  1  0.50036183  0.16554370  0.81664909  1
  Cl  Cl25  1  0.65683203  0.77866571  0.38921795  1
  Cl  Cl26  1  0.66502401  0.49960914  0.48332410  1
  Cl  Cl27  1  0.00263472  0.16289892  0.45717368  1
  Cl  Cl28  1  0.79234144  0.19984263  0.72018770  1
  Cl  Cl29  1  0.83489721  0.49978638  0.85003088  1
  Cl  Cl30  1  0.33596011  0.84114816  0.53562443  1
  Cl  Cl31  1  0.22126140  0.87779013  0.72242921  1
  Cl  Cl32  1  0.46270992  0.97191390  0.04374887  1
  Cl  Cl33  1  0.12190049  0.34331152  0.05557597  1
  Cl  Cl34  1  0.80022535  0.59253768  0.05369467  1
  Cl  Cl35  1  0.22127113  0.34347284  0.27756039  1
  Cl  Cl36  1  0.16017148  0.16271713  0.87607317  1
  Cl  Cl37  1  0.50035831  0.33481493  0.18335417  1
  Cl  Cl38  1  0.15895396  0.66410805  0.13101368  1
  Cl  Cl39  1  0.12192949  0.77861328  0.94442668  1
  Cl  Cl40  1  0.80022140  0.20768121  0.94631382  1
  Cl  Cl41  1  0.79235558  0.59250646  0.27981593  1
  Cl  Cl42  1  0.46271763  0.49079763  0.95627189  1
  Cl  Cl43  1  0.50911909  0.97189583  0.28981151  1
  Cl  Cl44  1  0.40723063  0.20754523  0.38697634  1
  Cl  Cl45  1  0.33595636  0.49479941  0.46437159  1
  Cl  Cl46  1  0.02805350  0.49094484  0.37720172  1
  Cl  Cl47  1  0.50520476  0.66397327  0.20258364  1
