# generated using pymatgen
data_CsCO2
_symmetry_space_group_name_H-M   'P 1'
_cell_length_a   10.94528629
_cell_length_b   6.57283937
_cell_length_c   8.62807719
_cell_angle_alpha   82.60590180
_cell_angle_beta   90.00000000
_cell_angle_gamma   90.00000000
_symmetry_Int_Tables_number   1
_chemical_formula_structural   CsCO2
_chemical_formula_sum   'Cs8 C8 O16'
_cell_volume   615.55612707
_cell_formula_units_Z   8
loop_
 _symmetry_equiv_pos_site_id
 _symmetry_equiv_pos_as_xyz
  1  'x, y, z'
loop_
 _atom_site_type_symbol
 _atom_site_label
 _atom_site_symmetry_multiplicity
 _atom_site_fract_x
 _atom_site_fract_y
 _atom_site_fract_z
 _atom_site_occupancy
  Cs  Cs0  1  0.79813485  0.28576755  0.51768486  1
  Cs  Cs1  1  0.70186515  0.28576755  0.01768486  1
  Cs  Cs2  1  0.20186515  0.71423245  0.48231514  1
  Cs  Cs3  1  0.91058271  0.76982360  0.83457914  1
  Cs  Cs4  1  0.58941729  0.76982360  0.33457914  1
  Cs  Cs5  1  0.29813485  0.71423245  0.98231514  1
  Cs  Cs6  1  0.08941729  0.23017640  0.16542086  1
  Cs  Cs7  1  0.41058271  0.23017640  0.66542086  1
  C  C8  1  0.89099713  0.83366067  0.33342807  1
  C  C9  1  0.94353658  0.68959154  0.22497826  1
  C  C10  1  0.60900287  0.83366067  0.83342807  1
  C  C11  1  0.10900287  0.16633933  0.66657193  1
  C  C12  1  0.44353658  0.31040846  0.27502174  1
  C  C13  1  0.39099713  0.16633933  0.16657193  1
  C  C14  1  0.05646342  0.31040846  0.77502174  1
  C  C15  1  0.55646342  0.68959154  0.72497826  1
  O  O16  1  0.95001293  0.27270160  0.82952700  1
  O  O17  1  0.54998707  0.27270160  0.32952700  1
  O  O18  1  0.45001293  0.72729840  0.67047300  1
  O  O19  1  0.04998707  0.72729840  0.17047300  1
  O  O20  1  0.89223615  0.77531054  0.47876353  1
  O  O21  1  0.62532342  0.54533448  0.69440853  1
  O  O22  1  0.84672691  0.00019254  0.26587027  1
  O  O23  1  0.15327309  -0.00019254  0.73412973  1
  O  O24  1  0.12532342  0.45466552  0.80559147  1
  O  O25  1  0.39223615  0.22468946  0.02123647  1
  O  O26  1  0.60776385  0.77531054  0.97876353  1
  O  O27  1  0.10776385  0.22468946  0.52123647  1
  O  O28  1  0.65327309  0.00019254  0.76587027  1
  O  O29  1  0.37467658  0.45466552  0.30559147  1
  O  O30  1  0.34672691  -0.00019254  0.23412973  1
  O  O31  1  0.87467658  0.54533448  0.19440853  1
