# generated using pymatgen
data_CdBiSe2Br
_symmetry_space_group_name_H-M   'P 1'
_cell_length_a   4.14619273
_cell_length_b   10.08937703
_cell_length_c   13.27325455
_cell_angle_alpha   90.00000000
_cell_angle_beta   90.00000000
_cell_angle_gamma   90.00000000
_symmetry_Int_Tables_number   1
_chemical_formula_structural   CdBiSe2Br
_chemical_formula_sum   'Cd4 Bi4 Se8 Br4'
_cell_volume   555.25344342
_cell_formula_units_Z   4
loop_
 _symmetry_equiv_pos_site_id
 _symmetry_equiv_pos_as_xyz
  1  'x, y, z'
loop_
 _atom_site_type_symbol
 _atom_site_label
 _atom_site_symmetry_multiplicity
 _atom_site_fract_x
 _atom_site_fract_y
 _atom_site_fract_z
 _atom_site_occupancy
  Cd  Cd0  1  0.75000000  0.00539113  0.76321538  1
  Cd  Cd1  1  0.75000000  0.50539113  0.73678462  1
  Cd  Cd2  1  0.25000000  0.99460887  0.23678462  1
  Cd  Cd3  1  0.25000000  0.49460887  0.26321538  1
  Bi  Bi4  1  0.75000000  0.80941682  0.47160303  1
  Bi  Bi5  1  0.25000000  0.69058318  0.97160303  1
  Bi  Bi6  1  0.75000000  0.30941682  0.02839697  1
  Bi  Bi7  1  0.25000000  0.19058318  0.52839697  1
  Se  Se8  1  0.25000000  0.25151052  0.16839245  1
  Se  Se9  1  0.25000000  0.75151052  0.33160755  1
  Se  Se10  1  0.75000000  0.74848948  0.83160755  1
  Se  Se11  1  0.75000000  0.55493346  0.11370906  1
  Se  Se12  1  0.75000000  0.24848948  0.66839245  1
  Se  Se13  1  0.25000000  0.94506654  0.61370906  1
  Se  Se14  1  0.25000000  0.44506654  0.88629094  1
  Se  Se15  1  0.75000000  0.05493346  0.38629094  1
  Br  Br16  1  0.25000000  0.07455373  0.89420279  1
  Br  Br17  1  0.75000000  0.92544627  0.10579721  1
  Br  Br18  1  0.75000000  0.42544627  0.39420279  1
  Br  Br19  1  0.25000000  0.57455373  0.60579721  1
