# generated using pymatgen
data_ZnS
_symmetry_space_group_name_H-M   'P 1'
_cell_length_a   3.80988278
_cell_length_b   3.80988276
_cell_length_c   80.94247532
_cell_angle_alpha   90.00000000
_cell_angle_beta   90.00000000
_cell_angle_gamma   119.99999135
_symmetry_Int_Tables_number   1
_chemical_formula_structural   ZnS
_chemical_formula_sum   'Zn26 S26'
_cell_volume   1017.49053024
_cell_formula_units_Z   26
loop_
 _symmetry_equiv_pos_site_id
 _symmetry_equiv_pos_as_xyz
  1  'x, y, z'
loop_
 _atom_site_type_symbol
 _atom_site_label
 _atom_site_symmetry_multiplicity
 _atom_site_fract_x
 _atom_site_fract_y
 _atom_site_fract_z
 _atom_site_occupancy
  Zn  Zn0  1  0.33333300  0.66666700  0.80769816  1
  Zn  Zn1  1  0.00000000  0.00000000  0.57690427  1
  Zn  Zn2  1  0.66666700  0.33333300  0.92306965  1
  Zn  Zn3  1  -0.00000000  0.00000000  0.23074118  1
  Zn  Zn4  1  0.33333300  0.66666700  0.38460505  1
  Zn  Zn5  1  0.33333300  0.66666700  0.96153366  1
  Zn  Zn6  1  0.66666700  0.33333300  0.65388106  1
  Zn  Zn7  1  0.66666700  0.33333300  0.42307394  1
  Zn  Zn8  1  -0.00000000  -0.00000000  0.73074084  1
  Zn  Zn9  1  0.66666700  0.33333300  0.07691878  1
  Zn  Zn10  1  0.66666700  0.33333300  0.84617454  1
  Zn  Zn11  1  0.00000000  0.00000000  0.11536853  1
  Zn  Zn12  1  0.33333300  0.66666700  0.26920376  1
  Zn  Zn13  1  0.00000000  -0.00000000  0.00005861  1
  Zn  Zn14  1  0.33333300  0.66666700  0.61536236  1
  Zn  Zn15  1  0.33333300  0.66666700  0.15388496  1
  Zn  Zn16  1  0.66666700  0.33333300  0.53845519  1
  Zn  Zn17  1  -0.00000000  0.00000000  0.46154155  1
  Zn  Zn18  1  0.33333300  0.66666700  0.03851635  1
  Zn  Zn19  1  -0.00000000  0.00000000  0.88460282  1
  Zn  Zn20  1  0.66666700  0.33333300  0.30771183  1
  Zn  Zn21  1  0.33333300  0.66666700  0.69236285  1
  Zn  Zn22  1  0.66666700  0.33333300  0.19232869  1
  Zn  Zn23  1  -0.00000000  0.00000000  0.34619458  1
  Zn  Zn24  1  0.33333300  0.66666700  0.50003807  1
  Zn  Zn25  1  0.66666700  0.33333300  0.76917550  1
  S  S26  1  0.00000000  0.00000000  0.49039113  1
  S  S27  1  0.00000000  -0.00000000  0.02890543  1
  S  S28  1  0.33333300  0.66666700  0.06732208  1
  S  S29  1  0.66666700  0.33333300  0.56728374  1
  S  S30  1  0.00000000  0.00000000  0.91347061  1
  S  S31  1  0.33333300  0.66666700  0.64419277  1
  S  S32  1  0.33333300  0.66666700  0.52885267  1
  S  S33  1  0.66666700  0.33333300  0.22114334  1
  S  S34  1  0.33333300  0.66666700  0.83656616  1
  S  S35  1  -0.00000000  0.00000000  0.60575140  1
  S  S36  1  0.66666700  0.33333300  0.95191131  1
  S  S37  1  0.66666700  0.33333300  0.79801025  1
  S  S38  1  0.66666700  0.33333300  0.10576014  1
  S  S39  1  0.66666700  0.33333300  0.87495747  1
  S  S40  1  0.66666700  0.33333300  0.45192779  1
  S  S41  1  0.33333300  0.66666700  0.29805520  1
  S  S42  1  0.33333300  0.66666700  0.99036095  1
  S  S43  1  0.33333300  0.66666700  0.18270730  1
  S  S44  1  -0.00000000  0.00000000  0.75957073  1
  S  S45  1  0.33333300  0.66666700  0.72115521  1
  S  S46  1  0.33333300  0.66666700  0.41346047  1
  S  S47  1  0.00000000  -0.00000000  0.25958093  1
  S  S48  1  0.00000000  0.00000000  0.14423255  1
  S  S49  1  0.66666700  0.33333300  0.33655341  1
  S  S50  1  0.00000000  -0.00000000  0.37499168  1
  S  S51  1  0.66666700  0.33333300  0.68274248  1
