# generated using pymatgen
data_Zn2P2O7
_symmetry_space_group_name_H-M   'P 1'
_cell_length_a   8.23893728
_cell_length_b   9.09138764
_cell_length_c   10.62686578
_cell_angle_alpha   99.09595809
_cell_angle_beta   112.80814418
_cell_angle_gamma   90.00000462
_symmetry_Int_Tables_number   1
_chemical_formula_structural   Zn2P2O7
_chemical_formula_sum   'Zn12 P12 O42'
_cell_volume   722.87733537
_cell_formula_units_Z   6
loop_
 _symmetry_equiv_pos_site_id
 _symmetry_equiv_pos_as_xyz
  1  'x, y, z'
loop_
 _atom_site_type_symbol
 _atom_site_label
 _atom_site_symmetry_multiplicity
 _atom_site_fract_x
 _atom_site_fract_y
 _atom_site_fract_z
 _atom_site_occupancy
  Zn  Zn0  1  0.70158271  0.03893537  0.02842871  1
  Zn  Zn1  1  0.67315400  0.46106463  0.97157129  1
  Zn  Zn2  1  0.29841729  0.96106463  0.97157129  1
  Zn  Zn3  1  0.32684600  0.53893537  0.02842871  1
  Zn  Zn4  1  0.98185496  0.16252371  0.32681925  1
  Zn  Zn5  1  0.65503570  0.33747629  0.67318075  1
  Zn  Zn6  1  0.01814504  0.83747729  0.67318075  1
  Zn  Zn7  1  0.34496430  0.66252271  0.32681925  1
  Zn  Zn8  1  0.37214582  0.20998591  0.36757589  1
  Zn  Zn9  1  0.00457193  0.29001409  0.63242411  1
  Zn  Zn10  1  0.62785418  0.79001409  0.63242411  1
  Zn  Zn11  1  0.99542807  0.70998591  0.36757589  1
  P  P12  1  0.04598042  0.86176541  0.13180502  1
  P  P13  1  0.91417640  0.63823459  0.86819498  1
  P  P14  1  0.95401958  0.13823459  0.86819498  1
  P  P15  1  0.08582360  0.36176541  0.13180502  1
  P  P16  1  0.59499669  0.81889458  0.20498824  1
  P  P17  1  0.39000846  0.68110542  0.79501176  1
  P  P18  1  0.40500331  0.18110542  0.79501176  1
  P  P19  1  0.60999154  0.31889458  0.20498824  1
  P  P20  1  0.71960836  0.03722665  0.47730800  1
  P  P21  1  0.24230235  0.46277335  0.52269200  1
  P  P22  1  0.28039064  0.96277335  0.52269200  1
  P  P23  1  0.75769765  0.53722665  0.47730800  1
  O  O24  1  0.91237903  0.75000000  0.00000000  1
  O  O25  1  0.08762097  0.25000000  -0.00000000  1
  O  O26  1  0.87005366  0.73191212  0.75335255  1
  O  O27  1  0.11670011  0.76808788  0.24664745  1
  O  O28  1  0.12994634  0.26808788  0.24664745  1
  O  O29  1  0.88329989  0.23191212  0.75335255  1
  O  O30  1  0.76122623  0.52419526  0.83435550  1
  O  O31  1  0.92687073  0.97580474  0.16564450  1
  O  O32  1  0.23877377  0.47580474  0.16564450  1
  O  O33  1  0.07312927  0.02419526  0.83435550  1
  O  O34  1  0.18887974  0.92788200  0.09987457  1
  O  O35  1  0.08900516  0.57211800  0.90012543  1
  O  O36  1  0.81112026  0.07211800  0.90012543  1
  O  O37  1  0.91099484  0.42788200  0.09987457  1
  O  O38  1  0.60525084  0.94734093  0.32909960  1
  O  O39  1  0.27615224  0.55265907  0.67090040  1
  O  O40  1  0.39474916  0.05265907  0.67090040  1
  O  O41  1  0.72384776  0.44734093  0.32909960  1
  O  O42  1  0.54683565  0.89993617  0.08117625  1
  O  O43  1  0.46565939  0.60006383  0.91882375  1
  O  O44  1  0.45316435  0.10006383  0.91882375  1
  O  O45  1  0.53434061  0.39993617  0.08117625  1
  O  O46  1  0.77890471  0.92765811  0.57815513  1
  O  O47  1  0.20074957  0.57234189  0.42184487  1
  O  O48  1  0.22109529  0.07234189  0.42184487  1
  O  O49  1  0.79925043  0.42765811  0.57815513  1
  O  O50  1  0.44244537  0.71258087  0.18862512  1
  O  O51  1  0.25381925  0.78741913  0.81137488  1
  O  O52  1  0.55755463  0.28741913  0.81137488  1
  O  O53  1  0.74618075  0.21258087  0.18862512  1
  O  O54  1  0.59402848  0.14486614  0.50832112  1
  O  O55  1  0.08570736  0.35513386  0.49167888  1
  O  O56  1  0.40597152  0.85513386  0.49167888  1
  O  O57  1  0.91429264  0.64486614  0.50832112  1
  O  O58  1  0.76399632  0.74461358  0.23757144  1
  O  O59  1  0.52642489  0.75538642  0.76242856  1
  O  O60  1  0.23600368  0.25538642  0.76242856  1
  O  O61  1  0.47357511  0.24461358  0.23757144  1
  O  O62  1  0.87708148  0.11701868  0.46913342  1
  O  O63  1  0.40794806  0.38298132  0.53086658  1
  O  O64  1  0.12291852  0.88298132  0.53086658  1
  O  O65  1  0.59205194  0.61701868  0.46913342  1
