# generated using pymatgen
data_CsAsSe2
_symmetry_space_group_name_H-M   'P 1'
_cell_length_a   15.13347183
_cell_length_b   7.24838513
_cell_length_c   11.36143929
_cell_angle_alpha   65.27317844
_cell_angle_beta   90.00000000
_cell_angle_gamma   90.00000000
_symmetry_Int_Tables_number   1
_chemical_formula_structural   CsAsSe2
_chemical_formula_sum   'Cs8 As8 Se16'
_cell_volume   1132.00529756
_cell_formula_units_Z   8
loop_
 _symmetry_equiv_pos_site_id
 _symmetry_equiv_pos_as_xyz
  1  'x, y, z'
loop_
 _atom_site_type_symbol
 _atom_site_label
 _atom_site_symmetry_multiplicity
 _atom_site_fract_x
 _atom_site_fract_y
 _atom_site_fract_z
 _atom_site_occupancy
  Cs  Cs0  1  0.10475684  0.79063708  0.43481908  1
  Cs  Cs1  1  0.29687781  0.31450493  0.54151500  1
  Cs  Cs2  1  0.20312219  0.31450493  0.04151500  1
  Cs  Cs3  1  0.39524316  0.79063708  0.93481908  1
  Cs  Cs4  1  0.60475684  0.20936292  0.06518092  1
  Cs  Cs5  1  0.89524316  0.20936292  0.56518092  1
  Cs  Cs6  1  0.79687781  0.68549507  0.95848500  1
  Cs  Cs7  1  0.70312219  0.68549507  0.45848500  1
  As  As8  1  0.51173402  0.45653660  0.33137219  1
  As  As9  1  0.93658444  0.08451073  0.15757008  1
  As  As10  1  0.48826598  0.54346340  0.66862781  1
  As  As11  1  0.06341556  0.91548927  0.84242992  1
  As  As12  1  0.01173402  0.54346340  0.16862781  1
  As  As13  1  0.98826598  0.45653660  0.83137219  1
  As  As14  1  0.56341556  0.08451073  0.65757008  1
  As  As15  1  0.43658444  0.91548927  0.34242992  1
  Se  Se16  1  0.90856033  0.65947560  0.65013962  1
  Se  Se17  1  0.59143967  0.65947560  0.15013962  1
  Se  Se18  1  0.90173159  0.72205607  0.24748200  1
  Se  Se19  1  0.82144245  0.17521438  0.25716471  1
  Se  Se20  1  0.17855755  0.82478562  0.74283529  1
  Se  Se21  1  0.67855755  0.17521438  0.75716471  1
  Se  Se22  1  0.40856033  0.34052440  0.84986038  1
  Se  Se23  1  0.12173623  0.80808108  0.06363453  1
  Se  Se24  1  0.32144245  0.82478562  0.24283529  1
  Se  Se25  1  0.37826377  0.80808108  0.56363453  1
  Se  Se26  1  0.87826377  0.19191892  0.93636547  1
  Se  Se27  1  0.62173623  0.19191892  0.43636547  1
  Se  Se28  1  0.09826841  0.27794393  0.75251800  1
  Se  Se29  1  0.40173159  0.27794393  0.25251800  1
  Se  Se30  1  0.09143967  0.34052440  0.34986038  1
  Se  Se31  1  0.59826841  0.72205607  0.74748200  1
