# generated using pymatgen
data_LaNbO4
_symmetry_space_group_name_H-M   'P 1'
_cell_length_a   5.41976746
_cell_length_b   5.42085048
_cell_length_c   6.95386648
_cell_angle_alpha   112.94301809
_cell_angle_beta   112.92460243
_cell_angle_gamma   89.99029776
_symmetry_Int_Tables_number   1
_chemical_formula_structural   LaNbO4
_chemical_formula_sum   'La2 Nb2 O8'
_cell_volume   170.48823637
_cell_formula_units_Z   2
loop_
 _symmetry_equiv_pos_site_id
 _symmetry_equiv_pos_as_xyz
  1  'x, y, z'
loop_
 _atom_site_type_symbol
 _atom_site_label
 _atom_site_symmetry_multiplicity
 _atom_site_fract_x
 _atom_site_fract_y
 _atom_site_fract_z
 _atom_site_occupancy
  La  La0  1  0.37504498  0.12499435  0.75005601  1
  La  La1  1  0.62495502  0.87500565  0.24994399  1
  Nb  Nb2  1  0.87501405  0.62493853  0.74988729  1
  Nb  Nb3  1  0.12498595  0.37506147  0.25011271  1
  O  O4  1  0.95232032  0.78147554  0.57523660  1
  O  O5  1  0.79384441  0.45221728  0.07545265  1
  O  O6  1  0.28146951  0.12317720  0.07542255  1
  O  O7  1  0.62312501  0.29375582  0.57538022  1
  O  O8  1  0.37687499  0.70624418  0.42461978  1
  O  O9  1  0.71853049  0.87682280  0.92457745  1
  O  O10  1  0.20615559  0.54778272  0.92454735  1
  O  O11  1  0.04767968  0.21852446  0.42476340  1
