# generated using pymatgen
data_FeMoO4
_symmetry_space_group_name_H-M   'P 1'
_cell_length_a   6.89683216
_cell_length_b   6.89533230
_cell_length_c   7.07551145
_cell_angle_alpha   76.86663011
_cell_angle_beta   77.10203631
_cell_angle_gamma   84.39007514
_symmetry_Int_Tables_number   1
_chemical_formula_structural   FeMoO4
_chemical_formula_sum   'Fe4 Mo4 O16'
_cell_volume   319.02150959
_cell_formula_units_Z   4
loop_
 _symmetry_equiv_pos_site_id
 _symmetry_equiv_pos_as_xyz
  1  'x, y, z'
loop_
 _atom_site_type_symbol
 _atom_site_label
 _atom_site_symmetry_multiplicity
 _atom_site_fract_x
 _atom_site_fract_y
 _atom_site_fract_z
 _atom_site_occupancy
  Fe  Fe0  1  0.81460878  0.18448271  0.50020058  1
  Fe  Fe1  1  0.18425152  0.81480190  0.50177604  1
  Fe  Fe2  1  0.79716858  0.79437983  0.85688565  1
  Fe  Fe3  1  0.20289843  0.20266170  0.14514800  1
  Mo  Mo4  1  0.75224376  0.24542082  -0.00063874  1
  Mo  Mo5  1  0.24635949  0.75186375  0.00173598  1
  Mo  Mo6  1  0.26475314  0.26453240  0.60410978  1
  Mo  Mo7  1  0.73526152  0.73664131  0.39754439  1
  O  O8  1  0.86106830  0.86143367  0.53827501  1
  O  O9  1  0.14286212  0.14372433  0.45396344  1
  O  O10  1  0.19168183  0.18958421  0.86777335  1
  O  O11  1  0.80741278  0.81195888  0.13621196  1
  O  O12  1  0.78977543  0.49731746  0.89081707  1
  O  O13  1  0.49829313  0.78674464  0.89631195  1
  O  O14  1  0.20976002  0.50088104  0.10748962  1
  O  O15  1  0.50107976  0.21198054  0.10406583  1
  O  O16  1  0.11378521  0.80711149  0.79741122  1
  O  O17  1  0.80722182  0.11144036  0.79702633  1
  O  O18  1  0.88468661  0.19525643  0.20110886  1
  O  O19  1  0.19394358  0.88521151  0.20270312  1
  O  O20  1  0.20840604  0.51890147  0.53667890  1
  O  O21  1  0.51877764  0.20875839  0.53549655  1
  O  O22  1  0.79333856  0.48119850  0.46278043  1
  O  O23  1  0.48036093  0.79371165  0.46512567  1
