# generated using pymatgen
data_NaNd(GaSe2)4
_symmetry_space_group_name_H-M   'P 1'
_cell_length_a   15.14430967
_cell_length_b   12.50537918
_cell_length_c   12.48149581
_cell_angle_alpha   74.61465212
_cell_angle_beta   52.76454471
_cell_angle_gamma   52.62080317
_symmetry_Int_Tables_number   1
_chemical_formula_structural   NaNd(GaSe2)4
_chemical_formula_sum   'Na4 Nd4 Ga16 Se32'
_cell_volume   1475.89579294
_cell_formula_units_Z   4
loop_
 _symmetry_equiv_pos_site_id
 _symmetry_equiv_pos_as_xyz
  1  'x, y, z'
loop_
 _atom_site_type_symbol
 _atom_site_label
 _atom_site_symmetry_multiplicity
 _atom_site_fract_x
 _atom_site_fract_y
 _atom_site_fract_z
 _atom_site_occupancy
  Na  Na0  1  0.62162600  0.62162600  0.12837400  1
  Na  Na1  1  0.12837400  0.12837400  0.62162600  1
  Na  Na2  1  0.87162600  0.87162600  0.37837400  1
  Na  Na3  1  0.37837400  0.37837400  0.87162600  1
  Nd  Nd4  1  0.37500000  0.37500000  0.37500000  1
  Nd  Nd5  1  0.62500000  0.62500000  0.62500000  1
  Nd  Nd6  1  0.12500000  0.12500000  0.12500000  1
  Nd  Nd7  1  0.87500000  0.87500000  0.87500000  1
  Ga  Ga8  1  0.13691200  0.86832700  0.88375300  1
  Ga  Ga9  1  0.64029800  0.36148700  0.46955600  1
  Ga  Ga10  1  0.61100900  0.88375300  0.86832700  1
  Ga  Ga11  1  0.53044400  0.97134100  0.35970200  1
  Ga  Ga12  1  0.86308800  0.13167300  0.11624700  1
  Ga  Ga13  1  0.63851300  0.35970200  0.97134100  1
  Ga  Ga14  1  0.88375300  0.61100900  0.13691200  1
  Ga  Ga15  1  0.46955600  0.02865900  0.64029800  1
  Ga  Ga16  1  0.35970200  0.63851300  0.53044400  1
  Ga  Ga17  1  0.36148700  0.64029800  0.02865900  1
  Ga  Ga18  1  0.11624700  0.38899100  0.86308800  1
  Ga  Ga19  1  0.02865900  0.46955600  0.36148700  1
  Ga  Ga20  1  0.13167300  0.86308800  0.38899100  1
  Ga  Ga21  1  0.86832700  0.13691200  0.61100900  1
  Ga  Ga22  1  0.38899100  0.11624700  0.13167300  1
  Ga  Ga23  1  0.97134100  0.53044400  0.63851300  1
  Se  Se24  1  0.09010400  0.08331500  0.40476000  1
  Se  Se25  1  0.90654200  0.41935200  0.58891900  1
  Se  Se26  1  0.14885100  0.85021900  0.18282200  1
  Se  Se27  1  0.58891900  0.58518700  0.90654200  1
  Se  Se28  1  0.07817900  0.59524000  0.91668500  1
  Se  Se29  1  0.68189100  0.81717800  0.14978100  1
  Se  Se30  1  0.41108100  0.41481300  0.09345800  1
  Se  Se31  1  0.65666700  0.83677200  0.65783200  1
  Se  Se32  1  0.41935200  0.90654200  0.58518700  1
  Se  Se33  1  0.31810900  0.18282200  0.85021900  1
  Se  Se34  1  0.90989600  0.91668500  0.59524000  1
  Se  Se35  1  0.34333300  0.16322800  0.34216800  1
  Se  Se36  1  0.92182100  0.40476000  0.08331500  1
  Se  Se37  1  0.83677200  0.65666700  0.34872900  1
  Se  Se38  1  0.16322800  0.34333300  0.65127100  1
  Se  Se39  1  0.58518700  0.58891900  0.41935200  1
  Se  Se40  1  0.85114900  0.14978100  0.81717800  1
  Se  Se41  1  0.34872900  0.65783200  0.83677200  1
  Se  Se42  1  0.18282200  0.31810900  0.14885100  1
  Se  Se43  1  0.14978100  0.85114900  0.68189100  1
  Se  Se44  1  0.81717800  0.68189100  0.85114900  1
  Se  Se45  1  0.40476000  0.92182100  0.09010400  1
  Se  Se46  1  0.65783200  0.34872900  0.65666700  1
  Se  Se47  1  0.09345800  0.58064800  0.41108100  1
  Se  Se48  1  0.59524000  0.07817900  0.90989600  1
  Se  Se49  1  0.08331500  0.09010400  0.92182100  1
  Se  Se50  1  0.34216800  0.65127100  0.34333300  1
  Se  Se51  1  0.85021900  0.14885100  0.31810900  1
  Se  Se52  1  0.41481300  0.41108100  0.58064800  1
  Se  Se53  1  0.65127100  0.34216800  0.16322800  1
  Se  Se54  1  0.91668500  0.90989600  0.07817900  1
  Se  Se55  1  0.58064800  0.09345800  0.41481300  1
