# generated using pymatgen
data_SrEr2O4
_symmetry_space_group_name_H-M   'P 1'
_cell_length_a   3.36747122
_cell_length_b   9.99608255
_cell_length_c   11.79977925
_cell_angle_alpha   90.00000000
_cell_angle_beta   90.00000000
_cell_angle_gamma   90.00000000
_symmetry_Int_Tables_number   1
_chemical_formula_structural   SrEr2O4
_chemical_formula_sum   'Sr4 Er8 O16'
_cell_volume   397.19850876
_cell_formula_units_Z   4
loop_
 _symmetry_equiv_pos_site_id
 _symmetry_equiv_pos_as_xyz
  1  'x, y, z'
loop_
 _atom_site_type_symbol
 _atom_site_label
 _atom_site_symmetry_multiplicity
 _atom_site_fract_x
 _atom_site_fract_y
 _atom_site_fract_z
 _atom_site_occupancy
  Sr  Sr0  1  0.75000000  0.75301382  0.65005940  1
  Sr  Sr1  1  0.75000000  0.25301382  0.84994060  1
  Sr  Sr2  1  0.25000000  0.24698618  0.34994060  1
  Sr  Sr3  1  0.25000000  0.74698618  0.15005940  1
  Er  Er4  1  0.25000000  0.07735441  0.61000115  1
  Er  Er5  1  0.25000000  0.57735441  0.88999885  1
  Er  Er6  1  0.25000000  0.07596372  0.11189633  1
  Er  Er7  1  0.75000000  0.42264559  0.11000115  1
  Er  Er8  1  0.75000000  0.92403628  0.88810367  1
  Er  Er9  1  0.25000000  0.57596372  0.38810367  1
  Er  Er10  1  0.75000000  0.92264559  0.38999885  1
  Er  Er11  1  0.75000000  0.42403628  0.61189633  1
  O  O12  1  0.25000000  0.98424990  0.28359515  1
  O  O13  1  0.75000000  0.12399211  0.48039378  1
  O  O14  1  0.75000000  0.71096207  0.32778754  1
  O  O15  1  0.25000000  0.28903793  0.67221246  1
  O  O16  1  0.25000000  0.87600789  0.51960622  1
  O  O17  1  0.75000000  0.51575010  0.78359515  1
  O  O18  1  0.75000000  0.62399211  0.01960622  1
  O  O19  1  0.75000000  0.92577047  0.07679292  1
  O  O20  1  0.25000000  0.57422953  0.57679292  1
  O  O21  1  0.25000000  0.37600789  0.98039378  1
  O  O22  1  0.25000000  0.78903793  0.82778754  1
  O  O23  1  0.75000000  0.21096207  0.17221246  1
  O  O24  1  0.25000000  0.07422953  0.92320708  1
  O  O25  1  0.75000000  0.42577047  0.42320708  1
  O  O26  1  0.75000000  0.01575010  0.71640485  1
  O  O27  1  0.25000000  0.48424990  0.21640485  1
