# generated using pymatgen
data_FeCuO2
_symmetry_space_group_name_H-M   'P 1'
_cell_length_a   5.87530617
_cell_length_b   5.87530572
_cell_length_c   5.87530502
_cell_angle_alpha   28.35926775
_cell_angle_beta   28.35927219
_cell_angle_gamma   28.35926291
_symmetry_Int_Tables_number   1
_chemical_formula_structural   FeCuO2
_chemical_formula_sum   'Fe1 Cu1 O2'
_cell_volume   40.43653967
_cell_formula_units_Z   1
loop_
 _symmetry_equiv_pos_site_id
 _symmetry_equiv_pos_as_xyz
  1  'x, y, z'
loop_
 _atom_site_type_symbol
 _atom_site_label
 _atom_site_symmetry_multiplicity
 _atom_site_fract_x
 _atom_site_fract_y
 _atom_site_fract_z
 _atom_site_occupancy
  Fe  Fe0  1  0.50000100  0.50000100  0.49999900  1
  Cu  Cu1  1  -0.00000000  0.00000000  0.00000000  1
  O  O2  1  0.89123179  0.89123179  0.89122979  1
  O  O3  1  0.10876921  0.10877021  0.10876721  1
