# generated using pymatgen
data_Na6PbO5
_symmetry_space_group_name_H-M   'P 1'
_cell_length_a   6.01388093
_cell_length_b   6.01388133
_cell_length_c   10.90693993
_cell_angle_alpha   90.00000357
_cell_angle_beta   90.00001259
_cell_angle_gamma   123.94323762
_symmetry_Int_Tables_number   1
_chemical_formula_structural   Na6PbO5
_chemical_formula_sum   'Na12 Pb2 O10'
_cell_volume   327.24778240
_cell_formula_units_Z   2
loop_
 _symmetry_equiv_pos_site_id
 _symmetry_equiv_pos_as_xyz
  1  'x, y, z'
loop_
 _atom_site_type_symbol
 _atom_site_label
 _atom_site_symmetry_multiplicity
 _atom_site_fract_x
 _atom_site_fract_y
 _atom_site_fract_z
 _atom_site_occupancy
  Na  Na0  1  0.32340085  0.32340081  0.94037234  1
  Na  Na1  1  0.32340056  0.32340016  0.55962760  1
  Na  Na2  1  0.67659866  0.67659949  0.44037226  1
  Na  Na3  1  0.83362161  0.42972452  0.24999987  1
  Na  Na4  1  0.21912216  0.78087792  -0.00000002  1
  Na  Na5  1  0.42972469  0.83362153  0.24999987  1
  Na  Na6  1  0.78087798  0.21912212  0.49999999  1
  Na  Na7  1  0.67659973  0.67659972  0.05962754  1
  Na  Na8  1  0.57027528  0.16637865  0.74999988  1
  Na  Na9  1  0.78087813  0.21912230  -0.00000012  1
  Na  Na10  1  0.21912185  0.78087775  0.49999986  1
  Na  Na11  1  0.16637842  0.57027528  0.74999990  1
  Pb  Pb12  1  0.20747611  0.20747555  0.25000010  1
  Pb  Pb13  1  0.79252391  0.79252436  0.75000013  1
  O  O14  1  0.16878964  0.16878992  0.75000000  1
  O  O15  1  0.16604906  0.44569932  0.11376044  1
  O  O16  1  0.44569951  0.16604864  0.38623935  1
  O  O17  1  0.16604916  0.44569949  0.38623938  1
  O  O18  1  0.83395080  0.55430055  0.61376062  1
  O  O19  1  0.83395104  0.55430066  0.88623948  1
  O  O20  1  0.44569979  0.16604894  0.11376049  1
  O  O21  1  0.55430038  0.83395126  0.88623948  1
  O  O22  1  0.83121029  0.83121005  0.24999995  1
  O  O23  1  0.55430038  0.83395102  0.61376061  1
