# generated using pymatgen
data_Sb(S8I)3
_symmetry_space_group_name_H-M   'P 1'
_cell_length_a   14.67767245
_cell_length_b   14.67767245
_cell_length_c   14.67767236
_cell_angle_alpha   118.92198278
_cell_angle_beta   118.92198278
_cell_angle_gamma   118.92198193
_symmetry_Int_Tables_number   1
_chemical_formula_structural   Sb(S8I)3
_chemical_formula_sum   'Sb1 S24 I3'
_cell_volume   849.15913359
_cell_formula_units_Z   1
loop_
 _symmetry_equiv_pos_site_id
 _symmetry_equiv_pos_as_xyz
  1  'x, y, z'
loop_
 _atom_site_type_symbol
 _atom_site_label
 _atom_site_symmetry_multiplicity
 _atom_site_fract_x
 _atom_site_fract_y
 _atom_site_fract_z
 _atom_site_occupancy
  Sb  Sb0  1  0.30660078  0.30660078  0.30660078  1
  S  S1  1  0.99670344  0.59432396  0.59432396  1
  S  S2  1  0.59432396  0.59432396  0.99670344  1
  S  S3  1  0.59432396  0.99670344  0.59432396  1
  S  S4  1  0.24045509  0.85512094  0.72395776  1
  S  S5  1  0.85512094  0.72395776  0.24045509  1
  S  S6  1  0.72395776  0.24045509  0.85512094  1
  S  S7  1  0.85512094  0.24045509  0.72395776  1
  S  S8  1  0.24045509  0.72395776  0.85512094  1
  S  S9  1  0.72395776  0.85512094  0.24045509  1
  S  S10  1  0.09271719  0.62397671  0.43676205  1
  S  S11  1  0.62397671  0.43676205  0.09271719  1
  S  S12  1  0.43676205  0.09271719  0.62397671  1
  S  S13  1  0.62397671  0.09271719  0.43676205  1
  S  S14  1  0.09271719  0.43676205  0.62397671  1
  S  S15  1  0.43676205  0.62397671  0.09271719  1
  S  S16  1  0.36879395  0.75598226  0.62361266  1
  S  S17  1  0.75598226  0.62361266  0.36879395  1
  S  S18  1  0.62361266  0.36879395  0.75598226  1
  S  S19  1  0.75598226  0.36879395  0.62361266  1
  S  S20  1  0.36879395  0.62361266  0.75598226  1
  S  S21  1  0.62361266  0.75598226  0.36879395  1
  S  S22  1  0.18218337  0.45853310  0.45853310  1
  S  S23  1  0.45853310  0.45853310  0.18218337  1
  S  S24  1  0.45853310  0.18218337  0.45853310  1
  I  I25  1  0.11386194  0.94964107  0.94964107  1
  I  I26  1  0.94964107  0.94964107  0.11386194  1
  I  I27  1  0.94964107  0.11386194  0.94964107  1
