# generated using pymatgen
data_KSbF4
_symmetry_space_group_name_H-M   'P 1'
_cell_length_a   4.50002489
_cell_length_b   11.51715664
_cell_length_c   16.10213906
_cell_angle_alpha   90.00000000
_cell_angle_beta   90.00000000
_cell_angle_gamma   90.00000000
_symmetry_Int_Tables_number   1
_chemical_formula_structural   KSbF4
_chemical_formula_sum   'K8 Sb8 F32'
_cell_volume   834.53347594
_cell_formula_units_Z   8
loop_
 _symmetry_equiv_pos_site_id
 _symmetry_equiv_pos_as_xyz
  1  'x, y, z'
loop_
 _atom_site_type_symbol
 _atom_site_label
 _atom_site_symmetry_multiplicity
 _atom_site_fract_x
 _atom_site_fract_y
 _atom_site_fract_z
 _atom_site_occupancy
  K  K0  1  0.59984589  -0.00000000  0.61658593  1
  K  K1  1  0.59984589  -0.00000000  0.38341407  1
  K  K2  1  0.40015411  0.50000000  0.88341407  1
  K  K3  1  0.40015411  0.50000000  0.11658593  1
  K  K4  1  -0.00000000  0.25000000  0.75000000  1
  K  K5  1  -0.00000000  0.75000000  0.25000000  1
  K  K6  1  -0.00000000  0.75000000  0.75000000  1
  K  K7  1  -0.00000000  0.25000000  0.25000000  1
  Sb  Sb8  1  0.43738736  -0.00000000  0.84686406  1
  Sb  Sb9  1  0.43738736  -0.00000000  0.15313594  1
  Sb  Sb10  1  0.56261264  0.50000000  0.65313594  1
  Sb  Sb11  1  0.56261264  0.50000000  0.34686406  1
  Sb  Sb12  1  0.95184843  0.24928903  0.00000000  1
  Sb  Sb13  1  0.95184843  0.75071097  0.00000000  1
  Sb  Sb14  1  0.04815157  0.74928903  0.50000000  1
  Sb  Sb15  1  0.04815157  0.25071097  0.50000000  1
  F  F16  1  0.33982768  0.32849925  0.00000000  1
  F  F17  1  0.33982768  0.67150075  0.00000000  1
  F  F18  1  0.66017232  0.82849925  0.50000000  1
  F  F19  1  0.66017232  0.17150075  0.50000000  1
  F  F20  1  0.04916860  -0.00000000  0.79211756  1
  F  F21  1  0.04916860  -0.00000000  0.20788244  1
  F  F22  1  0.95083140  0.50000000  0.70788244  1
  F  F23  1  0.95083140  0.50000000  0.29211756  1
  F  F24  1  0.79932144  0.34692835  0.59722321  1
  F  F25  1  0.79932144  0.65307165  0.40277679  1
  F  F26  1  0.20067856  0.84692835  0.90277679  1
  F  F27  1  0.20067856  0.15307165  0.09722321  1
  F  F28  1  0.20067856  0.15307165  0.90277679  1
  F  F29  1  0.20067856  0.84692835  0.09722321  1
  F  F30  1  0.79932144  0.65307165  0.59722321  1
  F  F31  1  0.79932144  0.34692835  0.40277679  1
  F  F32  1  0.48035555  0.38187948  0.25817529  1
  F  F33  1  0.48035555  0.61812052  0.74182471  1
  F  F34  1  0.51964445  0.88187948  0.24182471  1
  F  F35  1  0.51964445  0.11812052  0.75817529  1
  F  F36  1  0.51964445  0.11812052  0.24182471  1
  F  F37  1  0.51964445  0.88187948  0.75817529  1
  F  F38  1  0.48035555  0.61812052  0.25817529  1
  F  F39  1  0.48035555  0.38187948  0.74182471  1
  F  F40  1  0.11079619  0.13405105  0.40778258  1
  F  F41  1  0.11079619  0.86594895  0.59221742  1
  F  F42  1  0.88920381  0.63405105  0.09221742  1
  F  F43  1  0.88920381  0.36594895  0.90778258  1
  F  F44  1  0.88920381  0.36594895  0.09221742  1
  F  F45  1  0.88920381  0.63405105  0.90778258  1
  F  F46  1  0.11079619  0.86594895  0.40778258  1
  F  F47  1  0.11079619  0.13405105  0.59221742  1
