# generated using pymatgen
data_NiBiPO5
_symmetry_space_group_name_H-M   'P 1'
_cell_length_a   5.15822101
_cell_length_b   7.18319873
_cell_length_c   11.18791870
_cell_angle_alpha   89.99998252
_cell_angle_beta   89.99997453
_cell_angle_gamma   107.13564296
_symmetry_Int_Tables_number   1
_chemical_formula_structural   NiBiPO5
_chemical_formula_sum   'Ni4 Bi4 P4 O20'
_cell_volume   396.13915846
_cell_formula_units_Z   4
loop_
 _symmetry_equiv_pos_site_id
 _symmetry_equiv_pos_as_xyz
  1  'x, y, z'
loop_
 _atom_site_type_symbol
 _atom_site_label
 _atom_site_symmetry_multiplicity
 _atom_site_fract_x
 _atom_site_fract_y
 _atom_site_fract_z
 _atom_site_occupancy
  Ni  Ni0  1  0.86940509  0.31560409  0.42170274  1
  Ni  Ni1  1  0.63059491  0.18439591  0.92170274  1
  Ni  Ni2  1  0.13059755  0.68439419  0.57829710  1
  Ni  Ni3  1  0.36940545  0.81560581  0.07829710  1
  Bi  Bi4  1  0.11019822  0.19235839  0.10176728  1
  Bi  Bi5  1  0.38980078  0.30764161  0.60176728  1
  Bi  Bi6  1  0.88979870  0.80764118  0.89823261  1
  Bi  Bi7  1  0.61020130  0.69235982  0.39823261  1
  P  P8  1  0.28210812  0.47669989  0.84775430  1
  P  P9  1  0.78211225  0.97669867  0.65224601  1
  P  P10  1  0.71788875  0.52330133  0.15224601  1
  P  P11  1  0.21789088  0.02330011  0.34775430  1
  O  O12  1  0.24242762  0.48274764  0.47461915  1
  O  O13  1  0.25757238  0.01725236  0.97461915  1
  O  O14  1  0.75757509  0.51725207  0.52538006  1
  O  O15  1  0.74242491  0.98274893  0.02538006  1
  O  O16  1  0.19044596  0.51335734  0.72105616  1
  O  O17  1  0.30955304  0.98664266  0.22105616  1
  O  O18  1  0.80954914  0.48663913  0.27894287  1
  O  O19  1  0.69045086  0.01336087  0.77894387  1
  O  O20  1  0.48577970  0.61499740  0.17228412  1
  O  O21  1  0.98577975  0.11499550  0.32771714  1
  O  O22  1  0.51421925  0.38500450  0.82771714  1
  O  O23  1  0.01421930  0.88500260  0.67228412  1
  O  O24  1  0.45387256  0.16062013  0.41783280  1
  O  O25  1  0.95386826  0.66061883  0.08216914  1
  O  O26  1  0.54613074  0.83938017  0.58216814  1
  O  O27  1  0.04612744  0.33937987  0.91783280  1
  O  O28  1  0.39122807  0.66845751  0.91750762  1
  O  O29  1  0.10877293  0.83154249  0.41750762  1
  O  O30  1  0.89123602  0.16845808  0.58249089  1
  O  O31  1  0.60876398  0.33154192  0.08249089  1
