# generated using pymatgen
data_SbCl3F2
_symmetry_space_group_name_H-M   'P 1'
_cell_length_a   9.91242591
_cell_length_b   9.91240454
_cell_length_c   9.91292421
_cell_angle_alpha   97.39937810
_cell_angle_beta   97.39910821
_cell_angle_gamma   137.93869006
_symmetry_Int_Tables_number   1
_chemical_formula_structural   SbCl3F2
_chemical_formula_sum   'Sb4 Cl12 F8'
_cell_volume   609.04775148
_cell_formula_units_Z   4
loop_
 _symmetry_equiv_pos_site_id
 _symmetry_equiv_pos_as_xyz
  1  'x, y, z'
loop_
 _atom_site_type_symbol
 _atom_site_label
 _atom_site_symmetry_multiplicity
 _atom_site_fract_x
 _atom_site_fract_y
 _atom_site_fract_z
 _atom_site_occupancy
  Sb  Sb0  1  0.96680405  0.79427396  0.73460017  1
  Sb  Sb1  1  0.79430385  0.05971038  0.82746150  1
  Sb  Sb2  1  0.05968556  0.23221484  0.26542393  1
  Sb  Sb3  1  0.23224374  0.96683500  0.17253835  1
  Cl  Cl4  1  0.67307521  0.96911850  0.58139415  1
  Cl  Cl5  1  0.96910910  0.38772331  0.29603511  1
  Cl  Cl6  1  0.88788990  0.65365369  0.15490396  1
  Cl  Cl7  1  0.38771945  0.09168129  0.41859823  1
  Cl  Cl8  1  0.09168839  0.67307499  0.70396805  1
  Cl  Cl9  1  0.82450684  0.72719244  0.49863120  1
  Cl  Cl10  1  0.72719138  0.22855114  0.90268356  1
  Cl  Cl11  1  0.32587756  0.82451680  0.09732171  1
  Cl  Cl12  1  0.49876168  0.73299643  0.84509891  1
  Cl  Cl13  1  0.73299522  0.88789867  0.23423408  1
  Cl  Cl14  1  0.65367051  0.49876666  0.76576440  1
  Cl  Cl15  1  0.22854620  0.32586298  0.50135211  1
  F  F16  1  0.14043156  0.09849658  0.19722317  1
  F  F17  1  0.46777430  0.23209530  0.15263337  1
  F  F18  1  0.31516994  0.46779960  0.23567966  1
  F  F19  1  0.23211941  0.07948627  0.76431817  1
  F  F20  1  0.09849796  0.90126574  0.95805509  1
  F  F21  1  0.94321192  0.14044137  0.04193974  1
  F  F22  1  0.07945756  0.31513829  0.84736785  1
  F  F23  1  0.90126968  0.94320776  0.80277352  1
