# generated using pymatgen
data_Sr4CN4
_symmetry_space_group_name_H-M   'P 1'
_cell_length_a   3.82074641
_cell_length_b   12.29755643
_cell_length_c   14.41649143
_cell_angle_alpha   90.00000000
_cell_angle_beta   90.00000000
_cell_angle_gamma   90.00000000
_symmetry_Int_Tables_number   1
_chemical_formula_structural   Sr4CN4
_chemical_formula_sum   'Sr16 C4 N16'
_cell_volume   677.37102574
_cell_formula_units_Z   4
loop_
 _symmetry_equiv_pos_site_id
 _symmetry_equiv_pos_as_xyz
  1  'x, y, z'
loop_
 _atom_site_type_symbol
 _atom_site_label
 _atom_site_symmetry_multiplicity
 _atom_site_fract_x
 _atom_site_fract_y
 _atom_site_fract_z
 _atom_site_occupancy
  Sr  Sr0  1  0.25000000  0.11276254  0.40353470  1
  Sr  Sr1  1  0.25000000  0.40642965  0.68562761  1
  Sr  Sr2  1  0.75000000  0.66018970  0.73930972  1
  Sr  Sr3  1  0.25000000  0.61276254  0.09646530  1
  Sr  Sr4  1  0.25000000  0.90642965  0.81437239  1
  Sr  Sr5  1  0.75000000  0.16018970  0.76069028  1
  Sr  Sr6  1  0.75000000  0.59357035  0.31437239  1
  Sr  Sr7  1  0.25000000  0.62501643  0.53219087  1
  Sr  Sr8  1  0.75000000  0.87498357  0.03219087  1
  Sr  Sr9  1  0.75000000  0.38723746  0.90353470  1
  Sr  Sr10  1  0.25000000  0.33981030  0.26069028  1
  Sr  Sr11  1  0.25000000  0.83981030  0.23930972  1
  Sr  Sr12  1  0.75000000  0.09357035  0.18562761  1
  Sr  Sr13  1  0.75000000  0.37498357  0.46780913  1
  Sr  Sr14  1  0.75000000  0.88723746  0.59646530  1
  Sr  Sr15  1  0.25000000  0.12501643  0.96780913  1
  C  C16  1  0.25000000  0.14932201  0.59698456  1
  C  C17  1  0.25000000  0.64932201  0.90301544  1
  C  C18  1  0.75000000  0.35067799  0.09698456  1
  C  C19  1  0.75000000  0.85067799  0.40301544  1
  N  N20  1  0.25000000  0.05550383  0.62865871  1
  N  N21  1  0.75000000  0.51373710  0.62065457  1
  N  N22  1  0.75000000  0.01373710  0.87934543  1
  N  N23  1  0.75000000  0.44449617  0.12865871  1
  N  N24  1  0.25000000  0.98626290  0.12065457  1
  N  N25  1  0.25000000  0.28023228  0.83070950  1
  N  N26  1  0.25000000  0.55550383  0.87134129  1
  N  N27  1  0.75000000  0.75854496  0.43711104  1
  N  N28  1  0.25000000  0.74145504  0.93711104  1
  N  N29  1  0.25000000  0.24145504  0.56288896  1
  N  N30  1  0.75000000  0.71976772  0.16929050  1
  N  N31  1  0.25000000  0.48626290  0.37934543  1
  N  N32  1  0.75000000  0.25854496  0.06288896  1
  N  N33  1  0.75000000  0.21976772  0.33070950  1
  N  N34  1  0.75000000  0.94449617  0.37134129  1
  N  N35  1  0.25000000  0.78023228  0.66929050  1
