# generated using pymatgen
data_TaTeCl9
_symmetry_space_group_name_H-M   'P 1'
_cell_length_a   6.50160226
_cell_length_b   9.38892576
_cell_length_c   11.44818630
_cell_angle_alpha   105.39862399
_cell_angle_beta   105.74827965
_cell_angle_gamma   91.77200176
_symmetry_Int_Tables_number   1
_chemical_formula_structural   TaTeCl9
_chemical_formula_sum   'Ta2 Te2 Cl18'
_cell_volume   644.44874937
_cell_formula_units_Z   2
loop_
 _symmetry_equiv_pos_site_id
 _symmetry_equiv_pos_as_xyz
  1  'x, y, z'
loop_
 _atom_site_type_symbol
 _atom_site_label
 _atom_site_symmetry_multiplicity
 _atom_site_fract_x
 _atom_site_fract_y
 _atom_site_fract_z
 _atom_site_occupancy
  Ta  Ta0  1  0.86837276  0.73969360  0.29364653  1
  Ta  Ta1  1  0.13162724  0.26030640  0.70635347  1
  Te  Te2  1  0.69885005  0.66576601  0.83412024  1
  Te  Te3  1  0.30114995  0.33423399  0.16587976  1
  Cl  Cl4  1  0.12701443  0.75101974  0.47849201  1
  Cl  Cl5  1  0.87298557  0.24898026  0.52150799  1
  Cl  Cl6  1  0.73799176  0.49198040  0.29426539  1
  Cl  Cl7  1  0.26200824  0.50801960  0.70573461  1
  Cl  Cl8  1  0.00578832  0.95753265  0.27539764  1
  Cl  Cl9  1  0.99421168  0.04246735  0.72460236  1
  Cl  Cl10  1  0.09834909  0.60923126  0.17166991  1
  Cl  Cl11  1  0.90165091  0.39076874  0.82833009  1
  Cl  Cl12  1  0.59982696  0.69603640  0.08999400  1
  Cl  Cl13  1  0.40017304  0.30396360  0.91000600  1
  Cl  Cl14  1  0.62229455  0.84448156  0.39027825  1
  Cl  Cl15  1  0.37770545  0.15551844  0.60972175  1
  Cl  Cl16  1  0.03703830  0.79763050  0.93364880  1
  Cl  Cl17  1  0.96296170  0.20236950  0.06635120  1
  Cl  Cl18  1  0.72130418  0.63459250  0.63105833  1
  Cl  Cl19  1  0.27869582  0.36540750  0.36894167  1
  Cl  Cl20  1  0.52403464  0.87951456  0.83781753  1
  Cl  Cl21  1  0.47596536  0.12048544  0.16218247  1
