# generated using pymatgen
data_Sb2BrF15
_symmetry_space_group_name_H-M   'P 1'
_cell_length_a   4.99039122
_cell_length_b   13.92894731
_cell_length_c   13.98177167
_cell_angle_alpha   90.00000000
_cell_angle_beta   90.00000000
_cell_angle_gamma   88.20277464
_symmetry_Int_Tables_number   1
_chemical_formula_structural   Sb2BrF15
_chemical_formula_sum   'Sb8 Br4 F60'
_cell_volume   971.40739132
_cell_formula_units_Z   4
loop_
 _symmetry_equiv_pos_site_id
 _symmetry_equiv_pos_as_xyz
  1  'x, y, z'
loop_
 _atom_site_type_symbol
 _atom_site_label
 _atom_site_symmetry_multiplicity
 _atom_site_fract_x
 _atom_site_fract_y
 _atom_site_fract_z
 _atom_site_occupancy
  Sb  Sb0  1  0.10787395  0.16616285  0.64377009  1
  Sb  Sb1  1  0.38849377  0.32714655  0.86234830  1
  Sb  Sb2  1  0.89212605  0.83383715  0.35622991  1
  Sb  Sb3  1  0.10787395  0.66616285  0.85622991  1
  Sb  Sb4  1  0.89212605  0.33383715  0.14377009  1
  Sb  Sb5  1  0.61150623  0.17285345  0.36234830  1
  Sb  Sb6  1  0.38849377  0.82714655  0.63765170  1
  Sb  Sb7  1  0.61150623  0.67285345  0.13765170  1
  Br  Br8  1  0.74308497  0.49515997  0.65288870  1
  Br  Br9  1  0.25691503  0.50484003  0.34711130  1
  Br  Br10  1  0.25691503  0.00484003  0.15288870  1
  Br  Br11  1  0.74308497  0.99515997  0.84711130  1
  F  F12  1  0.58259852  0.41038052  0.16275860  1
  F  F13  1  0.53849481  0.90948248  0.54993942  1
  F  F14  1  0.21897875  0.24434189  0.94608108  1
  F  F15  1  0.07676423  0.90200363  0.65819560  1
  F  F16  1  0.80456506  0.74699737  0.84545133  1
  F  F17  1  0.46150519  0.59051752  0.04993942  1
  F  F18  1  0.38640957  0.58036718  0.43131603  1
  F  F19  1  0.53579980  0.89697182  0.74561155  1
  F  F20  1  0.30909934  0.75452303  0.14611907  1
  F  F21  1  0.03876154  0.91227302  0.44815436  1
  F  F22  1  0.04627836  0.40834200  0.24739067  1
  F  F23  1  0.07676423  0.40200363  0.84180440  1
  F  F24  1  0.46420020  0.60302818  0.24561155  1
  F  F25  1  0.44085516  0.56561580  0.63986933  1
  F  F26  1  0.44085516  0.06561580  0.86013067  1
  F  F27  1  0.71843536  0.24758544  0.06499748  1
  F  F28  1  0.55914484  0.43438420  0.36013067  1
  F  F29  1  0.61359043  0.91963282  0.93131603  1
  F  F30  1  0.53579980  0.39697182  0.75438845  1
  F  F31  1  0.87661753  0.06960424  0.93165042  1
  F  F32  1  0.87661753  0.56960424  0.56834958  1
  F  F33  1  0.69090066  0.74547697  0.64611907  1
  F  F34  1  0.78102125  0.25565811  0.44608108  1
  F  F35  1  0.24572403  0.24346487  0.75569268  1
  F  F36  1  0.78102125  0.75565811  0.05391892  1
  F  F37  1  0.04627619  0.92517660  0.85695490  1
  F  F38  1  0.92323577  0.59799637  0.15819560  1
  F  F39  1  0.21897875  0.74434189  0.55391892  1
  F  F40  1  0.96123846  0.08772698  0.55184564  1
  F  F41  1  0.95372164  0.09165800  0.74739067  1
  F  F42  1  0.92323577  0.09799637  0.34180440  1
  F  F43  1  0.19543494  0.75300263  0.34545133  1
  F  F44  1  0.12338247  0.93039576  0.06834958  1
  F  F45  1  0.75427597  0.75653513  0.24430732  1
  F  F46  1  0.58259852  0.91038052  0.33724140  1
  F  F47  1  0.19543494  0.25300263  0.15454867  1
  F  F48  1  0.55914484  0.93438420  0.13986933  1
  F  F49  1  0.95372381  0.07482340  0.14304510  1
  F  F50  1  0.04627836  0.90834200  0.25260933  1
  F  F51  1  0.96123846  0.58772698  0.94815436  1
  F  F52  1  0.04627619  0.42517660  0.64304510  1
  F  F53  1  0.53849481  0.40948248  0.95006058  1
  F  F54  1  0.75427597  0.25653513  0.25569268  1
  F  F55  1  0.95372164  0.59165800  0.75260933  1
  F  F56  1  0.46420020  0.10302818  0.25438845  1
  F  F57  1  0.30909934  0.25452303  0.35388093  1
  F  F58  1  0.71843536  0.74758544  0.43500252  1
  F  F59  1  0.69090066  0.24547697  0.85388093  1
  F  F60  1  0.24572403  0.74346487  0.74430732  1
  F  F61  1  0.03876154  0.41227302  0.05184564  1
  F  F62  1  0.38640957  0.08036718  0.06868397  1
  F  F63  1  0.95372381  0.57482340  0.35695490  1
  F  F64  1  0.41740148  0.08961948  0.66275860  1
  F  F65  1  0.41740148  0.58961948  0.83724140  1
  F  F66  1  0.61359043  0.41963282  0.56868397  1
  F  F67  1  0.46150519  0.09051752  0.45006058  1
  F  F68  1  0.12338247  0.43039576  0.43165042  1
  F  F69  1  0.28156464  0.75241456  0.93500252  1
  F  F70  1  0.80456506  0.24699737  0.65454867  1
  F  F71  1  0.28156464  0.25241456  0.56499748  1
