# generated using pymatgen
data_Ca9B2(CCl2)4
_symmetry_space_group_name_H-M   'P 1'
_cell_length_a   8.88644773
_cell_length_b   8.88644773
_cell_length_c   12.11361540
_cell_angle_alpha   90.00000000
_cell_angle_beta   90.00000000
_cell_angle_gamma   98.29009671
_symmetry_Int_Tables_number   1
_chemical_formula_structural   Ca9B2(CCl2)4
_chemical_formula_sum   'Ca18 B4 C8 Cl16'
_cell_volume   946.60375808
_cell_formula_units_Z   2
loop_
 _symmetry_equiv_pos_site_id
 _symmetry_equiv_pos_as_xyz
  1  'x, y, z'
loop_
 _atom_site_type_symbol
 _atom_site_label
 _atom_site_symmetry_multiplicity
 _atom_site_fract_x
 _atom_site_fract_y
 _atom_site_fract_z
 _atom_site_occupancy
  Ca  Ca0  1  0.87965185  0.12034815  0.75000000  1
  Ca  Ca1  1  0.19377416  0.43448991  0.75000000  1
  Ca  Ca2  1  0.66833782  0.97077508  0.44933372  1
  Ca  Ca3  1  0.43448991  0.19377416  0.25000000  1
  Ca  Ca4  1  0.34178807  0.65821193  0.40843077  1
  Ca  Ca5  1  0.33166218  0.02922492  0.55066628  1
  Ca  Ca6  1  0.02922492  0.33166218  0.05066628  1
  Ca  Ca7  1  0.34178807  0.65821193  0.09156923  1
  Ca  Ca8  1  0.80622584  0.56551009  0.25000000  1
  Ca  Ca9  1  0.65821193  0.34178807  0.90843077  1
  Ca  Ca10  1  0.65821193  0.34178807  0.59156923  1
  Ca  Ca11  1  0.12034815  0.87965185  0.25000000  1
  Ca  Ca12  1  0.33166218  0.02922492  0.94933372  1
  Ca  Ca13  1  0.97077508  0.66833782  0.94933372  1
  Ca  Ca14  1  0.02922492  0.33166218  0.44933372  1
  Ca  Ca15  1  0.97077508  0.66833782  0.55066628  1
  Ca  Ca16  1  0.56551009  0.80622584  0.75000000  1
  Ca  Ca17  1  0.66833782  0.97077508  0.05066628  1
  B  B18  1  0.91473878  0.41821473  0.75000000  1
  B  B19  1  0.08526122  0.58178527  0.25000000  1
  B  B20  1  0.41821473  0.91473878  0.25000000  1
  B  B21  1  0.58178527  0.08526122  0.75000000  1
  C  C22  1  0.06340406  0.59695701  0.36780951  1
  C  C23  1  0.93659594  0.40304299  0.63219049  1
  C  C24  1  0.06340406  0.59695701  0.13219049  1
  C  C25  1  0.59695701  0.06340406  0.63219049  1
  C  C26  1  0.40304299  0.93659594  0.13219049  1
  C  C27  1  0.93659594  0.40304299  0.86780951  1
  C  C28  1  0.40304299  0.93659594  0.36780951  1
  C  C29  1  0.59695701  0.06340406  0.86780951  1
  Cl  Cl30  1  0.87655190  0.80112630  0.75000000  1
  Cl  Cl31  1  0.48788303  0.51211697  0.25000000  1
  Cl  Cl32  1  0.80112630  0.87655190  0.25000000  1
  Cl  Cl33  1  0.27633590  0.72366410  0.87908128  1
  Cl  Cl34  1  0.72366410  0.27633590  0.37908128  1
  Cl  Cl35  1  0.19887370  0.12344810  0.75000000  1
  Cl  Cl36  1  0.34030622  0.34030622  0.50000000  1
  Cl  Cl37  1  0.65969378  0.65969378  0.00000000  1
  Cl  Cl38  1  0.34030622  0.34030622  0.00000000  1
  Cl  Cl39  1  0.27633590  0.72366410  0.62091872  1
  Cl  Cl40  1  -0.00000000  -0.00000000  0.50000000  1
  Cl  Cl41  1  0.65969378  0.65969378  0.50000000  1
  Cl  Cl42  1  0.72366410  0.27633590  0.12091872  1
  Cl  Cl43  1  0.12344810  0.19887370  0.25000000  1
  Cl  Cl44  1  0.51211697  0.48788303  0.75000000  1
  Cl  Cl45  1  -0.00000000  -0.00000000  0.00000000  1
