# generated using pymatgen
data_MnP4O11
_symmetry_space_group_name_H-M   'P 1'
_cell_length_a   12.44714815
_cell_length_b   8.24185704
_cell_length_c   11.35642329
_cell_angle_alpha   48.78623817
_cell_angle_beta   90.00000000
_cell_angle_gamma   90.00000000
_symmetry_Int_Tables_number   1
_chemical_formula_structural   MnP4O11
_chemical_formula_sum   'Mn4 P16 O44'
_cell_volume   876.40038364
_cell_formula_units_Z   4
loop_
 _symmetry_equiv_pos_site_id
 _symmetry_equiv_pos_as_xyz
  1  'x, y, z'
loop_
 _atom_site_type_symbol
 _atom_site_label
 _atom_site_symmetry_multiplicity
 _atom_site_fract_x
 _atom_site_fract_y
 _atom_site_fract_z
 _atom_site_occupancy
  Mn  Mn0  1  0.53000404  0.99195820  0.23668031  1
  Mn  Mn1  1  0.96999596  0.99195820  0.73668031  1
  Mn  Mn2  1  0.46999596  0.00804180  0.76331969  1
  Mn  Mn3  1  0.03000404  0.00804180  0.26331969  1
  P  P4  1  0.84826624  0.64936788  0.09944221  1
  P  P5  1  0.33303743  0.64949941  0.73281301  1
  P  P6  1  0.83303743  0.35050059  0.76718699  1
  P  P7  1  0.71233815  0.00105074  0.59927029  1
  P  P8  1  0.50375770  0.34425903  0.84054697  1
  P  P9  1  0.99624230  0.34425903  0.34054697  1
  P  P10  1  0.34826624  0.35063212  0.40055779  1
  P  P11  1  0.00375770  0.65574097  0.65945303  1
  P  P12  1  0.28766185  0.99894926  0.40072971  1
  P  P13  1  0.78766185  0.00105074  0.09927029  1
  P  P14  1  0.15173376  0.35063212  0.90055779  1
  P  P15  1  0.65173376  0.64936788  0.59944221  1
  P  P16  1  0.66696257  0.35050059  0.26718699  1
  P  P17  1  0.16696257  0.64949941  0.23281301  1
  P  P18  1  0.21233815  0.99894926  0.90072971  1
  P  P19  1  0.49624230  0.65574097  0.15945303  1
  O  O20  1  0.75624009  0.48743913  0.13643354  1
  O  O21  1  0.03214308  0.79008263  0.69740984  1
  O  O22  1  0.51298264  0.73929205  -0.00019049  1
  O  O23  1  0.69078421  0.96401578  0.18683227  1
  O  O24  1  0.80921579  0.96401578  0.68683227  1
  O  O25  1  0.59343986  0.53592747  0.75906228  1
  O  O26  1  0.71702219  0.83425396  0.56863903  1
  O  O27  1  0.91731541  0.70855706  0.97324383  1
  O  O28  1  0.10347838  0.99786862  0.85140923  1
  O  O29  1  0.24375991  0.51256087  0.86356646  1
  O  O30  1  0.01298264  0.26070795  0.50019049  1
  O  O31  1  0.10402790  0.77963524  0.25124008  1
  O  O32  1  0.78297781  0.83425396  0.06863903  1
  O  O33  1  0.90656014  0.53592747  0.25906228  1
  O  O34  1  0.58268459  0.70855706  0.47324383  1
  O  O35  1  0.73340161  0.22437890  0.42119814  1
  O  O36  1  0.76659839  0.22437890  0.92119814  1
  O  O37  1  0.39597210  0.77963524  0.75124008  1
  O  O38  1  0.60347838  0.00213138  0.64859077  1
  O  O39  1  0.41731541  0.29144294  0.52675617  1
  O  O40  1  0.53214308  0.20991737  0.80259016  1
  O  O41  1  0.39851344  0.48474502  0.73599743  1
  O  O42  1  0.89652162  0.00213138  0.14859077  1
  O  O43  1  0.96785692  0.20991737  0.30259016  1
  O  O44  1  0.28297781  0.16574604  0.43136097  1
  O  O45  1  0.89851344  0.51525498  0.76400257  1
  O  O46  1  0.48701736  0.26070795  0.00019049  1
  O  O47  1  0.98701736  0.73929205  0.49980951  1
  O  O48  1  0.74375991  0.48743913  0.63643354  1
  O  O49  1  0.60148656  0.51525498  0.26400257  1
  O  O50  1  0.60402790  0.22036476  0.24875992  1
  O  O51  1  0.30921579  0.03598422  0.81316773  1
  O  O52  1  0.89597210  0.22036476  0.74875992  1
  O  O53  1  0.21702219  0.16574604  0.93136097  1
  O  O54  1  0.39652162  0.99786862  0.35140923  1
  O  O55  1  0.10148656  0.48474502  0.23599743  1
  O  O56  1  0.40656014  0.46407253  0.24093772  1
  O  O57  1  0.46785692  0.79008263  0.19740984  1
  O  O58  1  0.09343986  0.46407253  0.74093772  1
  O  O59  1  0.08268459  0.29144294  0.02675617  1
  O  O60  1  0.19078421  0.03598422  0.31316773  1
  O  O61  1  0.23340161  0.77562110  0.07880186  1
  O  O62  1  0.26659839  0.77562110  0.57880186  1
  O  O63  1  0.25624009  0.51256087  0.36356646  1
