# generated using pymatgen
data_KSbSe2
_symmetry_space_group_name_H-M   'P 1'
_cell_length_a   6.50380692
_cell_length_b   6.50898764
_cell_length_c   12.50765620
_cell_angle_alpha   99.11823692
_cell_angle_beta   99.10652346
_cell_angle_gamma   103.15798158
_symmetry_Int_Tables_number   1
_chemical_formula_structural   KSbSe2
_chemical_formula_sum   'K4 Sb4 Se8'
_cell_volume   498.56382346
_cell_formula_units_Z   4
loop_
 _symmetry_equiv_pos_site_id
 _symmetry_equiv_pos_as_xyz
  1  'x, y, z'
loop_
 _atom_site_type_symbol
 _atom_site_label
 _atom_site_symmetry_multiplicity
 _atom_site_fract_x
 _atom_site_fract_y
 _atom_site_fract_z
 _atom_site_occupancy
  K  K0  1  0.83250655  0.88407223  0.72713016  1
  K  K1  1  0.67702609  0.34667402  0.90615394  1
  K  K2  1  0.18819080  0.29352606  0.16264051  1
  K  K3  1  0.31708634  0.93552040  0.46983601  1
  Sb  Sb4  1  0.17507771  0.41924947  0.66818567  1
  Sb  Sb5  1  0.76098183  0.83689535  0.22945043  1
  Sb  Sb6  1  0.74641151  0.39004918  0.40427364  1
  Sb  Sb7  1  0.33622743  0.81374400  0.96552252  1
  Se  Se8  1  0.19404054  0.40182987  0.90916135  1
  Se  Se9  1  0.76221517  0.36136077  0.64171671  1
  Se  Se10  1  0.72579192  0.42981925  0.18055761  1
  Se  Se11  1  0.15143321  0.40067709  0.43772895  1
  Se  Se12  1  0.31591689  0.83128956  0.72365775  1
  Se  Se13  1  0.35633013  0.82887255  0.19493482  1
  Se  Se14  1  0.77921161  0.79708753  0.45240838  1
  Se  Se15  1  0.74855326  0.86933366  0.99164256  1
