# generated using pymatgen
data_Rb2ZrS4
_symmetry_space_group_name_H-M   'P 1'
_cell_length_a   6.79563800
_cell_length_b   9.83448163
_cell_length_c   23.99174662
_cell_angle_alpha   90.00000000
_cell_angle_beta   90.00000000
_cell_angle_gamma   90.00000000
_symmetry_Int_Tables_number   1
_chemical_formula_structural   Rb2ZrS4
_chemical_formula_sum   'Rb16 Zr8 S32'
_cell_volume   1603.40626340
_cell_formula_units_Z   8
loop_
 _symmetry_equiv_pos_site_id
 _symmetry_equiv_pos_as_xyz
  1  'x, y, z'
loop_
 _atom_site_type_symbol
 _atom_site_label
 _atom_site_symmetry_multiplicity
 _atom_site_fract_x
 _atom_site_fract_y
 _atom_site_fract_z
 _atom_site_occupancy
  Rb  Rb0  1  0.44922108  0.56834585  0.80026467  1
  Rb  Rb1  1  0.30562890  0.35879919  0.03410313  1
  Rb  Rb2  1  0.05077892  0.06834585  0.19973533  1
  Rb  Rb3  1  0.80562890  0.64120081  0.46589687  1
  Rb  Rb4  1  0.94922108  0.43165415  0.69973533  1
  Rb  Rb5  1  0.19437110  0.85879919  0.96589687  1
  Rb  Rb6  1  0.55077892  0.43165415  0.19973533  1
  Rb  Rb7  1  0.19437110  0.35879919  0.53410313  1
  Rb  Rb8  1  0.44922108  0.06834585  0.69973533  1
  Rb  Rb9  1  0.05077892  0.56834585  0.30026467  1
  Rb  Rb10  1  0.69437110  0.64120081  0.96589687  1
  Rb  Rb11  1  0.30562890  0.85879919  0.46589687  1
  Rb  Rb12  1  0.80562890  0.14120081  0.03410313  1
  Rb  Rb13  1  0.94922108  0.93165415  0.80026467  1
  Rb  Rb14  1  0.55077892  0.93165415  0.30026467  1
  Rb  Rb15  1  0.69437110  0.14120081  0.53410313  1
  Zr  Zr16  1  0.03867932  0.67278966  0.13074663  1
  Zr  Zr17  1  0.53867932  0.32721034  0.36925337  1
  Zr  Zr18  1  0.96132068  0.32721034  0.86925337  1
  Zr  Zr19  1  0.96132068  0.82721034  0.63074663  1
  Zr  Zr20  1  0.46132068  0.67278966  0.63074663  1
  Zr  Zr21  1  0.03867932  0.17278966  0.36925337  1
  Zr  Zr22  1  0.53867932  0.82721034  0.13074663  1
  Zr  Zr23  1  0.46132068  0.17278966  0.86925337  1
  S  S24  1  0.71983714  0.23601001  0.79828660  1
  S  S25  1  0.05466606  0.41763213  0.15883118  1
  S  S26  1  0.84911100  0.82773842  0.06736591  1
  S  S27  1  0.37488421  0.54282595  0.41042314  1
  S  S28  1  0.28016286  0.76398999  0.20171340  1
  S  S29  1  0.55466606  0.08236787  0.15883118  1
  S  S30  1  0.15088900  0.17226158  0.93263409  1
  S  S31  1  0.78016286  0.73601001  0.20171340  1
  S  S32  1  0.62511579  0.95717405  0.91042314  1
  S  S33  1  0.37488421  0.04282595  0.08957686  1
  S  S34  1  0.44533394  0.41763213  0.65883118  1
  S  S35  1  0.34911100  0.67226158  0.06736591  1
  S  S36  1  0.62511579  0.45717405  0.58957686  1
  S  S37  1  0.21983714  0.76398999  0.70171340  1
  S  S38  1  0.94533394  0.08236787  0.65883118  1
  S  S39  1  0.12511579  0.54282595  0.91042314  1
  S  S40  1  0.55466606  0.58236787  0.34116882  1
  S  S41  1  0.21983714  0.26398999  0.79828660  1
  S  S42  1  0.84911100  0.32773842  0.43263409  1
  S  S43  1  0.94533394  0.58236787  0.84116882  1
  S  S44  1  0.87488421  0.95717405  0.41042314  1
  S  S45  1  0.34911100  0.17226158  0.43263409  1
  S  S46  1  0.87488421  0.45717405  0.08957686  1
  S  S47  1  0.78016286  0.23601001  0.29828660  1
  S  S48  1  0.15088900  0.67226158  0.56736591  1
  S  S49  1  0.65088900  0.32773842  0.93263409  1
  S  S50  1  0.71983714  0.73601001  0.70171340  1
  S  S51  1  0.12511579  0.04282595  0.58957686  1
  S  S52  1  0.44533394  0.91763213  0.84116882  1
  S  S53  1  0.05466606  0.91763213  0.34116882  1
  S  S54  1  0.65088900  0.82773842  0.56736591  1
  S  S55  1  0.28016286  0.26398999  0.29828660  1
