# generated using pymatgen
data_AlTlCl4
_symmetry_space_group_name_H-M   'P 1'
_cell_length_a   7.03113808
_cell_length_b   9.30740378
_cell_length_c   10.80467974
_cell_angle_alpha   90.00000000
_cell_angle_beta   90.00000000
_cell_angle_gamma   90.00000000
_symmetry_Int_Tables_number   1
_chemical_formula_structural   AlTlCl4
_chemical_formula_sum   'Al4 Tl4 Cl16'
_cell_volume   707.07597422
_cell_formula_units_Z   4
loop_
 _symmetry_equiv_pos_site_id
 _symmetry_equiv_pos_as_xyz
  1  'x, y, z'
loop_
 _atom_site_type_symbol
 _atom_site_label
 _atom_site_symmetry_multiplicity
 _atom_site_fract_x
 _atom_site_fract_y
 _atom_site_fract_z
 _atom_site_occupancy
  Al  Al0  1  0.25000000  0.31392192  0.43533542  1
  Al  Al1  1  0.25000000  0.18607808  0.93533542  1
  Al  Al2  1  0.75000000  0.68607808  0.56466458  1
  Al  Al3  1  0.75000000  0.81392192  0.06466458  1
  Tl  Tl4  1  0.75000000  0.18933143  0.68821339  1
  Tl  Tl5  1  0.25000000  0.68933143  0.81178661  1
  Tl  Tl6  1  0.25000000  0.81066857  0.31178661  1
  Tl  Tl7  1  0.75000000  0.31066857  0.18821339  1
  Cl  Cl8  1  0.49714374  0.17877562  0.42559602  1
  Cl  Cl9  1  0.25000000  0.45362732  0.27833395  1
  Cl  Cl10  1  0.50285626  0.67877562  0.07440398  1
  Cl  Cl11  1  -0.00285626  0.67877562  0.07440398  1
  Cl  Cl12  1  0.49714374  0.32122438  0.92559602  1
  Cl  Cl13  1  0.75000000  0.54637268  0.72166605  1
  Cl  Cl14  1  0.25000000  0.04637268  0.77833395  1
  Cl  Cl15  1  0.75000000  0.92691678  0.89281291  1
  Cl  Cl16  1  -0.00285626  0.82122438  0.57440398  1
  Cl  Cl17  1  0.50285626  0.82122438  0.57440398  1
  Cl  Cl18  1  0.75000000  0.95362732  0.22166605  1
  Cl  Cl19  1  0.25000000  0.07308322  0.10718709  1
  Cl  Cl20  1  0.00285626  0.17877562  0.42559602  1
  Cl  Cl21  1  0.25000000  0.42691678  0.60718709  1
  Cl  Cl22  1  0.75000000  0.57308322  0.39281291  1
  Cl  Cl23  1  0.00285626  0.32122438  0.92559602  1
