# generated using pymatgen
data_CsBa2Br5
_symmetry_space_group_name_H-M   'P 1'
_cell_length_a   8.75967270
_cell_length_b   10.06693422
_cell_length_c   14.00603533
_cell_angle_alpha   89.79499706
_cell_angle_beta   90.00000000
_cell_angle_gamma   90.00000000
_symmetry_Int_Tables_number   1
_chemical_formula_structural   CsBa2Br5
_chemical_formula_sum   'Cs4 Ba8 Br20'
_cell_volume   1235.08699202
_cell_formula_units_Z   4
loop_
 _symmetry_equiv_pos_site_id
 _symmetry_equiv_pos_as_xyz
  1  'x, y, z'
loop_
 _atom_site_type_symbol
 _atom_site_label
 _atom_site_symmetry_multiplicity
 _atom_site_fract_x
 _atom_site_fract_y
 _atom_site_fract_z
 _atom_site_occupancy
  Cs  Cs0  1  0.94278888  0.01074791  0.16638807  1
  Cs  Cs1  1  0.44278888  0.98925209  0.33361193  1
  Cs  Cs2  1  0.05721112  0.98925209  0.83361193  1
  Cs  Cs3  1  0.55721112  0.01074791  0.66638807  1
  Ba  Ba4  1  0.97094007  0.49992054  0.17657482  1
  Ba  Ba5  1  0.47094007  0.50007946  0.32342518  1
  Ba  Ba6  1  0.02905993  0.50007946  0.82342518  1
  Ba  Ba7  1  0.52905993  0.49992054  0.67657482  1
  Ba  Ba8  1  0.43091659  0.25188837  0.00769152  1
  Ba  Ba9  1  0.93091659  0.74811163  0.49230848  1
  Ba  Ba10  1  0.56908341  0.74811163  0.99230848  1
  Ba  Ba11  1  0.06908341  0.25188837  0.50769152  1
  Br  Br12  1  0.04796535  0.28578298  0.00253152  1
  Br  Br13  1  0.54796535  0.71421702  0.49746848  1
  Br  Br14  1  0.95203465  0.71421702  0.99746848  1
  Br  Br15  1  0.45203465  0.28578298  0.50253152  1
  Br  Br16  1  0.69079308  0.72598316  0.21843537  1
  Br  Br17  1  0.19079308  0.27401684  0.28156463  1
  Br  Br18  1  0.30920692  0.27401684  0.78156463  1
  Br  Br19  1  0.80920692  0.72598316  0.71843537  1
  Br  Br20  1  0.83626641  0.46039204  0.40066585  1
  Br  Br21  1  0.33626641  0.53960796  0.09933415  1
  Br  Br22  1  0.16373359  0.53960796  0.59933415  1
  Br  Br23  1  0.66373359  0.46039204  0.90066585  1
  Br  Br24  1  0.66570346  0.28815841  0.18716709  1
  Br  Br25  1  0.16570346  0.71184159  0.31283291  1
  Br  Br26  1  0.33429654  0.71184159  0.81283291  1
  Br  Br27  1  0.83429654  0.28815841  0.68716709  1
  Br  Br28  1  0.82262685  0.03729771  0.42082959  1
  Br  Br29  1  0.32262685  0.96270229  0.07917041  1
  Br  Br30  1  0.17737315  0.96270229  0.57917041  1
  Br  Br31  1  0.67737315  0.03729771  0.92082959  1
