# generated using pymatgen
data_RbMnCl3
_symmetry_space_group_name_H-M   'P 1'
_cell_length_a   7.15589593
_cell_length_b   7.15589569
_cell_length_c   17.79950594
_cell_angle_alpha   90.00000314
_cell_angle_beta   90.00000480
_cell_angle_gamma   119.99790552
_symmetry_Int_Tables_number   1
_chemical_formula_structural   RbMnCl3
_chemical_formula_sum   'Rb6 Mn6 Cl18'
_cell_volume   789.36117597
_cell_formula_units_Z   6
loop_
 _symmetry_equiv_pos_site_id
 _symmetry_equiv_pos_as_xyz
  1  'x, y, z'
loop_
 _atom_site_type_symbol
 _atom_site_label
 _atom_site_symmetry_multiplicity
 _atom_site_fract_x
 _atom_site_fract_y
 _atom_site_fract_z
 _atom_site_occupancy
  Rb  Rb0  1  0.00000012  -0.00000029  0.25000116  1
  Rb  Rb1  1  0.33333315  0.66666717  0.41548308  1
  Rb  Rb2  1  0.66666663  0.33333304  0.58451694  1
  Rb  Rb3  1  -0.00000059  0.00000026  0.74999865  1
  Rb  Rb4  1  0.66666705  0.33333320  0.91548252  1
  Rb  Rb5  1  0.33333298  0.66666634  0.08451747  1
  Mn  Mn6  1  0.33333316  0.66666859  0.66115283  1
  Mn  Mn7  1  0.66666785  0.33333429  0.16115279  1
  Mn  Mn8  1  0.33333536  0.66666669  0.83884741  1
  Mn  Mn9  1  0.00000038  -0.00000015  0.00000008  1
  Mn  Mn10  1  0.66666511  0.33333231  0.33884736  1
  Mn  Mn11  1  0.00000030  0.00000023  0.50000021  1
  Cl  Cl12  1  0.16595450  0.83404510  0.91806870  1
  Cl  Cl13  1  0.16595462  0.33190922  0.58193096  1
  Cl  Cl14  1  0.83404540  0.16595429  0.08193112  1
  Cl  Cl15  1  0.01262866  0.50631732  0.74999760  1
  Cl  Cl16  1  0.66809091  0.83404555  0.58193091  1
  Cl  Cl17  1  0.50631149  0.49368784  0.25000223  1
  Cl  Cl18  1  0.83404558  0.66809097  0.41806911  1
  Cl  Cl19  1  0.33190751  0.16595006  0.08193128  1
  Cl  Cl20  1  0.33190867  0.16595408  0.41806917  1
  Cl  Cl21  1  0.98737168  0.49368214  0.25000247  1
  Cl  Cl22  1  0.49368332  0.98737241  0.74999745  1
  Cl  Cl23  1  0.83404974  0.66809248  0.08193118  1
  Cl  Cl24  1  0.83404555  0.16595426  0.41806949  1
  Cl  Cl25  1  0.66809292  0.83404989  0.91806875  1
  Cl  Cl26  1  0.49368817  0.50631187  0.74999756  1
  Cl  Cl27  1  0.16595002  0.33190724  0.91806866  1
  Cl  Cl28  1  0.16595448  0.83404558  0.58193044  1
  Cl  Cl29  1  0.50631730  0.01262802  0.25000240  1
