# generated using pymatgen
data_NaMn3F10
_symmetry_space_group_name_H-M   'P 1'
_cell_length_a   10.17362251
_cell_length_b   8.63715231
_cell_length_c   7.48674090
_cell_angle_alpha   77.88600187
_cell_angle_beta   56.09180036
_cell_angle_gamma   46.01852189
_symmetry_Int_Tables_number   1
_chemical_formula_structural   NaMn3F10
_chemical_formula_sum   'Na2 Mn6 F20'
_cell_volume   375.10961233
_cell_formula_units_Z   2
loop_
 _symmetry_equiv_pos_site_id
 _symmetry_equiv_pos_as_xyz
  1  'x, y, z'
loop_
 _atom_site_type_symbol
 _atom_site_label
 _atom_site_symmetry_multiplicity
 _atom_site_fract_x
 _atom_site_fract_y
 _atom_site_fract_z
 _atom_site_occupancy
  Na  Na0  1  0.99112330  0.00881837  0.00893836  1
  Na  Na1  1  0.24126867  0.25877967  0.25861757  1
  Mn  Mn2  1  0.50561615  0.49426214  0.49458800  1
  Mn  Mn3  1  0.75557734  0.74431954  0.74433485  1
  Mn  Mn4  1  0.25806422  0.24252221  0.74174122  1
  Mn  Mn5  1  0.75724460  0.74203780  0.24257624  1
  Mn  Mn6  1  0.50802219  0.49277616  0.99217764  1
  Mn  Mn7  1  0.00730274  0.99198265  0.49289057  1
  F  F8  1  0.14860128  0.12335709  0.84805931  1
  F  F9  1  0.87966363  0.84827478  0.12343016  1
  F  F10  1  0.40164474  0.37043401  0.10155653  1
  F  F11  1  0.12685280  0.10113642  0.37048117  1
  F  F12  1  0.80736698  0.19888784  0.78584501  1
  F  F13  1  0.20790576  0.78601412  0.19891266  1
  F  F14  1  0.46403341  0.04200589  0.44240313  1
  F  F15  1  0.05128274  0.44260648  0.04173340  1
  F  F16  1  0.84055963  0.65673718  0.46043027  1
  F  F17  1  0.04212393  0.46056008  0.65639491  1
  F  F18  1  0.78961324  0.20794085  0.40925576  1
  F  F19  1  0.59334158  0.40923992  0.20797898  1
  F  F20  1  0.63502882  0.62856340  0.36411054  1
  F  F21  1  0.37216984  0.36416191  0.62843741  1
  F  F22  1  0.88552309  0.87810080  0.61524111  1
  F  F23  1  0.62125795  0.61515758  0.87827326  1
  F  F24  1  0.47451234  0.02826444  0.82457670  1
  F  F25  1  0.67260925  0.82462807  0.02822914  1
  F  F26  1  0.42558131  0.57744328  0.77554023  1
  F  F27  1  0.22171149  0.77538433  0.57764288  1
