# generated using pymatgen
data_Sc2Te5O13
_symmetry_space_group_name_H-M   'P 1'
_cell_length_a   6.62993057
_cell_length_b   8.58280541
_cell_length_c   10.47459385
_cell_angle_alpha   86.45748334
_cell_angle_beta   86.41821756
_cell_angle_gamma   74.07342914
_symmetry_Int_Tables_number   1
_chemical_formula_structural   Sc2Te5O13
_chemical_formula_sum   'Sc4 Te10 O26'
_cell_volume   571.42166306
_cell_formula_units_Z   2
loop_
 _symmetry_equiv_pos_site_id
 _symmetry_equiv_pos_as_xyz
  1  'x, y, z'
loop_
 _atom_site_type_symbol
 _atom_site_label
 _atom_site_symmetry_multiplicity
 _atom_site_fract_x
 _atom_site_fract_y
 _atom_site_fract_z
 _atom_site_occupancy
  Sc  Sc0  1  0.98884185  0.24443040  0.75324952  1
  Sc  Sc1  1  0.01115815  0.75556960  0.24675048  1
  Sc  Sc2  1  0.44649441  0.45605820  0.80948112  1
  Sc  Sc3  1  0.55350559  0.54394180  0.19051888  1
  Te  Te4  1  0.45632774  0.90941889  0.29857451  1
  Te  Te5  1  0.83576834  0.20207499  0.35887553  1
  Te  Te6  1  0.73474557  0.60131949  0.51907127  1
  Te  Te7  1  0.71046737  0.11984886  0.02274769  1
  Te  Te8  1  0.85811155  0.63828653  0.89994460  1
  Te  Te9  1  0.16423166  0.79792501  0.64112447  1
  Te  Te10  1  0.28953263  0.88015114  0.97725231  1
  Te  Te11  1  0.54367226  0.09058111  0.70142549  1
  Te  Te12  1  0.14188845  0.36171347  0.10005540  1
  Te  Te13  1  0.26525443  0.39868051  0.48092873  1
  O  O14  1  0.44822076  0.18757178  0.52201039  1
  O  O15  1  0.47952746  0.67678796  0.01694309  1
  O  O16  1  0.52047254  0.32321204  0.98305691  1
  O  O17  1  0.30436557  0.23203473  0.77732242  1
  O  O18  1  0.85879199  0.49814961  0.08835993  1
  O  O19  1  0.06618202  0.27220626  0.28007624  1
  O  O20  1  0.32042274  0.74456819  0.29029861  1
  O  O21  1  0.69563443  0.76796527  0.22267758  1
  O  O22  1  0.66455851  0.49232148  0.38414029  1
  O  O23  1  0.93381798  0.72779374  0.71992376  1
  O  O24  1  0.64686705  0.00913877  0.88221594  1
  O  O25  1  0.02580023  0.35468572  0.56708378  1
  O  O26  1  0.35212746  0.71708816  0.77265907  1
  O  O27  1  0.95072067  0.17145274  0.94695977  1
  O  O28  1  0.04927933  0.82854726  0.05304023  1
  O  O29  1  0.92108223  0.98863055  0.30216593  1
  O  O30  1  0.07891777  0.01136945  0.69783407  1
  O  O31  1  0.64787254  0.28291184  0.22734093  1
  O  O32  1  0.33544149  0.50767852  0.61585971  1
  O  O33  1  0.22978409  0.51672117  0.18467749  1
  O  O34  1  0.35313295  0.99086123  0.11778406  1
  O  O35  1  0.55177924  0.81242822  0.47798961  1
  O  O36  1  0.97419977  0.64531428  0.43291622  1
  O  O37  1  0.67957726  0.25543181  0.70970139  1
  O  O38  1  0.77021591  0.48327883  0.81532251  1
  O  O39  1  0.14120801  0.50185039  0.91164007  1
