# generated using pymatgen
data_S
_symmetry_space_group_name_H-M   'P 1'
_cell_length_a   7.75873527
_cell_length_b   11.65259536
_cell_length_c   21.74094906
_cell_angle_alpha   90.00000000
_cell_angle_beta   90.00000000
_cell_angle_gamma   90.00000000
_symmetry_Int_Tables_number   1
_chemical_formula_structural   S
_chemical_formula_sum   S72
_cell_volume   1965.58621662
_cell_formula_units_Z   72
loop_
 _symmetry_equiv_pos_site_id
 _symmetry_equiv_pos_as_xyz
  1  'x, y, z'
loop_
 _atom_site_type_symbol
 _atom_site_label
 _atom_site_symmetry_multiplicity
 _atom_site_fract_x
 _atom_site_fract_y
 _atom_site_fract_z
 _atom_site_occupancy
  S  S0  1  0.27874543  0.94483836  0.01446011  1
  S  S1  1  0.91401332  0.71078879  0.00681228  1
  S  S2  1  0.13788455  0.80835704  0.85685477  1
  S  S3  1  0.71740873  0.82177611  0.98444593  1
  S  S4  1  0.41401332  0.28921121  0.49318772  1
  S  S5  1  0.58256699  0.94483925  0.50957888  1
  S  S6  1  0.58598668  0.21078879  0.99318772  1
  S  S7  1  0.34753169  0.04148630  0.35822879  1
  S  S8  1  0.39528824  0.74292731  0.40637370  1
  S  S9  1  0.78259127  0.32177611  0.01555407  1
  S  S10  1  0.73870896  0.04859475  0.68539231  1
  S  S11  1  0.86211545  0.69164296  0.35685477  1
  S  S12  1  0.76129104  0.54859475  0.31460769  1
  S  S13  1  0.77874543  0.05516164  0.48553989  1
  S  S14  1  0.91743301  0.44483925  0.49042112  1
  S  S15  1  0.28360804  0.65977747  0.33340653  1
  S  S16  1  0.58817602  0.17962022  0.84307352  1
  S  S17  1  0.41194779  0.58814919  0.15978467  1
  S  S18  1  0.56802266  0.25075153  0.19403438  1
  S  S19  1  0.26718873  0.92572894  0.16548777  1
  S  S20  1  0.78360804  0.34022253  0.16659347  1
  S  S21  1  0.44712663  0.51616662  0.80728312  1
  S  S22  1  0.08805221  0.08814919  0.84021533  1
  S  S23  1  0.74591433  0.31255766  0.81651515  1
  S  S24  1  0.63788455  0.19164296  0.64314523  1
  S  S25  1  0.71639196  0.84022253  0.83340653  1
  S  S26  1  0.26129104  0.45140525  0.18539131  1
  S  S27  1  0.67938525  0.11020959  0.92302927  1
  S  S28  1  0.08256699  0.05516075  0.99042112  1
  S  S29  1  0.82061475  0.61020959  0.07697073  1
  S  S30  1  0.08598668  0.78921121  0.50681228  1
  S  S31  1  0.67908988  0.84417391  0.57916421  1
  S  S32  1  0.38506855  0.00906123  0.09376029  1
  S  S33  1  0.32091012  0.65582609  0.07916421  1
  S  S34  1  0.73281127  0.57427106  0.66548777  1
  S  S35  1  0.36211545  0.30835704  0.14314523  1
  S  S36  1  0.22125457  0.44483836  0.98553989  1
  S  S37  1  0.88506855  0.99093877  0.40623971  1
  S  S38  1  0.23281127  0.42572894  0.83451223  1
  S  S39  1  0.06802266  0.74924847  0.30596562  1
  S  S40  1  0.17938525  0.88979041  0.57697073  1
  S  S41  1  0.17908988  0.15582609  0.92083579  1
  S  S42  1  0.15246831  0.54148630  0.64177121  1
  S  S43  1  0.11493145  0.50906123  0.90623971  1
  S  S44  1  0.32061475  0.38979041  0.42302927  1
  S  S45  1  0.05287337  0.01616662  0.19271688  1
  S  S46  1  0.94712663  0.48383338  0.69271688  1
  S  S47  1  0.61493145  0.49093877  0.59376029  1
  S  S48  1  0.23870896  0.95140525  0.81460769  1
  S  S49  1  0.89528824  0.25707269  0.09362630  1
  S  S50  1  0.10471176  0.24292731  0.59362630  1
  S  S51  1  0.55287337  0.98383338  0.30728312  1
  S  S52  1  0.75408567  0.81255766  0.18348485  1
  S  S53  1  0.93197734  0.75075153  0.80596562  1
  S  S54  1  0.41743301  0.55516075  0.00957888  1
  S  S55  1  0.08817602  0.82037978  0.65692648  1
  S  S56  1  0.24591433  0.68744234  0.68348485  1
  S  S57  1  0.91182398  0.67962022  0.15692648  1
  S  S58  1  0.82091012  0.34417391  0.42083579  1
  S  S59  1  0.72125457  0.55516164  0.51446011  1
  S  S60  1  0.25408567  0.18744234  0.31651515  1
  S  S61  1  0.21740873  0.17822389  0.51555407  1
  S  S62  1  0.28259127  0.67822389  0.48444593  1
  S  S63  1  0.43197734  0.24924847  0.69403438  1
  S  S64  1  0.91194779  0.41185081  0.34021533  1
  S  S65  1  0.76718873  0.07427106  0.33451223  1
  S  S66  1  0.65246831  0.45851370  0.85822879  1
  S  S67  1  0.58805221  0.91185081  0.65978467  1
  S  S68  1  0.41182398  0.32037978  0.34307352  1
  S  S69  1  0.84753169  0.95851370  0.14177121  1
  S  S70  1  0.21639196  0.15977747  0.66659347  1
  S  S71  1  0.60471176  0.75707269  0.90637370  1
