# generated using pymatgen
data_Cs2MoS4
_symmetry_space_group_name_H-M   'P 1'
_cell_length_a   7.30251068
_cell_length_b   10.19212873
_cell_length_c   12.93399050
_cell_angle_alpha   90.00000000
_cell_angle_beta   90.00000000
_cell_angle_gamma   90.00000000
_symmetry_Int_Tables_number   1
_chemical_formula_structural   Cs2MoS4
_chemical_formula_sum   'Cs8 Mo4 S16'
_cell_volume   962.65271216
_cell_formula_units_Z   4
loop_
 _symmetry_equiv_pos_site_id
 _symmetry_equiv_pos_as_xyz
  1  'x, y, z'
loop_
 _atom_site_type_symbol
 _atom_site_label
 _atom_site_symmetry_multiplicity
 _atom_site_fract_x
 _atom_site_fract_y
 _atom_site_fract_z
 _atom_site_occupancy
  Cs  Cs0  1  0.75000000  0.84444545  0.60153037  1
  Cs  Cs1  1  0.25000000  0.65555455  0.10153037  1
  Cs  Cs2  1  0.25000000  0.46545145  0.66945830  1
  Cs  Cs3  1  0.75000000  0.34444545  0.89846963  1
  Cs  Cs4  1  0.75000000  0.03454855  0.16945830  1
  Cs  Cs5  1  0.25000000  0.15555455  0.39846963  1
  Cs  Cs6  1  0.25000000  0.96545145  0.83054170  1
  Cs  Cs7  1  0.75000000  0.53454855  0.33054170  1
  Mo  Mo8  1  0.75000000  0.25284190  0.57871773  1
  Mo  Mo9  1  0.25000000  0.24715810  0.07871773  1
  Mo  Mo10  1  0.25000000  0.74715810  0.42128227  1
  Mo  Mo11  1  0.75000000  0.75284190  0.92128227  1
  S  S12  1  0.50645557  0.66643477  0.85096020  1
  S  S13  1  0.49354443  0.33356523  0.14903980  1
  S  S14  1  0.75000000  0.96545319  0.89517219  1
  S  S15  1  0.49354443  0.83356523  0.35096020  1
  S  S16  1  0.75000000  0.20888782  0.41316180  1
  S  S17  1  0.25000000  0.79111218  0.58683820  1
  S  S18  1  0.25000000  0.29111218  0.91316180  1
  S  S19  1  0.50645557  0.16643477  0.64903980  1
  S  S20  1  0.00645557  0.33356523  0.14903980  1
  S  S21  1  0.25000000  0.03454681  0.10482781  1
  S  S22  1  0.75000000  0.46545319  0.60482781  1
  S  S23  1  0.99354443  0.66643477  0.85096020  1
  S  S24  1  0.75000000  0.70888782  0.08683820  1
  S  S25  1  0.99354443  0.16643477  0.64903980  1
  S  S26  1  0.00645557  0.83356523  0.35096020  1
  S  S27  1  0.25000000  0.53454681  0.39517219  1
