# generated using pymatgen
data_Mg2BiPO6
_symmetry_space_group_name_H-M   'P 1'
_cell_length_a   5.28336159
_cell_length_b   7.80596954
_cell_length_c   11.85674280
_cell_angle_alpha   90.00000000
_cell_angle_beta   90.00000000
_cell_angle_gamma   90.00000000
_symmetry_Int_Tables_number   1
_chemical_formula_structural   Mg2BiPO6
_chemical_formula_sum   'Mg8 Bi4 P4 O24'
_cell_volume   488.99293668
_cell_formula_units_Z   4
loop_
 _symmetry_equiv_pos_site_id
 _symmetry_equiv_pos_as_xyz
  1  'x, y, z'
loop_
 _atom_site_type_symbol
 _atom_site_label
 _atom_site_symmetry_multiplicity
 _atom_site_fract_x
 _atom_site_fract_y
 _atom_site_fract_z
 _atom_site_occupancy
  Mg  Mg0  1  0.75000000  0.81065063  0.59958397  1
  Mg  Mg1  1  0.75000000  0.29621640  0.09330327  1
  Mg  Mg2  1  0.75000000  0.20378360  0.59330327  1
  Mg  Mg3  1  0.25000000  0.31065063  0.90041603  1
  Mg  Mg4  1  0.25000000  0.79621640  0.40669673  1
  Mg  Mg5  1  0.25000000  0.70378360  0.90669673  1
  Mg  Mg6  1  0.25000000  0.18934937  0.40041603  1
  Mg  Mg7  1  0.75000000  0.68934937  0.09958397  1
  Bi  Bi8  1  0.25000000  0.48932463  0.59805962  1
  Bi  Bi9  1  0.25000000  0.01067537  0.09805962  1
  Bi  Bi10  1  0.75000000  0.51067537  0.40194038  1
  Bi  Bi11  1  0.75000000  0.98932463  0.90194038  1
  P  P12  1  0.75000000  0.52178650  0.80175427  1
  P  P13  1  0.25000000  0.02178650  0.69824573  1
  P  P14  1  0.25000000  0.47821350  0.19824573  1
  P  P15  1  0.75000000  0.97821350  0.30175427  1
  O  O16  1  0.49767757  0.32728714  0.49424132  1
  O  O17  1  0.50232243  0.67271286  0.50575868  1
  O  O18  1  0.00232243  0.32728714  0.49424132  1
  O  O19  1  0.00777327  0.00665533  0.62502468  1
  O  O20  1  0.99222673  0.50665533  0.87497532  1
  O  O21  1  0.25000000  0.88148088  0.78746069  1
  O  O22  1  0.75000000  0.80007414  0.24840345  1
  O  O23  1  0.75000000  0.11851912  0.21253931  1
  O  O24  1  0.25000000  0.30007414  0.25159655  1
  O  O25  1  0.25000000  0.61851912  0.28746069  1
  O  O26  1  0.49222673  0.49334467  0.12502468  1
  O  O27  1  0.99767757  0.82728714  0.00575868  1
  O  O28  1  0.99767757  0.67271286  0.50575868  1
  O  O29  1  0.00777327  0.49334467  0.12502468  1
  O  O30  1  0.00232243  0.17271286  0.99424132  1
  O  O31  1  0.50777327  0.99334467  0.37497532  1
  O  O32  1  0.25000000  0.19992586  0.75159655  1
  O  O33  1  0.75000000  0.69992586  0.74840345  1
  O  O34  1  0.49767757  0.17271286  0.99424132  1
  O  O35  1  0.49222673  0.00665533  0.62502468  1
  O  O36  1  0.99222673  0.99334467  0.37497532  1
  O  O37  1  0.75000000  0.38148088  0.71253931  1
  O  O38  1  0.50777327  0.50665533  0.87497532  1
  O  O39  1  0.50232243  0.82728714  0.00575868  1
