# generated using pymatgen
data_RbNiF3
_symmetry_space_group_name_H-M   'P 1'
_cell_length_a   5.83215167
_cell_length_b   5.83215355
_cell_length_c   14.27342523
_cell_angle_alpha   89.99999687
_cell_angle_beta   89.99999394
_cell_angle_gamma   119.99905358
_symmetry_Int_Tables_number   1
_chemical_formula_structural   RbNiF3
_chemical_formula_sum   'Rb6 Ni6 F18'
_cell_volume   420.45617693
_cell_formula_units_Z   6
loop_
 _symmetry_equiv_pos_site_id
 _symmetry_equiv_pos_as_xyz
  1  'x, y, z'
loop_
 _atom_site_type_symbol
 _atom_site_label
 _atom_site_symmetry_multiplicity
 _atom_site_fract_x
 _atom_site_fract_y
 _atom_site_fract_z
 _atom_site_occupancy
  Rb  Rb0  1  0.33333322  0.66666634  0.40736740  1
  Rb  Rb1  1  0.66666682  0.33333300  0.90736733  1
  Rb  Rb2  1  0.66666678  0.33333298  0.59263356  1
  Rb  Rb3  1  0.33333323  0.66666626  0.09263270  1
  Rb  Rb4  1  -0.00000019  -0.00000002  0.75000008  1
  Rb  Rb5  1  0.00000022  -0.00000015  0.25000001  1
  Ni  Ni6  1  0.33333278  0.66666581  0.65558477  1
  Ni  Ni7  1  0.66666705  0.33333366  0.15558466  1
  Ni  Ni8  1  0.66666716  0.33333398  0.34441543  1
  Ni  Ni9  1  0.33333340  0.66666643  0.84441549  1
  Ni  Ni10  1  0.00000005  -0.00000002  0.50000019  1
  Ni  Ni11  1  0.00000015  0.00000005  0.00000004  1
  F  F12  1  0.83458403  0.16541679  0.41993291  1
  F  F13  1  0.83458307  0.66916715  0.41993295  1
  F  F14  1  0.33083381  0.16541648  0.41993298  1
  F  F15  1  0.66916675  0.83458275  0.91993290  1
  F  F16  1  0.16541607  0.33083233  0.58006763  1
  F  F17  1  0.16541678  0.83458386  0.91993285  1
  F  F18  1  0.16541655  0.33083318  0.91993290  1
  F  F19  1  0.83458415  0.16541719  0.08006711  1
  F  F20  1  0.33083378  0.16541642  0.08006715  1
  F  F21  1  0.66916702  0.83458286  0.58006774  1
  F  F22  1  0.16541639  0.83458406  0.58006770  1
  F  F23  1  0.83458316  0.66916664  0.08006709  1
  F  F24  1  0.51739480  0.03478836  0.25000005  1
  F  F25  1  0.48260607  0.51739171  0.75000011  1
  F  F26  1  0.03478708  0.51739365  0.75000018  1
  F  F27  1  0.96521304  0.48260691  0.25000004  1
  F  F28  1  0.51739271  0.48260665  0.25000001  1
  F  F29  1  0.48260707  0.96521168  0.75000005  1
