# generated using pymatgen
data_ZnS
_symmetry_space_group_name_H-M   'P 1'
_cell_length_a   3.80767440
_cell_length_b   3.80767482
_cell_length_c   74.72250454
_cell_angle_alpha   90.00000173
_cell_angle_beta   89.99999923
_cell_angle_gamma   120.00051315
_symmetry_Int_Tables_number   1
_chemical_formula_structural   ZnS
_chemical_formula_sum   'Zn24 S24'
_cell_volume   938.20871319
_cell_formula_units_Z   24
loop_
 _symmetry_equiv_pos_site_id
 _symmetry_equiv_pos_as_xyz
  1  'x, y, z'
loop_
 _atom_site_type_symbol
 _atom_site_label
 _atom_site_symmetry_multiplicity
 _atom_site_fract_x
 _atom_site_fract_y
 _atom_site_fract_z
 _atom_site_occupancy
  Zn  Zn0  1  0.99999900  0.00000100  0.33337241  1
  Zn  Zn1  1  -0.00000000  -0.00000000  0.00000309  1
  Zn  Zn2  1  0.33333300  0.66666700  0.29167541  1
  Zn  Zn3  1  0.66666700  0.33333300  0.08333015  1
  Zn  Zn4  1  0.33333300  0.66666700  0.83335143  1
  Zn  Zn5  1  0.00000000  0.00000000  0.66667543  1
  Zn  Zn6  1  0.66666700  0.33333300  0.50001102  1
  Zn  Zn7  1  0.66666700  0.33333300  0.91668318  1
  Zn  Zn8  1  0.66666700  0.33333300  0.20833207  1
  Zn  Zn9  1  0.66666700  0.33333300  0.62501921  1
  Zn  Zn10  1  0.00000100  -0.00000000  0.54171483  1
  Zn  Zn11  1  0.33333300  0.66666700  0.04169539  1
  Zn  Zn12  1  -0.00000000  -0.00000000  0.12499804  1
  Zn  Zn13  1  0.33333300  0.66666700  0.16667126  1
  Zn  Zn14  1  0.33333300  0.66666700  0.41668195  1
  Zn  Zn15  1  0.33333300  0.66666700  0.70835245  1
  Zn  Zn16  1  0.33333300  0.66666700  0.95832778  1
  Zn  Zn17  1  0.00000000  0.00000000  0.45833601  1
  Zn  Zn18  1  0.33333300  0.66666700  0.58335118  1
  Zn  Zn19  1  0.00000000  0.00000000  0.87501718  1
  Zn  Zn20  1  0.66666700  0.33333300  0.79169116  1
  Zn  Zn21  1  0.66666700  0.33333300  0.37501245  1
  Zn  Zn22  1  0.99999900  0.00000100  0.75004272  1
  Zn  Zn23  1  0.00000000  0.00000000  0.24998858  1
  S  S24  1  0.66666600  0.33333400  0.94790033  1
  S  S25  1  -0.00000000  -0.00000000  0.57290999  1
  S  S26  1  0.33333400  0.66666600  0.19790089  1
  S  S27  1  0.33333300  0.66666700  0.98952936  1
  S  S28  1  -0.00000000  -0.00000000  0.36457868  1
  S  S29  1  -0.00000000  -0.00000000  0.48953424  1
  S  S30  1  0.66666700  0.33333300  0.53126903  1
  S  S31  1  -0.00000000  -0.00000000  0.78124689  1
  S  S32  1  0.66666600  0.33333400  0.82290659  1
  S  S33  1  0.33333300  0.66666700  0.44790270  1
  S  S34  1  0.66666700  0.33333300  0.23956015  1
  S  S35  1  0.66666700  0.33333300  0.11456150  1
  S  S36  1  0.00000000  0.00000000  0.03126351  1
  S  S37  1  0.33333300  0.66666700  0.73959998  1
  S  S38  1  0.00000000  0.00000000  0.15623408  1
  S  S39  1  0.33333300  0.66666700  0.86456790  1
  S  S40  1  0.66666700  0.33333300  0.65623537  1
  S  S41  1  0.33333400  0.66666600  0.61456727  1
  S  S42  1  0.00000000  0.00000000  0.28120250  1
  S  S43  1  0.33333400  0.66666600  0.07290381  1
  S  S44  1  0.00000000  0.00000000  0.69786704  1
  S  S45  1  0.66666600  0.33333400  0.40623843  1
  S  S46  1  0.33333300  0.66666700  0.32293850  1
  S  S47  1  -0.00000000  -0.00000000  0.90623884  1
