# generated using pymatgen
data_Pr4Te3N2
_symmetry_space_group_name_H-M   'P 1'
_cell_length_a   7.46503285
_cell_length_b   11.50500034
_cell_length_c   11.87047371
_cell_angle_alpha   90.00000000
_cell_angle_beta   90.00000000
_cell_angle_gamma   90.00000000
_symmetry_Int_Tables_number   1
_chemical_formula_structural   Pr4Te3N2
_chemical_formula_sum   'Pr16 Te12 N8'
_cell_volume   1019.49807370
_cell_formula_units_Z   4
loop_
 _symmetry_equiv_pos_site_id
 _symmetry_equiv_pos_as_xyz
  1  'x, y, z'
loop_
 _atom_site_type_symbol
 _atom_site_label
 _atom_site_symmetry_multiplicity
 _atom_site_fract_x
 _atom_site_fract_y
 _atom_site_fract_z
 _atom_site_occupancy
  Pr  Pr0  1  0.85316074  0.60952229  0.45083809  1
  Pr  Pr1  1  0.14683926  0.39047771  0.54916191  1
  Pr  Pr2  1  0.09135837  0.65850084  0.75000000  1
  Pr  Pr3  1  0.22922714  0.03163920  0.75000000  1
  Pr  Pr4  1  0.27077286  0.53163920  0.25000000  1
  Pr  Pr5  1  0.40864163  0.15850084  0.25000000  1
  Pr  Pr6  1  0.14683926  0.39047771  0.95083809  1
  Pr  Pr7  1  0.77077286  0.96836080  0.25000000  1
  Pr  Pr8  1  0.72922714  0.46836080  0.75000000  1
  Pr  Pr9  1  0.59135837  0.84149916  0.75000000  1
  Pr  Pr10  1  0.35316074  0.89047771  0.45083809  1
  Pr  Pr11  1  0.64683926  0.10952229  0.95083809  1
  Pr  Pr12  1  0.35316074  0.89047771  0.04916191  1
  Pr  Pr13  1  0.90864163  0.34149916  0.25000000  1
  Pr  Pr14  1  0.85316074  0.60952229  0.04916191  1
  Pr  Pr15  1  0.64683926  0.10952229  0.54916191  1
  Te  Te16  1  0.91676965  0.22533828  0.75000000  1
  Te  Te17  1  0.08323035  0.77466172  0.25000000  1
  Te  Te18  1  0.56575076  0.36386015  0.42044254  1
  Te  Te19  1  0.06575076  0.13613985  0.07955746  1
  Te  Te20  1  0.41676965  0.27466172  0.75000000  1
  Te  Te21  1  0.58323035  0.72533828  0.25000000  1
  Te  Te22  1  0.56575076  0.36386015  0.07955746  1
  Te  Te23  1  0.43424924  0.63613985  0.57955746  1
  Te  Te24  1  0.93424924  0.86386015  0.92044254  1
  Te  Te25  1  0.93424924  0.86386015  0.57955746  1
  Te  Te26  1  0.06575076  0.13613985  0.42044254  1
  Te  Te27  1  0.43424924  0.63613985  0.92044254  1
  N  N28  1  0.05294247  0.46777216  0.37800940  1
  N  N29  1  0.55294247  0.03222784  0.12199060  1
  N  N30  1  0.44705753  0.96777216  0.62199060  1
  N  N31  1  0.94705753  0.53222784  0.62199060  1
  N  N32  1  0.94705753  0.53222784  0.87800940  1
  N  N33  1  0.44705753  0.96777216  0.87800940  1
  N  N34  1  0.55294247  0.03222784  0.37800940  1
  N  N35  1  0.05294247  0.46777216  0.12199060  1
