# generated using pymatgen
data_Cs4Pb9
_symmetry_space_group_name_H-M   'P 1'
_cell_length_a   10.12425342
_cell_length_b   14.92473385
_cell_length_c   15.99368213
_cell_angle_alpha   90.00000000
_cell_angle_beta   99.95914858
_cell_angle_gamma   90.00000000
_symmetry_Int_Tables_number   1
_chemical_formula_structural   Cs4Pb9
_chemical_formula_sum   'Cs16 Pb36'
_cell_volume   2380.25785725
_cell_formula_units_Z   4
loop_
 _symmetry_equiv_pos_site_id
 _symmetry_equiv_pos_as_xyz
  1  'x, y, z'
loop_
 _atom_site_type_symbol
 _atom_site_label
 _atom_site_symmetry_multiplicity
 _atom_site_fract_x
 _atom_site_fract_y
 _atom_site_fract_z
 _atom_site_occupancy
  Cs  Cs0  1  0.51365562  0.72954483  0.87922840  1
  Cs  Cs1  1  0.25686409  0.45838470  0.48542283  1
  Cs  Cs2  1  0.60944151  0.93116900  0.34039256  1
  Cs  Cs3  1  0.74313591  0.54161530  0.51457717  1
  Cs  Cs4  1  0.10328930  0.27116662  0.90775774  1
  Cs  Cs5  1  0.01365562  0.77045517  0.37922840  1
  Cs  Cs6  1  0.24313591  0.95838470  0.01457717  1
  Cs  Cs7  1  0.39671070  0.77116662  0.59224226  1
  Cs  Cs8  1  0.89055849  0.43116900  0.15960744  1
  Cs  Cs9  1  0.89671070  0.72883338  0.09224226  1
  Cs  Cs10  1  0.60328930  0.22883338  0.40775774  1
  Cs  Cs11  1  0.10944151  0.56883100  0.84039256  1
  Cs  Cs12  1  0.48634438  0.27045517  0.12077160  1
  Cs  Cs13  1  0.39055849  0.06883100  0.65960744  1
  Cs  Cs14  1  0.98634438  0.22954483  0.62077160  1
  Cs  Cs15  1  0.75686409  0.04161530  0.98542283  1
  Pb  Pb16  1  0.03453751  0.71345271  0.63375917  1
  Pb  Pb17  1  0.22055327  0.98981839  0.39795482  1
  Pb  Pb18  1  0.46546249  0.21345271  0.86624083  1
  Pb  Pb19  1  0.19318643  0.60279067  0.24491261  1
  Pb  Pb20  1  0.96546249  0.28654729  0.36624083  1
  Pb  Pb21  1  0.05513276  0.92119363  0.59425738  1
  Pb  Pb22  1  0.77944673  0.01018161  0.60204518  1
  Pb  Pb23  1  0.97822724  0.00658634  0.77614973  1
  Pb  Pb24  1  0.28509084  0.80188379  0.22627930  1
  Pb  Pb25  1  0.06118234  0.17729217  0.13045267  1
  Pb  Pb26  1  0.56118234  0.32270783  0.63045267  1
  Pb  Pb27  1  0.80681357  0.39720933  0.75508739  1
  Pb  Pb28  1  0.21490916  0.30188379  0.27372070  1
  Pb  Pb29  1  0.44486724  0.42119363  0.90574262  1
  Pb  Pb30  1  0.43881766  0.67729217  0.36954733  1
  Pb  Pb31  1  0.02177276  0.99341366  0.22385027  1
  Pb  Pb32  1  0.94486724  0.07880637  0.40574262  1
  Pb  Pb33  1  0.53453751  0.78654729  0.13375917  1
  Pb  Pb34  1  0.93881766  0.82270783  0.86954733  1
  Pb  Pb35  1  0.17769778  0.84466529  0.77299136  1
  Pb  Pb36  1  0.55513276  0.57880637  0.09425738  1
  Pb  Pb37  1  0.69318643  0.89720933  0.74491261  1
  Pb  Pb38  1  0.78509084  0.69811621  0.72627930  1
  Pb  Pb39  1  0.72055327  0.51018161  0.89795482  1
  Pb  Pb40  1  0.47822724  0.49341366  0.27614973  1
  Pb  Pb41  1  0.71490916  0.19811621  0.77372070  1
  Pb  Pb42  1  0.26756370  0.69072019  0.05886476  1
  Pb  Pb43  1  0.73243630  0.30927981  0.94113524  1
  Pb  Pb44  1  0.67769778  0.65533471  0.27299136  1
  Pb  Pb45  1  0.76756370  0.80927981  0.55886476  1
  Pb  Pb46  1  0.52177276  0.50658634  0.72385027  1
  Pb  Pb47  1  0.32230222  0.34466529  0.72700864  1
  Pb  Pb48  1  0.30681357  0.10279067  0.25508739  1
  Pb  Pb49  1  0.82230222  0.15533471  0.22700864  1
  Pb  Pb50  1  0.27944673  0.48981839  0.10204518  1
  Pb  Pb51  1  0.23243630  0.19072019  0.44113524  1
