# generated using pymatgen
data_HfB2O5
_symmetry_space_group_name_H-M   'P 1'
_cell_length_a   6.88919381
_cell_length_b   4.37275429
_cell_length_c   8.95932226
_cell_angle_alpha   89.37779186
_cell_angle_beta   90.00000000
_cell_angle_gamma   90.00000000
_symmetry_Int_Tables_number   1
_chemical_formula_structural   HfB2O5
_chemical_formula_sum   'Hf4 B8 O20'
_cell_volume   269.88144505
_cell_formula_units_Z   4
loop_
 _symmetry_equiv_pos_site_id
 _symmetry_equiv_pos_as_xyz
  1  'x, y, z'
loop_
 _atom_site_type_symbol
 _atom_site_label
 _atom_site_symmetry_multiplicity
 _atom_site_fract_x
 _atom_site_fract_y
 _atom_site_fract_z
 _atom_site_occupancy
  Hf  Hf0  1  0.88814192  0.99917571  0.67052876  1
  Hf  Hf1  1  0.11185808  0.00082429  0.32947124  1
  Hf  Hf2  1  0.61185808  0.99917571  0.17052876  1
  Hf  Hf3  1  0.38814192  0.00082429  0.82947124  1
  B  B4  1  0.58687613  0.53603344  0.66676821  1
  B  B5  1  0.41312387  0.46396656  0.33323179  1
  B  B6  1  0.08687613  0.46396656  0.83323179  1
  B  B7  1  0.72869245  0.47308477  0.92379619  1
  B  B8  1  0.91312387  0.53603344  0.16676821  1
  B  B9  1  0.27130755  0.52691523  0.07620381  1
  B  B10  1  0.77130755  0.47308477  0.42379619  1
  B  B11  1  0.22869245  0.52691523  0.57620381  1
  O  O12  1  0.10522764  0.67102810  0.15081086  1
  O  O13  1  0.59653874  0.23060664  0.96830684  1
  O  O14  1  0.39477236  0.67102810  0.65081086  1
  O  O15  1  0.15499232  0.30343437  0.69139925  1
  O  O16  1  0.09653874  0.76939336  0.53169316  1
  O  O17  1  0.09037689  0.78771278  0.82014265  1
  O  O18  1  0.72237125  0.65360680  0.55532744  1
  O  O19  1  0.89477236  0.32897190  0.84918914  1
  O  O20  1  0.60522764  0.32897190  0.34918914  1
  O  O21  1  0.77762875  0.65360680  0.05532744  1
  O  O22  1  0.90962311  0.21228722  0.17985735  1
  O  O23  1  0.59037689  0.21228722  0.67985735  1
  O  O24  1  0.27762875  0.34639320  0.44467256  1
  O  O25  1  0.65499232  0.69656563  0.80860075  1
  O  O26  1  0.84500768  0.69656563  0.30860075  1
  O  O27  1  0.34500768  0.30343437  0.19139925  1
  O  O28  1  0.90346126  0.23060664  0.46830684  1
  O  O29  1  0.22237125  0.34639320  0.94467256  1
  O  O30  1  0.40962311  0.78771278  0.32014265  1
  O  O31  1  0.40346126  0.76939336  0.03169316  1
