# generated using pymatgen
data_AlBPbO4
_symmetry_space_group_name_H-M   'P 1'
_cell_length_a   7.03963411
_cell_length_b   9.39494297
_cell_length_c   9.82994569
_cell_angle_alpha   90.00000000
_cell_angle_beta   90.00000000
_cell_angle_gamma   90.00000000
_symmetry_Int_Tables_number   1
_chemical_formula_structural   AlBPbO4
_chemical_formula_sum   'Al8 B8 Pb8 O32'
_cell_volume   650.12273466
_cell_formula_units_Z   8
loop_
 _symmetry_equiv_pos_site_id
 _symmetry_equiv_pos_as_xyz
  1  'x, y, z'
loop_
 _atom_site_type_symbol
 _atom_site_label
 _atom_site_symmetry_multiplicity
 _atom_site_fract_x
 _atom_site_fract_y
 _atom_site_fract_z
 _atom_site_occupancy
  Al  Al0  1  0.50000000  0.00000000  0.50000000  1
  Al  Al1  1  0.00000000  0.75000000  0.83424535  1
  Al  Al2  1  0.00000000  0.25000000  0.16575465  1
  Al  Al3  1  0.50000000  0.75000000  0.33424535  1
  Al  Al4  1  0.00000000  0.00000000  -0.00000000  1
  Al  Al5  1  0.50000000  0.25000000  0.66575465  1
  Al  Al6  1  0.50000000  0.50000000  0.50000000  1
  Al  Al7  1  0.00000000  0.50000000  -0.00000000  1
  B  B8  1  0.77828109  0.25270759  0.90584892  1
  B  B9  1  0.72171891  0.25270759  0.40584892  1
  B  B10  1  0.72171891  0.75270759  0.59415108  1
  B  B11  1  0.77828109  0.75270759  0.09415108  1
  B  B12  1  0.22171891  0.24729241  0.90584892  1
  B  B13  1  0.22171891  0.74729241  0.09415108  1
  B  B14  1  0.27828109  0.74729241  0.59415108  1
  B  B15  1  0.27828109  0.24729241  0.40584892  1
  Pb  Pb16  1  0.56931668  0.54926200  0.83002095  1
  Pb  Pb17  1  0.43068332  0.45073800  0.16997905  1
  Pb  Pb18  1  0.43068332  0.95073800  0.83002095  1
  Pb  Pb19  1  0.93068332  0.54926200  0.33002095  1
  Pb  Pb20  1  0.56931668  0.04926200  0.16997905  1
  Pb  Pb21  1  0.06931668  0.45073800  0.66997905  1
  Pb  Pb22  1  0.93068332  0.04926200  0.66997905  1
  Pb  Pb23  1  0.06931668  0.95073800  0.33002095  1
  O  O24  1  0.33243564  0.88717580  0.60869297  1
  O  O25  1  0.67120509  0.31509982  0.80485101  1
  O  O26  1  0.83243564  0.11282420  0.89130703  1
  O  O27  1  0.66756436  0.11282420  0.39130703  1
  O  O28  1  0.83641629  0.83017751  0.98266529  1
  O  O29  1  0.66756436  0.61282420  0.60869297  1
  O  O30  1  0.33243564  0.38717580  0.39130703  1
  O  O31  1  0.39932046  0.92914937  0.34314420  1
  O  O32  1  0.89932046  0.07085063  0.15685580  1
  O  O33  1  0.83243564  0.61282420  0.10869297  1
  O  O34  1  0.82879491  0.31509982  0.30485101  1
  O  O35  1  0.10067954  0.92914937  0.84314420  1
  O  O36  1  0.66358371  0.83017751  0.48266529  1
  O  O37  1  0.32879491  0.68490018  0.19514899  1
  O  O38  1  0.17120509  0.18490018  0.30485101  1
  O  O39  1  0.17120509  0.68490018  0.69514899  1
  O  O40  1  0.32879491  0.18490018  0.80485101  1
  O  O41  1  0.10067954  0.42914937  0.15685580  1
  O  O42  1  0.67120509  0.81509982  0.19514899  1
  O  O43  1  0.66358371  0.33017751  0.51733471  1
  O  O44  1  0.60067954  0.07085063  0.65685580  1
  O  O45  1  0.83641629  0.33017751  0.01733471  1
  O  O46  1  0.33641629  0.66982249  0.48266529  1
  O  O47  1  0.33641629  0.16982249  0.51733471  1
  O  O48  1  0.16756436  0.38717580  0.89130703  1
  O  O49  1  0.82879491  0.81509982  0.69514899  1
  O  O50  1  0.16358371  0.16982249  0.01733471  1
  O  O51  1  0.60067954  0.57085063  0.34314420  1
  O  O52  1  0.89932046  0.57085063  0.84314420  1
  O  O53  1  0.16358371  0.66982249  0.98266529  1
  O  O54  1  0.16756436  0.88717580  0.10869297  1
  O  O55  1  0.39932046  0.42914937  0.65685580  1
