# generated using pymatgen
data_SiO2
_symmetry_space_group_name_H-M   'P 1'
_cell_length_a   4.71916133
_cell_length_b   5.27358538
_cell_length_c   7.73162861
_cell_angle_alpha   82.15171897
_cell_angle_beta   72.23067963
_cell_angle_gamma   63.42083622
_symmetry_Int_Tables_number   1
_chemical_formula_structural   SiO2
_chemical_formula_sum   'Si4 O8'
_cell_volume   163.87165825
_cell_formula_units_Z   4
loop_
 _symmetry_equiv_pos_site_id
 _symmetry_equiv_pos_as_xyz
  1  'x, y, z'
loop_
 _atom_site_type_symbol
 _atom_site_label
 _atom_site_symmetry_multiplicity
 _atom_site_fract_x
 _atom_site_fract_y
 _atom_site_fract_z
 _atom_site_occupancy
  Si  Si0  1  0.06176892  0.25000000  0.87646216  1
  Si  Si1  1  0.31176892  0.75000000  0.37646216  1
  Si  Si2  1  0.93823108  0.75000000  0.12353784  1
  Si  Si3  1  0.68823108  0.25000000  0.62353784  1
  O  O4  1  0.00000000  -0.00000000  0.50000000  1
  O  O5  1  0.00000000  0.50000000  -0.00000000  1
  O  O6  1  0.00000000  -0.00000000  -0.00000000  1
  O  O7  1  0.50000000  0.50000000  0.50000000  1
  O  O8  1  0.43844060  0.12312080  0.75000000  1
  O  O9  1  0.81156040  0.37687920  0.75000000  1
  O  O10  1  0.18844060  0.62312080  0.25000000  1
  O  O11  1  0.56156040  0.87687920  0.25000000  1
