# generated using pymatgen
data_SrHo2O4
_symmetry_space_group_name_H-M   'P 1'
_cell_length_a   3.38897064
_cell_length_b   10.02919908
_cell_length_c   11.85586780
_cell_angle_alpha   90.00000000
_cell_angle_beta   90.00000000
_cell_angle_gamma   90.00000000
_symmetry_Int_Tables_number   1
_chemical_formula_structural   SrHo2O4
_chemical_formula_sum   'Sr4 Ho8 O16'
_cell_volume   402.96507418
_cell_formula_units_Z   4
loop_
 _symmetry_equiv_pos_site_id
 _symmetry_equiv_pos_as_xyz
  1  'x, y, z'
loop_
 _atom_site_type_symbol
 _atom_site_label
 _atom_site_symmetry_multiplicity
 _atom_site_fract_x
 _atom_site_fract_y
 _atom_site_fract_z
 _atom_site_occupancy
  Sr  Sr0  1  0.25000000  0.24757784  0.35031105  1
  Sr  Sr1  1  0.25000000  0.74757784  0.14968895  1
  Sr  Sr2  1  0.75000000  0.25242216  0.85031105  1
  Sr  Sr3  1  0.75000000  0.75242216  0.64968895  1
  Ho  Ho4  1  0.75000000  0.92318746  0.38947267  1
  Ho  Ho5  1  0.25000000  0.57712187  0.38815816  1
  Ho  Ho6  1  0.75000000  0.92287813  0.88815816  1
  Ho  Ho7  1  0.25000000  0.57681254  0.88947267  1
  Ho  Ho8  1  0.75000000  0.42318746  0.11052733  1
  Ho  Ho9  1  0.75000000  0.42287813  0.61184184  1
  Ho  Ho10  1  0.25000000  0.07681254  0.61052733  1
  Ho  Ho11  1  0.25000000  0.07712187  0.11184184  1
  O  O12  1  0.25000000  0.07405609  0.92285845  1
  O  O13  1  0.75000000  0.62493148  0.01956861  1
  O  O14  1  0.25000000  0.98516766  0.28345712  1
  O  O15  1  0.75000000  0.01483234  0.71654288  1
  O  O16  1  0.75000000  0.51483234  0.78345712  1
  O  O17  1  0.75000000  0.12493148  0.48043139  1
  O  O18  1  0.25000000  0.78832658  0.82645778  1
  O  O19  1  0.75000000  0.42594391  0.42285845  1
  O  O20  1  0.75000000  0.71167342  0.32645778  1
  O  O21  1  0.25000000  0.37506852  0.98043139  1
  O  O22  1  0.75000000  0.21167342  0.17354222  1
  O  O23  1  0.25000000  0.28832658  0.67354222  1
  O  O24  1  0.25000000  0.48516766  0.21654288  1
  O  O25  1  0.75000000  0.92594391  0.07714155  1
  O  O26  1  0.25000000  0.57405609  0.57714155  1
  O  O27  1  0.25000000  0.87506852  0.51956861  1
