# generated using pymatgen
data_SrTa2Bi2O9
_symmetry_space_group_name_H-M   'P 1'
_cell_length_a   5.53241109
_cell_length_b   5.54774569
_cell_length_c   12.81504348
_cell_angle_alpha   102.50087673
_cell_angle_beta   90.00000000
_cell_angle_gamma   90.00000000
_symmetry_Int_Tables_number   1
_chemical_formula_structural   SrTa2Bi2O9
_chemical_formula_sum   'Sr2 Ta4 Bi4 O18'
_cell_volume   383.99990028
_cell_formula_units_Z   2
loop_
 _symmetry_equiv_pos_site_id
 _symmetry_equiv_pos_as_xyz
  1  'x, y, z'
loop_
 _atom_site_type_symbol
 _atom_site_label
 _atom_site_symmetry_multiplicity
 _atom_site_fract_x
 _atom_site_fract_y
 _atom_site_fract_z
 _atom_site_occupancy
  Sr  Sr0  1  -0.00000000  0.01820799  0.00000000  1
  Sr  Sr1  1  0.50000000  0.51820799  0.00000000  1
  Ta  Ta2  1  0.49733173  0.09736497  0.16863517  1
  Ta  Ta3  1  0.50266827  0.92872980  0.83136483  1
  Ta  Ta4  1  0.00266827  0.59736497  0.16863517  1
  Ta  Ta5  1  0.99733173  0.42872980  0.83136483  1
  Bi  Bi6  1  0.01778636  0.12326473  0.40014091  1
  Bi  Bi7  1  0.98221364  0.72312382  0.59985909  1
  Bi  Bi8  1  0.51778636  0.22312382  0.59985909  1
  Bi  Bi9  1  0.48221364  0.62326473  0.40014091  1
  O  O10  1  0.53082864  0.87599324  0.68197156  1
  O  O11  1  0.74076845  0.46263749  0.49825167  1
  O  O12  1  0.25923155  0.96438582  0.50174833  1
  O  O13  1  0.96917136  0.37599324  0.68197156  1
  O  O14  1  -0.00000000  0.52494410  0.00000000  1
  O  O15  1  0.50000000  0.02494410  0.00000000  1
  O  O16  1  0.73667394  0.83626509  0.15619651  1
  O  O17  1  0.26332606  0.68007058  0.84380349  1
  O  O18  1  0.26653095  0.36304239  0.14838909  1
  O  O19  1  0.24076845  0.46438582  0.50174833  1
  O  O20  1  0.23346905  0.86304239  0.14838909  1
  O  O21  1  0.23667394  0.18007058  0.84380349  1
  O  O22  1  0.76653095  0.71465130  0.85161091  1
  O  O23  1  0.76332606  0.33626509  0.15619651  1
  O  O24  1  0.03082864  0.69402069  0.31802844  1
  O  O25  1  0.73346905  0.21465130  0.85161091  1
  O  O26  1  0.46917136  0.19402069  0.31802844  1
  O  O27  1  0.75923155  0.96263749  0.49825167  1
