# generated using pymatgen
data_KAlO2
_symmetry_space_group_name_H-M   'P 1'
_cell_length_a   5.41759802
_cell_length_b   10.87920433
_cell_length_c   15.47305134
_cell_angle_alpha   90.00000000
_cell_angle_beta   90.00000000
_cell_angle_gamma   90.00000000
_symmetry_Int_Tables_number   1
_chemical_formula_structural   KAlO2
_chemical_formula_sum   'K16 Al16 O32'
_cell_volume   911.96858421
_cell_formula_units_Z   16
loop_
 _symmetry_equiv_pos_site_id
 _symmetry_equiv_pos_as_xyz
  1  'x, y, z'
loop_
 _atom_site_type_symbol
 _atom_site_label
 _atom_site_symmetry_multiplicity
 _atom_site_fract_x
 _atom_site_fract_y
 _atom_site_fract_z
 _atom_site_occupancy
  K  K0  1  0.75444179  0.00957367  0.06156061  1
  K  K1  1  0.25444179  0.49042633  0.93843939  1
  K  K2  1  0.24555821  0.50957367  0.43843939  1
  K  K3  1  0.74555821  0.99042633  0.56156061  1
  K  K4  1  0.24555821  0.99042633  0.93843939  1
  K  K5  1  0.74555821  0.50957367  0.06156061  1
  K  K6  1  0.75444179  0.49042633  0.56156061  1
  K  K7  1  0.25444179  0.00957367  0.43843939  1
  K  K8  1  0.79648172  0.26109740  0.18483104  1
  K  K9  1  0.29648172  0.23890260  0.81516896  1
  K  K10  1  0.20351828  0.76109740  0.31516896  1
  K  K11  1  0.70351828  0.73890260  0.68483104  1
  K  K12  1  0.20351828  0.73890260  0.81516896  1
  K  K13  1  0.70351828  0.76109740  0.18483104  1
  K  K14  1  0.79648172  0.23890260  0.68483104  1
  K  K15  1  0.29648172  0.26109740  0.31516896  1
  Al  Al16  1  0.25520389  0.00799478  0.18862648  1
  Al  Al17  1  0.75520389  0.49200522  0.81137352  1
  Al  Al18  1  0.74479611  0.50799478  0.31137352  1
  Al  Al19  1  0.24479611  0.99200522  0.68862648  1
  Al  Al20  1  0.74479611  0.99200522  0.81137352  1
  Al  Al21  1  0.24479611  0.50799478  0.18862648  1
  Al  Al22  1  0.25520389  0.49200522  0.68862648  1
  Al  Al23  1  0.75520389  0.00799478  0.31137352  1
  Al  Al24  1  0.28059512  0.26249504  0.06371937  1
  Al  Al25  1  0.78059512  0.23750496  0.93628063  1
  Al  Al26  1  0.71940488  0.76249504  0.43628063  1
  Al  Al27  1  0.21940488  0.73750496  0.56371937  1
  Al  Al28  1  0.71940488  0.73750496  0.93628063  1
  Al  Al29  1  0.21940488  0.76249504  0.06371937  1
  Al  Al30  1  0.28059512  0.23750496  0.56371937  1
  Al  Al31  1  0.78059512  0.26249504  0.43628063  1
  O  O32  1  0.55179004  0.48418146  0.22160631  1
  O  O33  1  0.05179004  0.01581854  0.77839369  1
  O  O34  1  0.44820996  0.98418146  0.27839369  1
  O  O35  1  0.94820996  0.51581854  0.72160631  1
  O  O36  1  0.44820996  0.51581854  0.77839369  1
  O  O37  1  0.94820996  0.98418146  0.22160631  1
  O  O38  1  0.55179004  0.01581854  0.72160631  1
  O  O39  1  0.05179004  0.48418146  0.27839369  1
  O  O40  1  0.80084342  0.15822047  0.35010640  1
  O  O41  1  0.30084342  0.34177953  0.64989360  1
  O  O42  1  0.19915658  0.65822047  0.14989360  1
  O  O43  1  0.69915658  0.84177953  0.85010640  1
  O  O44  1  0.19915658  0.84177953  0.64989360  1
  O  O45  1  0.69915658  0.65822047  0.35010640  1
  O  O46  1  0.80084342  0.34177953  0.85010640  1
  O  O47  1  0.57100140  0.28601533  0.01601719  1
  O  O48  1  0.67563969  0.40403228  0.39494108  1
  O  O49  1  0.17563969  0.09596772  0.60505892  1
  O  O50  1  0.32436031  0.90403228  0.10505892  1
  O  O51  1  0.82436031  0.59596772  0.89494108  1
  O  O52  1  0.32436031  0.59596772  0.60505892  1
  O  O53  1  0.82436031  0.90403228  0.39494108  1
  O  O54  1  0.67563969  0.09596772  0.89494108  1
  O  O55  1  0.17563969  0.40403228  0.10505892  1
  O  O56  1  0.07100140  0.28601533  0.48398281  1
  O  O57  1  0.57100140  0.21398467  0.51601719  1
  O  O58  1  0.92899860  0.78601533  0.01601719  1
  O  O59  1  0.42899860  0.71398467  0.98398281  1
  O  O60  1  0.92899860  0.71398467  0.51601719  1
  O  O61  1  0.42899860  0.78601533  0.48398281  1
  O  O62  1  0.07100140  0.21398467  0.98398281  1
  O  O63  1  0.30084342  0.15822047  0.14989360  1
