# generated using pymatgen
data_TaBiO4
_symmetry_space_group_name_H-M   'P 1'
_cell_length_a   5.57416565
_cell_length_b   7.69221717
_cell_length_c   7.77065761
_cell_angle_alpha   102.43895761
_cell_angle_beta   90.03753839
_cell_angle_gamma   93.36128748
_symmetry_Int_Tables_number   1
_chemical_formula_structural   TaBiO4
_chemical_formula_sum   'Ta4 Bi4 O16'
_cell_volume   324.77673488
_cell_formula_units_Z   4
loop_
 _symmetry_equiv_pos_site_id
 _symmetry_equiv_pos_as_xyz
  1  'x, y, z'
loop_
 _atom_site_type_symbol
 _atom_site_label
 _atom_site_symmetry_multiplicity
 _atom_site_fract_x
 _atom_site_fract_y
 _atom_site_fract_z
 _atom_site_occupancy
  Ta  Ta0  1  0.74271855  0.82485540  0.19232816  1
  Ta  Ta1  1  0.27591493  0.15689738  0.30652184  1
  Ta  Ta2  1  0.72408507  0.84310262  0.69347816  1
  Ta  Ta3  1  0.25728145  0.17514460  0.80767184  1
  Bi  Bi4  1  0.26632644  0.61946991  0.38250898  1
  Bi  Bi5  1  0.21073980  0.66834742  0.88706608  1
  Bi  Bi6  1  0.73367356  0.38053009  0.61749102  1
  Bi  Bi7  1  0.78926020  0.33165258  0.11293392  1
  O  O8  1  0.57827697  0.04989777  0.22405894  1
  O  O9  1  0.48907025  0.60631473  0.67760649  1
  O  O10  1  0.04302189  0.34701478  0.35958622  1
  O  O11  1  0.65382403  0.81858366  0.44660091  1
  O  O12  1  0.34617597  0.18141634  0.55339909  1
  O  O13  1  0.80150387  0.82876681  0.94936811  1
  O  O14  1  0.05886612  0.39226209  0.82677739  1
  O  O15  1  0.54211512  0.33283966  0.86582734  1
  O  O16  1  0.42172303  0.95010223  0.77594106  1
  O  O17  1  0.93933546  0.04607129  0.71616838  1
  O  O18  1  0.51092975  0.39368527  0.32239351  1
  O  O19  1  0.19849613  0.17123319  0.05063189  1
  O  O20  1  0.94113388  0.60773791  0.17322261  1
  O  O21  1  0.06066454  0.95392871  0.28383162  1
  O  O22  1  0.95697811  0.65298522  0.64041378  1
  O  O23  1  0.45788488  0.66716034  0.13417266  1
