# generated using pymatgen
data_LaSF
_symmetry_space_group_name_H-M   'P 1'
_cell_length_a   4.04866893
_cell_length_b   4.04866893
_cell_length_c   6.96278102
_cell_angle_alpha   90.00000000
_cell_angle_beta   90.00000000
_cell_angle_gamma   90.00000000
_symmetry_Int_Tables_number   1
_chemical_formula_structural   LaSF
_chemical_formula_sum   'La2 S2 F2'
_cell_volume   114.13195763
_cell_formula_units_Z   2
loop_
 _symmetry_equiv_pos_site_id
 _symmetry_equiv_pos_as_xyz
  1  'x, y, z'
loop_
 _atom_site_type_symbol
 _atom_site_label
 _atom_site_symmetry_multiplicity
 _atom_site_fract_x
 _atom_site_fract_y
 _atom_site_fract_z
 _atom_site_occupancy
  La  La0  1  0.75000000  0.75000000  0.76997462  1
  La  La1  1  0.25000000  0.25000000  0.23002538  1
  S  S2  1  0.25000000  0.25000000  0.65128023  1
  S  S3  1  0.75000000  0.75000000  0.34871977  1
  F  F4  1  0.25000000  0.75000000  0.00000000  1
  F  F5  1  0.75000000  0.25000000  0.00000000  1
