# generated using pymatgen
data_Na3GaS3
_symmetry_space_group_name_H-M   'P 1'
_cell_length_a   12.06592719
_cell_length_b   7.62554679
_cell_length_c   13.59311015
_cell_angle_alpha   81.59821543
_cell_angle_beta   90.00000000
_cell_angle_gamma   90.00000000
_symmetry_Int_Tables_number   1
_chemical_formula_structural   Na3GaS3
_chemical_formula_sum   'Na24 Ga8 S24'
_cell_volume   1237.26974178
_cell_formula_units_Z   8
loop_
 _symmetry_equiv_pos_site_id
 _symmetry_equiv_pos_as_xyz
  1  'x, y, z'
loop_
 _atom_site_type_symbol
 _atom_site_label
 _atom_site_symmetry_multiplicity
 _atom_site_fract_x
 _atom_site_fract_y
 _atom_site_fract_z
 _atom_site_occupancy
  Na  Na0  1  0.75286071  0.49930846  0.01529871  1
  Na  Na1  1  0.30799559  0.96223550  0.23957671  1
  Na  Na2  1  0.74713929  0.99930846  0.01529871  1
  Na  Na3  1  0.26955347  0.07706290  0.47439509  1
  Na  Na4  1  0.91021132  0.10780513  0.36841033  1
  Na  Na5  1  0.41021132  0.39219487  0.63158967  1
  Na  Na6  1  0.33056019  0.99435630  0.75530529  1
  Na  Na7  1  0.24713929  0.50069154  0.98470129  1
  Na  Na8  1  0.69200441  0.03776450  0.76042329  1
  Na  Na9  1  0.08978868  0.89219487  0.63158967  1
  Na  Na10  1  0.73044653  0.92293710  0.52560491  1
  Na  Na11  1  0.66943981  0.00564370  0.24469471  1
  Na  Na12  1  0.19200441  0.46223550  0.23957671  1
  Na  Na13  1  0.80799559  0.53776450  0.76042329  1
  Na  Na14  1  0.48045232  0.42098713  0.19293823  1
  Na  Na15  1  0.58978868  0.60780513  0.36841033  1
  Na  Na16  1  0.98045232  0.07901287  0.80706177  1
  Na  Na17  1  0.01954768  0.92098713  0.19293823  1
  Na  Na18  1  0.76955347  0.42293710  0.52560491  1
  Na  Na19  1  0.16943981  0.49435630  0.75530529  1
  Na  Na20  1  0.25286071  0.00069154  0.98470129  1
  Na  Na21  1  0.51954768  0.57901287  0.80706177  1
  Na  Na22  1  0.83056019  0.50564370  0.24469471  1
  Na  Na23  1  0.23044653  0.57706290  0.47439509  1
  Ga  Ga24  1  0.50684320  0.18020164  0.92639247  1
  Ga  Ga25  1  0.97734156  0.68507305  0.43431878  1
  Ga  Ga26  1  0.49315680  0.81979836  0.07360753  1
  Ga  Ga27  1  0.99315680  0.68020164  0.92639247  1
  Ga  Ga28  1  0.47734156  0.81492695  0.56568122  1
  Ga  Ga29  1  0.52265844  0.18507305  0.43431878  1
  Ga  Ga30  1  0.02265844  0.31492695  0.56568122  1
  Ga  Ga31  1  0.00684320  0.31979836  0.07360753  1
  S  S32  1  0.18830932  0.23577183  0.62857691  1
  S  S33  1  0.64207207  0.68813315  0.14937712  1
  S  S34  1  0.49584863  0.11831252  0.09919337  1
  S  S35  1  0.68830932  0.26422817  0.37142309  1
  S  S36  1  0.50415137  0.88168748  0.90080663  1
  S  S37  1  0.46850733  0.91089957  0.39352145  1
  S  S38  1  0.53149267  0.08910043  0.60647855  1
  S  S39  1  0.99584863  0.38168748  0.90080663  1
  S  S40  1  0.03149267  0.41089957  0.39352145  1
  S  S41  1  0.31169068  0.73577183  0.62857691  1
  S  S42  1  0.17042460  0.19856923  0.12109744  1
  S  S43  1  0.82957540  0.80143077  0.87890256  1
  S  S44  1  0.81169068  0.76422817  0.37142309  1
  S  S45  1  0.39010160  0.38581747  0.38704837  1
  S  S46  1  0.85792793  0.18813315  0.14937712  1
  S  S47  1  0.00415137  0.61831252  0.09919337  1
  S  S48  1  0.10989840  0.88581747  0.38704837  1
  S  S49  1  0.60989840  0.61418253  0.61295163  1
  S  S50  1  0.96850733  0.58910043  0.60647855  1
  S  S51  1  0.35792793  0.31186685  0.85062288  1
  S  S52  1  0.32957540  0.69856923  0.12109744  1
  S  S53  1  0.89010160  0.11418253  0.61295163  1
  S  S54  1  0.14207207  0.81186685  0.85062288  1
  S  S55  1  0.67042460  0.30143077  0.87890256  1
