# generated using pymatgen
data_Ti4Tl2O9
_symmetry_space_group_name_H-M   'P 1'
_cell_length_a   9.77070006
_cell_length_b   9.77070006
_cell_length_c   12.09408223
_cell_angle_alpha   73.62445914
_cell_angle_beta   73.62445914
_cell_angle_gamma   22.27142203
_symmetry_Int_Tables_number   1
_chemical_formula_structural   Ti4Tl2O9
_chemical_formula_sum   'Ti8 Tl4 O18'
_cell_volume   419.12630342
_cell_formula_units_Z   2
loop_
 _symmetry_equiv_pos_site_id
 _symmetry_equiv_pos_as_xyz
  1  'x, y, z'
loop_
 _atom_site_type_symbol
 _atom_site_label
 _atom_site_symmetry_multiplicity
 _atom_site_fract_x
 _atom_site_fract_y
 _atom_site_fract_z
 _atom_site_occupancy
  Ti  Ti0  1  0.75418348  0.75418348  0.16735688  1
  Ti  Ti1  1  0.24581652  0.24581652  0.83264312  1
  Ti  Ti2  1  0.16461310  0.16461310  0.37655820  1
  Ti  Ti3  1  0.83538690  0.83538690  0.62344180  1
  Ti  Ti4  1  0.12796326  0.12796326  0.13764916  1
  Ti  Ti5  1  0.87203674  0.87203674  0.86235084  1
  Ti  Ti6  1  0.79605345  0.79605345  0.39696631  1
  Ti  Ti7  1  0.20394655  0.20394655  0.60303369  1
  Tl  Tl8  1  0.41738813  0.41738813  0.08680114  1
  Tl  Tl9  1  0.58261187  0.58261187  0.91319886  1
  Tl  Tl10  1  0.48728231  0.48728231  0.32170933  1
  Tl  Tl11  1  0.51271769  0.51271769  0.67829067  1
  O  O12  1  0.23223081  0.23223081  0.20089644  1
  O  O13  1  0.76776919  0.76776919  0.79910356  1
  O  O14  1  0.69436337  0.69436337  0.35814944  1
  O  O15  1  0.30563663  0.30563663  0.64185056  1
  O  O16  1  0.65494246  0.65494246  0.14429094  1
  O  O17  1  0.34505754  0.34505754  0.85570906  1
  O  O18  1  0.26851262  0.26851262  0.42229939  1
  O  O19  1  0.73148738  0.73148738  0.57770061  1
  O  O20  1  0.08923124  0.08923124  0.31757891  1
  O  O21  1  0.91076876  0.91076876  0.68242109  1
  O  O22  1  0.04083400  0.04083400  0.12264493  1
  O  O23  1  0.95916600  0.95916600  0.87735507  1
  O  O24  1  0.87299614  0.87299614  0.46231383  1
  O  O25  1  0.12700386  0.12700386  0.53768617  1
  O  O26  1  0.83460077  0.83460077  0.24216839  1
  O  O27  1  0.16539923  0.16539923  0.75783161  1
  O  O28  1  0.81512657  0.81512657  0.02655321  1
  O  O29  1  0.18487343  0.18487343  0.97344679  1
