# generated using pymatgen
data_RbTaN2
_symmetry_space_group_name_H-M   'P 1'
_cell_length_a   6.04051903
_cell_length_b   12.11815914
_cell_length_c   17.07489533
_cell_angle_alpha   90.00000000
_cell_angle_beta   90.00000000
_cell_angle_gamma   90.00000000
_symmetry_Int_Tables_number   1
_chemical_formula_structural   RbTaN2
_chemical_formula_sum   'Rb16 Ta16 N32'
_cell_volume   1249.88184117
_cell_formula_units_Z   16
loop_
 _symmetry_equiv_pos_site_id
 _symmetry_equiv_pos_as_xyz
  1  'x, y, z'
loop_
 _atom_site_type_symbol
 _atom_site_label
 _atom_site_symmetry_multiplicity
 _atom_site_fract_x
 _atom_site_fract_y
 _atom_site_fract_z
 _atom_site_occupancy
  Rb  Rb0  1  0.21218940  0.74194793  0.81446855  1
  Rb  Rb1  1  0.21218940  0.75805207  0.31446855  1
  Rb  Rb2  1  0.24429705  0.50298425  0.43847073  1
  Rb  Rb3  1  0.28781060  0.24194793  0.81446855  1
  Rb  Rb4  1  0.78781060  0.25805207  0.18553145  1
  Rb  Rb5  1  0.75570295  0.49701575  0.56152927  1
  Rb  Rb6  1  0.25570295  0.49701575  0.93847073  1
  Rb  Rb7  1  0.74429705  0.99701575  0.56152927  1
  Rb  Rb8  1  0.74429705  0.50298425  0.06152927  1
  Rb  Rb9  1  0.25570295  0.00298425  0.43847073  1
  Rb  Rb10  1  0.75570295  0.00298425  0.06152927  1
  Rb  Rb11  1  0.71218940  0.75805207  0.18553145  1
  Rb  Rb12  1  0.28781060  0.25805207  0.31446855  1
  Rb  Rb13  1  0.71218940  0.74194793  0.68553145  1
  Rb  Rb14  1  0.24429705  0.99701575  0.93847073  1
  Rb  Rb15  1  0.78781060  0.24194793  0.68553145  1
  Ta  Ta16  1  0.27324756  0.26199296  0.06342231  1
  Ta  Ta17  1  0.22675244  0.73800704  0.56342231  1
  Ta  Ta18  1  0.75718656  0.00737712  0.31144801  1
  Ta  Ta19  1  0.27324756  0.23800704  0.56342231  1
  Ta  Ta20  1  0.25718656  0.49262288  0.68855199  1
  Ta  Ta21  1  0.72675244  0.73800704  0.93657769  1
  Ta  Ta22  1  0.74281344  0.99262288  0.81144801  1
  Ta  Ta23  1  0.25718656  0.00737712  0.18855199  1
  Ta  Ta24  1  0.22675244  0.76199296  0.06342231  1
  Ta  Ta25  1  0.77324756  0.23800704  0.93657769  1
  Ta  Ta26  1  0.24281344  0.50737712  0.18855199  1
  Ta  Ta27  1  0.24281344  0.99262288  0.68855199  1
  Ta  Ta28  1  0.74281344  0.50737712  0.31144801  1
  Ta  Ta29  1  0.75718656  0.49262288  0.81144801  1
  Ta  Ta30  1  0.77324756  0.26199296  0.43657769  1
  Ta  Ta31  1  0.72675244  0.76199296  0.43657769  1
  N  N32  1  0.45542832  0.51402443  0.77623678  1
  N  N33  1  0.79572070  0.15492789  0.35271189  1
  N  N34  1  0.44114027  0.78415423  0.48550528  1
  N  N35  1  0.54457168  0.48597557  0.22376322  1
  N  N36  1  0.95542832  0.98597557  0.22376322  1
  N  N37  1  0.95542832  0.51402443  0.72376322  1
  N  N38  1  0.05885973  0.28415423  0.48550528  1
  N  N39  1  0.94114027  0.78415423  0.01449472  1
  N  N40  1  0.94114027  0.71584577  0.51449472  1
  N  N41  1  0.70427930  0.84507211  0.85271189  1
  N  N42  1  0.20427930  0.84507211  0.64728811  1
  N  N43  1  0.44114027  0.71584577  0.98550528  1
  N  N44  1  0.32352093  0.90104564  0.10712838  1
  N  N45  1  0.04457168  0.48597557  0.27623678  1
  N  N46  1  0.29572070  0.15492789  0.14728811  1
  N  N47  1  0.32352093  0.59895436  0.60712838  1
  N  N48  1  0.82352093  0.90104564  0.39287162  1
  N  N49  1  0.45542832  0.98597557  0.27623678  1
  N  N50  1  0.67647907  0.40104564  0.39287162  1
  N  N51  1  0.04457168  0.01402443  0.77623678  1
  N  N52  1  0.54457168  0.01402443  0.72376322  1
  N  N53  1  0.79572070  0.34507211  0.85271189  1
  N  N54  1  0.67647907  0.09895436  0.89287162  1
  N  N55  1  0.29572070  0.34507211  0.64728811  1
  N  N56  1  0.17647907  0.09895436  0.60712838  1
  N  N57  1  0.55885973  0.21584577  0.51449472  1
  N  N58  1  0.17647907  0.40104564  0.10712838  1
  N  N59  1  0.05885973  0.21584577  0.98550528  1
  N  N60  1  0.70427930  0.65492789  0.35271189  1
  N  N61  1  0.82352093  0.59895436  0.89287162  1
  N  N62  1  0.20427930  0.65492789  0.14728811  1
  N  N63  1  0.55885973  0.28415423  0.01449472  1
