# generated using pymatgen
data_Se
_symmetry_space_group_name_H-M   'P 1'
_cell_length_a   8.27211683
_cell_length_b   9.63062743
_cell_length_c   13.28031297
_cell_angle_alpha   93.36496124
_cell_angle_beta   90.00000000
_cell_angle_gamma   90.00000000
_symmetry_Int_Tables_number   1
_chemical_formula_structural   Se
_chemical_formula_sum   Se32
_cell_volume   1056.16103810
_cell_formula_units_Z   32
loop_
 _symmetry_equiv_pos_site_id
 _symmetry_equiv_pos_as_xyz
  1  'x, y, z'
loop_
 _atom_site_type_symbol
 _atom_site_label
 _atom_site_symmetry_multiplicity
 _atom_site_fract_x
 _atom_site_fract_y
 _atom_site_fract_z
 _atom_site_occupancy
  Se  Se0  1  0.68966931  0.57311896  0.41126681  1
  Se  Se1  1  0.18966931  0.42688104  0.08873319  1
  Se  Se2  1  0.31033069  0.42688104  0.58873319  1
  Se  Se3  1  0.81033069  0.57311896  0.91126681  1
  Se  Se4  1  0.77015972  0.75755817  0.52232994  1
  Se  Se5  1  0.27015972  0.24244183  0.97767006  1
  Se  Se6  1  0.22984028  0.24244183  0.47767006  1
  Se  Se7  1  0.72984028  0.75755817  0.02232994  1
  Se  Se8  1  0.59641329  0.76211601  0.66265499  1
  Se  Se9  1  0.09641329  0.23788399  0.83734501  1
  Se  Se10  1  0.40358671  0.23788399  0.33734501  1
  Se  Se11  1  0.90358671  0.76211601  0.16265499  1
  Se  Se12  1  0.41095523  0.94129279  0.64094217  1
  Se  Se13  1  0.91095523  0.05870721  0.85905783  1
  Se  Se14  1  0.58904477  0.05870721  0.35905783  1
  Se  Se15  1  0.08904477  0.94129279  0.14094217  1
  Se  Se16  1  0.17067420  0.83601721  0.58286124  1
  Se  Se17  1  0.67067420  0.16398279  0.91713876  1
  Se  Se18  1  0.82932580  0.16398279  0.41713876  1
  Se  Se19  1  0.32932580  0.83601721  0.08286124  1
  Se  Se20  1  0.16387352  0.85058389  0.40636524  1
  Se  Se21  1  0.66387352  0.14941611  0.09363476  1
  Se  Se22  1  0.83612648  0.14941611  0.59363476  1
  Se  Se23  1  0.33612648  0.85058389  0.90636524  1
  Se  Se24  1  0.25557913  0.63707812  0.33493157  1
  Se  Se25  1  0.75557913  0.36292188  0.16506843  1
  Se  Se26  1  0.74442087  0.36292188  0.66506843  1
  Se  Se27  1  0.24442087  0.63707812  0.83493157  1
  Se  Se28  1  0.52643518  0.66845840  0.28882860  1
  Se  Se29  1  0.02643518  0.33154160  0.21117140  1
  Se  Se30  1  0.47356482  0.33154160  0.71117140  1
  Se  Se31  1  0.97356482  0.66845840  0.78882860  1
