# generated using pymatgen
data_SnP2(Cl5O)2
_symmetry_space_group_name_H-M   'P 1'
_cell_length_a   8.07196769
_cell_length_b   14.30838947
_cell_length_c   14.49151819
_cell_angle_alpha   90.00000000
_cell_angle_beta   90.00000000
_cell_angle_gamma   90.00000000
_symmetry_Int_Tables_number   1
_chemical_formula_structural   SnP2(Cl5O)2
_chemical_formula_sum   'Sn4 P8 Cl40 O8'
_cell_volume   1673.72481132
_cell_formula_units_Z   4
loop_
 _symmetry_equiv_pos_site_id
 _symmetry_equiv_pos_as_xyz
  1  'x, y, z'
loop_
 _atom_site_type_symbol
 _atom_site_label
 _atom_site_symmetry_multiplicity
 _atom_site_fract_x
 _atom_site_fract_y
 _atom_site_fract_z
 _atom_site_occupancy
  Sn  Sn0  1  0.50000000  0.25608198  0.66003642  1
  Sn  Sn1  1  0.50000000  0.74391802  0.33996358  1
  Sn  Sn2  1  0.00000000  0.75608198  0.83996358  1
  Sn  Sn3  1  0.00000000  0.24391802  0.16003642  1
  P  P4  1  0.50000000  0.41548226  0.84660633  1
  P  P5  1  0.00000000  0.60768347  0.63962247  1
  P  P6  1  0.00000000  0.08451774  0.34660633  1
  P  P7  1  0.50000000  0.10768347  0.86037753  1
  P  P8  1  0.00000000  0.91548226  0.65339367  1
  P  P9  1  0.50000000  0.89231653  0.13962247  1
  P  P10  1  0.50000000  0.58451774  0.15339367  1
  P  P11  1  0.00000000  0.39231653  0.36037753  1
  Cl  Cl12  1  0.69530329  0.62584653  0.08304159  1
  Cl  Cl13  1  0.00000000  0.05268585  0.64750999  1
  Cl  Cl14  1  0.29030050  0.76184750  0.81644462  1
  Cl  Cl15  1  0.00000000  0.94731415  0.35249001  1
  Cl  Cl16  1  0.50000000  0.10342314  0.59352043  1
  Cl  Cl17  1  0.29030050  0.23815250  0.18355538  1
  Cl  Cl18  1  0.50000000  0.89657686  0.40647957  1
  Cl  Cl19  1  0.69468985  0.97282152  0.15839195  1
  Cl  Cl20  1  0.69468985  0.02717848  0.84160805  1
  Cl  Cl21  1  0.30531015  0.97282152  0.15839195  1
  Cl  Cl22  1  0.20969950  0.73815250  0.31644462  1
  Cl  Cl23  1  0.00000000  0.60342314  0.90647957  1
  Cl  Cl24  1  0.30469671  0.62584653  0.08304159  1
  Cl  Cl25  1  0.00000000  0.85322412  0.97255982  1
  Cl  Cl26  1  0.79030050  0.26184750  0.68355538  1
  Cl  Cl27  1  0.80469671  0.12584653  0.41695841  1
  Cl  Cl28  1  0.50000000  0.85754358  0.00847531  1
  Cl  Cl29  1  0.80469671  0.87415347  0.58304159  1
  Cl  Cl30  1  0.50000000  0.55268585  0.85249001  1
  Cl  Cl31  1  0.70969950  0.76184750  0.81644462  1
  Cl  Cl32  1  0.00000000  0.39657686  0.09352043  1
  Cl  Cl33  1  0.50000000  0.14245642  0.99152469  1
  Cl  Cl34  1  0.20969950  0.26184750  0.68355538  1
  Cl  Cl35  1  0.19468985  0.52717848  0.65839195  1
  Cl  Cl36  1  0.00000000  0.35754358  0.49152469  1
  Cl  Cl37  1  0.50000000  0.35322412  0.52744018  1
  Cl  Cl38  1  0.69530329  0.37415347  0.91695841  1
  Cl  Cl39  1  0.50000000  0.64677588  0.47255982  1
  Cl  Cl40  1  0.19530329  0.12584653  0.41695841  1
  Cl  Cl41  1  0.79030050  0.73815250  0.31644462  1
  Cl  Cl42  1  0.30469671  0.37415347  0.91695841  1
  Cl  Cl43  1  0.00000000  0.14677588  0.02744018  1
  Cl  Cl44  1  0.80531015  0.52717848  0.65839195  1
  Cl  Cl45  1  0.30531015  0.02717848  0.84160805  1
  Cl  Cl46  1  0.19530329  0.87415347  0.58304159  1
  Cl  Cl47  1  0.19468985  0.47282152  0.34160805  1
  Cl  Cl48  1  0.80531015  0.47282152  0.34160805  1
  Cl  Cl49  1  0.00000000  0.64245642  0.50847531  1
  Cl  Cl50  1  0.50000000  0.44731415  0.14750999  1
  Cl  Cl51  1  0.70969950  0.23815250  0.18355538  1
  O  O52  1  0.00000000  0.88465457  0.75087178  1
  O  O53  1  0.00000000  0.69230502  0.69777077  1
  O  O54  1  0.00000000  0.11534543  0.24912822  1
  O  O55  1  0.50000000  0.80769498  0.19777077  1
  O  O56  1  0.00000000  0.30769498  0.30222923  1
  O  O57  1  0.50000000  0.61534543  0.25087178  1
  O  O58  1  0.50000000  0.19230502  0.80222923  1
  O  O59  1  0.50000000  0.38465457  0.74912822  1
