# generated using pymatgen
data_Rb3Zr2P5S18
_symmetry_space_group_name_H-M   'P 1'
_cell_length_a   6.87203973
_cell_length_b   6.87203973
_cell_length_c   33.89701359
_cell_angle_alpha   86.13173872
_cell_angle_beta   86.13173872
_cell_angle_gamma   92.98228270
_symmetry_Int_Tables_number   1
_chemical_formula_structural   Rb3Zr2P5S18
_chemical_formula_sum   'Rb6 Zr4 P10 S36'
_cell_volume   1590.92266123
_cell_formula_units_Z   2
loop_
 _symmetry_equiv_pos_site_id
 _symmetry_equiv_pos_as_xyz
  1  'x, y, z'
loop_
 _atom_site_type_symbol
 _atom_site_label
 _atom_site_symmetry_multiplicity
 _atom_site_fract_x
 _atom_site_fract_y
 _atom_site_fract_z
 _atom_site_occupancy
  Rb  Rb0  1  0.72437312  0.54626483  0.86528252  1
  Rb  Rb1  1  0.54626483  0.72437312  0.36528252  1
  Rb  Rb2  1  0.08709762  0.32598282  0.25324092  1
  Rb  Rb3  1  0.32598282  0.08709762  0.75324092  1
  Rb  Rb4  1  0.20696692  0.01897513  0.56994565  1
  Rb  Rb5  1  0.01897513  0.20696692  0.06994565  1
  Zr  Zr6  1  0.87667001  0.46083982  0.46313097  1
  Zr  Zr7  1  0.46083982  0.87667001  0.96313097  1
  Zr  Zr8  1  0.62986663  0.48667528  0.65453946  1
  Zr  Zr9  1  0.48667528  0.62986663  0.15453946  1
  P  P10  1  0.82119511  0.25800423  0.37810390  1
  P  P11  1  0.92586201  0.99674776  0.94440031  1
  P  P12  1  0.72311348  0.44216255  0.55844704  1
  P  P13  1  0.25800423  0.82119511  0.87810390  1
  P  P14  1  0.36495316  0.81811617  0.23971511  1
  P  P15  1  0.17432769  0.58456466  0.67367130  1
  P  P16  1  0.58456466  0.17432769  0.17367130  1
  P  P17  1  0.81811617  0.36495316  0.73971511  1
  P  P18  1  0.44216255  0.72311348  0.05844704  1
  P  P19  1  0.99674776  0.92586201  0.44440031  1
  S  S20  1  0.20216298  0.80332502  0.19212588  1
  S  S21  1  0.61442163  0.56126513  0.72967136  1
  S  S22  1  0.79030634  0.39656501  0.16832379  1
  S  S23  1  0.69008346  0.95983219  0.14183623  1
  S  S24  1  0.60211242  0.66895358  0.58512760  1
  S  S25  1  0.19477042  0.72201773  0.44983431  1
  S  S26  1  0.71349707  0.24786438  0.32606790  1
  S  S27  1  0.80332502  0.20216298  0.69212588  1
  S  S28  1  0.56126513  0.61442163  0.22967136  1
  S  S29  1  0.72201773  0.19477042  0.94983431  1
  S  S30  1  0.15434347  0.08015304  0.97536443  1
  S  S31  1  0.22158149  0.81226674  0.29172334  1
  S  S32  1  0.48607033  0.00596211  0.88808470  1
  S  S33  1  0.95983219  0.69008346  0.64183623  1
  S  S34  1  0.32996435  0.27695312  0.15553840  1
  S  S35  1  0.27695312  0.32996435  0.65553840  1
  S  S36  1  0.39656501  0.79030634  0.66832379  1
  S  S37  1  0.62260002  0.25594885  0.42521616  1
  S  S38  1  0.57324737  0.35662665  0.51227968  1
  S  S39  1  0.09382755  0.53597520  0.73512452  1
  S  S40  1  0.81226674  0.22158149  0.79172334  1
  S  S41  1  0.71437427  0.22688426  0.60323811  1
  S  S42  1  0.08015304  0.15434347  0.47536443  1
  S  S43  1  0.51039290  -0.00042931  0.03451649  1
  S  S44  1  0.99093870  0.00348373  0.38272083  1
  S  S45  1  0.25594885  0.62260002  0.92521616  1
  S  S46  1  0.72942172  0.79995508  0.46296010  1
  S  S47  1  0.00596211  0.48607033  0.38808470  1
  S  S48  1  0.00348373  0.99093870  0.88272083  1
  S  S49  1  0.53597520  0.09382755  0.23512452  1
  S  S50  1  0.35662665  0.57324737  0.01227968  1
  S  S51  1  0.79995508  0.72942172  0.96296010  1
  S  S52  1  0.22688426  0.71437427  0.10323811  1
  S  S53  1  0.24786438  0.71349707  0.82606790  1
  S  S54  1  -0.00042931  0.51039290  0.53451649  1
  S  S55  1  0.66895358  0.60211242  0.08512760  1
