# generated using pymatgen
data_ZnS
_symmetry_space_group_name_H-M   'P 1'
_cell_length_a   3.80945908
_cell_length_b   3.80945800
_cell_length_c   87.24046559
_cell_angle_alpha   90.00000000
_cell_angle_beta   90.00000000
_cell_angle_gamma   119.99999172
_symmetry_Int_Tables_number   1
_chemical_formula_structural   ZnS
_chemical_formula_sum   'Zn28 S28'
_cell_volume   1096.41544533
_cell_formula_units_Z   28
loop_
 _symmetry_equiv_pos_site_id
 _symmetry_equiv_pos_as_xyz
  1  'x, y, z'
loop_
 _atom_site_type_symbol
 _atom_site_label
 _atom_site_symmetry_multiplicity
 _atom_site_fract_x
 _atom_site_fract_y
 _atom_site_fract_z
 _atom_site_occupancy
  Zn  Zn0  1  0.66666700  0.33333300  0.07145429  1
  Zn  Zn1  1  0.00000000  -0.00000000  0.92860111  1
  Zn  Zn2  1  -0.00000000  -0.00000000  0.64287930  1
  Zn  Zn3  1  0.00000000  -0.00000000  0.21432281  1
  Zn  Zn4  1  0.66666700  0.33333300  0.39287580  1
  Zn  Zn5  1  0.33333300  0.66666700  0.10718782  1
  Zn  Zn6  1  0.33333300  0.66666700  0.46427923  1
  Zn  Zn7  1  0.33333300  0.66666700  0.53572902  1
  Zn  Zn8  1  0.00000000  0.00000000  0.85719148  1
  Zn  Zn9  1  0.00000000  0.00000000  0.78568941  1
  Zn  Zn10  1  0.66666700  0.33333300  0.96430082  1
  Zn  Zn11  1  0.33333300  0.66666700  0.32146435  1
  Zn  Zn12  1  0.00000000  0.00000000  0.14284194  1
  Zn  Zn13  1  0.00000000  -0.00000000  0.35715003  1
  Zn  Zn14  1  0.00000000  -0.00000000  0.00002938  1
  Zn  Zn15  1  0.66666700  0.33333300  0.60715315  1
  Zn  Zn16  1  0.33333300  0.66666700  0.67855469  1
  Zn  Zn17  1  0.66666700  0.33333300  0.71429126  1
  Zn  Zn18  1  0.66666700  0.33333300  0.82144220  1
  Zn  Zn19  1  0.66666700  0.33333300  0.28570427  1
  Zn  Zn20  1  0.33333300  0.66666700  0.03569429  1
  Zn  Zn21  1  0.33333300  0.66666700  0.89288437  1
  Zn  Zn22  1  0.33333300  0.66666700  0.24998989  1
  Zn  Zn23  1  0.66666700  0.33333300  0.17857294  1
  Zn  Zn24  1  0.66666700  0.33333300  0.50001817  1
  Zn  Zn25  1  0.00000000  -0.00000000  0.57141715  1
  Zn  Zn26  1  0.00000000  0.00000000  0.42861870  1
  Zn  Zn27  1  0.33333300  0.66666700  0.75005451  1
  S  S28  1  0.66666700  0.33333300  0.20537298  1
  S  S29  1  0.33333300  0.66666700  0.56247369  1
  S  S30  1  0.33333300  0.66666700  0.70531172  1
  S  S31  1  0.66666700  0.33333300  0.63394884  1
  S  S32  1  0.00000000  0.00000000  0.02676718  1
  S  S33  1  0.00000000  -0.00000000  0.38389063  1
  S  S34  1  0.66666700  0.33333300  0.99108231  1
  S  S35  1  0.66666700  0.33333300  0.84824332  1
  S  S36  1  0.66666700  0.33333300  0.41967147  1
  S  S37  1  0.66666700  0.33333300  0.52679776  1
  S  S38  1  0.33333300  0.66666700  0.06243758  1
  S  S39  1  0.66666700  0.33333300  0.09825064  1
  S  S40  1  0.00000000  0.00000000  0.45535852  1
  S  S41  1  0.66666700  0.33333300  0.31249846  1
  S  S42  1  0.00000000  -0.00000000  0.88391608  1
  S  S43  1  0.00000000  0.00000000  0.59817539  1
  S  S44  1  0.00000000  -0.00000000  0.66962808  1
  S  S45  1  0.33333300  0.66666700  0.77677901  1
  S  S46  1  0.00000000  -0.00000000  0.95532873  1
  S  S47  1  0.00000000  -0.00000000  0.16958838  1
  S  S48  1  0.00000000  -0.00000000  0.24106643  1
  S  S49  1  0.33333300  0.66666700  0.91966911  1
  S  S50  1  0.66666700  0.33333300  0.74108761  1
  S  S51  1  0.33333300  0.66666700  0.34820557  1
  S  S52  1  0.33333300  0.66666700  0.27673330  1
  S  S53  1  0.00000000  -0.00000000  0.81244054  1
  S  S54  1  0.33333300  0.66666700  0.13393260  1
  S  S55  1  0.33333300  0.66666700  0.49101667  1
