# generated using pymatgen
data_Mg2BiPO6
_symmetry_space_group_name_H-M   'P 1'
_cell_length_a   5.27085700
_cell_length_b   7.10096323
_cell_length_c   7.10096148
_cell_angle_alpha   113.59838018
_cell_angle_beta   90.00000000
_cell_angle_gamma   90.00000000
_symmetry_Int_Tables_number   1
_chemical_formula_structural   Mg2BiPO6
_chemical_formula_sum   'Mg4 Bi2 P2 O12'
_cell_volume   243.55016919
_cell_formula_units_Z   2
loop_
 _symmetry_equiv_pos_site_id
 _symmetry_equiv_pos_as_xyz
  1  'x, y, z'
loop_
 _atom_site_type_symbol
 _atom_site_label
 _atom_site_symmetry_multiplicity
 _atom_site_fract_x
 _atom_site_fract_y
 _atom_site_fract_z
 _atom_site_occupancy
  Mg  Mg0  1  0.25000000  0.90066937  0.70814240  1
  Mg  Mg1  1  0.25000000  0.29185760  0.09933063  1
  Mg  Mg2  1  0.75000000  0.09933063  0.29185760  1
  Mg  Mg3  1  0.75000000  0.70814240  0.90066937  1
  Bi  Bi4  1  0.75000000  0.59830935  0.40169065  1
  Bi  Bi5  1  0.25000000  0.40169065  0.59830935  1
  P  P6  1  0.25000000  0.80241609  0.19758391  1
  P  P7  1  0.75000000  0.19758391  0.80241609  1
  O  O8  1  0.00000000  0.32812967  0.32812967  1
  O  O9  1  0.50768588  0.12360624  0.87639376  1
  O  O10  1  0.25000000  0.89318198  0.43094132  1
  O  O11  1  0.75000000  0.10681802  0.56905868  1
  O  O12  1  0.50000000  0.32812967  0.32812967  1
  O  O13  1  0.25000000  0.56905868  0.10681802  1
  O  O14  1  0.00000000  0.67187033  0.67187033  1
  O  O15  1  0.50000000  0.67187033  0.67187033  1
  O  O16  1  0.00768588  0.87639376  0.12360624  1
  O  O17  1  0.75000000  0.43094132  0.89318198  1
  O  O18  1  0.99231412  0.12360624  0.87639376  1
  O  O19  1  0.49231412  0.87639376  0.12360624  1
