# generated using pymatgen
data_Pr(C2N3)3
_symmetry_space_group_name_H-M   'P 1'
_cell_length_a   7.02100411
_cell_length_b   7.02100411
_cell_length_c   10.27786488
_cell_angle_alpha   90.00000000
_cell_angle_beta   90.00000000
_cell_angle_gamma   111.45395913
_symmetry_Int_Tables_number   1
_chemical_formula_structural   Pr(C2N3)3
_chemical_formula_sum   'Pr2 C12 N18'
_cell_volume   471.53785820
_cell_formula_units_Z   2
loop_
 _symmetry_equiv_pos_site_id
 _symmetry_equiv_pos_as_xyz
  1  'x, y, z'
loop_
 _atom_site_type_symbol
 _atom_site_label
 _atom_site_symmetry_multiplicity
 _atom_site_fract_x
 _atom_site_fract_y
 _atom_site_fract_z
 _atom_site_occupancy
  Pr  Pr0  1  0.71497404  0.28502596  0.75000000  1
  Pr  Pr1  1  0.28502596  0.71497404  0.25000000  1
  C  C2  1  0.71238560  0.00202743  0.45017364  1
  C  C3  1  0.00202743  0.71238560  0.54982636  1
  C  C4  1  0.28761440  -0.00202743  0.54982636  1
  C  C5  1  0.44218874  0.27406446  0.25000000  1
  C  C6  1  -0.00202743  0.28761440  0.04982636  1
  C  C7  1  0.55781126  0.72593554  0.75000000  1
  C  C8  1  0.72593554  0.55781126  0.25000000  1
  C  C9  1  0.27406446  0.44218874  0.75000000  1
  C  C10  1  0.28761440  -0.00202743  0.95017364  1
  C  C11  1  -0.00202743  0.28761440  0.45017364  1
  C  C12  1  0.71238560  0.00202743  0.04982636  1
  C  C13  1  0.00202743  0.71238560  0.95017364  1
  N  N14  1  0.15852611  0.84147389  0.01066811  1
  N  N15  1  0.84147389  0.15852611  0.98933189  1
  N  N16  1  0.58681507  0.85888502  0.40380698  1
  N  N17  1  0.64456990  0.90324154  0.75000000  1
  N  N18  1  0.09675846  0.35543010  0.75000000  1
  N  N19  1  0.41318493  0.14111498  0.59619302  1
  N  N20  1  0.47237996  0.52762004  0.75000000  1
  N  N21  1  0.52762004  0.47237996  0.25000000  1
  N  N22  1  0.14111498  0.41318493  0.40380698  1
  N  N23  1  0.85888502  0.58681507  0.59619302  1
  N  N24  1  0.35543010  0.09675846  0.25000000  1
  N  N25  1  0.14111498  0.41318493  0.09619302  1
  N  N26  1  0.41318493  0.14111498  0.90380698  1
  N  N27  1  0.90324154  0.64456990  0.25000000  1
  N  N28  1  0.58681507  0.85888502  0.09619302  1
  N  N29  1  0.84147389  0.15852611  0.51066811  1
  N  N30  1  0.85888502  0.58681507  0.90380698  1
  N  N31  1  0.15852611  0.84147389  0.48933189  1
