# generated using pymatgen
data_La2CO5
_symmetry_space_group_name_H-M   'P 1'
_cell_length_a   7.03148763
_cell_length_b   7.02832407
_cell_length_c   31.90259086
_cell_angle_alpha   90.00000000
_cell_angle_beta   90.00000000
_cell_angle_gamma   120.01488162
_symmetry_Int_Tables_number   1
_chemical_formula_structural   La2CO5
_chemical_formula_sum   'La24 C12 O60'
_cell_volume   1365.18163235
_cell_formula_units_Z   12
loop_
 _symmetry_equiv_pos_site_id
 _symmetry_equiv_pos_as_xyz
  1  'x, y, z'
loop_
 _atom_site_type_symbol
 _atom_site_label
 _atom_site_symmetry_multiplicity
 _atom_site_fract_x
 _atom_site_fract_y
 _atom_site_fract_z
 _atom_site_occupancy
  La  La0  1  0.66106457  0.67241559  0.57773819  1
  La  La1  1  0.66598908  0.00657829  0.67319603  1
  La  La2  1  0.98890963  0.66437726  0.32763587  1
  La  La3  1  0.65941079  0.99342171  0.32680397  1
  La  La4  1  0.33160686  0.00125012  0.92238798  1
  La  La5  1  0.98864898  0.32758441  0.07773819  1
  La  La6  1  0.65978461  0.66873027  0.42340083  1
  La  La7  1  0.33035774  0.99874988  0.42238798  1
  La  La8  1  0.33160686  0.00125012  0.57761202  1
  La  La9  1  0.65978461  0.66873027  0.07659917  1
  La  La10  1  0.99105533  0.33126973  0.57659917  1
  La  La11  1  0.66598908  0.00657829  0.82680397  1
  La  La12  1  0.32995499  0.33498653  0.32762885  1
  La  La13  1  0.65941079  0.99342171  0.17319603  1
  La  La14  1  0.66106457  0.67241559  0.92226181  1
  La  La15  1  0.98864898  0.32758441  0.42226181  1
  La  La16  1  0.99105533  0.33126973  0.92340083  1
  La  La17  1  0.98890963  0.66437726  0.17236413  1
  La  La18  1  0.32995499  0.33498653  0.17237115  1
  La  La19  1  0.32453237  0.33562274  0.67236413  1
  La  La20  1  0.99496746  0.66501347  0.82762885  1
  La  La21  1  0.32453237  0.33562274  0.82763587  1
  La  La22  1  0.33035774  0.99874988  0.07761202  1
  La  La23  1  0.99496746  0.66501347  0.67237115  1
  C  C24  1  0.65975886  0.27905301  0.25000000  1
  C  C25  1  0.04801079  0.00000000  0.00000000  1
  C  C26  1  0.38070585  0.72094699  0.75000000  1
  C  C27  1  0.65943573  0.38596157  0.50008988  1
  C  C28  1  0.60810440  0.33706867  0.75000000  1
  C  C29  1  0.04679871  0.05134404  0.25000000  1
  C  C30  1  0.99545467  0.94865596  0.75000000  1
  C  C31  1  0.27103473  0.66293133  0.25000000  1
  C  C32  1  0.27347416  0.61403843  0.00008988  1
  C  C33  1  0.04801079  0.00000000  0.50000000  1
  C  C34  1  0.65943573  0.38596157  -0.00008988  1
  C  C35  1  0.27347416  0.61403843  0.49991012  1
  O  O36  1  0.66163745  0.66736336  0.84536518  1
  O  O37  1  0.35970256  0.66422385  0.21464227  1
  O  O38  1  0.32977446  0.33479090  0.59538604  1
  O  O39  1  0.32443087  0.33031238  0.09538767  1
  O  O40  1  0.56404881  0.90247181  0.75000000  1
  O  O41  1  0.65830415  0.56771857  0.50071551  1
  O  O42  1  0.08783645  0.66083944  0.25000000  1
  O  O43  1  0.65976908  0.00021808  0.09862068  1
  O  O44  1  0.35887079  0.69924076  0.53560771  1
  O  O45  1  0.65976908  0.00021808  0.40137932  1
  O  O46  1  0.65876724  0.36618163  0.28537350  1
  O  O47  1  0.99427409  0.33263664  0.34536518  1
  O  O48  1  0.32468019  0.99791825  0.34543222  1
  O  O49  1  0.36440847  0.70382314  0.03511083  1
  O  O50  1  0.35887079  0.69924076  0.96439229  1
  O  O51  1  0.32443087  0.33031238  0.40461233  1
  O  O52  1  0.65830415  0.56771857  0.99928449  1
  O  O53  1  0.99427409  0.33263664  0.15463482  1
  O  O54  1  0.36440847  0.70382314  0.46488917  1
  O  O55  1  0.69547771  0.33577615  0.71464227  1
  O  O56  1  0.66163745  0.66736336  0.65463482  1
  O  O57  1  0.95947596  0.99904898  0.03534892  1
  O  O58  1  0.65963003  0.30075924  0.46439229  1
  O  O59  1  0.32676194  0.00208175  0.65456778  1
  O  O60  1  0.96042697  0.00095102  0.53534892  1
  O  O61  1  0.09058458  0.43228143  0.00071551  1
  O  O62  1  0.99679089  0.33726202  0.84876376  1
  O  O63  1  0.22842842  0.23421846  0.25000000  1
  O  O64  1  0.66058533  0.29617686  0.96488917  1
  O  O65  1  0.99498456  0.66520910  0.09538604  1
  O  O66  1  0.65963003  0.30075924  0.03560771  1
  O  O67  1  0.65952888  0.66273798  0.34876376  1
  O  O68  1  0.65955099  -0.00021808  0.59862068  1
  O  O69  1  0.29258562  0.63381837  0.78537350  1
  O  O70  1  0.99411649  0.66968762  0.59538767  1
  O  O71  1  0.99603816  0.03704723  0.78535222  1
  O  O72  1  0.99421196  0.76578154  0.75000000  1
  O  O73  1  0.32468019  0.99791825  0.15456778  1
  O  O74  1  0.09058458  0.43228143  0.49928449  1
  O  O75  1  0.99603816  0.03704723  0.71464778  1
  O  O76  1  0.99411649  0.66968762  0.90461233  1
  O  O77  1  0.29258562  0.63381837  0.71462650  1
  O  O78  1  0.99498456  0.66520910  0.40461396  1
  O  O79  1  0.65955099  -0.00021808  0.90137932  1
  O  O80  1  0.95947596  0.99904898  0.46465108  1
  O  O81  1  0.23016906  0.00000000  0.50000000  1
  O  O82  1  0.66058533  0.29617686  0.53511083  1
  O  O83  1  0.35970256  0.66422385  0.28535773  1
  O  O84  1  0.42699701  0.33916056  0.75000000  1
  O  O85  1  0.66157800  0.09752819  0.25000000  1
  O  O86  1  0.95898993  0.96295277  0.21464778  1
  O  O87  1  0.99679089  0.33726202  0.65123624  1
  O  O88  1  0.96042697  0.00095102  0.96465108  1
  O  O89  1  0.32676194  0.00208175  0.84543222  1
  O  O90  1  0.69547771  0.33577615  0.78535773  1
  O  O91  1  0.65952888  0.66273798  0.15123624  1
  O  O92  1  0.65876724  0.36618163  0.21462650  1
  O  O93  1  0.23016906  0.00000000  0.00000000  1
  O  O94  1  0.95898993  0.96295277  0.28535222  1
  O  O95  1  0.32977446  0.33479090  0.90461396  1
