# generated using pymatgen
data_Cs2TlCl5
_symmetry_space_group_name_H-M   'P 1'
_cell_length_a   7.52973442
_cell_length_b   9.41838916
_cell_length_c   15.07143808
_cell_angle_alpha   90.00000000
_cell_angle_beta   90.00000000
_cell_angle_gamma   90.00000000
_symmetry_Int_Tables_number   1
_chemical_formula_structural   Cs2TlCl5
_chemical_formula_sum   'Cs8 Tl4 Cl20'
_cell_volume   1068.83577913
_cell_formula_units_Z   4
loop_
 _symmetry_equiv_pos_site_id
 _symmetry_equiv_pos_as_xyz
  1  'x, y, z'
loop_
 _atom_site_type_symbol
 _atom_site_label
 _atom_site_symmetry_multiplicity
 _atom_site_fract_x
 _atom_site_fract_y
 _atom_site_fract_z
 _atom_site_occupancy
  Cs  Cs0  1  0.25000000  0.46840673  0.29736021  1
  Cs  Cs1  1  0.75000000  0.53159327  0.70263979  1
  Cs  Cs2  1  0.25000000  0.96840673  0.20263979  1
  Cs  Cs3  1  0.75000000  0.03159327  0.79736021  1
  Cs  Cs4  1  0.75000000  0.32427816  0.07835751  1
  Cs  Cs5  1  0.25000000  0.67572184  0.92164249  1
  Cs  Cs6  1  0.75000000  0.82427816  0.42164249  1
  Cs  Cs7  1  0.25000000  0.17572184  0.57835751  1
  Tl  Tl8  1  0.75000000  0.31247608  0.42996722  1
  Tl  Tl9  1  0.25000000  0.68752392  0.57003278  1
  Tl  Tl10  1  0.75000000  0.81247608  0.07003278  1
  Tl  Tl11  1  0.25000000  0.18752392  0.92996722  1
  Cl  Cl12  1  0.50000000  0.50000000  0.50000000  1
  Cl  Cl13  1  0.00000000  0.50000000  0.50000000  1
  Cl  Cl14  1  0.00000000  0.00000000  0.00000000  1
  Cl  Cl15  1  0.50000000  0.00000000  0.00000000  1
  Cl  Cl16  1  0.00694720  0.15726552  0.37624229  1
  Cl  Cl17  1  0.50694720  0.84273448  0.62375771  1
  Cl  Cl18  1  0.49305280  0.65726552  0.12375771  1
  Cl  Cl19  1  0.99305280  0.34273448  0.87624229  1
  Cl  Cl20  1  0.99305280  0.84273448  0.62375771  1
  Cl  Cl21  1  0.49305280  0.15726552  0.37624229  1
  Cl  Cl22  1  0.50694720  0.34273448  0.87624229  1
  Cl  Cl23  1  0.00694720  0.65726552  0.12375771  1
  Cl  Cl24  1  0.75000000  0.20257939  0.58492305  1
  Cl  Cl25  1  0.25000000  0.79742061  0.41507695  1
  Cl  Cl26  1  0.75000000  0.70257939  0.91507695  1
  Cl  Cl27  1  0.25000000  0.29742061  0.08492305  1
  Cl  Cl28  1  0.75000000  0.47489891  0.29797538  1
  Cl  Cl29  1  0.25000000  0.52510109  0.70202462  1
  Cl  Cl30  1  0.75000000  0.97489891  0.20202462  1
  Cl  Cl31  1  0.25000000  0.02510109  0.79797538  1
