# generated using pymatgen
data_NaInP2O7
_symmetry_space_group_name_H-M   'P 1'
_cell_length_a   8.14440427
_cell_length_b   7.49274510
_cell_length_c   9.85310410
_cell_angle_alpha   67.76697035
_cell_angle_beta   90.00000000
_cell_angle_gamma   90.00000000
_symmetry_Int_Tables_number   1
_chemical_formula_structural   NaInP2O7
_chemical_formula_sum   'Na4 In4 P8 O28'
_cell_volume   556.57203892
_cell_formula_units_Z   4
loop_
 _symmetry_equiv_pos_site_id
 _symmetry_equiv_pos_as_xyz
  1  'x, y, z'
loop_
 _atom_site_type_symbol
 _atom_site_label
 _atom_site_symmetry_multiplicity
 _atom_site_fract_x
 _atom_site_fract_y
 _atom_site_fract_z
 _atom_site_occupancy
  Na  Na0  1  0.52013104  0.28398657  0.71550658  1
  Na  Na1  1  0.97986896  0.28398657  0.21550658  1
  Na  Na2  1  0.02013104  0.71601343  0.78449342  1
  Na  Na3  1  0.47986896  0.71601343  0.28449342  1
  In  In4  1  0.49649998  0.74586644  0.75026784  1
  In  In5  1  0.99649998  0.25413356  0.74973216  1
  In  In6  1  0.50350002  0.25413356  0.24973216  1
  In  In7  1  0.00350002  0.74586644  0.25026784  1
  P  P8  1  0.28239153  0.32751455  0.95379962  1
  P  P9  1  0.75166887  0.07520000  0.03809959  1
  P  P10  1  0.25166887  0.92480000  0.46190041  1
  P  P11  1  0.24833113  0.92480000  0.96190041  1
  P  P12  1  0.74833113  0.07520000  0.53809959  1
  P  P13  1  0.71760847  0.67248545  0.04620038  1
  P  P14  1  0.78239153  0.67248545  0.54620038  1
  P  P15  1  0.21760847  0.32751455  0.45379962  1
  O  O16  1  0.10871405  0.37776963  0.89330852  1
  O  O17  1  0.58835425  0.03299343  0.62491392  1
  O  O18  1  0.08835425  0.96700657  0.87508608  1
  O  O19  1  0.41164575  0.96700657  0.37508608  1
  O  O20  1  0.91164575  0.03299343  0.12491392  1
  O  O21  1  0.83233745  0.87073990  0.56392851  1
  O  O22  1  0.33233745  0.12926010  0.93607149  1
  O  O23  1  0.16766255  0.12926010  0.43607149  1
  O  O24  1  0.62745564  0.17542279  0.09547166  1
  O  O25  1  0.12745564  0.82457721  0.40452834  1
  O  O26  1  0.37254436  0.82457721  0.90452834  1
  O  O27  1  0.87254436  0.17542279  0.59547166  1
  O  O28  1  0.77439880  0.17951636  0.87429665  1
  O  O29  1  0.27439880  0.82048364  0.62570335  1
  O  O30  1  0.22560120  0.82048364  0.12570335  1
  O  O31  1  0.72560120  0.17951636  0.37429665  1
  O  O32  1  0.78490856  0.70068978  0.38556742  1
  O  O33  1  0.28490856  0.29931022  0.11443258  1
  O  O34  1  0.21509144  0.29931022  0.61443258  1
  O  O35  1  0.41207260  0.45912660  0.85891127  1
  O  O36  1  0.89128595  0.62223037  0.10669148  1
  O  O37  1  0.39128595  0.37776963  0.39330852  1
  O  O38  1  0.71509144  0.70068978  0.88556742  1
  O  O39  1  0.60871405  0.62223037  0.60669148  1
  O  O40  1  0.08792740  0.45912660  0.35891127  1
  O  O41  1  0.58792740  0.54087340  0.14108873  1
  O  O42  1  0.91207260  0.54087340  0.64108873  1
  O  O43  1  0.66766255  0.87073990  0.06392851  1
