# generated using pymatgen
data_K3Mo2Cl9
_symmetry_space_group_name_H-M   'P 1'
_cell_length_a   7.08445131
_cell_length_b   7.08444885
_cell_length_c   17.14699963
_cell_angle_alpha   89.99999973
_cell_angle_beta   89.99999643
_cell_angle_gamma   120.00004445
_symmetry_Int_Tables_number   1
_chemical_formula_structural   K3Mo2Cl9
_chemical_formula_sum   'K6 Mo4 Cl18'
_cell_volume   745.29955938
_cell_formula_units_Z   2
loop_
 _symmetry_equiv_pos_site_id
 _symmetry_equiv_pos_as_xyz
  1  'x, y, z'
loop_
 _atom_site_type_symbol
 _atom_site_label
 _atom_site_symmetry_multiplicity
 _atom_site_fract_x
 _atom_site_fract_y
 _atom_site_fract_z
 _atom_site_occupancy
  K  K0  1  0.66666711  0.33333280  0.43711226  1
  K  K1  1  0.33333299  0.66666715  0.56288436  1
  K  K2  1  0.33333269  0.66666705  0.93711510  1
  K  K3  1  0.66666714  0.33333272  0.06288827  1
  K  K4  1  0.99999830  0.00000017  0.25000064  1
  K  K5  1  0.00000162  -0.00000019  0.74999921  1
  Mo  Mo6  1  0.33333346  0.66666676  0.32977079  1
  Mo  Mo7  1  0.66666657  0.33333327  0.67022704  1
  Mo  Mo8  1  0.33333341  0.66666669  0.17022895  1
  Mo  Mo9  1  0.66666667  0.33333334  0.82977272  1
  Cl  Cl10  1  0.54578840  0.00093217  0.25000185  1
  Cl  Cl11  1  0.78047440  0.12809729  0.90877809  1
  Cl  Cl12  1  0.12810609  0.34761764  0.40877519  1
  Cl  Cl13  1  0.34762278  0.21952522  0.90877791  1
  Cl  Cl14  1  0.12810550  0.34761677  0.09122557  1
  Cl  Cl15  1  0.21951159  0.87189494  0.09122538  1
  Cl  Cl16  1  -0.00093232  0.54485687  0.25000183  1
  Cl  Cl17  1  0.34762473  0.21952616  0.59122111  1
  Cl  Cl18  1  0.45514331  0.45421106  0.25000185  1
  Cl  Cl19  1  0.78047362  0.12809822  0.59122097  1
  Cl  Cl20  1  0.45421224  -0.00092678  0.74999861  1
  Cl  Cl21  1  0.54486156  0.54578827  0.74999857  1
  Cl  Cl22  1  0.00092681  0.45513840  0.74999857  1
  Cl  Cl23  1  0.21951204  0.87189445  0.40877533  1
  Cl  Cl24  1  0.87190118  0.65237525  0.59122113  1
  Cl  Cl25  1  0.65238335  0.78048887  0.09122564  1
  Cl  Cl26  1  0.65238237  0.78048840  0.40877518  1
  Cl  Cl27  1  0.87190240  0.65237705  0.90877791  1
