# generated using pymatgen
data_Na3Nd5Cl18
_symmetry_space_group_name_H-M   'P 1'
_cell_length_a   7.57525152
_cell_length_b   7.57544833
_cell_length_c   12.66621261
_cell_angle_alpha   89.99973218
_cell_angle_beta   90.00026215
_cell_angle_gamma   120.00376042
_symmetry_Int_Tables_number   1
_chemical_formula_structural   Na3Nd5Cl18
_chemical_formula_sum   'Na3 Nd5 Cl18'
_cell_volume   629.45740252
_cell_formula_units_Z   1
loop_
 _symmetry_equiv_pos_site_id
 _symmetry_equiv_pos_as_xyz
  1  'x, y, z'
loop_
 _atom_site_type_symbol
 _atom_site_label
 _atom_site_symmetry_multiplicity
 _atom_site_fract_x
 _atom_site_fract_y
 _atom_site_fract_z
 _atom_site_occupancy
  Na  Na0  1  -0.00039984  -0.00054746  0.49994953  1
  Na  Na1  1  0.66671532  0.33336442  0.33254216  1
  Na  Na2  1  0.66671444  0.33337085  0.66746357  1
  Nd  Nd3  1  0.00004636  0.00003933  0.83298751  1
  Nd  Nd4  1  0.00004024  0.00002791  0.16700916  1
  Nd  Nd5  1  0.33332585  0.66666857  0.00000409  1
  Nd  Nd6  1  0.33332861  0.66669079  0.33627277  1
  Nd  Nd7  1  0.33333231  0.66669816  0.66373633  1
  Cl  Cl8  1  0.97442916  0.24725224  0.00000006  1
  Cl  Cl9  1  0.97894126  0.25238241  0.32760388  1
  Cl  Cl10  1  0.97894968  0.25239466  0.67239036  1
  Cl  Cl11  1  0.75280394  0.72721735  0.00000193  1
  Cl  Cl12  1  0.74761778  0.72654984  0.32760529  1
  Cl  Cl13  1  0.74762501  0.72656478  0.67239532  1
  Cl  Cl14  1  0.05452592  0.63348849  0.83478864  1
  Cl  Cl15  1  0.05452138  0.63348210  0.16522455  1
  Cl  Cl16  1  0.04829939  0.61631220  0.49999975  1
  Cl  Cl17  1  0.27289890  0.02559634  0.00000698  1
  Cl  Cl18  1  0.27350365  0.02111297  0.32760977  1
  Cl  Cl19  1  0.27350317  0.02111016  0.67239129  1
  Cl  Cl20  1  0.57895074  0.94543992  0.83480145  1
  Cl  Cl21  1  0.57894876  0.94543406  0.16520371  1
  Cl  Cl22  1  0.56797293  0.95169461  0.49999883  1
  Cl  Cl23  1  0.36653500  0.42110305  0.83480397  1
  Cl  Cl24  1  0.36652813  0.42109908  0.16520335  1
  Cl  Cl25  1  0.38367390  0.43212215  0.50000374  1
