# generated using pymatgen
data_Sr3P4
_symmetry_space_group_name_H-M   'P 1'
_cell_length_a   11.31161380
_cell_length_b   9.21531294
_cell_length_c   7.76306671
_cell_angle_alpha   83.08159355
_cell_angle_beta   53.97351534
_cell_angle_gamma   42.94489111
_symmetry_Int_Tables_number   1
_chemical_formula_structural   Sr3P4
_chemical_formula_sum   'Sr6 P8'
_cell_volume   368.56788803
_cell_formula_units_Z   2
loop_
 _symmetry_equiv_pos_site_id
 _symmetry_equiv_pos_as_xyz
  1  'x, y, z'
loop_
 _atom_site_type_symbol
 _atom_site_label
 _atom_site_symmetry_multiplicity
 _atom_site_fract_x
 _atom_site_fract_y
 _atom_site_fract_z
 _atom_site_occupancy
  Sr  Sr0  1  0.57165000  0.09394100  0.41892900  1
  Sr  Sr1  1  0.91252500  0.42765700  0.09091000  1
  Sr  Sr2  1  0.82184200  0.34236500  0.68033700  1
  Sr  Sr3  1  0.16498200  0.67550200  0.32700900  1
  Sr  Sr4  1  0.50845400  0.99702000  0.98963400  1
  Sr  Sr5  1  0.25137500  0.75161500  0.75051900  1
  P  P6  1  0.08518900  0.41693900  0.58300400  1
  P  P7  1  0.92066000  0.57797200  0.42427200  1
  P  P8  1  0.66937300  0.33680000  0.17009700  1
  P  P9  1  0.82810100  0.16788200  0.32689300  1
  P  P10  1  0.51483000  0.82891900  0.66701200  1
  P  P11  1  0.99527400  0.65695800  0.81572900  1
  P  P12  1  0.41859100  0.73278700  0.26279500  1
  P  P13  1  0.59009900  0.25086200  0.72957800  1
