# generated using pymatgen
data_Si2H25C10N
_symmetry_space_group_name_H-M   'P 1'
_cell_length_a   13.12877800
_cell_length_b   9.08485200
_cell_length_c   13.44077723
_cell_angle_alpha   70.24901411
_cell_angle_beta   90.00000000
_cell_angle_gamma   90.00000000
_symmetry_Int_Tables_number   1
_chemical_formula_structural   Si2H25C10N
_chemical_formula_sum   'Si8 H100 C40 N4'
_cell_volume   1508.81055125
_cell_formula_units_Z   4
loop_
 _symmetry_equiv_pos_site_id
 _symmetry_equiv_pos_as_xyz
  1  'x, y, z'
loop_
 _atom_site_type_symbol
 _atom_site_label
 _atom_site_symmetry_multiplicity
 _atom_site_fract_x
 _atom_site_fract_y
 _atom_site_fract_z
 _atom_site_occupancy
  Si  Si0  1  0.91509300  0.83613600  0.22008100  1
  Si  Si1  1  0.42894600  0.89859900  0.50853300  1
  Si  Si2  1  0.06903200  0.90109500  0.01077700  1
  Si  Si3  1  0.57175600  0.09298600  0.49627900  1
  Si  Si4  1  0.92673600  0.09683900  0.99495400  1
  Si  Si5  1  0.58231200  0.82996300  0.71937600  1
  Si  Si6  1  0.07885700  0.16484700  0.78412800  1
  Si  Si7  1  0.42207700  0.16457800  0.28124300  1
  H  H8  1  0.15271900  0.31577200  0.93570200  1
  H  H9  1  0.60616300  0.85881000  0.93944600  1
  H  H10  1  0.39238200  0.14296300  0.05657200  1
  H  H11  1  0.51228200  0.71011700  0.43826800  1
  H  H12  1  0.49190700  0.29133400  0.56247700  1
  H  H13  1  0.76164700  0.06461000  0.51002900  1
  H  H14  1  0.91928500  0.94000800  0.77543900  1
  H  H15  1  0.81024800  0.58666100  0.40028500  1
  H  H16  1  0.84012500  0.68560800  0.06635800  1
  H  H17  1  0.79011700  0.97468200  0.92001300  1
  H  H18  1  0.74138500  0.47894700  0.33876600  1
  H  H19  1  0.24843100  0.45862500  0.85836500  1
  H  H20  1  0.72453700  0.18733700  0.38171500  1
  H  H21  1  0.00996600  0.29181600  0.05589900  1
  H  H22  1  0.51917100  0.52796100  0.68871100  1
  H  H23  1  0.34037900  0.31655700  0.43588900  1
  H  H24  1  0.98853700  0.20495900  0.49888100  1
  H  H25  1  0.76066100  0.48501300  0.84021100  1
  H  H26  1  0.91190600  0.37623000  0.96460700  1
  H  H27  1  0.98153100  0.51741300  0.19199400  1
  H  H28  1  0.27267500  0.82117500  0.61701800  1
  H  H29  1  0.47036500  0.51251300  0.17247400  1
  H  H30  1  0.08093200  0.06414300  0.22865600  1
  H  H31  1  0.15820300  0.74911100  0.40402600  1
  H  H32  1  0.41097000  0.62178100  0.53137600  1
  H  H33  1  0.24190900  0.51500900  0.16370400  1
  H  H34  1  0.93310000  0.66239100  0.46103900  1
  H  H35  1  0.40423200  0.02188200  0.86951900  1
  H  H36  1  0.26533500  0.25413000  0.88386900  1
  H  H37  1  0.25844200  0.46104400  0.35735200  1
  H  H38  1  0.01081200  0.79637800  0.49772700  1
  H  H39  1  0.66716200  0.93253500  0.72757800  1
  H  H40  1  0.35061800  0.77899700  0.76415100  1
  H  H41  1  0.11079600  0.13428100  0.56136300  1
  H  H42  1  0.42622500  0.33465600  0.04146200  1
  H  H43  1  0.87724300  0.26073600  0.09746700  1
  H  H44  1  0.74663100  0.53756300  0.64115700  1
  H  H45  1  0.02156300  0.90485900  0.69974300  1
  H  H46  1  0.22605400  0.81853800  0.12286600  1
  H  H47  1  0.90742400  0.97721300  0.63650200  1
  H  H48  1  0.85300200  0.21537400  0.73454500  1
  H  H49  1  0.97599700  0.48254700  0.32763700  1
  H  H50  1  0.83096100  0.93245400  0.22639000  1
  H  H51  1  0.23547300  0.25121600  0.38177700  1
  H  H52  1  0.84401600  0.24641900  0.60250000  1
  H  H53  1  0.49399600  0.79106300  0.00028100  1
  H  H54  1  0.33200400  0.06874300  0.27054800  1
  H  H55  1  0.65706500  0.69027300  0.56331100  1
  H  H56  1  0.73712700  0.06748600  0.01074600  1
  H  H57  1  0.88618100  0.39389300  0.26649800  1
  H  H58  1  0.41478200  0.62239700  0.85039200  1
  H  H59  1  0.89106700  0.85773400  0.43754500  1
  H  H60  1  0.58827000  0.38660500  0.46354700  1
  H  H61  1  0.41560700  0.06157300  0.72974900  1
  H  H62  1  0.11499900  0.61164900  0.73524400  1
  H  H63  1  0.65691800  0.25403000  0.09581400  1
  H  H64  1  0.65117300  0.21490200  0.23303000  1
  H  H65  1  0.71560200  0.68744800  0.31053600  1
  H  H66  1  0.57176300  0.66922100  0.95998200  1
  H  H67  1  0.08883500  0.61496000  0.03340800  1
  H  H68  1  0.57803700  0.94101500  0.27064600  1
  H  H69  1  0.78480600  0.68614100  0.81692900  1
  H  H70  1  0.28848000  0.02770000  0.57962600  1
  H  H71  1  0.77511100  0.17859700  0.88292400  1
  H  H72  1  0.28331200  0.31968700  0.68304600  1
  H  H73  1  0.52802800  0.48577400  0.82513600  1
  H  H74  1  0.08656600  0.61504900  0.35703800  1
  H  H75  1  0.01890600  0.47210400  0.80999800  1
  H  H76  1  0.17292500  0.06559600  0.77230800  1
  H  H77  1  0.30918300  0.41850300  0.09298700  1
  H  H78  1  0.25799600  0.93658300  0.98649800  1
  H  H79  1  0.24228100  0.92816700  0.48751700  1
  H  H80  1  0.73006200  0.74310800  0.12166400  1
  H  H81  1  0.97793800  0.09552100  0.29994200  1
  H  H82  1  0.98698200  0.70518100  0.94331900  1
  H  H83  1  0.38468100  0.60796800  0.23756500  1
  H  H84  1  0.90995000  0.38189100  0.64857500  1
  H  H85  1  0.14950300  0.79014600  0.26125300  1
  H  H86  1  0.68946000  0.58934900  0.90118600  1
  H  H87  1  0.09303800  0.01969200  0.36637600  1
  H  H88  1  0.37962900  0.73513700  0.40043900  1
  H  H89  1  0.52720300  0.08827200  0.80355500  1
  H  H90  1  0.18883400  0.42101300  0.59624400  1
  H  H91  1  0.50629500  0.20873000  0.99867200  1
  H  H92  1  0.75313100  0.54682900  0.13950800  1
  H  H93  1  0.71379200  0.98140000  0.41927700  1
  H  H94  1  0.59310100  0.98010700  0.13181700  1
  H  H95  1  0.21619500  0.02601100  0.07784800  1
  H  H96  1  0.61550000  0.39162900  0.76529900  1
  H  H97  1  0.47984400  0.90787300  0.19848500  1
  H  H98  1  0.58602600  0.37736100  0.14444500  1
  H  H99  1  0.48248900  0.47256400  0.31329800  1
  H  H100  1  0.62202200  0.26532600  0.59230700  1
  H  H101  1  0.34137100  0.74774000  0.90100000  1
  H  H102  1  0.02380800  0.51723600  0.67045200  1
  H  H103  1  0.21141900  0.31949600  0.18557800  1
  H  H104  1  0.26409700  0.52065400  0.66003300  1
  H  H105  1  0.06853800  0.33164800  0.53903400  1
  H  H106  1  0.11930100  0.73008200  0.90325000  1
  H  H107  1  0.76519100  0.73935000  0.61898100  1
  C  C108  1  0.60948000  0.25836300  0.16229900  1
  C  C109  1  0.04335900  0.20905800  0.56559400  1
  C  C110  1  0.04183200  0.00873300  0.30485500  1
  C  C111  1  0.77459300  0.59901500  0.32436100  1
  C  C112  1  0.54317000  0.99122000  0.19357000  1
  C  C113  1  0.72349300  0.59024200  0.82892300  1
  C  C114  1  0.56758100  0.27960000  0.52842100  1
  C  C115  1  0.93198700  0.28029600  0.02968200  1
  C  C116  1  0.49150200  0.84659400  0.83109600  1
  C  C117  1  0.20168300  0.91779700  0.05595400  1
  C  C118  1  0.45748000  0.21628400  0.05852900  1
  C  C119  1  0.64835300  0.63766800  0.73957300  1
  C  C120  1  0.89210000  0.25609100  0.66620500  1
  C  C121  1  0.35591900  0.36189000  0.26281500  1
  C  C122  1  0.85569800  0.63719200  0.23807300  1
  C  C123  1  0.95648200  0.98039000  0.69658000  1
  C  C124  1  0.45768800  0.01287800  0.80867100  1
  C  C125  1  0.10779100  0.74490000  0.33960900  1
  C  C126  1  0.50873600  0.15448700  0.17402600  1
  C  C127  1  0.92768800  0.50604300  0.25272700  1
  C  C128  1  0.56894600  0.50425800  0.75312600  1
  C  C129  1  0.95310500  0.78961600  0.43809600  1
  C  C130  1  0.42929100  0.49951900  0.24739600  1
  C  C131  1  0.20630900  0.34660000  0.86175900  1
  C  C132  1  0.22438900  0.40954600  0.66910300  1
  C  C133  1  0.43180700  0.72036900  0.46797200  1
  C  C134  1  0.98706800  0.15538000  0.66910000  1
  C  C135  1  0.14947400  0.36466900  0.76036800  1
  C  C136  1  0.29421800  0.92455600  0.54997500  1
  C  C137  1  0.79235400  0.07653100  0.94719100  1
  C  C138  1  0.70068600  0.08054600  0.44740300  1
  C  C139  1  0.54073300  0.78523600  0.93609600  1
  C  C140  1  0.70926200  0.65114200  0.63780900  1
  C  C141  1  0.39666500  0.73876800  0.83859800  1
  C  C142  1  0.06793600  0.72389800  0.97186300  1
  C  C143  1  0.07494000  0.49896500  0.74249700  1
  C  C144  1  0.27859900  0.40201500  0.17133500  1
  C  C145  1  0.00621500  0.84391600  0.33015200  1
  C  C146  1  0.79033800  0.65636500  0.13176700  1
  C  C147  1  0.29430000  0.35148100  0.36546200  1
  N  N148  1  0.02491700  0.07594800  0.91008400  1
  N  N149  1  0.53147600  0.92242100  0.59092300  1
  N  N150  1  0.47280800  0.08116700  0.40435700  1
  N  N151  1  0.97471900  0.92522100  0.09396200  1
