# generated using pymatgen
data_Sc11Nb3O24
_symmetry_space_group_name_H-M   'P 1'
_cell_length_a   7.90370808
_cell_length_b   7.91926381
_cell_length_c   7.94698871
_cell_angle_alpha   71.50192674
_cell_angle_beta   72.08066723
_cell_angle_gamma   72.28549873
_symmetry_Int_Tables_number   1
_chemical_formula_structural   Sc11Nb3O24
_chemical_formula_sum   'Sc11 Nb3 O24'
_cell_volume   436.90276639
_cell_formula_units_Z   1
loop_
 _symmetry_equiv_pos_site_id
 _symmetry_equiv_pos_as_xyz
  1  'x, y, z'
loop_
 _atom_site_type_symbol
 _atom_site_label
 _atom_site_symmetry_multiplicity
 _atom_site_fract_x
 _atom_site_fract_y
 _atom_site_fract_z
 _atom_site_occupancy
  Sc  Sc0  1  0.39426344  0.92608606  0.21912062  1
  Sc  Sc1  1  0.71215522  0.89525193  0.43561820  1
  Sc  Sc2  1  0.41620213  0.72068353  0.89644417  1
  Sc  Sc3  1  0.07148832  0.78785914  0.60475883  1
  Sc  Sc4  1  0.89394920  0.42252403  0.70990244  1
  Sc  Sc5  1  0.21417520  0.39299973  0.93585250  1
  Sc  Sc6  1  0.10494115  0.57493339  0.28717682  1
  Sc  Sc7  1  0.92969290  0.20879245  0.39910888  1
  Sc  Sc8  1  0.57038105  0.28248227  0.10396537  1
  Sc  Sc9  1  0.28670551  0.10328794  0.57017818  1
  Sc  Sc10  1  0.60671335  0.08400175  0.77721886  1
  Nb  Nb11  1  0.00153574  0.00578018  0.99759808  1
  Nb  Nb12  1  0.49450259  0.50473764  0.50714878  1
  Nb  Nb13  1  0.78280613  0.60381880  0.07040223  1
  O  O14  1  0.13781900  0.91051811  0.77436064  1
  O  O15  1  0.59376666  0.72536476  0.36128312  1
  O  O16  1  0.50785568  0.91285016  0.67603937  1
  O  O17  1  0.22801561  0.86421092  0.08810488  1
  O  O18  1  0.83100851  0.99006778  0.59198725  1
  O  O19  1  0.91328196  0.66946378  0.50874873  1
  O  O20  1  0.59792071  0.82407098  0.99754365  1
  O  O21  1  0.67266486  0.51405268  0.91255832  1
  O  O22  1  0.27355730  0.63590252  0.41300880  1
  O  O23  1  0.98075506  0.59085563  0.84125972  1
  O  O24  1  0.91286720  0.76495749  0.11961243  1
  O  O25  1  0.64289436  0.42588964  0.25673324  1
  O  O26  1  0.36436554  0.58358743  0.73061781  1
  O  O27  1  0.08702336  0.23149089  0.86497194  1
  O  O28  1  0.99859068  0.41528995  0.17161192  1
  O  O29  1  0.72555818  0.35970944  0.58750164  1
  O  O30  1  0.32719227  0.48998419  0.08990653  1
  O  O31  1  0.41182698  0.16907619  0.00422026  1
  O  O32  1  0.08699019  0.32821608  0.49102051  1
  O  O33  1  0.17180137  0.00530484  0.41276004  1
  O  O34  1  0.77229138  0.13947351  0.91258809  1
  O  O35  1  0.49398121  0.08626898  0.32849369  1
  O  O36  1  0.41821263  0.27250661  0.62012230  1
  O  O37  1  0.87024535  0.07765257  0.23045017  1
