# generated using pymatgen
data_CsAl(H2N)4
_symmetry_space_group_name_H-M   'P 1'
_cell_length_a   7.50607588
_cell_length_b   7.50607588
_cell_length_c   5.26208998
_cell_angle_alpha   90.00000000
_cell_angle_beta   90.00000000
_cell_angle_gamma   90.00000000
_symmetry_Int_Tables_number   1
_chemical_formula_structural   CsAl(H2N)4
_chemical_formula_sum   'Cs2 Al2 H16 N8'
_cell_volume   296.47233304
_cell_formula_units_Z   2
loop_
 _symmetry_equiv_pos_site_id
 _symmetry_equiv_pos_as_xyz
  1  'x, y, z'
loop_
 _atom_site_type_symbol
 _atom_site_label
 _atom_site_symmetry_multiplicity
 _atom_site_fract_x
 _atom_site_fract_y
 _atom_site_fract_z
 _atom_site_occupancy
  Cs  Cs0  1  0.00000000  0.50000000  0.75450577  1
  Cs  Cs1  1  0.50000000  0.00000000  0.24549423  1
  Al  Al2  1  0.50000000  0.50000000  -0.00000000  1
  Al  Al3  1  0.00000000  0.00000000  -0.00000000  1
  H  H4  1  0.17762754  0.02338670  0.59940600  1
  H  H5  1  0.82237246  0.97661330  0.59940600  1
  H  H6  1  0.52338670  0.32237246  0.59940600  1
  H  H7  1  0.47661330  0.67762754  0.59940600  1
  H  H8  1  0.32237246  0.47661330  0.40059400  1
  H  H9  1  0.67762754  0.52338670  0.40059400  1
  H  H10  1  0.97661330  0.17762754  0.40059400  1
  H  H11  1  0.02338670  0.82237246  0.40059400  1
  H  H12  1  0.27854072  0.15952487  0.79857792  1
  H  H13  1  0.72145928  0.84047513  0.79857792  1
  H  H14  1  0.65952487  0.22145928  0.79857792  1
  H  H15  1  0.34047513  0.77854072  0.79857792  1
  H  H16  1  0.22145928  0.34047513  0.20142208  1
  H  H17  1  0.77854072  0.65952487  0.20142208  1
  H  H18  1  0.84047513  0.27854072  0.20142208  1
  H  H19  1  0.15952487  0.72145928  0.20142208  1
  N  N20  1  0.17008202  0.08087684  0.77359565  1
  N  N21  1  0.82991798  0.91912316  0.77359565  1
  N  N22  1  0.58087684  0.32991798  0.77359565  1
  N  N23  1  0.41912316  0.67008202  0.77359565  1
  N  N24  1  0.32991798  0.41912316  0.22640435  1
  N  N25  1  0.67008202  0.58087684  0.22640435  1
  N  N26  1  0.91912316  0.17008202  0.22640435  1
  N  N27  1  0.08087684  0.82991798  0.22640435  1
