# generated using pymatgen
data_Li3In2(PO4)3
_symmetry_space_group_name_H-M   'P 1'
_cell_length_a   9.17069604
_cell_length_b   9.17069720
_cell_length_c   9.17069734
_cell_angle_alpha   55.29093677
_cell_angle_beta   55.29094945
_cell_angle_gamma   55.29094914
_symmetry_Int_Tables_number   1
_chemical_formula_structural   Li3In2(PO4)3
_chemical_formula_sum   'Li6 In4 P6 O24'
_cell_volume   485.68927968
_cell_formula_units_Z   2
loop_
 _symmetry_equiv_pos_site_id
 _symmetry_equiv_pos_as_xyz
  1  'x, y, z'
loop_
 _atom_site_type_symbol
 _atom_site_label
 _atom_site_symmetry_multiplicity
 _atom_site_fract_x
 _atom_site_fract_y
 _atom_site_fract_z
 _atom_site_occupancy
  Li  Li0  1  0.92755808  0.66407688  0.26767594  1
  Li  Li1  1  0.66407688  0.26767594  0.92755808  1
  Li  Li2  1  0.26767594  0.92755808  0.66407688  1
  Li  Li3  1  0.07244192  0.33592312  0.73232406  1
  Li  Li4  1  0.33592312  0.73232406  0.07244192  1
  Li  Li5  1  0.73232406  0.07244192  0.33592312  1
  In  In6  1  0.34570925  0.34570925  0.34570925  1
  In  In7  1  0.65429075  0.65429075  0.65429075  1
  In  In8  1  0.85400469  0.85400469  0.85400469  1
  In  In9  1  0.14599531  0.14599531  0.14599531  1
  P  P10  1  0.04581089  0.74978828  0.45120671  1
  P  P11  1  0.74978828  0.45120671  0.04581089  1
  P  P12  1  0.45120671  0.04581089  0.74978828  1
  P  P13  1  0.95418911  0.25021172  0.54879329  1
  P  P14  1  0.25021172  0.54879329  0.95418911  1
  P  P15  1  0.54879329  0.95418911  0.25021172  1
  O  O16  1  0.84639936  0.13902749  0.75099228  1
  O  O17  1  0.13902749  0.75099228  0.84639936  1
  O  O18  1  0.75099228  0.84639936  0.13902749  1
  O  O19  1  0.15360064  0.86097251  0.24900772  1
  O  O20  1  0.40333236  0.99605689  0.19099008  1
  O  O21  1  0.19099008  0.40333236  0.99605689  1
  O  O22  1  0.99605689  0.19099008  0.40333236  1
  O  O23  1  0.59666764  0.00394311  0.80900992  1
  O  O24  1  0.80900992  0.59666764  0.00394311  1
  O  O25  1  0.00394311  0.80900992  0.59666764  1
  O  O26  1  0.44297733  0.85592300  0.79685935  1
  O  O27  1  0.79685935  0.44297733  0.85592300  1
  O  O28  1  0.85592300  0.79685935  0.44297733  1
  O  O29  1  0.55702267  0.14407700  0.20314065  1
  O  O30  1  0.20314065  0.55702267  0.14407700  1
  O  O31  1  0.14407700  0.20314065  0.55702267  1
  O  O32  1  0.50119291  0.84403383  0.46543367  1
  O  O33  1  0.46543367  0.50119291  0.84403383  1
  O  O34  1  0.84403383  0.46543367  0.50119291  1
  O  O35  1  0.49880709  0.15596617  0.53456633  1
  O  O36  1  0.53456633  0.49880709  0.15596617  1
  O  O37  1  0.15596617  0.53456633  0.49880709  1
  O  O38  1  0.24900772  0.15360064  0.86097251  1
  O  O39  1  0.86097251  0.24900772  0.15360064  1
