# generated using pymatgen
data_Rb2Pd3S4
_symmetry_space_group_name_H-M   'P 1'
_cell_length_a   8.72030502
_cell_length_b   7.58133283
_cell_length_c   6.23618883
_cell_angle_alpha   77.58873443
_cell_angle_beta   58.11076047
_cell_angle_gamma   44.30050510
_symmetry_Int_Tables_number   1
_chemical_formula_structural   Rb2Pd3S4
_chemical_formula_sum   'Rb2 Pd3 S4'
_cell_volume   235.05278603
_cell_formula_units_Z   1
loop_
 _symmetry_equiv_pos_site_id
 _symmetry_equiv_pos_as_xyz
  1  'x, y, z'
loop_
 _atom_site_type_symbol
 _atom_site_label
 _atom_site_symmetry_multiplicity
 _atom_site_fract_x
 _atom_site_fract_y
 _atom_site_fract_z
 _atom_site_occupancy
  Rb  Rb0  1  0.83853700  0.84094800  0.16552700  1
  Rb  Rb1  1  0.14894100  0.16694300  0.84651200  1
  Pd  Pd2  1  0.99107900  0.00475600  0.50268800  1
  Pd  Pd3  1  0.49893100  0.49683100  0.50806600  1
  Pd  Pd4  1  0.50660700  0.49668000  0.00165400  1
  S  S5  1  0.22696600  0.55709100  0.43687100  1
  S  S6  1  0.45023700  0.77141800  0.21304000  1
  S  S7  1  0.56459500  0.21399300  0.77076200  1
  S  S8  1  0.78454200  0.43955000  0.56147300  1
