# generated using pymatgen
data_Ho4Zr3O12
_symmetry_space_group_name_H-M   'P 1'
_cell_length_a   6.33988447
_cell_length_b   6.40703490
_cell_length_c   12.71369039
_cell_angle_alpha   99.28707234
_cell_angle_beta   99.26475412
_cell_angle_gamma   99.37861809
_symmetry_Int_Tables_number   1
_chemical_formula_structural   Ho4Zr3O12
_chemical_formula_sum   'Ho8 Zr6 O24'
_cell_volume   493.45614197
_cell_formula_units_Z   2
loop_
 _symmetry_equiv_pos_site_id
 _symmetry_equiv_pos_as_xyz
  1  'x, y, z'
loop_
 _atom_site_type_symbol
 _atom_site_label
 _atom_site_symmetry_multiplicity
 _atom_site_fract_x
 _atom_site_fract_y
 _atom_site_fract_z
 _atom_site_occupancy
  Ho  Ho0  1  0.38800442  0.86517104  0.09806569  1
  Ho  Ho1  1  0.31007518  0.60967963  0.81829644  1
  Ho  Ho2  1  0.29770144  0.61054749  0.31891030  1
  Ho  Ho3  1  0.85830254  0.69304364  0.44745194  1
  Ho  Ho4  1  0.68992482  0.39032037  0.18170356  1
  Ho  Ho5  1  0.14169746  0.30695636  0.55254806  1
  Ho  Ho6  1  0.61199558  0.13482896  0.90193431  1
  Ho  Ho7  1  0.70229856  0.38945251  0.68108970  1
  Zr  Zr8  1  0.99188634  0.99384812  0.24741657  1
  Zr  Zr9  1  0.39167569  0.85680770  0.59462515  1
  Zr  Zr10  1  0.00811366  0.00615188  0.75258343  1
  Zr  Zr11  1  0.85368332  0.67547492  0.94682523  1
  Zr  Zr12  1  0.14631668  0.32452508  0.05317477  1
  Zr  Zr13  1  0.60832431  0.14319230  0.40537485  1
  O  O14  1  0.32073298  0.94262475  0.78413938  1
  O  O15  1  0.03269275  0.89292856  0.08896853  1
  O  O16  1  0.31630051  0.96205843  0.29531147  1
  O  O17  1  0.07505596  0.92251296  0.59374626  1
  O  O18  1  0.58862926  0.81925006  0.96219620  1
  O  O19  1  0.92483066  0.69446066  0.79193256  1
  O  O20  1  0.17303673  0.57596125  0.96587324  1
  O  O21  1  0.56626570  0.83138036  0.46209394  1
  O  O22  1  0.40842773  0.56696127  0.15792098  1
  O  O23  1  0.92614673  0.68219898  0.27876512  1
  O  O24  1  0.18532129  0.59362141  0.47046939  1
  O  O25  1  0.59157227  0.43303873  0.84207902  1
  O  O26  1  0.42903458  0.58408320  0.65797612  1
  O  O27  1  0.82696327  0.42403875  0.03412676  1
  O  O28  1  0.07516934  0.30553934  0.20806744  1
  O  O29  1  0.57096542  0.41591680  0.34202388  1
  O  O30  1  0.41137074  0.18074994  0.03780380  1
  O  O31  1  0.81467871  0.40637859  0.52953061  1
  O  O32  1  0.07385327  0.31780102  0.72123488  1
  O  O33  1  0.43373430  0.16861964  0.53790606  1
  O  O34  1  0.96730725  0.10707144  0.91103147  1
  O  O35  1  0.67926702  0.05737525  0.21586062  1
  O  O36  1  0.92494404  0.07748704  0.40625374  1
  O  O37  1  0.68369949  0.03794157  0.70468853  1
