# generated using pymatgen
data_K2U2O7
_symmetry_space_group_name_H-M   'P 1'
_cell_length_a   6.91294572
_cell_length_b   7.05369211
_cell_length_c   7.95248090
_cell_angle_alpha   106.31591501
_cell_angle_beta   89.82157303
_cell_angle_gamma   99.51862179
_symmetry_Int_Tables_number   1
_chemical_formula_structural   K2U2O7
_chemical_formula_sum   'K4 U4 O14'
_cell_volume   366.65140067
_cell_formula_units_Z   2
loop_
 _symmetry_equiv_pos_site_id
 _symmetry_equiv_pos_as_xyz
  1  'x, y, z'
loop_
 _atom_site_type_symbol
 _atom_site_label
 _atom_site_symmetry_multiplicity
 _atom_site_fract_x
 _atom_site_fract_y
 _atom_site_fract_z
 _atom_site_occupancy
  K  K0  1  0.24079519  0.48412956  0.62456492  1
  K  K1  1  0.26302065  0.48938237  0.11901741  1
  K  K2  1  0.75920481  0.51587044  0.37543508  1
  K  K3  1  0.73697935  0.51061763  0.88098259  1
  U  U4  1  0.03208212  0.99301446  0.24641742  1
  U  U5  1  0.96791788  0.00698554  0.75358258  1
  U  U6  1  0.50000000  -0.00000000  -0.00000000  1
  U  U7  1  0.50000000  -0.00000000  0.50000000  1
  O  O8  1  0.06859293  0.27087365  0.31518579  1
  O  O9  1  0.18938651  0.02033746  0.55498825  1
  O  O10  1  0.01175146  0.28495113  0.82349181  1
  O  O11  1  0.18994479  0.02108462  0.95884239  1
  O  O12  1  0.55892155  0.28191578  0.08443211  1
  O  O13  1  0.44107845  0.71808422  0.91556789  1
  O  O14  1  0.36715854  0.97942512  0.24466915  1
  O  O15  1  0.55601588  0.28133391  0.55620746  1
  O  O16  1  0.44398412  0.71866609  0.44379254  1
  O  O17  1  0.81061349  0.97966254  0.44501175  1
  O  O18  1  0.63284146  0.02057488  0.75533085  1
  O  O19  1  0.93140707  0.72912635  0.68481421  1
  O  O20  1  0.81005521  0.97891538  0.04115761  1
  O  O21  1  0.98824854  0.71504887  0.17650819  1
