# generated using pymatgen
data_TiNiO3
_symmetry_space_group_name_H-M   'P 1'
_cell_length_a   5.01276711
_cell_length_b   5.42244376
_cell_length_c   12.47200758
_cell_angle_alpha   93.13921939
_cell_angle_beta   90.20380297
_cell_angle_gamma   117.33718318
_symmetry_Int_Tables_number   1
_chemical_formula_structural   TiNiO3
_chemical_formula_sum   'Ti6 Ni6 O18'
_cell_volume   300.53728898
_cell_formula_units_Z   6
loop_
 _symmetry_equiv_pos_site_id
 _symmetry_equiv_pos_as_xyz
  1  'x, y, z'
loop_
 _atom_site_type_symbol
 _atom_site_label
 _atom_site_symmetry_multiplicity
 _atom_site_fract_x
 _atom_site_fract_y
 _atom_site_fract_z
 _atom_site_occupancy
  Ti  Ti0  1  0.47986044  0.93878616  0.89088072  1
  Ti  Ti1  1  0.52568413  0.04547441  0.61647448  1
  Ti  Ti2  1  0.85025807  0.71303435  0.28450826  1
  Ti  Ti3  1  0.13960530  0.28132762  0.71836880  1
  Ti  Ti4  1  0.46536383  0.94102016  0.38090618  1
  Ti  Ti5  1  0.82436622  0.60367309  0.04885375  1
  Ni  Ni6  1  0.19623771  0.39342365  0.95153161  1
  Ni  Ni7  1  0.79356336  0.59252830  0.55040060  1
  Ni  Ni8  1  0.86512907  0.73026673  0.78172691  1
  Ni  Ni9  1  0.12862782  0.26454454  0.21649833  1
  Ni  Ni10  1  0.19489669  0.39393810  0.45112169  1
  Ni  Ni11  1  0.53555409  0.06543439  0.11690318  1
  O  O12  1  0.88133790  0.09586486  0.84985270  1
  O  O13  1  0.31783941  0.00154610  0.75094768  1
  O  O14  1  0.46939398  0.22362800  0.97559958  1
  O  O15  1  0.87762046  0.42408632  0.68452928  1
  O  O16  1  0.03199979  0.67676784  0.91956936  1
  O  O17  1  0.24147563  0.77120134  0.52300387  1
  O  O18  1  0.42253163  0.55847365  0.80976236  1
  O  O19  1  0.63523407  0.66163941  0.41167296  1
  O  O20  1  0.79053197  0.90260417  0.64747514  1
  O  O21  1  0.20449222  0.08858008  0.35190977  1
  O  O22  1  0.35216136  0.32183875  0.59085381  1
  O  O23  1  0.57191352  0.44603330  0.18630036  1
  O  O24  1  0.74697472  0.21334245  0.48137380  1
  O  O25  1  0.96705780  0.34017236  0.08503006  1
  O  O26  1  0.11734209  0.57047402  0.31796403  1
  O  O27  1  0.55185805  0.76284982  0.01472244  1
  O  O28  1  0.68657828  0.99476982  0.25714906  1
  O  O29  1  0.08610739  0.88587622  0.14620725  1
