# generated using pymatgen
data_Na2Ti2Se9
_symmetry_space_group_name_H-M   'P 1'
_cell_length_a   13.11534855
_cell_length_b   14.02294221
_cell_length_c   15.23769542
_cell_angle_alpha   90.00000000
_cell_angle_beta   90.00000000
_cell_angle_gamma   94.41089616
_symmetry_Int_Tables_number   1
_chemical_formula_structural   Na2Ti2Se9
_chemical_formula_sum   'Na16 Ti16 Se72'
_cell_volume   2794.15209984
_cell_formula_units_Z   8
loop_
 _symmetry_equiv_pos_site_id
 _symmetry_equiv_pos_as_xyz
  1  'x, y, z'
loop_
 _atom_site_type_symbol
 _atom_site_label
 _atom_site_symmetry_multiplicity
 _atom_site_fract_x
 _atom_site_fract_y
 _atom_site_fract_z
 _atom_site_occupancy
  Na  Na0  1  0.78033652  0.39055183  0.96276743  1
  Na  Na1  1  0.69557696  0.58100311  0.73467449  1
  Na  Na2  1  0.91211434  0.36692049  0.43854457  1
  Na  Na3  1  0.64079964  0.62242429  0.26146028  1
  Na  Na4  1  0.35920036  0.37757571  0.76146028  1
  Na  Na5  1  0.11803269  0.12231272  0.52836699  1
  Na  Na6  1  0.82218534  0.94943297  0.49489315  1
  Na  Na7  1  0.30442304  0.41899689  0.23467449  1
  Na  Na8  1  0.08788566  0.63307951  0.93854457  1
  Na  Na9  1  0.21966348  0.60944817  0.46276743  1
  Na  Na10  1  0.88196731  0.87768728  0.02836699  1
  Na  Na11  1  0.63230989  0.12861115  0.25625234  1
  Na  Na12  1  0.36769011  0.87138885  0.75625234  1
  Na  Na13  1  0.67906666  0.15338696  0.66579378  1
  Na  Na14  1  0.32093334  0.84661304  0.16579378  1
  Na  Na15  1  0.17781466  0.05056703  0.99489315  1
  Ti  Ti16  1  0.01086692  0.51916071  0.23224478  1
  Ti  Ti17  1  0.98913308  0.48083929  0.73224478  1
  Ti  Ti18  1  0.49023294  0.73721518  0.96831697  1
  Ti  Ti19  1  0.99018151  0.97966779  0.72354926  1
  Ti  Ti20  1  0.98082867  0.73765136  0.73258394  1
  Ti  Ti21  1  0.51388687  0.49731213  0.96741784  1
  Ti  Ti22  1  0.49270343  0.99437261  0.97637852  1
  Ti  Ti23  1  0.50976706  0.26278482  0.46831697  1
  Ti  Ti24  1  0.50729657  0.00562739  0.47637852  1
  Ti  Ti25  1  0.00981849  0.02033221  0.22354926  1
  Ti  Ti26  1  0.01854436  0.76230530  0.22074564  1
  Ti  Ti27  1  0.01917133  0.26234864  0.23258394  1
  Ti  Ti28  1  0.49395022  0.76134053  0.46471373  1
  Ti  Ti29  1  0.50604978  0.23865947  0.96471373  1
  Ti  Ti30  1  0.48611313  0.50268787  0.46741784  1
  Ti  Ti31  1  0.98145564  0.23769470  0.72074564  1
  Se  Se32  1  0.32126644  0.21209365  0.90446859  1
  Se  Se33  1  0.33740044  0.48086100  0.57349177  1
  Se  Se34  1  0.56684548  0.63465580  0.56873721  1
  Se  Se35  1  0.66259956  0.51913900  0.07349177  1
  Se  Se36  1  0.95272803  0.88766368  0.33419952  1
  Se  Se37  1  0.95108102  0.14519636  0.35073190  1
  Se  Se38  1  0.50804035  0.99925098  0.64452602  1
  Se  Se39  1  0.35841106  0.85882811  0.95570328  1
  Se  Se40  1  0.10493914  0.98681476  0.36870657  1
  Se  Se41  1  0.64158894  0.14117189  0.45570328  1
  Se  Se42  1  0.40905565  0.61498771  0.07450069  1
  Se  Se43  1  0.89506086  0.01318524  0.86870657  1
  Se  Se44  1  0.09097370  0.90008167  0.12586361  1
  Se  Se45  1  0.39216489  0.10869413  0.06635670  1
  Se  Se46  1  0.04816836  0.86584935  0.60756059  1
  Se  Se47  1  0.34389403  0.36963775  0.45489351  1
  Se  Se48  1  0.63856188  0.25315054  0.08926596  1
  Se  Se49  1  0.47947542  0.25541431  0.63495197  1
  Se  Se50  1  0.16602287  0.64826156  0.20428810  1
  Se  Se51  1  0.31864005  0.44663809  0.97637986  1
  Se  Se52  1  0.16795385  0.14937215  0.23126077  1
  Se  Se53  1  0.45078162  0.26909885  0.30674894  1
  Se  Se54  1  0.82478628  0.24071738  0.82371189  1
  Se  Se55  1  0.91601787  0.51718124  0.57849032  1
  Se  Se56  1  0.36143812  0.74684946  0.58926596  1
  Se  Se57  1  0.04891898  0.85480364  0.85073190  1
  Se  Se58  1  0.16598037  0.74750167  0.79012950  1
  Se  Se59  1  0.89982446  0.59881258  0.82194533  1
  Se  Se60  1  0.49195965  0.00074902  0.14452602  1
  Se  Se61  1  0.84685999  0.74329168  0.61173041  1
  Se  Se62  1  0.57589538  0.39222150  0.35308604  1
  Se  Se63  1  0.38180315  0.03298325  0.34970771  1
  Se  Se64  1  0.56956334  0.37332348  0.86304921  1
  Se  Se65  1  0.43043666  0.62667652  0.36304921  1
  Se  Se66  1  0.82872620  0.01705181  0.16690311  1
  Se  Se67  1  0.17521372  0.75928262  0.32371189  1
  Se  Se68  1  0.60783511  0.89130587  0.56635670  1
  Se  Se69  1  0.15965460  0.48180081  0.80985937  1
  Se  Se70  1  0.83401963  0.25249833  0.29012950  1
  Se  Se71  1  0.65323229  0.13371880  0.97733533  1
  Se  Se72  1  0.44322151  0.10943882  0.84795588  1
  Se  Se73  1  0.97184419  0.63669800  0.35276662  1
  Se  Se74  1  0.63430150  0.87708612  0.98297986  1
  Se  Se75  1  0.34676771  0.86628120  0.47733533  1
  Se  Se76  1  0.65610597  0.63036225  0.95489351  1
  Se  Se77  1  0.90902630  0.09991833  0.62586361  1
  Se  Se78  1  0.83204615  0.85062785  0.73126077  1
  Se  Se79  1  0.68135995  0.55336191  0.47637986  1
  Se  Se80  1  0.59094435  0.38501229  0.57450069  1
  Se  Se81  1  0.17220467  0.24752702  0.68324122  1
  Se  Se82  1  0.06646562  0.35596382  0.61208674  1
  Se  Se83  1  0.42410462  0.60777850  0.85308604  1
  Se  Se84  1  0.52052458  0.74458569  0.13495197  1
  Se  Se85  1  0.43315452  0.36534420  0.06873721  1
  Se  Se86  1  0.67873356  0.78790635  0.40446859  1
  Se  Se87  1  0.04727197  0.11233632  0.83419952  1
  Se  Se88  1  0.55677849  0.89056118  0.34795588  1
  Se  Se89  1  0.93353438  0.64403618  0.11208674  1
  Se  Se90  1  0.82779533  0.75247298  0.18324122  1
  Se  Se91  1  0.15314001  0.25670832  0.11173041  1
  Se  Se92  1  0.17127380  0.98294819  0.66690311  1
  Se  Se93  1  0.36569850  0.12291388  0.48297986  1
  Se  Se94  1  0.54921838  0.73090115  0.80674894  1
  Se  Se95  1  0.84034540  0.51819919  0.30985937  1
  Se  Se96  1  0.10017554  0.40118742  0.32194533  1
  Se  Se97  1  0.93597451  0.38656096  0.12921219  1
  Se  Se98  1  0.06402549  0.61343904  0.62921219  1
  Se  Se99  1  0.08398213  0.48281876  0.07849032  1
  Se  Se100  1  0.95183164  0.13415065  0.10756059  1
  Se  Se101  1  0.83397713  0.35173844  0.70428810  1
  Se  Se102  1  0.02815581  0.36330200  0.85276662  1
  Se  Se103  1  0.61819685  0.96701675  0.84970771  1
