# generated using pymatgen
data_Na2CaPb3(CO3)5
_symmetry_space_group_name_H-M   'P 1'
_cell_length_a   10.69937690
_cell_length_b   10.69937690
_cell_length_c   13.51791375
_cell_angle_alpha   89.15259426
_cell_angle_beta   89.15259426
_cell_angle_gamma   60.17234129
_symmetry_Int_Tables_number   1
_chemical_formula_structural   Na2CaPb3(CO3)5
_chemical_formula_sum   'Na8 Ca4 Pb12 C20 O60'
_cell_volume   1342.28710433
_cell_formula_units_Z   4
loop_
 _symmetry_equiv_pos_site_id
 _symmetry_equiv_pos_as_xyz
  1  'x, y, z'
loop_
 _atom_site_type_symbol
 _atom_site_label
 _atom_site_symmetry_multiplicity
 _atom_site_fract_x
 _atom_site_fract_y
 _atom_site_fract_z
 _atom_site_occupancy
  Na  Na0  1  0.47357600  0.47703400  0.59536300  1
  Na  Na1  1  0.47703400  0.47357600  0.09536300  1
  Na  Na2  1  0.05028700  0.47365000  0.09518900  1
  Na  Na3  1  0.47365000  0.05028700  0.59518900  1
  Na  Na4  1  0.52660600  0.94815900  0.84323800  1
  Na  Na5  1  0.52122000  0.95244800  0.34770700  1
  Na  Na6  1  0.95244800  0.52122000  0.84770700  1
  Na  Na7  1  0.94815900  0.52660600  0.34323800  1
  Ca  Ca8  1  0.04641700  0.47757000  0.58947100  1
  Ca  Ca9  1  0.47757000  0.04641700  0.08947100  1
  Ca  Ca10  1  0.52656600  0.51983500  0.83866200  1
  Ca  Ca11  1  0.51983500  0.52656600  0.33866200  1
  Pb  Pb12  1  0.14979200  0.69038000  0.75295100  1
  Pb  Pb13  1  0.14583000  0.68586600  0.25099900  1
  Pb  Pb14  1  0.68586600  0.14583000  0.75099900  1
  Pb  Pb15  1  0.69038000  0.14979200  0.25295100  1
  Pb  Pb16  1  0.83216200  0.85273700  0.50059200  1
  Pb  Pb17  1  0.85273600  0.83216200  0.00059200  1
  Pb  Pb18  1  0.16390600  0.15174200  0.75895200  1
  Pb  Pb19  1  0.15174200  0.16390600  0.25895200  1
  Pb  Pb20  1  0.31163800  0.83859900  0.00413100  1
  Pb  Pb21  1  0.31348900  0.84890600  0.50840100  1
  Pb  Pb22  1  0.83859900  0.31163800  0.50413100  1
  Pb  Pb23  1  0.84890600  0.31348900  0.00840100  1
  C  C24  1  0.99911600  0.00063800  0.07477800  1
  C  C25  1  0.20744000  0.59065100  0.97227400  1
  C  C26  1  0.20495200  0.59089400  0.47301400  1
  C  C27  1  0.00162100  0.99916400  0.32483800  1
  C  C28  1  0.33391900  0.33590900  0.75029100  1
  C  C29  1  0.59089400  0.20495200  0.97301400  1
  C  C30  1  0.33590900  0.33391900  0.25029100  1
  C  C31  1  0.59065100  0.20744000  0.47227400  1
  C  C32  1  0.20175400  0.20686300  0.47485500  1
  C  C33  1  0.20686300  0.20175400  0.97485500  1
  C  C34  1  0.79794600  0.79276900  0.72202700  1
  C  C35  1  0.79276900  0.79794600  0.22202700  1
  C  C36  1  0.40852000  0.79416900  0.72502600  1
  C  C37  1  0.40942700  0.79621600  0.22289900  1
  C  C38  1  0.00063800  0.99911600  0.57477800  1
  C  C39  1  0.66414400  0.66941200  0.00039900  1
  C  C40  1  0.66941200  0.66414400  0.50039900  1
  C  C41  1  0.79621600  0.40942700  0.72289900  1
  C  C42  1  0.79416900  0.40852000  0.22502600  1
  C  C43  1  0.99916400  0.00162100  0.82483800  1
  O  O44  1  0.07055700  0.85935800  0.57412800  1
  O  O45  1  0.06922800  0.86005700  0.07211000  1
  O  O46  1  0.30023800  0.61810500  0.92444600  1
  O  O47  1  0.29655500  0.61883600  0.42642900  1
  O  O48  1  0.08858700  0.62003600  0.92575500  1
  O  O49  1  0.08596400  0.61693500  0.42893000  1
  O  O50  1  0.22972100  0.53844900  0.56108700  1
  O  O51  1  0.23174800  0.53999600  0.05977900  1
  O  O52  1  0.61883600  0.29655500  0.92642900  1
  O  O53  1  0.61810500  0.30023800  0.42444600  1
  O  O54  1  0.40696700  0.40352300  0.25641600  1
  O  O55  1  0.40352300  0.40696700  0.75641600  1
  O  O56  1  0.53999600  0.23174800  0.55977900  1
  O  O57  1  0.19302600  0.40670000  0.74330700  1
  O  O58  1  0.86005700  0.06922800  0.57211000  1
  O  O59  1  0.53844900  0.22972100  0.06108700  1
  O  O60  1  0.19619200  0.40352900  0.25156300  1
  O  O61  1  0.85935800  0.07055700  0.07412800  1
  O  O62  1  0.92892800  0.93089000  0.82156900  1
  O  O63  1  0.93089000  0.92892800  0.32156900  1
  O  O64  1  0.40670000  0.19302600  0.24330700  1
  O  O65  1  0.40352900  0.19619200  0.75156300  1
  O  O66  1  0.61693500  0.08596400  0.92893000  1
  O  O67  1  0.62003600  0.08858700  0.42575500  1
  O  O68  1  0.23488700  0.22833000  0.06138300  1
  O  O69  1  0.22833000  0.23488700  0.56138300  1
  O  O70  1  0.08795600  0.29086900  0.92959000  1
  O  O71  1  0.08207600  0.30023600  0.43028300  1
  O  O72  1  0.70898600  0.91241500  0.67479200  1
  O  O73  1  0.70013100  0.91704200  0.17490900  1
  O  O74  1  0.30023600  0.08207600  0.93028300  1
  O  O75  1  0.29086900  0.08795600  0.42959000  1
  O  O76  1  0.91241500  0.70898600  0.17479200  1
  O  O77  1  0.91704200  0.70013100  0.67490900  1
  O  O78  1  0.77179700  0.76784000  0.80981800  1
  O  O79  1  0.76784000  0.77179700  0.30981800  1
  O  O80  1  0.37699600  0.91412200  0.67863500  1
  O  O81  1  0.38097000  0.91572400  0.17672900  1
  O  O82  1  0.59312200  0.80993500  0.00619800  1
  O  O83  1  0.59970800  0.80383000  0.50260600  1
  O  O84  1  0.07010700  0.07010000  0.57375900  1
  O  O85  1  0.07010000  0.07010700  0.07375900  1
  O  O86  1  0.13965500  0.93026000  0.82468400  1
  O  O87  1  0.80383000  0.59970800  0.00260600  1
  O  O88  1  0.46231300  0.76715400  0.81224400  1
  O  O89  1  0.14092500  0.92995000  0.32387100  1
  O  O90  1  0.80993500  0.59312200  0.50619800  1
  O  O91  1  0.46215500  0.76882800  0.31050600  1
  O  O92  1  0.59331100  0.59927700  0.99279400  1
  O  O93  1  0.59927700  0.59331100  0.49279400  1
  O  O94  1  0.38489700  0.69926100  0.68131000  1
  O  O95  1  0.38387500  0.70289600  0.17911400  1
  O  O96  1  0.76882800  0.46215500  0.81050600  1
  O  O97  1  0.76715400  0.46231300  0.31224400  1
  O  O98  1  0.91412200  0.37699600  0.17863500  1
  O  O99  1  0.91572400  0.38097000  0.67672900  1
  O  O100  1  0.70289600  0.38387500  0.67911400  1
  O  O101  1  0.69926100  0.38489700  0.18131000  1
  O  O102  1  0.92995000  0.14092500  0.82387100  1
  O  O103  1  0.93026000  0.13965500  0.32468400  1
