# generated using pymatgen
data_NaNb3O8
_symmetry_space_group_name_H-M   'P 1'
_cell_length_a   3.81057348
_cell_length_b   8.85450620
_cell_length_c   10.27594450
_cell_angle_alpha   90.00000000
_cell_angle_beta   90.00000000
_cell_angle_gamma   90.00000000
_symmetry_Int_Tables_number   1
_chemical_formula_structural   NaNb3O8
_chemical_formula_sum   'Na2 Nb6 O16'
_cell_volume   346.71803847
_cell_formula_units_Z   2
loop_
 _symmetry_equiv_pos_site_id
 _symmetry_equiv_pos_as_xyz
  1  'x, y, z'
loop_
 _atom_site_type_symbol
 _atom_site_label
 _atom_site_symmetry_multiplicity
 _atom_site_fract_x
 _atom_site_fract_y
 _atom_site_fract_z
 _atom_site_occupancy
  Na  Na0  1  0.50000000  0.00000000  0.92946741  1
  Na  Na1  1  0.00000000  0.50000000  0.07053259  1
  Nb  Nb2  1  0.00000000  0.00000000  0.48062581  1
  Nb  Nb3  1  0.50000000  0.50000000  0.51937419  1
  Nb  Nb4  1  0.50000000  0.80605193  0.24772191  1
  Nb  Nb5  1  -0.00000000  0.30605193  0.75227809  1
  Nb  Nb6  1  -0.00000000  0.69394807  0.75227809  1
  Nb  Nb7  1  0.50000000  0.19394807  0.24772191  1
  O  O8  1  0.50000000  0.66975397  0.12098157  1
  O  O9  1  -0.00000000  0.15829441  0.59504755  1
  O  O10  1  0.50000000  0.33967297  0.69764587  1
  O  O11  1  0.00000000  0.84170559  0.59504755  1
  O  O12  1  -0.00000000  0.50000000  0.57872549  1
  O  O13  1  -0.00000000  0.50000000  0.84768449  1
  O  O14  1  0.50000000  0.65829441  0.40495245  1
  O  O15  1  0.50000000  0.33024603  0.12098157  1
  O  O16  1  0.50000000  0.34170559  0.40495245  1
  O  O17  1  0.50000000  0.00000000  0.15231551  1
  O  O18  1  0.50000000  0.00000000  0.42127451  1
  O  O19  1  0.00000000  0.16975397  0.87901843  1
  O  O20  1  0.50000000  0.66032703  0.69764587  1
  O  O21  1  -0.00000000  0.83967297  0.30235413  1
  O  O22  1  0.00000000  0.83024603  0.87901843  1
  O  O23  1  0.00000000  0.16032703  0.30235413  1
