# generated using pymatgen
data_Rb2CeO3
_symmetry_space_group_name_H-M   'P 1'
_cell_length_a   6.35643129
_cell_length_b   6.35643129
_cell_length_c   6.90843792
_cell_angle_alpha   80.98517177
_cell_angle_beta   80.98517177
_cell_angle_gamma   119.81976386
_symmetry_Int_Tables_number   1
_chemical_formula_structural   Rb2CeO3
_chemical_formula_sum   'Rb4 Ce2 O6'
_cell_volume   230.04072430
_cell_formula_units_Z   2
loop_
 _symmetry_equiv_pos_site_id
 _symmetry_equiv_pos_as_xyz
  1  'x, y, z'
loop_
 _atom_site_type_symbol
 _atom_site_label
 _atom_site_symmetry_multiplicity
 _atom_site_fract_x
 _atom_site_fract_y
 _atom_site_fract_z
 _atom_site_occupancy
  Rb  Rb0  1  -0.00000000  -0.00000000  0.00000000  1
  Rb  Rb1  1  0.50000000  0.50000000  0.50000000  1
  Rb  Rb2  1  0.65561096  0.34438904  0.00000000  1
  Rb  Rb3  1  0.34438904  0.65561096  0.00000000  1
  Ce  Ce4  1  0.16711717  0.83288283  0.50000000  1
  Ce  Ce5  1  0.83288283  0.16711717  0.50000000  1
  O  O6  1  0.16612574  0.16612574  0.31634986  1
  O  O7  1  0.96284725  0.56426255  0.31285103  1
  O  O8  1  0.56426255  0.96284725  0.31285103  1
  O  O9  1  0.43573745  0.03715275  0.68714897  1
  O  O10  1  0.03715275  0.43573745  0.68714897  1
  O  O11  1  0.83387426  0.83387426  0.68365014  1
