# generated using pymatgen
data_Hg4Pb2N6O19
_symmetry_space_group_name_H-M   'P 1'
_cell_length_a   10.98461576
_cell_length_b   10.98461576
_cell_length_c   10.98461576
_cell_angle_alpha   60.00000000
_cell_angle_beta   60.00000000
_cell_angle_gamma   60.00000000
_symmetry_Int_Tables_number   1
_chemical_formula_structural   Hg4Pb2N6O19
_chemical_formula_sum   'Hg8 Pb4 N12 O38'
_cell_volume   937.21582187
_cell_formula_units_Z   2
loop_
 _symmetry_equiv_pos_site_id
 _symmetry_equiv_pos_as_xyz
  1  'x, y, z'
loop_
 _atom_site_type_symbol
 _atom_site_label
 _atom_site_symmetry_multiplicity
 _atom_site_fract_x
 _atom_site_fract_y
 _atom_site_fract_z
 _atom_site_occupancy
  Hg  Hg0  1  0.17117499  0.48647403  0.17117499  1
  Hg  Hg1  1  0.17117499  0.17117499  0.17117499  1
  Hg  Hg2  1  0.07882501  0.07882501  0.76352597  1
  Hg  Hg3  1  0.76352597  0.07882501  0.07882501  1
  Hg  Hg4  1  0.07882501  0.76352597  0.07882501  1
  Hg  Hg5  1  0.17117499  0.17117499  0.48647403  1
  Hg  Hg6  1  0.07882501  0.07882501  0.07882501  1
  Hg  Hg7  1  0.48647403  0.17117499  0.17117499  1
  Pb  Pb8  1  0.62500000  0.12500000  0.62500000  1
  Pb  Pb9  1  0.12500000  0.62500000  0.62500000  1
  Pb  Pb10  1  0.62500000  0.62500000  0.12500000  1
  Pb  Pb11  1  0.62500000  0.62500000  0.62500000  1
  N  N12  1  0.26265842  0.26265842  0.73734158  1
  N  N13  1  0.98734158  0.98734158  0.51265842  1
  N  N14  1  0.51265842  0.98734158  0.51265842  1
  N  N15  1  0.98734158  0.51265842  0.98734158  1
  N  N16  1  0.51265842  0.51265842  0.98734158  1
  N  N17  1  0.26265842  0.73734158  0.73734158  1
  N  N18  1  0.51265842  0.98734158  0.98734158  1
  N  N19  1  0.73734158  0.73734158  0.26265842  1
  N  N20  1  0.73734158  0.26265842  0.73734158  1
  N  N21  1  0.98734158  0.51265842  0.51265842  1
  N  N22  1  0.73734158  0.26265842  0.26265842  1
  N  N23  1  0.26265842  0.73734158  0.26265842  1
  O  O24  1  0.12275797  0.77770951  0.32182300  1
  O  O25  1  0.12275797  0.77770951  0.77770951  1
  O  O26  1  0.65569497  0.34430503  0.34430503  1
  O  O27  1  0.47229049  0.92817700  0.12724203  1
  O  O28  1  0.77770951  0.77770951  0.32182300  1
  O  O29  1  0.77770951  0.12275797  0.77770951  1
  O  O30  1  0.92817700  0.12724203  0.47229049  1
  O  O31  1  0.47229049  0.12724203  0.47229049  1
  O  O32  1  0.59430503  0.90569497  0.59430503  1
  O  O33  1  0.34430503  0.65569497  0.34430503  1
  O  O34  1  0.34430503  0.34430503  0.65569497  1
  O  O35  1  0.47229049  0.47229049  0.92817700  1
  O  O36  1  0.32182300  0.77770951  0.77770951  1
  O  O37  1  0.34430503  0.65569497  0.65569497  1
  O  O38  1  0.65569497  0.34430503  0.65569497  1
  O  O39  1  0.47229049  0.92817700  0.47229049  1
  O  O40  1  0.77770951  0.32182300  0.12275797  1
  O  O41  1  0.90569497  0.59430503  0.59430503  1
  O  O42  1  0.12724203  0.47229049  0.47229049  1
  O  O43  1  0.12275797  0.32182300  0.77770951  1
  O  O44  1  0.92817700  0.47229049  0.12724203  1
  O  O45  1  0.47229049  0.47229049  0.12724203  1
  O  O46  1  0.12724203  0.92817700  0.47229049  1
  O  O47  1  0.12724203  0.47229049  0.92817700  1
  O  O48  1  0.59430503  0.59430503  0.90569497  1
  O  O49  1  0.59430503  0.90569497  0.90569497  1
  O  O50  1  0.25000000  0.25000000  0.25000000  1
  O  O51  1  0.65569497  0.65569497  0.34430503  1
  O  O52  1  0.90569497  0.59430503  0.90569497  1
  O  O53  1  0.92817700  0.47229049  0.47229049  1
  O  O54  1  0.47229049  0.12724203  0.92817700  1
  O  O55  1  0.32182300  0.77770951  0.12275797  1
  O  O56  1  0.00000000  0.00000000  -0.00000000  1
  O  O57  1  0.77770951  0.32182300  0.77770951  1
  O  O58  1  0.32182300  0.12275797  0.77770951  1
  O  O59  1  0.77770951  0.12275797  0.32182300  1
  O  O60  1  0.77770951  0.77770951  0.12275797  1
  O  O61  1  0.90569497  0.90569497  0.59430503  1
