# generated using pymatgen
data_RbHSeO4
_symmetry_space_group_name_H-M   'P 1'
_cell_length_a   10.52198405
_cell_length_b   4.59291224
_cell_length_c   10.52671249
_cell_angle_alpha   78.44939910
_cell_angle_beta   138.25239009
_cell_angle_gamma   101.95146989
_symmetry_Int_Tables_number   1
_chemical_formula_structural   RbHSeO4
_chemical_formula_sum   'Rb3 H3 Se3 O12'
_cell_volume   330.57108986
_cell_formula_units_Z   3
loop_
 _symmetry_equiv_pos_site_id
 _symmetry_equiv_pos_as_xyz
  1  'x, y, z'
loop_
 _atom_site_type_symbol
 _atom_site_label
 _atom_site_symmetry_multiplicity
 _atom_site_fract_x
 _atom_site_fract_y
 _atom_site_fract_z
 _atom_site_occupancy
  Rb  Rb0  1  0.49072039  0.00207401  0.49117222  1
  Rb  Rb1  1  0.24938893  0.57434100  0.91936021  1
  Rb  Rb2  1  0.92136337  0.42556761  0.25087703  1
  H  H3  1  0.86644230  0.54397725  0.87405399  1
  H  H4  1  0.86731649  0.14203549  0.55251211  1
  H  H5  1  0.55271422  0.85763864  0.86869841  1
  Se  Se6  1  0.00338507  0.01040091  0.00047674  1
  Se  Se7  1  0.74305568  0.69921740  0.40788926  1
  Se  Se8  1  0.40868922  0.29836277  0.74372204  1
  O  O9  1  0.89942580  0.29346987  0.83619655  1
  O  O10  1  0.82814821  0.71210023  0.89049954  1
  O  O11  1  0.18766857  0.93487048  0.05952358  1
  O  O12  1  0.05472830  0.05285868  0.18537309  1
  O  O13  1  0.90631975  0.46712657  0.51576953  1
  O  O14  1  0.51706417  0.53270901  0.90785211  1
  O  O15  1  0.69997547  0.90627230  0.23579921  1
  O  O16  1  0.23437161  0.08982958  0.69814507  1
  O  O17  1  0.84630888  0.92433822  0.58588808  1
  O  O18  1  0.58622729  0.07546970  0.84739940  1
  O  O19  1  0.55180407  0.52990374  0.34477713  1
  O  O20  1  0.34807121  0.46533655  0.55442568  1
