# generated using pymatgen
data_RbH2N
_symmetry_space_group_name_H-M   'P 1'
_cell_length_a   4.84114822
_cell_length_b   3.94726191
_cell_length_c   6.41215500
_cell_angle_alpha   90.00000000
_cell_angle_beta   98.92071756
_cell_angle_gamma   90.00000000
_symmetry_Int_Tables_number   1
_chemical_formula_structural   RbH2N
_chemical_formula_sum   'Rb2 H4 N2'
_cell_volume   121.04950481
_cell_formula_units_Z   2
loop_
 _symmetry_equiv_pos_site_id
 _symmetry_equiv_pos_as_xyz
  1  'x, y, z'
loop_
 _atom_site_type_symbol
 _atom_site_label
 _atom_site_symmetry_multiplicity
 _atom_site_fract_x
 _atom_site_fract_y
 _atom_site_fract_z
 _atom_site_occupancy
  Rb  Rb0  1  0.20399367  0.25000000  0.30141424  1
  Rb  Rb1  1  0.79600633  0.75000000  0.69858576  1
  H  H2  1  0.33636615  0.45028782  0.86950229  1
  H  H3  1  0.66363385  0.95028782  0.13049771  1
  H  H4  1  0.66363385  0.54971218  0.13049771  1
  H  H5  1  0.33636615  0.04971218  0.86950229  1
  N  N6  1  0.28967109  0.25000000  0.76809953  1
  N  N7  1  0.71032891  0.75000000  0.23190047  1
