# generated using pymatgen
data_Hf2N2O
_symmetry_space_group_name_H-M   'P 1'
_cell_length_a   8.65812088
_cell_length_b   8.67458483
_cell_length_c   8.67477067
_cell_angle_alpha   109.58925934
_cell_angle_beta   109.45328378
_cell_angle_gamma   109.25197273
_symmetry_Int_Tables_number   1
_chemical_formula_structural   Hf2N2O
_chemical_formula_sum   'Hf16 N16 O8'
_cell_volume   502.27614683
_cell_formula_units_Z   8
loop_
 _symmetry_equiv_pos_site_id
 _symmetry_equiv_pos_as_xyz
  1  'x, y, z'
loop_
 _atom_site_type_symbol
 _atom_site_label
 _atom_site_symmetry_multiplicity
 _atom_site_fract_x
 _atom_site_fract_y
 _atom_site_fract_z
 _atom_site_occupancy
  Hf  Hf0  1  0.54054582  0.75890574  0.78850132  1
  Hf  Hf1  1  0.50172421  0.48996876  0.00800344  1
  Hf  Hf2  1  0.74754980  0.77791246  0.52619176  1
  Hf  Hf3  1  0.25018268  0.71474018  0.95879107  1
  Hf  Hf4  1  0.28069864  0.53272369  0.24113403  1
  Hf  Hf5  1  0.79585928  0.03978028  0.25851958  1
  Hf  Hf6  1  0.99040739  0.98792043  0.99737799  1
  Hf  Hf7  1  0.96624482  0.24856312  0.71378387  1
  Hf  Hf8  1  0.03193546  0.74920523  0.28924461  1
  Hf  Hf9  1  0.51066498  0.01787349  0.50818146  1
  Hf  Hf10  1  0.00862614  0.50515344  0.49545367  1
  Hf  Hf11  1  0.21874349  0.96152834  0.75078818  1
  Hf  Hf12  1  0.71342202  0.46906495  0.75214738  1
  Hf  Hf13  1  0.75097189  0.28672851  0.02834999  1
  Hf  Hf14  1  0.24528706  0.20465125  0.46448765  1
  Hf  Hf15  1  0.46122466  0.24586171  0.21337297  1
  N  N16  1  0.72322946  0.98092875  0.44881741  1
  N  N17  1  0.04615583  0.27602449  0.51271384  1
  N  N18  1  0.22502886  0.45636590  0.96552820  1
  N  N19  1  0.23534640  0.96221908  0.01422212  1
  N  N20  1  0.27235155  0.73390718  0.72712005  1
  N  N21  1  0.03624191  0.48782475  0.26213508  1
  N  N22  1  0.75657180  0.03214330  0.98892170  1
  N  N23  1  0.74295751  0.23002905  0.77192221  1
  N  N24  1  0.77083759  0.72729092  0.75771550  1
  N  N25  1  0.51077279  0.24209965  0.46666642  1
  N  N26  1  0.99187496  0.95787634  0.22756596  1
  N  N27  1  0.77059395  0.55056386  0.03359588  1
  N  N28  1  0.95420115  0.72790120  0.49034398  1
  N  N29  1  0.27520639  0.01192380  0.54634954  1
  N  N30  1  0.46731306  0.22729399  0.95617406  1
  N  N31  1  0.53970336  0.53103045  0.27378563  1
  O  O32  1  0.45405125  0.46875153  0.72935590  1
  O  O33  1  0.53166004  0.77124589  0.04187085  1
  O  O34  1  0.01432380  0.04995195  0.77626272  1
  O  O35  1  0.48301975  0.76172464  0.53448368  1
  O  O36  1  0.22449720  0.27201097  0.23298587  1
  O  O37  1  0.26747214  0.77221679  0.23014216  1
  O  O38  1  0.96532237  0.51388345  0.74002127  1
  O  O39  1  0.72718052  0.26420849  0.27697300  1
