# generated using pymatgen
data_NaSn2(PO4)3
_symmetry_space_group_name_H-M   'P 1'
_cell_length_a   8.95408977
_cell_length_b   8.95408977
_cell_length_c   8.95409016
_cell_angle_alpha   57.30451194
_cell_angle_beta   57.30451197
_cell_angle_gamma   57.30451061
_symmetry_Int_Tables_number   1
_chemical_formula_structural   NaSn2(PO4)3
_chemical_formula_sum   'Na2 Sn4 P6 O24'
_cell_volume   476.13030833
_cell_formula_units_Z   2
loop_
 _symmetry_equiv_pos_site_id
 _symmetry_equiv_pos_as_xyz
  1  'x, y, z'
loop_
 _atom_site_type_symbol
 _atom_site_label
 _atom_site_symmetry_multiplicity
 _atom_site_fract_x
 _atom_site_fract_y
 _atom_site_fract_z
 _atom_site_occupancy
  Na  Na0  1  -0.00000000  0.00000000  -0.00000000  1
  Na  Na1  1  0.50000000  0.50000000  0.50000000  1
  Sn  Sn2  1  0.14637897  0.14637897  0.14637897  1
  Sn  Sn3  1  0.85362103  0.85362103  0.85362103  1
  Sn  Sn4  1  0.35509896  0.35509896  0.35509896  1
  Sn  Sn5  1  0.64490104  0.64490104  0.64490104  1
  P  P6  1  0.95719840  0.25092924  0.54161303  1
  P  P7  1  0.25092924  0.54161303  0.95719840  1
  P  P8  1  0.04280160  0.74907076  0.45838697  1
  P  P9  1  0.74907076  0.45838697  0.04280160  1
  P  P10  1  0.54161303  0.95719840  0.25092924  1
  P  P11  1  0.45838697  0.04280160  0.74907076  1
  O  O12  1  0.40030273  0.59544960  0.76165330  1
  O  O13  1  0.59544960  0.76165330  0.40030273  1
  O  O14  1  0.76165330  0.40030273  0.59544960  1
  O  O15  1  0.59969727  0.40455040  0.23834670  1
  O  O16  1  0.40455040  0.23834670  0.59969727  1
  O  O17  1  0.23834670  0.59969727  0.40455040  1
  O  O18  1  0.29155730  0.03387320  0.93809437  1
  O  O19  1  0.03387320  0.93809437  0.29155730  1
  O  O20  1  0.93809437  0.29155730  0.03387320  1
  O  O21  1  0.70844270  0.96612680  0.06190563  1
  O  O22  1  0.96612680  0.06190563  0.70844270  1
  O  O23  1  0.06190563  0.70844270  0.96612680  1
  O  O24  1  0.76046575  0.63331820  0.02115351  1
  O  O25  1  0.02115351  0.76046575  0.63331820  1
  O  O26  1  0.63331820  0.02115351  0.76046575  1
  O  O27  1  0.23953425  0.36668180  0.97884649  1
  O  O28  1  0.97884649  0.23953425  0.36668180  1
  O  O29  1  0.36668180  0.97884649  0.23953425  1
  O  O30  1  0.11085279  0.30402231  0.50745860  1
  O  O31  1  0.50745860  0.11085279  0.30402231  1
  O  O32  1  0.30402231  0.50745860  0.11085279  1
  O  O33  1  0.88914721  0.69597769  0.49254140  1
  O  O34  1  0.49254140  0.88914721  0.69597769  1
  O  O35  1  0.69597769  0.49254140  0.88914721  1
