# generated using pymatgen
data_CaTiSiO5
_symmetry_space_group_name_H-M   'P 1'
_cell_length_a   8.71359115
_cell_length_b   6.58031870
_cell_length_c   7.04929317
_cell_angle_alpha   66.15928812
_cell_angle_beta   90.00000000
_cell_angle_gamma   90.00000000
_symmetry_Int_Tables_number   1
_chemical_formula_structural   CaTiSiO5
_chemical_formula_sum   'Ca4 Ti4 Si4 O20'
_cell_volume   369.70505951
_cell_formula_units_Z   4
loop_
 _symmetry_equiv_pos_site_id
 _symmetry_equiv_pos_as_xyz
  1  'x, y, z'
loop_
 _atom_site_type_symbol
 _atom_site_label
 _atom_site_symmetry_multiplicity
 _atom_site_fract_x
 _atom_site_fract_y
 _atom_site_fract_z
 _atom_site_occupancy
  Ca  Ca0  1  0.92009643  0.25038622  0.25255945  1
  Ca  Ca1  1  0.57990357  0.25038622  0.75255945  1
  Ca  Ca2  1  0.42009643  0.74961378  0.24744055  1
  Ca  Ca3  1  0.07990357  0.74961378  0.74744055  1
  Ti  Ti4  1  0.25059104  0.25022396  0.50155564  1
  Ti  Ti5  1  0.74940896  0.74977604  0.49844436  1
  Ti  Ti6  1  0.24940896  0.25022396  0.00155564  1
  Ti  Ti7  1  0.75059104  0.74977604  0.99844436  1
  Si  Si8  1  0.06872027  0.75038042  0.24939612  1
  Si  Si9  1  0.56872027  0.24961958  0.25060388  1
  Si  Si10  1  0.93127973  0.24961958  0.75060388  1
  Si  Si11  1  0.43127973  0.75038042  0.74939612  1
  O  O12  1  0.46217236  0.14861767  0.11768336  1
  O  O13  1  0.96217236  0.85138233  0.38231664  1
  O  O14  1  0.53782764  0.85138233  0.88231664  1
  O  O15  1  0.03782764  0.14861767  0.61768336  1
  O  O16  1  0.03732591  0.35091537  0.88373093  1
  O  O17  1  0.53732591  0.64908463  0.61626907  1
  O  O18  1  0.96267409  0.64908463  0.11626907  1
  O  O19  1  0.46267409  0.35091537  0.38373093  1
  O  O20  1  0.31509023  0.93594388  0.58987858  1
  O  O21  1  0.81509023  0.06405612  0.91012142  1
  O  O22  1  0.68490977  0.06405612  0.41012142  1
  O  O23  1  0.18490977  0.93594388  0.08987858  1
  O  O24  1  0.32025039  0.25036158  0.75061497  1
  O  O25  1  0.82025039  0.74963842  0.74938503  1
  O  O26  1  0.67974961  0.74963842  0.24938503  1
  O  O27  1  0.17974961  0.25036158  0.25061497  1
  O  O28  1  0.31533874  0.56496714  0.90991265  1
  O  O29  1  0.81533874  0.43503286  0.59008735  1
  O  O30  1  0.68466126  0.43503286  0.09008735  1
  O  O31  1  0.18466126  0.56496714  0.40991265  1
