# generated using pymatgen
data_LiTiAsO5
_symmetry_space_group_name_H-M   'P 1'
_cell_length_a   6.60488192
_cell_length_b   7.46262207
_cell_length_c   7.47971560
_cell_angle_alpha   90.00000000
_cell_angle_beta   90.00000000
_cell_angle_gamma   90.00000000
_symmetry_Int_Tables_number   1
_chemical_formula_structural   LiTiAsO5
_chemical_formula_sum   'Li4 Ti4 As4 O20'
_cell_volume   368.67321914
_cell_formula_units_Z   4
loop_
 _symmetry_equiv_pos_site_id
 _symmetry_equiv_pos_as_xyz
  1  'x, y, z'
loop_
 _atom_site_type_symbol
 _atom_site_label
 _atom_site_symmetry_multiplicity
 _atom_site_fract_x
 _atom_site_fract_y
 _atom_site_fract_z
 _atom_site_occupancy
  Li  Li0  1  0.00000000  0.00000000  -0.00000000  1
  Li  Li1  1  0.50000000  0.50000000  0.50000000  1
  Li  Li2  1  0.00000000  0.50000000  0.50000000  1
  Li  Li3  1  0.50000000  0.00000000  -0.00000000  1
  Ti  Ti4  1  0.75000000  0.22566551  0.33837707  1
  Ti  Ti5  1  0.25000000  0.77433449  0.66162293  1
  Ti  Ti6  1  0.25000000  0.72566551  0.16162293  1
  Ti  Ti7  1  0.75000000  0.27433449  0.83837707  1
  As  As8  1  0.25000000  0.13185325  0.37328531  1
  As  As9  1  0.75000000  0.86814675  0.62671469  1
  As  As10  1  0.75000000  0.63185325  0.12671469  1
  As  As11  1  0.25000000  0.36814675  0.87328531  1
  O  O12  1  0.95439849  0.73335099  0.62562883  1
  O  O13  1  0.54560151  0.76664901  0.12562883  1
  O  O14  1  0.04560151  0.23335099  0.87437117  1
  O  O15  1  0.45439849  0.26664901  0.37437117  1
  O  O16  1  0.04560151  0.26664901  0.37437117  1
  O  O17  1  0.54560151  0.73335099  0.62562883  1
  O  O18  1  0.95439849  0.76664901  0.12562883  1
  O  O19  1  0.45439849  0.23335099  0.87437117  1
  O  O20  1  0.75000000  0.16715998  0.11434521  1
  O  O21  1  0.25000000  0.83284002  0.88565479  1
  O  O22  1  0.25000000  0.66715998  0.38565479  1
  O  O23  1  0.75000000  0.33284002  0.61434521  1
  O  O24  1  0.75000000  -0.00208631  0.81318707  1
  O  O25  1  0.25000000  0.00208631  0.18681293  1
  O  O26  1  0.25000000  0.49791369  0.68681293  1
  O  O27  1  0.75000000  0.50208631  0.31318707  1
  O  O28  1  0.25000000  0.48940289  0.06414858  1
  O  O29  1  0.75000000  0.51059711  0.93585142  1
  O  O30  1  0.75000000  0.98940289  0.43585142  1
  O  O31  1  0.25000000  0.01059711  0.56414858  1
