# generated using pymatgen
data_Cs3AlP2
_symmetry_space_group_name_H-M   'P 1'
_cell_length_a   8.72746127
_cell_length_b   11.33866491
_cell_length_c   19.12238450
_cell_angle_alpha   79.89020018
_cell_angle_beta   90.00000000
_cell_angle_gamma   90.00000000
_symmetry_Int_Tables_number   1
_chemical_formula_structural   Cs3AlP2
_chemical_formula_sum   'Cs24 Al8 P16'
_cell_volume   1862.92676656
_cell_formula_units_Z   8
loop_
 _symmetry_equiv_pos_site_id
 _symmetry_equiv_pos_as_xyz
  1  'x, y, z'
loop_
 _atom_site_type_symbol
 _atom_site_label
 _atom_site_symmetry_multiplicity
 _atom_site_fract_x
 _atom_site_fract_y
 _atom_site_fract_z
 _atom_site_occupancy
  Cs  Cs0  1  0.93178106  0.62353622  0.11104213  1
  Cs  Cs1  1  0.25852668  0.36128485  0.71134754  1
  Cs  Cs2  1  0.91272021  0.26443014  0.07868667  1
  Cs  Cs3  1  0.56821894  0.62353622  0.61104213  1
  Cs  Cs4  1  0.88129420  0.29043069  0.33854548  1
  Cs  Cs5  1  0.58727979  0.26443014  0.57868667  1
  Cs  Cs6  1  0.52378072  0.85012095  0.96741359  1
  Cs  Cs7  1  0.44158612  0.91697064  0.74421093  1
  Cs  Cs8  1  0.06821894  0.37646378  0.88895787  1
  Cs  Cs9  1  0.47621928  0.14987905  0.03258641  1
  Cs  Cs10  1  0.61870580  0.29043069  0.83854548  1
  Cs  Cs11  1  0.11870580  0.70956931  0.66145452  1
  Cs  Cs12  1  0.75852668  0.63871515  0.78865246  1
  Cs  Cs13  1  0.24147332  0.36128485  0.21134754  1
  Cs  Cs14  1  0.41272021  0.73556986  0.42131333  1
  Cs  Cs15  1  0.05841388  0.91697064  0.24421093  1
  Cs  Cs16  1  0.38129420  0.70956931  0.16145452  1
  Cs  Cs17  1  0.02378072  0.14987905  0.53258641  1
  Cs  Cs18  1  0.94158612  0.08302936  0.75578907  1
  Cs  Cs19  1  0.08727979  0.73556986  0.92131333  1
  Cs  Cs20  1  0.55841388  0.08302936  0.25578907  1
  Cs  Cs21  1  0.97621928  0.85012095  0.46741359  1
  Cs  Cs22  1  0.74147332  0.63871515  0.28865246  1
  Cs  Cs23  1  0.43178106  0.37646378  0.38895787  1
  Al  Al24  1  0.94712888  0.46412452  0.57214547  1
  Al  Al25  1  0.88831101  0.95700838  0.05414418  1
  Al  Al26  1  0.55287112  0.46412452  0.07214547  1
  Al  Al27  1  0.11168899  0.04299162  0.94585582  1
  Al  Al28  1  0.61168899  0.95700838  0.55414418  1
  Al  Al29  1  0.38831101  0.04299162  0.44585582  1
  Al  Al30  1  0.44712888  0.53587548  0.92785453  1
  Al  Al31  1  0.05287112  0.53587548  0.42785453  1
  P  P32  1  0.65557435  0.05442101  0.43770130  1
  P  P33  1  0.20117581  0.49378431  0.53147209  1
  P  P34  1  0.78627868  0.89678973  0.63910152  1
  P  P35  1  0.36173800  0.59509317  0.81538184  1
  P  P36  1  0.84442565  0.05442101  0.93770130  1
  P  P37  1  0.79882419  0.50621569  0.46852791  1
  P  P38  1  0.71372132  0.89678973  0.13910152  1
  P  P39  1  0.86173800  0.40490683  0.68461816  1
  P  P40  1  0.70117581  0.50621569  0.96852791  1
  P  P41  1  0.13826200  0.59509317  0.31538184  1
  P  P42  1  0.34442565  0.94557899  0.56229870  1
  P  P43  1  0.15557435  0.94557899  0.06229870  1
  P  P44  1  0.29882419  0.49378431  0.03147209  1
  P  P45  1  0.28627868  0.10321027  0.86089848  1
  P  P46  1  0.21372132  0.10321027  0.36089848  1
  P  P47  1  0.63826200  0.40490683  0.18461816  1
