# generated using pymatgen
data_NaH9O5
_symmetry_space_group_name_H-M   'P 1'
_cell_length_a   7.83769657
_cell_length_b   7.83769657
_cell_length_c   9.27780171
_cell_angle_alpha   64.47040838
_cell_angle_beta   64.47040838
_cell_angle_gamma   29.84943770
_symmetry_Int_Tables_number   1
_chemical_formula_structural   NaH9O5
_chemical_formula_sum   'Na2 H18 O10'
_cell_volume   253.88822227
_cell_formula_units_Z   2
loop_
 _symmetry_equiv_pos_site_id
 _symmetry_equiv_pos_as_xyz
  1  'x, y, z'
loop_
 _atom_site_type_symbol
 _atom_site_label
 _atom_site_symmetry_multiplicity
 _atom_site_fract_x
 _atom_site_fract_y
 _atom_site_fract_z
 _atom_site_occupancy
  Na  Na0  1  0.45200464  0.45674026  0.85680182  1
  Na  Na1  1  0.54325974  0.54799536  0.14319818  1
  H  H2  1  0.19653628  0.19798367  0.60052251  1
  H  H3  1  0.80201633  0.80346372  0.39947749  1
  H  H4  1  0.45367503  0.06413846  0.97533035  1
  H  H5  1  0.26838323  0.26321091  0.82168939  1
  H  H6  1  0.93586154  0.54632497  0.02466965  1
  H  H7  1  0.73678909  0.73161677  0.17831061  1
  H  H8  1  0.84086438  0.45587105  0.79852582  1
  H  H9  1  0.45423138  0.84223057  0.79816449  1
  H  H10  1  0.54412895  0.15913562  0.20147418  1
  H  H11  1  0.15776943  0.54576862  0.20183551  1
  H  H12  1  0.04110010  0.04191783  0.61151665  1
  H  H13  1  0.92579478  0.92992462  0.66713283  1
  H  H14  1  0.95808217  0.95889990  0.38848335  1
  H  H15  1  0.07007538  0.07420522  0.33286717  1
  H  H16  1  0.00255362  0.60601571  0.60887886  1
  H  H17  1  0.60552685  0.00350034  0.60876765  1
  H  H18  1  0.39398429  0.99744638  0.39112114  1
  H  H19  1  0.99649966  0.39447315  0.39123235  1
  O  O20  1  0.22344010  0.22527979  0.67781930  1
  O  O21  1  0.77472021  0.77655990  0.32218070  1
  O  O22  1  0.29269098  0.28821098  0.90285212  1
  O  O23  1  0.71178902  0.70730902  0.09714788  1
  O  O24  1  0.60753973  0.60917133  0.85877717  1
  O  O25  1  0.39082867  0.39246027  0.14122283  1
  O  O26  1  0.97647760  0.97869877  0.70847385  1
  O  O27  1  0.02130123  0.02352240  0.29152615  1
  O  O28  1  0.84891351  0.84927691  0.56890502  1
  O  O29  1  0.15072309  0.15108649  0.43109498  1
