# generated using pymatgen
data_Zr(Se2Cl3)2
_symmetry_space_group_name_H-M   'P 1'
_cell_length_a   11.00808973
_cell_length_b   11.00808973
_cell_length_c   10.69961768
_cell_angle_alpha   90.00000000
_cell_angle_beta   90.00000000
_cell_angle_gamma   90.00000000
_symmetry_Int_Tables_number   1
_chemical_formula_structural   Zr(Se2Cl3)2
_chemical_formula_sum   'Zr4 Se16 Cl24'
_cell_volume   1296.55869390
_cell_formula_units_Z   4
loop_
 _symmetry_equiv_pos_site_id
 _symmetry_equiv_pos_as_xyz
  1  'x, y, z'
loop_
 _atom_site_type_symbol
 _atom_site_label
 _atom_site_symmetry_multiplicity
 _atom_site_fract_x
 _atom_site_fract_y
 _atom_site_fract_z
 _atom_site_occupancy
  Zr  Zr0  1  0.75000000  0.75000000  0.25000000  1
  Zr  Zr1  1  0.75000000  0.25000000  0.75000000  1
  Zr  Zr2  1  0.25000000  0.25000000  0.25000000  1
  Zr  Zr3  1  0.25000000  0.75000000  0.75000000  1
  Se  Se4  1  0.83959170  0.66040830  0.83086529  1
  Se  Se5  1  0.66040830  0.83959170  0.66913471  1
  Se  Se6  1  0.64553382  0.64553382  0.75000000  1
  Se  Se7  1  0.14553382  0.85446618  0.25000000  1
  Se  Se8  1  0.14553382  0.14553382  0.75000000  1
  Se  Se9  1  0.35446618  0.35446618  0.75000000  1
  Se  Se10  1  0.33959170  0.16040830  0.66913471  1
  Se  Se11  1  0.16040830  0.33959170  0.83086529  1
  Se  Se12  1  0.85446618  0.14553382  0.25000000  1
  Se  Se13  1  0.35446618  0.64553382  0.25000000  1
  Se  Se14  1  0.85446618  0.85446618  0.75000000  1
  Se  Se15  1  0.64553382  0.35446618  0.25000000  1
  Se  Se16  1  0.66040830  0.16040830  0.16913471  1
  Se  Se17  1  0.83959170  0.33959170  0.33086529  1
  Se  Se18  1  0.16040830  0.66040830  0.33086529  1
  Se  Se19  1  0.33959170  0.83959170  0.16913471  1
  Cl  Cl20  1  0.80707924  0.91902644  0.10546209  1
  Cl  Cl21  1  0.61442525  0.11442525  0.86392174  1
  Cl  Cl22  1  0.69292076  0.41902644  0.89453791  1
  Cl  Cl23  1  0.88557475  0.61442525  0.13607826  1
  Cl  Cl24  1  0.30707924  0.58097356  0.89453791  1
  Cl  Cl25  1  0.41902644  0.69292076  0.60546209  1
  Cl  Cl26  1  0.19292076  0.08097356  0.10546209  1
  Cl  Cl27  1  0.69292076  0.58097356  0.39453791  1
  Cl  Cl28  1  0.08097356  0.19292076  0.39453791  1
  Cl  Cl29  1  0.58097356  0.69292076  0.10546209  1
  Cl  Cl30  1  0.30707924  0.41902644  0.39453791  1
  Cl  Cl31  1  0.19292076  0.91902644  0.60546209  1
  Cl  Cl32  1  0.11442525  0.38557475  0.13607826  1
  Cl  Cl33  1  0.58097356  0.30707924  0.60546209  1
  Cl  Cl34  1  0.61442525  0.88557475  0.36392174  1
  Cl  Cl35  1  0.41902644  0.30707924  0.10546209  1
  Cl  Cl36  1  0.11442525  0.61442525  0.63607826  1
  Cl  Cl37  1  0.91902644  0.19292076  0.89453791  1
  Cl  Cl38  1  0.08097356  0.80707924  0.89453791  1
  Cl  Cl39  1  0.38557475  0.88557475  0.86392174  1
  Cl  Cl40  1  0.91902644  0.80707924  0.39453791  1
  Cl  Cl41  1  0.88557475  0.38557475  0.63607826  1
  Cl  Cl42  1  0.80707924  0.08097356  0.60546209  1
  Cl  Cl43  1  0.38557475  0.11442525  0.36392174  1
