# generated using pymatgen
data_Sr2AlH7
_symmetry_space_group_name_H-M   'P 1'
_cell_length_a   8.34941206
_cell_length_b   8.34941206
_cell_length_c   7.98838195
_cell_angle_alpha   69.81662232
_cell_angle_beta   69.81662232
_cell_angle_gamma   71.46763781
_symmetry_Int_Tables_number   1
_chemical_formula_structural   Sr2AlH7
_chemical_formula_sum   'Sr8 Al4 H28'
_cell_volume   477.94306729
_cell_formula_units_Z   4
loop_
 _symmetry_equiv_pos_site_id
 _symmetry_equiv_pos_as_xyz
  1  'x, y, z'
loop_
 _atom_site_type_symbol
 _atom_site_label
 _atom_site_symmetry_multiplicity
 _atom_site_fract_x
 _atom_site_fract_y
 _atom_site_fract_z
 _atom_site_occupancy
  Sr  Sr0  1  0.26402746  0.92411299  0.47793336  1
  Sr  Sr1  1  0.07588701  0.73597254  0.02206664  1
  Sr  Sr2  1  0.73597254  0.07588701  0.52206664  1
  Sr  Sr3  1  0.92411299  0.26402746  0.97793336  1
  Sr  Sr4  1  0.29031601  0.43203762  0.47680266  1
  Sr  Sr5  1  0.56796238  0.70968399  0.02319734  1
  Sr  Sr6  1  0.70968399  0.56796238  0.52319734  1
  Sr  Sr7  1  0.43203762  0.29031601  0.97680266  1
  Al  Al8  1  0.32069421  0.02373566  0.80772966  1
  Al  Al9  1  0.97626434  0.67930579  0.69227034  1
  Al  Al10  1  0.67930579  0.97626434  0.19227034  1
  Al  Al11  1  0.02373566  0.32069421  0.30772966  1
  H  H12  1  0.39425045  0.10840456  0.57424274  1
  H  H13  1  0.89159544  0.60574955  0.92575726  1
  H  H14  1  0.60574955  0.89159544  0.42575726  1
  H  H15  1  0.10840456  0.39425045  0.07424274  1
  H  H16  1  0.38653289  0.80811542  0.77365550  1
  H  H17  1  0.19188458  0.61346711  0.72634450  1
  H  H18  1  0.61346711  0.19188458  0.22634450  1
  H  H19  1  0.80811542  0.38653289  0.27365550  1
  H  H20  1  0.52360859  0.00826924  0.83156923  1
  H  H21  1  0.99173076  0.47639141  0.66843077  1
  H  H22  1  0.47639141  0.99173076  0.16843077  1
  H  H23  1  0.00826924  0.52360859  0.33156923  1
  H  H24  1  0.26001255  0.91839041  0.04087589  1
  H  H25  1  0.08160959  0.73998745  0.45912411  1
  H  H26  1  0.73998745  0.08160959  0.95912411  1
  H  H27  1  0.91839041  0.26001255  0.54087589  1
  H  H28  1  0.24370203  0.23338523  0.83327716  1
  H  H29  1  0.76661477  0.75629797  0.66672284  1
  H  H30  1  0.75629797  0.76661477  0.16672284  1
  H  H31  1  0.23338523  0.24370203  0.33327716  1
  H  H32  1  0.11702117  0.03192650  0.79333841  1
  H  H33  1  0.96807350  0.88297883  0.70666159  1
  H  H34  1  0.88297883  0.96807350  0.20666159  1
  H  H35  1  0.03192650  0.11702117  0.29333841  1
  H  H36  1  0.34067513  0.54241147  0.12724332  1
  H  H37  1  0.45758853  0.65932487  0.37275668  1
  H  H38  1  0.65932487  0.45758853  0.87275668  1
  H  H39  1  0.54241147  0.34067513  0.62724332  1
