# generated using pymatgen
data_Ba(HO)2
_symmetry_space_group_name_H-M   'P 1'
_cell_length_a   9.49226600
_cell_length_b   8.14121996
_cell_length_c   6.86941993
_cell_angle_alpha   91.06096049
_cell_angle_beta   98.06612778
_cell_angle_gamma   90.26785028
_symmetry_Int_Tables_number   1
_chemical_formula_structural   Ba(HO)2
_chemical_formula_sum   'Ba8 H16 O16'
_cell_volume   525.50312986
_cell_formula_units_Z   8
loop_
 _symmetry_equiv_pos_site_id
 _symmetry_equiv_pos_as_xyz
  1  'x, y, z'
loop_
 _atom_site_type_symbol
 _atom_site_label
 _atom_site_symmetry_multiplicity
 _atom_site_fract_x
 _atom_site_fract_y
 _atom_site_fract_z
 _atom_site_occupancy
  Ba  Ba0  1  0.26353200  0.13818000  0.90222400  1
  Ba  Ba1  1  0.75837200  0.35587500  0.39980800  1
  Ba  Ba2  1  0.75659700  0.85294100  0.09695800  1
  Ba  Ba3  1  0.25709600  0.64888100  0.59422600  1
  Ba  Ba4  1  0.29013900  0.07539900  0.34626600  1
  Ba  Ba5  1  0.78325000  0.44650500  0.82906600  1
  Ba  Ba6  1  0.72058500  0.96170000  0.67811900  1
  Ba  Ba7  1  0.21075700  0.55416100  0.18437300  1
  H  H8  1  0.18639000  0.04728400  0.62586300  1
  H  H9  1  0.85885600  0.38483500  0.12024700  1
  H  H10  1  0.63348700  0.89394200  0.37835900  1
  H  H11  1  0.30665000  0.54566100  0.88531000  1
  H  H12  1  0.34344700  0.84468700  0.17550600  1
  H  H13  1  0.90778800  0.68487200  0.68588200  1
  H  H14  1  0.77209700  0.15531400  0.97699700  1
  H  H15  1  0.27791500  0.35446100  0.48975400  1
  H  H16  1  0.11234100  0.81801400  0.93538200  1
  H  H17  1  0.62320300  0.67398500  0.45372300  1
  H  H18  1  0.12020600  0.23404200  0.12536200  1
  H  H19  1  0.45693300  0.23873900  0.64296900  1
  H  H20  1  0.95163200  0.85277300  0.37346500  1
  H  H21  1  0.44997600  0.78049600  0.87115900  1
  H  H22  1  0.04784300  0.28734100  0.62367200  1
  H  H23  1  0.53829800  0.34880300  0.12494600  1
  O  O24  1  0.31551400  0.99503900  0.63040800  1
  O  O25  1  0.80853700  0.49884000  0.12414100  1
  O  O26  1  0.68895600  0.00755200  0.38355000  1
  O  O27  1  0.19470300  0.46889100  0.88507200  1
  O  O28  1  0.35330900  0.87075000  0.07700600  1
  O  O29  1  0.85725100  0.62857300  0.59603600  1
  O  O30  1  0.65339600  0.13092700  0.90806500  1
  O  O31  1  0.15023600  0.37003000  0.42477600  1
  O  O32  1  0.98655300  0.83888900  0.87540300  1
  O  O33  1  0.50169800  0.68496900  0.38574900  1
  O  O34  1  0.98693000  0.18827100  0.11672800  1
  O  O35  1  0.50067900  0.33942100  0.59985400  1
  O  O36  1  0.05719400  0.80738100  0.32576600  1
  O  O37  1  0.53854900  0.71080500  0.82674500  1
  O  O38  1  0.96988000  0.20870500  0.67107700  1
  O  O39  1  0.43821300  0.29592600  0.17533500  1
