# generated using pymatgen
data_Gd2S3
_symmetry_space_group_name_H-M   'P 1'
_cell_length_a   3.93795851
_cell_length_b   7.39173681
_cell_length_c   15.29389255
_cell_angle_alpha   89.99998396
_cell_angle_beta   90.00000000
_cell_angle_gamma   90.00000000
_symmetry_Int_Tables_number   1
_chemical_formula_structural   Gd2S3
_chemical_formula_sum   'Gd8 S12'
_cell_volume   445.18002117
_cell_formula_units_Z   4
loop_
 _symmetry_equiv_pos_site_id
 _symmetry_equiv_pos_as_xyz
  1  'x, y, z'
loop_
 _atom_site_type_symbol
 _atom_site_label
 _atom_site_symmetry_multiplicity
 _atom_site_fract_x
 _atom_site_fract_y
 _atom_site_fract_z
 _atom_site_occupancy
  Gd  Gd0  1  0.25000000  0.63906838  0.70500275  1
  Gd  Gd1  1  0.75000000  0.36093162  0.29499725  1
  Gd  Gd2  1  0.75000000  0.86093162  0.20500275  1
  Gd  Gd3  1  0.25000000  0.13906838  0.79499725  1
  Gd  Gd4  1  0.25000000  0.76648894  0.45730685  1
  Gd  Gd5  1  0.25000000  0.26648894  0.04269215  1
  Gd  Gd6  1  0.75000000  0.23351106  0.54269315  1
  Gd  Gd7  1  0.75000000  0.73351106  0.95730785  1
  S  S8  1  0.75000000  0.62387028  0.56772495  1
  S  S9  1  0.25000000  0.15220912  0.21857748  1
  S  S10  1  0.25000000  0.65220912  0.28142252  1
  S  S11  1  0.25000000  0.51002706  0.89224961  1
  S  S12  1  0.25000000  0.37612972  0.43227505  1
  S  S13  1  0.75000000  0.12387028  0.93227505  1
  S  S14  1  0.75000000  0.98997294  0.39224961  1
  S  S15  1  0.75000000  0.84779088  0.78142352  1
  S  S16  1  0.75000000  0.34779088  0.71857648  1
  S  S17  1  0.75000000  0.48997294  0.10775039  1
  S  S18  1  0.25000000  0.01002706  0.60775039  1
  S  S19  1  0.25000000  0.87612972  0.06772495  1
