# generated using pymatgen
data_Re2P2O11
_symmetry_space_group_name_H-M   'P 1'
_cell_length_a   6.33489932
_cell_length_b   7.86779814
_cell_length_c   15.43329082
_cell_angle_alpha   89.99935246
_cell_angle_beta   90.00001915
_cell_angle_gamma   89.99995532
_symmetry_Int_Tables_number   1
_chemical_formula_structural   Re2P2O11
_chemical_formula_sum   'Re8 P8 O44'
_cell_volume   769.22159128
_cell_formula_units_Z   4
loop_
 _symmetry_equiv_pos_site_id
 _symmetry_equiv_pos_as_xyz
  1  'x, y, z'
loop_
 _atom_site_type_symbol
 _atom_site_label
 _atom_site_symmetry_multiplicity
 _atom_site_fract_x
 _atom_site_fract_y
 _atom_site_fract_z
 _atom_site_occupancy
  Re  Re0  1  0.25000122  0.25852706  0.46960788  1
  Re  Re1  1  0.74999974  0.05098123  0.21404090  1
  Re  Re2  1  0.25000053  0.24147722  0.96962255  1
  Re  Re3  1  0.75000044  0.75850987  0.03039671  1
  Re  Re4  1  0.24999893  0.94900476  0.78596566  1
  Re  Re5  1  0.25000003  0.55103020  0.28596982  1
  Re  Re6  1  0.75000007  0.44898641  0.71402437  1
  Re  Re7  1  0.75000015  0.74144938  0.53036037  1
  P  P8  1  0.74999883  0.87711503  0.73876317  1
  P  P9  1  0.74999972  0.13971304  0.43311182  1
  P  P10  1  0.25000031  0.37710607  0.76120779  1
  P  P11  1  0.75000012  0.36029283  0.93311331  1
  P  P12  1  0.75000004  0.62289954  0.23879482  1
  P  P13  1  0.25000049  0.63970467  0.06690148  1
  P  P14  1  0.24999983  0.12289840  0.26123020  1
  P  P15  1  0.24999993  0.86027317  0.56687479  1
  O  O16  1  0.74999969  0.54099335  0.96720904  1
  O  O17  1  0.75000052  0.93371389  0.11031072  1
  O  O18  1  0.25000032  0.38587280  0.55766968  1
  O  O19  1  0.25000265  0.43373140  0.38969681  1
  O  O20  1  0.75000014  0.95897578  0.46717478  1
  O  O21  1  0.93954360  0.23971431  0.46537000  1
  O  O22  1  0.93955915  0.26029444  0.96538315  1
  O  O23  1  0.24999929  0.86616967  0.66540300  1
  O  O24  1  0.74999881  0.88588602  0.94233370  1
  O  O25  1  0.25000151  0.39023666  0.86002107  1
  O  O26  1  0.55940831  0.52817070  0.27667256  1
  O  O27  1  0.74999911  0.69196446  0.76758106  1
  O  O28  1  0.75000025  0.25468370  0.66767421  1
  O  O29  1  0.24999952  0.30803204  0.23242079  1
  O  O30  1  0.05941449  0.47184283  0.72332766  1
  O  O31  1  0.94057617  0.97186985  0.77663500  1
  O  O32  1  0.06045835  0.76029585  0.53459126  1
  O  O33  1  0.75000073  0.36619959  0.83458805  1
  O  O34  1  0.74999892  0.61412514  0.44228880  1
  O  O35  1  0.44057918  0.02811863  0.22337475  1
  O  O36  1  0.44058538  0.47184270  0.72332752  1
  O  O37  1  0.05942027  0.02811887  0.22337472  1
  O  O38  1  0.24999970  0.11413312  0.05769080  1
  O  O39  1  0.74999950  0.80802160  0.26762398  1
  O  O40  1  0.24999924  0.74533876  0.33232148  1
  O  O41  1  0.56044157  0.26029390  0.96538278  1
  O  O42  1  0.74999931  0.89026361  0.63994708  1
  O  O43  1  0.25000126  0.04100774  0.53278881  1
  O  O44  1  0.94059133  0.52817059  0.27667250  1
  O  O45  1  0.74999946  0.60976374  0.13998695  1
  O  O46  1  0.43956081  0.73972257  0.03464945  1
  O  O47  1  0.24999957  0.63380171  0.16542192  1
  O  O48  1  0.25000044  0.10972005  0.36004775  1
  O  O49  1  0.06043869  0.73972139  0.03464883  1
  O  O50  1  0.74999970  0.13381760  0.33458674  1
  O  O51  1  0.25000202  0.45900458  0.03282275  1
  O  O52  1  0.24999971  0.06627600  0.88970662  1
  O  O53  1  0.24999919  0.75469317  0.83229626  1
  O  O54  1  0.56045938  0.23971498  0.46536993  1
  O  O55  1  0.75000106  0.56626525  0.61028124  1
  O  O56  1  0.74999905  0.24530637  0.16772599  1
  O  O57  1  0.43954120  0.76029483  0.53459156  1
  O  O58  1  0.24999899  0.19197634  0.73238760  1
  O  O59  1  0.55942110  0.97186954  0.77663505  1
