# generated using pymatgen
data_K2VCuSe4
_symmetry_space_group_name_H-M   'P 1'
_cell_length_a   13.73114308
_cell_length_b   12.26960011
_cell_length_c   7.34485206
_cell_angle_alpha   84.92437491
_cell_angle_beta   62.88030466
_cell_angle_gamma   32.19532042
_symmetry_Int_Tables_number   1
_chemical_formula_structural   K2VCuSe4
_chemical_formula_sum   'K4 V2 Cu2 Se8'
_cell_volume   457.20065297
_cell_formula_units_Z   2
loop_
 _symmetry_equiv_pos_site_id
 _symmetry_equiv_pos_as_xyz
  1  'x, y, z'
loop_
 _atom_site_type_symbol
 _atom_site_label
 _atom_site_symmetry_multiplicity
 _atom_site_fract_x
 _atom_site_fract_y
 _atom_site_fract_z
 _atom_site_occupancy
  K  K0  1  0.81967300  0.81626600  0.18248900  1
  K  K1  1  0.17448300  0.18323900  0.81951800  1
  K  K2  1  0.43068700  0.42995700  0.07615800  1
  K  K3  1  0.07103800  0.07171000  0.42383000  1
  V  V4  1  0.00721000  0.99518100  0.99817500  1
  V  V5  1  0.25195500  0.24467700  0.24600700  1
  Cu  Cu6  1  0.50251600  0.50033200  0.49287700  1
  Cu  Cu7  1  0.74090100  0.75677600  0.75732900  1
  Se  Se8  1  0.17628800  0.43432100  0.51932000  1
  Se  Se9  1  0.86762700  0.51916600  0.43945800  1
  Se  Se10  1  0.52755700  0.85661900  0.16881700  1
  Se  Se11  1  0.44952000  0.16391400  0.85496000  1
  Se  Se12  1  0.08024100  0.80362100  0.72217400  1
  Se  Se13  1  0.39010500  0.72653600  0.80834800  1
  Se  Se14  1  0.72153200  0.38932100  0.08503600  1
  Se  Se15  1  0.81915000  0.07011200  0.38486600  1
