# generated using pymatgen
data_K2SiH4(NO)2
_symmetry_space_group_name_H-M   'P 1'
_cell_length_a   9.91554350
_cell_length_b   6.62854526
_cell_length_c   7.57032927
_cell_angle_alpha   89.05505985
_cell_angle_beta   90.00000000
_cell_angle_gamma   90.00000000
_symmetry_Int_Tables_number   1
_chemical_formula_structural   K2SiH4(NO)2
_chemical_formula_sum   'K8 Si4 H16 N8 O8'
_cell_volume   497.49698500
_cell_formula_units_Z   4
loop_
 _symmetry_equiv_pos_site_id
 _symmetry_equiv_pos_as_xyz
  1  'x, y, z'
loop_
 _atom_site_type_symbol
 _atom_site_label
 _atom_site_symmetry_multiplicity
 _atom_site_fract_x
 _atom_site_fract_y
 _atom_site_fract_z
 _atom_site_occupancy
  K  K0  1  0.56346403  0.65224587  0.15941984  1
  K  K1  1  0.06346403  0.34775413  0.34058016  1
  K  K2  1  0.43653597  0.34775413  0.84058016  1
  K  K3  1  0.93653597  0.65224587  0.65941984  1
  K  K4  1  0.19375299  0.66378162  0.97616336  1
  K  K5  1  0.69375299  0.33621838  0.52383664  1
  K  K6  1  0.80624701  0.33621838  0.02383664  1
  K  K7  1  0.30624701  0.66378162  0.47616336  1
  Si  Si8  1  0.42221205  0.21094926  0.25415149  1
  Si  Si9  1  0.92221205  0.78905074  0.24584851  1
  Si  Si10  1  0.57778795  0.78905074  0.74584851  1
  Si  Si11  1  0.07778795  0.21094926  0.75415149  1
  H  H12  1  0.87655428  0.05548378  0.44380181  1
  H  H13  1  0.37655428  0.94451622  0.05619819  1
  H  H14  1  0.12344572  0.94451622  0.55619819  1
  H  H15  1  0.62344572  0.05548378  0.94380181  1
  H  H16  1  0.76047909  0.05190136  0.28625619  1
  H  H17  1  0.26047909  0.94809864  0.21374381  1
  H  H18  1  0.23952091  0.94809864  0.71374381  1
  H  H19  1  0.73952091  0.05190136  0.78625619  1
  H  H20  1  0.81253068  0.74260924  0.96572507  1
  H  H21  1  0.31253068  0.25739076  0.53427493  1
  H  H22  1  0.18746932  0.25739076  0.03427493  1
  H  H23  1  0.68746932  0.74260924  0.46572507  1
  H  H24  1  0.93081919  0.91186494  0.94421273  1
  H  H25  1  0.43081919  0.08813506  0.55578727  1
  H  H26  1  0.06918081  0.08813506  0.05578727  1
  H  H27  1  0.56918081  0.91186494  0.44421273  1
  N  N28  1  0.13982337  0.97368890  0.68683983  1
  N  N29  1  0.63982337  0.02631110  0.81316017  1
  N  N30  1  0.86017663  0.02631110  0.31316017  1
  N  N31  1  0.36017663  0.97368890  0.18683983  1
  N  N32  1  0.90457156  0.78544204  0.01386029  1
  N  N33  1  0.40457156  0.21455796  0.48613971  1
  N  N34  1  0.09542844  0.21455796  0.98613971  1
  N  N35  1  0.59542844  0.78544204  0.51386029  1
  O  O36  1  0.83265744  0.60188068  0.31871321  1
  O  O37  1  0.33265744  0.39811932  0.18128679  1
  O  O38  1  0.16734256  0.39811932  0.68128679  1
  O  O39  1  0.66734256  0.60188068  0.81871321  1
  O  O40  1  0.07865828  0.78089570  0.30147967  1
  O  O41  1  0.57865828  0.21910430  0.19852033  1
  O  O42  1  0.92134172  0.21910430  0.69852033  1
  O  O43  1  0.42134172  0.78089570  0.80147967  1
