# generated using pymatgen
data_Li2SiN2
_symmetry_space_group_name_H-M   'P 1'
_cell_length_a   9.87404552
_cell_length_b   9.88431888
_cell_length_c   14.94855318
_cell_angle_alpha   90.00000000
_cell_angle_beta   90.00000000
_cell_angle_gamma   90.00000000
_symmetry_Int_Tables_number   1
_chemical_formula_structural   Li2SiN2
_chemical_formula_sum   'Li64 Si32 N64'
_cell_volume   1458.95210055
_cell_formula_units_Z   32
loop_
 _symmetry_equiv_pos_site_id
 _symmetry_equiv_pos_as_xyz
  1  'x, y, z'
loop_
 _atom_site_type_symbol
 _atom_site_label
 _atom_site_symmetry_multiplicity
 _atom_site_fract_x
 _atom_site_fract_y
 _atom_site_fract_z
 _atom_site_occupancy
  Li  Li0  1  0.40011476  0.84699753  0.62262423  1
  Li  Li1  1  0.29195073  0.02811694  0.87585497  1
  Li  Li2  1  0.63798255  0.70429226  0.12208222  1
  Li  Li3  1  0.95772305  0.61994305  0.87420579  1
  Li  Li4  1  0.39658561  0.93747975  0.47838391  1
  Li  Li5  1  0.66997787  0.16277325  0.22764257  1
  Li  Li6  1  0.20804927  0.97188306  0.37585497  1
  Li  Li7  1  0.80897805  0.39476211  0.28443946  1
  Li  Li8  1  0.36466901  0.42123008  0.53753336  1
  Li  Li9  1  0.70804927  0.97188306  0.12414503  1
  Li  Li10  1  0.63533099  0.57876992  0.46246664  1
  Li  Li11  1  0.13798255  0.70429226  0.37791778  1
  Li  Li12  1  0.13798255  0.79570774  0.87791778  1
  Li  Li13  1  0.70804927  0.52811694  0.62414503  1
  Li  Li14  1  0.60341439  0.43747975  0.02161609  1
  Li  Li15  1  0.83002213  0.66277325  0.22764257  1
  Li  Li16  1  0.33002213  0.66277325  0.27235743  1
  Li  Li17  1  0.86466901  0.42123008  0.96246664  1
  Li  Li18  1  0.04227695  0.38005695  0.12579421  1
  Li  Li19  1  0.69102195  0.89476211  0.28443946  1
  Li  Li20  1  0.13533099  0.92123008  0.53753336  1
  Li  Li21  1  0.83002213  0.83722675  0.72764257  1
  Li  Li22  1  0.16997787  0.16277325  0.27235743  1
  Li  Li23  1  0.60341439  0.06252025  0.52161609  1
  Li  Li24  1  0.80897805  0.10523789  0.78443946  1
  Li  Li25  1  0.19102195  0.60523789  0.71556054  1
  Li  Li26  1  0.63798255  0.79570774  0.62208222  1
  Li  Li27  1  0.90011476  0.84699753  0.87737577  1
  Li  Li28  1  0.29195073  0.47188306  0.37585497  1
  Li  Li29  1  0.59988524  0.34699753  0.87737577  1
  Li  Li30  1  0.04227695  0.11994305  0.62579421  1
  Li  Li31  1  0.20804927  0.52811694  0.87585497  1
  Li  Li32  1  0.33002213  0.83722675  0.77235743  1
  Li  Li33  1  0.45772305  0.88005695  0.12579421  1
  Li  Li34  1  0.09988524  0.34699753  0.62262423  1
  Li  Li35  1  0.30897805  0.10523789  0.71556054  1
  Li  Li36  1  0.10341439  0.43747975  0.47838391  1
  Li  Li37  1  0.40011476  0.65300247  0.12262423  1
  Li  Li38  1  0.36466901  0.07876992  0.03753336  1
  Li  Li39  1  0.66997787  0.33722675  0.72764257  1
  Li  Li40  1  0.39658561  0.56252025  0.97838391  1
  Li  Li41  1  0.13533099  0.57876992  0.03753336  1
  Li  Li42  1  0.36201745  0.20429226  0.37791778  1
  Li  Li43  1  0.19102195  0.89476211  0.21556054  1
  Li  Li44  1  0.45772305  0.61994305  0.62579421  1
  Li  Li45  1  0.63533099  0.92123008  0.96246664  1
  Li  Li46  1  0.86201745  0.20429226  0.12208222  1
  Li  Li47  1  0.54227695  0.11994305  0.87420579  1
  Li  Li48  1  0.09988524  0.15300247  0.12262423  1
  Li  Li49  1  0.95772305  0.88005695  0.37420579  1
  Li  Li50  1  0.79195073  0.02811694  0.62414503  1
  Li  Li51  1  0.69102195  0.60523789  0.78443946  1
  Li  Li52  1  0.86201745  0.29570774  0.62208222  1
  Li  Li53  1  0.89658561  0.56252025  0.52161609  1
  Li  Li54  1  0.79195073  0.47188306  0.12414503  1
  Li  Li55  1  0.16997787  0.33722675  0.77235743  1
  Li  Li56  1  0.10341439  0.06252025  0.97838391  1
  Li  Li57  1  0.30897805  0.39476211  0.21556054  1
  Li  Li58  1  0.54227695  0.38005695  0.37420579  1
  Li  Li59  1  0.36201745  0.29570774  0.87791778  1
  Li  Li60  1  0.86466901  0.07876992  0.46246664  1
  Li  Li61  1  0.59988524  0.15300247  0.37737577  1
  Li  Li62  1  0.89658561  0.93747975  0.02161609  1
  Li  Li63  1  0.90011476  0.65300247  0.37737577  1
  Si  Si64  1  0.85845451  0.16626067  0.94382661  1
  Si  Si65  1  0.85845451  0.33373933  0.44382661  1
  Si  Si66  1  0.43304264  0.60452434  0.81306459  1
  Si  Si67  1  0.56695736  0.39547566  0.18693541  1
  Si  Si68  1  0.56695736  0.10452434  0.68693541  1
  Si  Si69  1  0.39112463  0.67981897  0.44265394  1
  Si  Si70  1  0.06695736  0.39547566  0.31306459  1
  Si  Si71  1  0.89112463  0.82018103  0.55734606  1
  Si  Si72  1  0.06695736  0.10452434  0.81306459  1
  Si  Si73  1  0.41256381  0.14411367  0.19967152  1
  Si  Si74  1  0.60887537  0.17981897  0.05734606  1
  Si  Si75  1  0.58743619  0.64411367  0.30032848  1
  Si  Si76  1  0.91256381  0.14411367  0.30032848  1
  Si  Si77  1  0.08743619  0.85588633  0.69967152  1
  Si  Si78  1  0.10887537  0.32018103  0.94265394  1
  Si  Si79  1  0.93304264  0.60452434  0.68693541  1
  Si  Si80  1  0.91256381  0.35588633  0.80032848  1
  Si  Si81  1  0.43304264  0.89547566  0.31306459  1
  Si  Si82  1  0.89112463  0.67981897  0.05734606  1
  Si  Si83  1  0.58743619  0.85588633  0.80032848  1
  Si  Si84  1  0.93304264  0.89547566  0.18693541  1
  Si  Si85  1  0.08743619  0.64411367  0.19967152  1
  Si  Si86  1  0.35845451  0.16626067  0.55617339  1
  Si  Si87  1  0.35845451  0.33373933  0.05617339  1
  Si  Si88  1  0.41256381  0.35588633  0.69967152  1
  Si  Si89  1  0.60887537  0.32018103  0.55734606  1
  Si  Si90  1  0.14154549  0.66626067  0.55617339  1
  Si  Si91  1  0.64154549  0.83373933  0.44382661  1
  Si  Si92  1  0.39112463  0.82018103  0.94265394  1
  Si  Si93  1  0.10887537  0.17981897  0.44265394  1
  Si  Si94  1  0.14154549  0.83373933  0.05617339  1
  Si  Si95  1  0.64154549  0.66626067  0.94382661  1
  N  N96  1  0.16361971  0.97463970  0.76775683  1
  N  N97  1  0.66361971  0.52536030  0.23224317  1
  N  N98  1  0.28901889  0.28038115  0.63214953  1
  N  N99  1  0.44371020  0.04068661  0.61513679  1
  N  N100  1  0.21098111  0.78038115  0.63214953  1
  N  N101  1  0.71098111  0.71961885  0.36785047  1
  N  N102  1  0.03039362  0.43353139  0.86973008  1
  N  N103  1  0.49297429  0.27491225  0.26188510  1
  N  N104  1  0.05628980  0.95931339  0.11513679  1
  N  N105  1  0.94371020  0.45931339  0.38486321  1
  N  N106  1  0.66361971  0.97463970  0.73224317  1
  N  N107  1  0.26296649  0.58735440  0.49196311  1
  N  N108  1  0.94371020  0.04068661  0.88486321  1
  N  N109  1  0.33638029  0.47463970  0.76775683  1
  N  N110  1  0.96960638  0.93353139  0.63026992  1
  N  N111  1  0.99297429  0.27491225  0.23811490  1
  N  N112  1  0.51622480  0.75040919  0.01273674  1
  N  N113  1  0.26296649  0.91264560  0.99196311  1
  N  N114  1  0.28901889  0.21961885  0.13214953  1
  N  N115  1  0.98377520  0.24959081  0.51273674  1
  N  N116  1  0.48377520  0.25040919  0.48726326  1
  N  N117  1  0.55628980  0.54068661  0.88486321  1
  N  N118  1  0.31602352  0.80580839  0.37791493  1
  N  N119  1  0.83638029  0.47463970  0.73224317  1
  N  N120  1  0.68397648  0.30580839  0.12208507  1
  N  N121  1  0.49297429  0.22508775  0.76188510  1
  N  N122  1  0.98377520  0.25040919  0.01273674  1
  N  N123  1  0.71098111  0.78038115  0.86785047  1
  N  N124  1  0.05628980  0.54068661  0.61513679  1
  N  N125  1  0.46960638  0.93353139  0.86973008  1
  N  N126  1  0.55628980  0.95931339  0.38486321  1
  N  N127  1  0.01622480  0.74959081  0.98726326  1
  N  N128  1  0.48377520  0.24959081  0.98726326  1
  N  N129  1  0.81602352  0.69419161  0.62208507  1
  N  N130  1  0.78901889  0.28038115  0.86785047  1
  N  N131  1  0.73703351  0.08735440  0.00803689  1
  N  N132  1  0.46960638  0.56646861  0.36973008  1
  N  N133  1  0.31602352  0.69419161  0.87791493  1
  N  N134  1  0.18397648  0.30580839  0.37791493  1
  N  N135  1  0.01622480  0.75040919  0.48726326  1
  N  N136  1  0.53039362  0.06646861  0.13026992  1
  N  N137  1  0.00702571  0.72508775  0.76188510  1
  N  N138  1  0.53039362  0.43353139  0.63026992  1
  N  N139  1  0.99297429  0.22508775  0.73811490  1
  N  N140  1  0.33638029  0.02536030  0.26775683  1
  N  N141  1  0.16361971  0.52536030  0.26775683  1
  N  N142  1  0.21098111  0.71961885  0.13214953  1
  N  N143  1  0.23703351  0.08735440  0.49196311  1
  N  N144  1  0.76296649  0.58735440  0.00803689  1
  N  N145  1  0.76296649  0.91264560  0.50803689  1
  N  N146  1  0.50702571  0.77491225  0.23811490  1
  N  N147  1  0.78901889  0.21961885  0.36785047  1
  N  N148  1  0.96960638  0.56646861  0.13026992  1
  N  N149  1  0.03039362  0.06646861  0.36973008  1
  N  N150  1  0.51622480  0.74959081  0.51273674  1
  N  N151  1  0.50702571  0.72508775  0.73811490  1
  N  N152  1  0.23703351  0.41264560  0.99196311  1
  N  N153  1  0.73703351  0.41264560  0.50803689  1
  N  N154  1  0.18397648  0.19419161  0.87791493  1
  N  N155  1  0.83638029  0.02536030  0.23224317  1
  N  N156  1  0.00702571  0.77491225  0.26188510  1
  N  N157  1  0.81602352  0.80580839  0.12208507  1
  N  N158  1  0.44371020  0.45931339  0.11513679  1
  N  N159  1  0.68397648  0.19419161  0.62208507  1
