# generated using pymatgen
data_CdI2
_symmetry_space_group_name_H-M   'P 1'
_cell_length_a   4.28524884
_cell_length_b   4.28524770
_cell_length_c   64.42707635
_cell_angle_alpha   90.00000000
_cell_angle_beta   90.00000000
_cell_angle_gamma   119.99999260
_symmetry_Int_Tables_number   1
_chemical_formula_structural   CdI2
_chemical_formula_sum   'Cd9 I18'
_cell_volume   1024.59224601
_cell_formula_units_Z   9
loop_
 _symmetry_equiv_pos_site_id
 _symmetry_equiv_pos_as_xyz
  1  'x, y, z'
loop_
 _atom_site_type_symbol
 _atom_site_label
 _atom_site_symmetry_multiplicity
 _atom_site_fract_x
 _atom_site_fract_y
 _atom_site_fract_z
 _atom_site_occupancy
  Cd  Cd0  1  0.33333300  0.66666700  0.91691757  1
  Cd  Cd1  1  0.33333300  0.66666700  0.36069112  1
  Cd  Cd2  1  0.33333300  0.66666700  0.80594649  1
  Cd  Cd3  1  0.33333300  0.66666700  0.02777241  1
  Cd  Cd4  1  0.33333300  0.66666700  0.47221623  1
  Cd  Cd5  1  0.33333300  0.66666700  0.69443981  1
  Cd  Cd6  1  0.00000000  -0.00000000  0.13913515  1
  Cd  Cd7  1  0.33333300  0.66666700  0.58308302  1
  Cd  Cd8  1  0.33333300  0.66666700  0.24981387  1
  I  I9  1  -0.00000000  0.00000000  0.22304239  1
  I  I10  1  0.66666700  0.33333300  0.27660260  1
  I  I11  1  0.66666700  0.33333300  0.72118878  1
  I  I12  1  -0.00000000  0.00000000  0.77934896  1
  I  I13  1  -0.00000000  0.00000000  0.44547782  1
  I  I14  1  -0.00000000  0.00000000  0.66769997  1
  I  I15  1  0.66666700  0.33333300  0.83254815  1
  I  I16  1  0.66666700  0.33333300  0.16584638  1
  I  I17  1  0.66666700  0.33333300  0.60981391  1
  I  I18  1  0.66666700  0.33333300  0.05452068  1
  I  I19  1  0.33333300  0.66666700  0.11240473  1
  I  I20  1  -0.00000000  0.00000000  0.55637468  1
  I  I21  1  0.66666700  0.33333300  0.38730654  1
  I  I22  1  0.66666700  0.33333300  0.94362480  1
  I  I23  1  -0.00000000  0.00000000  0.33409961  1
  I  I24  1  -0.00000000  0.00000000  0.00103356  1
  I  I25  1  0.66666700  0.33333300  0.49896411  1
  I  I26  1  -0.00000000  0.00000000  0.89018668  1
