# generated using pymatgen
data_YCuSe2
_symmetry_space_group_name_H-M   'P 1'
_cell_length_a   4.08071717
_cell_length_b   4.08071639
_cell_length_c   6.40087967
_cell_angle_alpha   90.00000000
_cell_angle_beta   90.00000000
_cell_angle_gamma   119.99999784
_symmetry_Int_Tables_number   1
_chemical_formula_structural   YCuSe2
_chemical_formula_sum   'Y1 Cu1 Se2'
_cell_volume   92.30882262
_cell_formula_units_Z   1
loop_
 _symmetry_equiv_pos_site_id
 _symmetry_equiv_pos_as_xyz
  1  'x, y, z'
loop_
 _atom_site_type_symbol
 _atom_site_label
 _atom_site_symmetry_multiplicity
 _atom_site_fract_x
 _atom_site_fract_y
 _atom_site_fract_z
 _atom_site_occupancy
  Y  Y0  1  0.00000000  0.00000000  0.48841220  1
  Cu  Cu1  1  0.66666700  0.33333300  0.87302622  1
  Se  Se2  1  0.33333300  0.66666700  0.76087632  1
  Se  Se3  1  0.66666700  0.33333300  0.25168726  1
