# generated using pymatgen
data_Rb2TaCuS4
_symmetry_space_group_name_H-M   'P 1'
_cell_length_a   13.99435844
_cell_length_b   12.48279445
_cell_length_c   7.46811421
_cell_angle_alpha   85.15391598
_cell_angle_beta   62.72271190
_cell_angle_gamma   32.12337211
_symmetry_Int_Tables_number   1
_chemical_formula_structural   Rb2TaCuS4
_chemical_formula_sum   'Rb4 Ta2 Cu2 S8'
_cell_volume   472.46751423
_cell_formula_units_Z   2
loop_
 _symmetry_equiv_pos_site_id
 _symmetry_equiv_pos_as_xyz
  1  'x, y, z'
loop_
 _atom_site_type_symbol
 _atom_site_label
 _atom_site_symmetry_multiplicity
 _atom_site_fract_x
 _atom_site_fract_y
 _atom_site_fract_z
 _atom_site_occupancy
  Rb  Rb0  1  0.67194500  0.68171800  0.33199800  1
  Rb  Rb1  1  0.33025300  0.31298900  0.67134000  1
  Rb  Rb2  1  0.57633700  0.56850900  0.91865700  1
  Rb  Rb3  1  0.92115500  0.93634500  0.57593800  1
  Ta  Ta4  1  0.50099000  0.50180700  0.49399600  1
  Ta  Ta5  1  0.75587600  0.74619700  0.74079300  1
  Cu  Cu6  1  0.99765000  0.99825700  0.00169200  1
  Cu  Cu7  1  0.25448200  0.24374300  0.24229200  1
  S  S8  1  0.94341200  0.66556100  0.36621500  1
  S  S9  1  0.03953300  0.35154700  0.65690900  1
  S  S10  1  0.22477600  0.88391700  0.58916400  1
  S  S11  1  0.29269300  0.59901300  0.90050800  1
  S  S12  1  0.59515300  0.29835600  0.22093500  1
  S  S13  1  0.89793500  0.20703200  0.29381400  1
  S  S14  1  0.36107400  0.02876600  0.95228000  1
  S  S15  1  0.65925400  0.95136100  0.02884500  1
