# generated using pymatgen
data_Tl3PSe4
_symmetry_space_group_name_H-M   'P 1'
_cell_length_a   9.95526600
_cell_length_b   10.48690200
_cell_length_c   10.58233100
_cell_angle_alpha   90.00000000
_cell_angle_beta   90.00000000
_cell_angle_gamma   90.00000000
_symmetry_Int_Tables_number   1
_chemical_formula_structural   Tl3PSe4
_chemical_formula_sum   'Tl12 P4 Se16'
_cell_volume   1104.79428680
_cell_formula_units_Z   4
loop_
 _symmetry_equiv_pos_site_id
 _symmetry_equiv_pos_as_xyz
  1  'x, y, z'
loop_
 _atom_site_type_symbol
 _atom_site_label
 _atom_site_symmetry_multiplicity
 _atom_site_fract_x
 _atom_site_fract_y
 _atom_site_fract_z
 _atom_site_occupancy
  Tl  Tl0  1  0.57802500  0.69360800  0.54635100  1
  Tl  Tl1  1  0.07802500  0.80639200  0.54635100  1
  Tl  Tl2  1  0.01354500  0.64188200  0.25000000  1
  Tl  Tl3  1  0.98645500  0.35811800  0.75000000  1
  Tl  Tl4  1  0.51354500  0.85811800  0.25000000  1
  Tl  Tl5  1  0.92197500  0.19360800  0.04635100  1
  Tl  Tl6  1  0.92197500  0.19360800  0.45364900  1
  Tl  Tl7  1  0.42197500  0.30639200  0.45364900  1
  Tl  Tl8  1  0.07802500  0.80639200  0.95364900  1
  Tl  Tl9  1  0.42197500  0.30639200  0.04635100  1
  Tl  Tl10  1  0.48645500  0.14188200  0.75000000  1
  Tl  Tl11  1  0.57802500  0.69360800  0.95364900  1
  P  P12  1  0.79806000  0.94575700  0.75000000  1
  P  P13  1  0.29806000  0.55424300  0.75000000  1
  P  P14  1  0.70194000  0.44575700  0.25000000  1
  P  P15  1  0.20194000  0.05424300  0.25000000  1
  Se  Se16  1  0.81087500  0.50956600  0.42379700  1
  Se  Se17  1  0.68912500  0.00956600  0.57620300  1
  Se  Se18  1  0.49230100  0.52298400  0.25000000  1
  Se  Se19  1  0.50769900  0.47701600  0.75000000  1
  Se  Se20  1  0.68668300  0.23264800  0.25000000  1
  Se  Se21  1  0.31087500  0.99043400  0.42379700  1
  Se  Se22  1  0.18912500  0.49043400  0.57620300  1
  Se  Se23  1  0.81331700  0.73264800  0.75000000  1
  Se  Se24  1  0.31331700  0.76735200  0.75000000  1
  Se  Se25  1  0.18668300  0.26735200  0.25000000  1
  Se  Se26  1  0.31087500  0.99043400  0.07620300  1
  Se  Se27  1  0.18912500  0.49043400  0.92379700  1
  Se  Se28  1  0.99230100  0.97701600  0.25000000  1
  Se  Se29  1  0.68912500  0.00956600  0.92379700  1
  Se  Se30  1  0.81087500  0.50956600  0.07620300  1
  Se  Se31  1  0.00769900  0.02298400  0.75000000  1
