# generated using pymatgen
data_Bi3(TeCl5)2
_symmetry_space_group_name_H-M   'P 1'
_cell_length_a   6.97451335
_cell_length_b   10.90944181
_cell_length_c   14.92991593
_cell_angle_alpha   108.25803529
_cell_angle_beta   91.67977676
_cell_angle_gamma   105.25926359
_symmetry_Int_Tables_number   1
_chemical_formula_structural   Bi3(TeCl5)2
_chemical_formula_sum   'Bi6 Te4 Cl20'
_cell_volume   1032.99000834
_cell_formula_units_Z   2
loop_
 _symmetry_equiv_pos_site_id
 _symmetry_equiv_pos_as_xyz
  1  'x, y, z'
loop_
 _atom_site_type_symbol
 _atom_site_label
 _atom_site_symmetry_multiplicity
 _atom_site_fract_x
 _atom_site_fract_y
 _atom_site_fract_z
 _atom_site_occupancy
  Bi  Bi0  1  0.40067397  0.97175931  0.83192346  1
  Bi  Bi1  1  0.62086035  0.69738761  0.97728501  1
  Bi  Bi2  1  0.37913965  0.30261239  0.02271499  1
  Bi  Bi3  1  0.59932603  0.02824069  0.16807654  1
  Bi  Bi4  1  0.92233828  0.47741947  0.25424318  1
  Bi  Bi5  1  0.07766172  0.52258053  0.74575682  1
  Te  Te6  1  0.08503390  0.85623524  0.51922070  1
  Te  Te7  1  0.91496610  0.14376476  0.48077930  1
  Te  Te8  1  0.22778575  0.12814846  0.58341411  1
  Te  Te9  1  0.77221425  0.87185154  0.41658589  1
  Cl  Cl10  1  0.94646271  0.63567289  0.92620990  1
  Cl  Cl11  1  0.21082118  0.43482396  0.58538641  1
  Cl  Cl12  1  0.78917882  0.56517604  0.41461359  1
  Cl  Cl13  1  0.34610906  0.78813419  0.10284353  1
  Cl  Cl14  1  0.85495778  0.90030570  0.17882392  1
  Cl  Cl15  1  0.35112561  0.45103245  0.89510233  1
  Cl  Cl16  1  0.49996488  0.69766840  0.80372465  1
  Cl  Cl17  1  0.95532442  0.26309989  0.28074266  1
  Cl  Cl18  1  0.27370686  0.61464072  0.32536408  1
  Cl  Cl19  1  0.50003512  0.30233160  0.19627535  1
  Cl  Cl20  1  0.65389094  0.21186581  0.89715647  1
  Cl  Cl21  1  0.64887439  0.54896755  0.10489767  1
  Cl  Cl22  1  0.72629314  0.38535928  0.67463592  1
  Cl  Cl23  1  0.04467558  0.73690011  0.71925734  1
  Cl  Cl24  1  0.27025060  0.03348558  0.01564686  1
  Cl  Cl25  1  0.50064263  0.03551292  0.33730436  1
  Cl  Cl26  1  0.14504222  0.09969430  0.82117608  1
  Cl  Cl27  1  0.72974940  0.96651442  0.98435314  1
  Cl  Cl28  1  0.49935737  0.96448708  0.66269564  1
  Cl  Cl29  1  0.05353729  0.36432711  0.07379010  1
