# generated using pymatgen
data_Cs3Bi2I9
_symmetry_space_group_name_H-M   'P 1'
_cell_length_a   8.52312681
_cell_length_b   8.52312681
_cell_length_c   21.69991442
_cell_angle_alpha   88.68370363
_cell_angle_beta   88.68370363
_cell_angle_gamma   120.06202656
_symmetry_Int_Tables_number   1
_chemical_formula_structural   Cs3Bi2I9
_chemical_formula_sum   'Cs6 Bi4 I18'
_cell_volume   1362.87200351
_cell_formula_units_Z   2
loop_
 _symmetry_equiv_pos_site_id
 _symmetry_equiv_pos_as_xyz
  1  'x, y, z'
loop_
 _atom_site_type_symbol
 _atom_site_label
 _atom_site_symmetry_multiplicity
 _atom_site_fract_x
 _atom_site_fract_y
 _atom_site_fract_z
 _atom_site_occupancy
  Cs  Cs0  1  0.99579766  0.00420234  0.75000000  1
  Cs  Cs1  1  0.66326883  0.32676000  0.07451160  1
  Cs  Cs2  1  0.00420234  0.99579766  0.25000000  1
  Cs  Cs3  1  0.32676000  0.66326883  0.57451160  1
  Cs  Cs4  1  0.33673117  0.67324000  0.92548840  1
  Cs  Cs5  1  0.67324000  0.33673117  0.42548840  1
  Bi  Bi6  1  0.65497612  0.32449986  0.65595205  1
  Bi  Bi7  1  0.34502388  0.67550014  0.34404795  1
  Bi  Bi8  1  0.32449986  0.65497612  0.15595205  1
  Bi  Bi9  1  0.67550014  0.34502388  0.84404795  1
  I  I10  1  0.65347586  0.81940126  0.07349544  1
  I  I11  1  0.34652414  0.18059874  0.92650456  1
  I  I12  1  0.49434880  0.99448562  0.76015682  1
  I  I13  1  0.18515389  0.85496796  0.41695429  1
  I  I14  1  0.85496796  0.18515389  0.91695429  1
  I  I15  1  0.81940126  0.65347586  0.57349544  1
  I  I16  1  0.81484611  0.14503204  0.58304571  1
  I  I17  1  0.30954515  0.14661937  0.58934065  1
  I  I18  1  0.50565120  0.00551438  0.23984318  1
  I  I19  1  0.00551438  0.50565120  0.73984318  1
  I  I20  1  0.14503204  0.81484611  0.08304571  1
  I  I21  1  0.99448562  0.49434880  0.26015682  1
  I  I22  1  0.49475668  0.50524332  0.75000000  1
  I  I23  1  0.85338063  0.69045485  0.91065935  1
  I  I24  1  0.14661937  0.30954515  0.08934065  1
  I  I25  1  0.69045485  0.85338063  0.41065935  1
  I  I26  1  0.50524332  0.49475668  0.25000000  1
  I  I27  1  0.18059874  0.34652414  0.42650456  1
