# generated using pymatgen
data_Sm2SiTeO4
_symmetry_space_group_name_H-M   'P 1'
_cell_length_a   6.23394336
_cell_length_b   7.09982811
_cell_length_c   11.12550743
_cell_angle_alpha   90.00000000
_cell_angle_beta   90.00000000
_cell_angle_gamma   90.00000000
_symmetry_Int_Tables_number   1
_chemical_formula_structural   Sm2SiTeO4
_chemical_formula_sum   'Sm8 Si4 Te4 O16'
_cell_volume   492.41413894
_cell_formula_units_Z   4
loop_
 _symmetry_equiv_pos_site_id
 _symmetry_equiv_pos_as_xyz
  1  'x, y, z'
loop_
 _atom_site_type_symbol
 _atom_site_label
 _atom_site_symmetry_multiplicity
 _atom_site_fract_x
 _atom_site_fract_y
 _atom_site_fract_z
 _atom_site_occupancy
  Sm  Sm0  1  0.38777443  0.75000000  0.50000000  1
  Sm  Sm1  1  0.38777443  0.75000000  -0.00000000  1
  Sm  Sm2  1  0.61222557  0.25000000  0.50000000  1
  Sm  Sm3  1  0.61222557  0.25000000  -0.00000000  1
  Sm  Sm4  1  0.88805173  0.96366566  0.75000000  1
  Sm  Sm5  1  0.88805173  0.53633434  0.25000000  1
  Sm  Sm6  1  0.11194827  0.46366566  0.75000000  1
  Sm  Sm7  1  0.11194827  0.03633434  0.25000000  1
  Si  Si8  1  0.11347457  0.25000000  -0.00000000  1
  Si  Si9  1  0.88652543  0.75000000  -0.00000000  1
  Si  Si10  1  0.88652543  0.75000000  0.50000000  1
  Si  Si11  1  0.11347457  0.25000000  0.50000000  1
  Te  Te12  1  0.59600536  0.58347288  0.75000000  1
  Te  Te13  1  0.59600536  0.91652712  0.25000000  1
  Te  Te14  1  0.40399464  0.08347288  0.75000000  1
  Te  Te15  1  0.40399464  0.41652712  0.25000000  1
  O  O16  1  0.27002309  0.07473430  0.46503345  1
  O  O17  1  0.27002309  0.42526570  0.53496655  1
  O  O18  1  0.72997691  0.57473430  0.03496655  1
  O  O19  1  0.72997691  0.92526570  0.96503345  1
  O  O20  1  0.72997691  0.92526570  0.53496655  1
  O  O21  1  0.72997691  0.57473430  0.46503345  1
  O  O22  1  0.27002309  0.42526570  0.96503345  1
  O  O23  1  0.27002309  0.07473430  0.03496655  1
  O  O24  1  0.04986260  0.76738501  0.38408021  1
  O  O25  1  0.04986260  0.76738501  0.11591979  1
  O  O26  1  0.95013740  0.26738501  0.11591979  1
  O  O27  1  0.95013740  0.23261499  0.88408021  1
  O  O28  1  0.95013740  0.23261499  0.61591979  1
  O  O29  1  0.95013740  0.26738501  0.38408021  1
  O  O30  1  0.04986260  0.73261499  0.88408021  1
  O  O31  1  0.04986260  0.73261499  0.61591979  1
