# generated using pymatgen
data_H3BrO
_symmetry_space_group_name_H-M   'P 1'
_cell_length_a   4.24353704
_cell_length_b   4.26577280
_cell_length_c   4.24340552
_cell_angle_alpha   71.96815334
_cell_angle_beta   72.05295350
_cell_angle_gamma   72.07401259
_symmetry_Int_Tables_number   1
_chemical_formula_structural   H3BrO
_chemical_formula_sum   'H3 Br1 O1'
_cell_volume   67.54453392
_cell_formula_units_Z   1
loop_
 _symmetry_equiv_pos_site_id
 _symmetry_equiv_pos_as_xyz
  1  'x, y, z'
loop_
 _atom_site_type_symbol
 _atom_site_label
 _atom_site_symmetry_multiplicity
 _atom_site_fract_x
 _atom_site_fract_y
 _atom_site_fract_z
 _atom_site_occupancy
  H  H0  1  0.33207344  0.64975115  0.31341871  1
  H  H1  1  0.33115240  0.31753934  0.64505512  1
  H  H2  1  0.66315741  0.31783297  0.31167748  1
  Br  Br3  1  0.02540174  0.01283396  0.00776439  1
  O  O4  1  0.47828401  0.46332158  0.45922829  1
