# generated using pymatgen
data_RbMgCl3
_symmetry_space_group_name_H-M   'P 1'
_cell_length_a   7.09519963
_cell_length_b   7.09519975
_cell_length_c   17.60876029
_cell_angle_alpha   89.99999958
_cell_angle_beta   89.99999952
_cell_angle_gamma   119.99928184
_symmetry_Int_Tables_number   1
_chemical_formula_structural   RbMgCl3
_chemical_formula_sum   'Rb6 Mg6 Cl18'
_cell_volume   767.70046201
_cell_formula_units_Z   6
loop_
 _symmetry_equiv_pos_site_id
 _symmetry_equiv_pos_as_xyz
  1  'x, y, z'
loop_
 _atom_site_type_symbol
 _atom_site_label
 _atom_site_symmetry_multiplicity
 _atom_site_fract_x
 _atom_site_fract_y
 _atom_site_fract_z
 _atom_site_occupancy
  Rb  Rb0  1  0.66666695  0.33333287  0.58853052  1
  Rb  Rb1  1  0.66666718  0.33333329  0.91147178  1
  Rb  Rb2  1  0.33333305  0.66666698  0.41146935  1
  Rb  Rb3  1  -0.00000021  -0.00000036  0.24999809  1
  Rb  Rb4  1  0.00000006  0.00000012  0.75000197  1
  Rb  Rb5  1  0.33333306  0.66666699  0.08852847  1
  Mg  Mg6  1  0.33333324  0.66666675  0.66031883  1
  Mg  Mg7  1  0.66666682  0.33333315  0.33968113  1
  Mg  Mg8  1  0.00000000  -0.00000005  0.49999998  1
  Mg  Mg9  1  0.33333323  0.66666672  0.83968560  1
  Mg  Mg10  1  0.66666674  0.33333314  0.16031435  1
  Mg  Mg11  1  -0.00000002  -0.00000006  0.00000000  1
  Cl  Cl12  1  0.83399837  0.16600141  0.41824027  1
  Cl  Cl13  1  0.50771575  0.01543651  0.24999636  1
  Cl  Cl14  1  0.33200382  0.16600187  0.41824037  1
  Cl  Cl15  1  0.50771296  0.49228696  0.24999636  1
  Cl  Cl16  1  0.66799659  0.83399822  0.91824184  1
  Cl  Cl17  1  0.83399854  0.16600121  0.08175824  1
  Cl  Cl18  1  0.33200330  0.16600165  0.08175819  1
  Cl  Cl19  1  0.16600211  0.33200355  0.58175967  1
  Cl  Cl20  1  0.16600135  0.83399818  0.58175968  1
  Cl  Cl21  1  0.83399828  0.66799666  0.08175822  1
  Cl  Cl22  1  0.16600176  0.33200324  0.91824178  1
  Cl  Cl23  1  0.16600127  0.83399852  0.91824177  1
  Cl  Cl24  1  0.66799621  0.83399813  0.58175963  1
  Cl  Cl25  1  0.49228409  0.98456308  0.75000355  1
  Cl  Cl26  1  0.83399809  0.66799621  0.41824030  1
  Cl  Cl27  1  0.98456332  0.49228415  0.24999636  1
  Cl  Cl28  1  0.49228728  0.50771304  0.75000368  1
  Cl  Cl29  1  0.01543681  0.50771583  0.75000364  1
