# generated using pymatgen
data_K4(BSe)9
_symmetry_space_group_name_H-M   'P 1'
_cell_length_a   9.92509376
_cell_length_b   16.09923785
_cell_length_c   22.47988823
_cell_angle_alpha   107.33926179
_cell_angle_beta   97.11219504
_cell_angle_gamma   105.76030092
_symmetry_Int_Tables_number   1
_chemical_formula_structural   K4(BSe)9
_chemical_formula_sum   'K24 B54 Se54'
_cell_volume   3216.84000747
_cell_formula_units_Z   6
loop_
 _symmetry_equiv_pos_site_id
 _symmetry_equiv_pos_as_xyz
  1  'x, y, z'
loop_
 _atom_site_type_symbol
 _atom_site_label
 _atom_site_symmetry_multiplicity
 _atom_site_fract_x
 _atom_site_fract_y
 _atom_site_fract_z
 _atom_site_occupancy
  K  K0  1  0.30308720  0.39783865  0.14452491  1
  K  K1  1  0.85185330  0.85078389  0.71598653  1
  K  K2  1  0.82261303  0.91388927  0.36893455  1
  K  K3  1  0.34110743  0.82507673  0.61937418  1
  K  K4  1  0.44757840  0.83849070  -0.00013150  1
  K  K5  1  0.21988147  0.74544283  0.80425118  1
  K  K6  1  0.79495470  0.75512380  0.14841714  1
  K  K7  1  0.82295066  0.60609521  0.51868241  1
  K  K8  1  0.57993398  0.10003345  0.83011172  1
  K  K9  1  0.74825800  0.26894313  0.16963785  1
  K  K10  1  0.81105175  0.39071914  0.99932573  1
  K  K11  1  0.64522226  0.60633934  0.85225088  1
  K  K12  1  0.48332319  0.50676272  -0.00007113  1
  K  K13  1  0.72007760  0.20608938  0.38047171  1
  K  K14  1  0.16003143  0.25160778  0.85378254  1
  K  K15  1  0.30361940  0.08678187  0.48095335  1
  K  K16  1  0.13743177  0.59611288  0.00083986  1
  K  K17  1  0.17421693  0.36876476  0.44759316  1
  K  K18  1  0.41494471  0.94060184  0.19541619  1
  K  K19  1  0.45351192  0.54441919  0.63111971  1
  K  K20  1  0.57914027  0.48438877  0.31878972  1
  K  K21  1  0.13643158  0.13577704  0.28426299  1
  K  K22  1  0.72693839  0.92002165  0.55232485  1
  K  K23  1  0.26026363  0.16505451  0.67987190  1
  B  B24  1  0.10586378  0.58839974  0.26092982  1
  B  B25  1  0.02787678  0.39739174  0.31678386  1
  B  B26  1  0.16419865  0.01425587  0.83377228  1
  B  B27  1  0.14327066  0.77466376  0.33162379  1
  B  B28  1  0.11954053  0.87007204  0.49506489  1
  B  B29  1  0.80252963  0.25688238  0.60180461  1
  B  B30  1  0.98516843  0.02259069  0.93161939  1
  B  B31  1  0.45935884  0.68062226  0.49261623  1
  B  B32  1  0.01377686  0.66448668  0.29213292  1
  B  B33  1  0.90865323  0.44167580  0.73857938  1
  B  B34  1  0.83658437  0.98506912  0.16661856  1
  B  B35  1  0.05731373  0.91032047  0.00018118  1
  B  B36  1  0.09841850  0.27473925  0.99935493  1
  B  B37  1  0.81004738  0.51311974  0.17703305  1
  B  B38  1  0.99521722  0.62101765  0.66305625  1
  B  B39  1  0.05385763  0.09143407  0.06842651  1
  B  B40  1  0.71634114  0.25770448  0.66567545  1
  B  B41  1  0.98370755  0.32545779  0.63269602  1
  B  B42  1  0.72232030  0.37290974  0.70749738  1
  B  B43  1  0.63309542  0.33681255  0.82256783  1
  B  B44  1  0.81221738  0.44345068  0.66788437  1
  B  B45  1  0.66943306  0.81828830  0.83345580  1
  B  B46  1  0.84567847  0.32819653  0.73887488  1
  B  B47  1  0.94005079  0.08958849  0.99995451  1
  B  B48  1  0.87281224  0.01647963  0.04312107  1
  B  B49  1  0.94538738  0.90917994  0.93187195  1
  B  B50  1  0.25383831  0.76869940  0.39835037  1
  B  B51  1  0.34991039  0.69192290  0.36703045  1
  B  B52  1  0.19966949  0.65440155  0.39797511  1
  B  B53  1  0.01382618  0.36987074  0.71802828  1
  B  B54  1  0.98905566  0.43949551  0.67147614  1
  B  B55  1  0.82957771  0.97319463  0.95705168  1
  B  B56  1  0.96674283  0.18839257  0.50702749  1
  B  B57  1  0.21928622  0.58073848  0.32478376  1
  B  B58  1  0.85614080  0.37074407  0.60126299  1
  B  B59  1  0.33090536  0.95713414  0.33654029  1
  B  B60  1  0.06967812  0.70679167  0.37748477  1
  B  B61  1  0.01408212  0.97792284  0.06839976  1
  B  B62  1  0.62446015  0.37494687  0.50454184  1
  B  B63  1  0.69292341  0.32959307  0.62214700  1
  B  B64  1  0.31662369  0.76715282  0.32818176  1
  B  B65  1  0.12156696  0.09556288  -0.00002367  1
  B  B66  1  0.18503334  0.52698263  0.83610068  1
  B  B67  1  0.87730023  0.90597085  0.00021669  1
  B  B68  1  0.16914276  0.70206891  0.26106316  1
  B  B69  1  0.29479293  0.65087408  0.28175147  1
  B  B70  1  0.89552258  0.25667777  0.67507684  1
  B  B71  1  0.88842889  0.72307333  0.00026336  1
  B  B72  1  0.16946526  0.02722111  0.04290563  1
  B  B73  1  0.04948428  0.59125309  0.33413355  1
  B  B74  1  0.12634972  0.98406675  0.95717614  1
  B  B75  1  0.33066954  0.18040746  0.16659406  1
  B  B76  1  0.34901959  0.69039223  0.16389857  1
  B  B77  1  0.71261973  0.08128779  0.68296079  1
  Se  Se78  1  0.99980309  0.54904366  0.82039095  1
  Se  Se79  1  0.08326499  0.96566984  0.55727264  1
  Se  Se80  1  0.86054749  0.80264957  0.85010432  1
  Se  Se81  1  0.95126636  0.27037847  0.30269939  1
  Se  Se82  1  0.36313174  0.07562474  0.10254187  1
  Se  Se83  1  0.91707892  0.14134915  0.68515440  1
  Se  Se84  1  0.76860267  0.15166823  0.52027332  1
  Se  Se85  1  0.13900362  0.19549955  0.15137384  1
  Se  Se86  1  0.99201494  0.48505370  0.17984266  1
  Se  Se87  1  0.20293515  0.41143554  0.77939002  1
  Se  Se88  1  0.46072796  0.88274077  0.33076519  1
  Se  Se89  1  0.81170938  0.62831646  0.24297965  1
  Se  Se90  1  0.14727431  0.39801852  0.99870984  1
  Se  Se91  1  0.83510775  0.39599930  0.51895709  1
  Se  Se92  1  0.95800969  0.75840347  0.43885713  1
  Se  Se93  1  0.23019174  0.45519166  0.31484808  1
  Se  Se94  1  0.53802197  0.70700897  0.42036445  1
  Se  Se95  1  0.12654275  0.89564788  0.33212520  1
  Se  Se96  1  0.34551355  0.61462012  0.90198045  1
  Se  Se97  1  0.56930294  0.38613206  0.75651185  1
  Se  Se98  1  0.08809230  0.79195632  0.00039572  1
  Se  Se99  1  0.90060198  0.20501046  0.99948878  1
  Se  Se100  1  0.47390455  0.26049893  0.24076628  1
  Se  Se101  1  0.13076784  0.55252713  0.66909761  1
  Se  Se102  1  0.23453084  0.02194192  0.76019288  1
  Se  Se103  1  0.74736062  0.78792139  0.00051515  1
  Se  Se104  1  0.58511740  0.70727187  0.57212828  1
  Se  Se105  1  0.01200119  0.13540139  0.42737109  1
  Se  Se106  1  0.25991964  0.97253889  0.89741641  1
  Se  Se107  1  0.44438374  0.71279622  0.09836681  1
  Se  Se108  1  0.11814752  0.28707167  0.57918567  1
  Se  Se109  1  0.17888789  0.72770291  0.17928077  1
  Se  Se110  1  0.05542478  0.74043604  0.65811369  1
  Se  Se111  1  0.63630305  0.92397918  0.89648452  1
  Se  Se112  1  0.64988378  0.96834754  0.69703885  1
  Se  Se113  1  0.31542844  0.87622781  0.48062891  1
  Se  Se114  1  0.52545763  0.40844422  0.44253270  1
  Se  Se115  1  0.79504061  0.56379978  0.66701561  1
  Se  Se116  1  0.63927955  0.42994944  0.11566846  1
  Se  Se117  1  0.91116906  0.47900246  0.33915694  1
  Se  Se118  1  0.39581377  0.08153964  0.34162489  1
  Se  Se119  1  0.24782786  0.21621084  -0.00001786  1
  Se  Se120  1  0.98698689  0.04358525  0.84866290  1
  Se  Se121  1  0.74022065  0.02775228  0.10367728  1
  Se  Se122  1  0.52327286  0.31509955  0.88386486  1
  Se  Se123  1  0.24789189  0.63083749  0.47957190  1
  Se  Se124  1  0.81244863  0.30609568  0.82003486  1
  Se  Se125  1  0.76486925  0.97475020  0.23937742  1
  Se  Se126  1  0.01184130  0.95383905  0.15036980  1
  Se  Se127  1  0.51951829  0.31902237  0.56064354  1
  Se  Se128  1  0.52501473  0.73583288  0.76038489  1
  Se  Se129  1  0.42276634  0.63115485  0.22052810  1
  Se  Se130  1  0.82157622  0.60044185  0.00025819  1
  Se  Se131  1  0.57326873  0.14043481  0.66082648  1
