# generated using pymatgen
data_Au2O3
_symmetry_space_group_name_H-M   'P 1'
_cell_length_a   8.42413160
_cell_length_b   6.83063566
_cell_length_c   5.70378884
_cell_angle_alpha   83.94097083
_cell_angle_beta   53.73714294
_cell_angle_gamma   42.32188623
_symmetry_Int_Tables_number   1
_chemical_formula_structural   Au2O3
_chemical_formula_sum   'Au4 O6'
_cell_volume   141.03309048
_cell_formula_units_Z   2
loop_
 _symmetry_equiv_pos_site_id
 _symmetry_equiv_pos_as_xyz
  1  'x, y, z'
loop_
 _atom_site_type_symbol
 _atom_site_label
 _atom_site_symmetry_multiplicity
 _atom_site_fract_x
 _atom_site_fract_y
 _atom_site_fract_z
 _atom_site_occupancy
  Au  Au0  1  0.91791200  0.17650100  0.35302400  1
  Au  Au1  1  0.57010700  0.33497400  0.15644000  1
  Au  Au2  1  0.91575100  0.67819000  0.31105100  1
  Au  Au3  1  0.07836900  0.33281000  0.68104300  1
  O  O4  1  0.04862800  0.94406000  0.95295500  1
  O  O5  1  0.30648600  0.19472100  0.20246200  1
  O  O6  1  0.02462700  0.80493700  0.44471500  1
  O  O7  1  0.74352000  0.42294300  0.79418300  1
  O  O8  1  0.44341800  0.21907600  0.51320600  1
  O  O9  1  0.81124900  0.52109400  0.21508100  1
