# generated using pymatgen
data_SiO2
_symmetry_space_group_name_H-M   'P 1'
_cell_length_a   12.94081314
_cell_length_b   10.67427597
_cell_length_c   8.10950965
_cell_angle_alpha   85.94592517
_cell_angle_beta   55.36502651
_cell_angle_gamma   38.68904832
_symmetry_Int_Tables_number   1
_chemical_formula_structural   SiO2
_chemical_formula_sum   'Si8 O16'
_cell_volume   396.76622720
_cell_formula_units_Z   8
loop_
 _symmetry_equiv_pos_site_id
 _symmetry_equiv_pos_as_xyz
  1  'x, y, z'
loop_
 _atom_site_type_symbol
 _atom_site_label
 _atom_site_symmetry_multiplicity
 _atom_site_fract_x
 _atom_site_fract_y
 _atom_site_fract_z
 _atom_site_occupancy
  Si  Si0  1  0.10762200  0.50224100  0.27032100  1
  Si  Si1  1  0.89061400  0.49131400  0.72889000  1
  Si  Si2  1  0.61550200  0.26543500  0.50853600  1
  Si  Si3  1  0.50724700  0.10354700  0.61521200  1
  Si  Si4  1  0.37405600  0.74365400  0.50242300  1
  Si  Si5  1  0.49126100  0.89706500  0.38267400  1
  Si  Si6  1  0.74460400  0.37186900  0.88037700  1
  Si  Si7  1  0.26007800  0.62244300  0.12101200  1
  O  O8  1  0.71681600  0.71303300  0.03631300  1
  O  O9  1  0.41545900  0.43546800  0.83306900  1
  O  O10  1  0.27803500  0.29570500  0.96700000  1
  O  O11  1  0.74474800  0.50206400  0.76308300  1
  O  O12  1  0.50309500  0.74607900  0.49476500  1
  O  O13  1  0.03642500  0.03960400  0.70756800  1
  O  O14  1  0.25146000  0.50128600  0.24598100  1
  O  O15  1  0.81952200  0.82667100  0.43087700  1
  O  O16  1  0.18168300  0.17066700  0.56573500  1
  O  O17  1  0.50522000  0.49596900  0.99030500  1
  O  O18  1  0.50193800  0.24335500  0.50465600  1
  O  O19  1  0.95928600  0.96996900  0.29234900  1
  O  O20  1  0.58128800  0.56632600  0.17210700  1
  O  O21  1  0.49698300  0.00209600  0.50840800  1
  O  O22  1  0.99781600  0.50292000  0.50761900  1
  O  O23  1  0.50674200  0.49654500  0.49081100  1
