# generated using pymatgen
data_Tb2Se3
_symmetry_space_group_name_H-M   'P 1'
_cell_length_a   22.62042462
_cell_length_b   8.70942942
_cell_length_c   8.70942689
_cell_angle_alpha   90.00000000
_cell_angle_beta   54.72247566
_cell_angle_gamma   54.72247562
_symmetry_Int_Tables_number   1
_chemical_formula_structural   Tb2Se3
_chemical_formula_sum   'Tb16 Se24'
_cell_volume   990.00549784
_cell_formula_units_Z   8
loop_
 _symmetry_equiv_pos_site_id
 _symmetry_equiv_pos_as_xyz
  1  'x, y, z'
loop_
 _atom_site_type_symbol
 _atom_site_label
 _atom_site_symmetry_multiplicity
 _atom_site_fract_x
 _atom_site_fract_y
 _atom_site_fract_z
 _atom_site_occupancy
  Tb  Tb0  1  0.99410061  0.12235454  0.76948568  1
  Tb  Tb1  1  0.08597866  0.62103150  0.37103150  1
  Tb  Tb2  1  0.16666700  0.25000000  0.63328601  1
  Tb  Tb3  1  0.24735434  0.87896850  0.12896850  1
  Tb  Tb4  1  0.33923239  0.37764546  0.25178851  1
  Tb  Tb5  1  0.16666700  0.75000000  0.86671399  1
  Tb  Tb6  1  0.33923239  0.10465637  0.73051432  1
  Tb  Tb7  1  0.49410061  0.26948568  0.62235454  1
  Tb  Tb8  1  0.58597866  0.87103150  0.12103150  1
  Tb  Tb9  1  0.66666700  0.36671399  0.25000000  1
  Tb  Tb10  1  0.49410061  0.74821149  0.89534363  1
  Tb  Tb11  1  0.66666700  0.13328601  0.75000000  1
  Tb  Tb12  1  0.74735434  0.62896850  0.37896850  1
  Tb  Tb13  1  0.83923239  0.23051432  0.60465637  1
  Tb  Tb14  1  0.99410061  0.39534363  0.24821149  1
  Tb  Tb15  1  0.83923239  0.75178851  0.87764546  1
  Se  Se16  1  0.12864497  0.48769854  0.99054717  1
  Se  Se17  1  0.04757959  0.35919919  0.49339183  1
  Se  Se18  1  0.04757959  0.99806104  0.36386940  1
  Se  Se19  1  0.28575341  0.14080081  0.13613060  1
  Se  Se20  1  0.28575341  0.50193896  0.00660817  1
  Se  Se21  1  0.12864497  0.62636655  0.62351793  1
  Se  Se22  1  0.20468803  0.87363345  0.50945283  1
  Se  Se23  1  0.45112042  0.49515475  0.00130820  1
  Se  Se24  1  0.38221358  0.35466844  0.50484525  1
  Se  Se25  1  0.20468803  0.01230146  0.87648207  1
  Se  Se26  1  0.62864497  0.12351793  0.12636655  1
  Se  Se27  1  0.38221358  -0.00130820  0.34851500  1
  Se  Se28  1  0.62864497  0.49054717  0.98769854  1
  Se  Se29  1  0.45112042  0.65148500  0.64533156  1
  Se  Se30  1  0.54757959  0.86386940  0.49806104  1
  Se  Se31  1  0.78575341  0.50660817  0.00193896  1
  Se  Se32  1  0.70468803  0.37648207  0.51230146  1
  Se  Se33  1  0.54757959  0.99339183  0.85919919  1
  Se  Se34  1  0.70468803  0.00945283  0.37363345  1
  Se  Se35  1  0.95112042  0.14533156  0.15148500  1
  Se  Se36  1  0.95112042  0.50130820  0.99515475  1
  Se  Se37  1  0.78575341  0.63613060  0.64080081  1
  Se  Se38  1  0.88221358  0.84851500  0.49869180  1
  Se  Se39  1  0.88221358  0.00484525  0.85466844  1
