# generated using pymatgen
data_SbP3C(NCl5)3
_symmetry_space_group_name_H-M   'P 1'
_cell_length_a   9.22573781
_cell_length_b   10.48784118
_cell_length_c   13.20732224
_cell_angle_alpha   85.37582912
_cell_angle_beta   88.95824635
_cell_angle_gamma   76.82856878
_symmetry_Int_Tables_number   1
_chemical_formula_structural   SbP3C(NCl5)3
_chemical_formula_sum   'Sb2 P6 C2 N6 Cl30'
_cell_volume   1240.24621782
_cell_formula_units_Z   2
loop_
 _symmetry_equiv_pos_site_id
 _symmetry_equiv_pos_as_xyz
  1  'x, y, z'
loop_
 _atom_site_type_symbol
 _atom_site_label
 _atom_site_symmetry_multiplicity
 _atom_site_fract_x
 _atom_site_fract_y
 _atom_site_fract_z
 _atom_site_occupancy
  Sb  Sb0  1  0.31313135  0.25261035  0.30800982  1
  Sb  Sb1  1  0.68686865  0.74738965  0.69199018  1
  P  P2  1  0.86452781  0.21649004  0.65038206  1
  P  P3  1  0.59159964  0.70734817  0.21735322  1
  P  P4  1  0.21188893  0.79296637  0.00462929  1
  P  P5  1  0.40840036  0.29265183  0.78264678  1
  P  P6  1  0.13547219  0.78350996  0.34961794  1
  P  P7  1  0.78811107  0.20703363  0.99537071  1
  C  C8  1  0.30661227  0.76227969  0.18841561  1
  C  C9  1  0.69338773  0.23772031  0.81158439  1
  N  N10  1  0.19101581  0.78787891  0.12289892  1
  N  N11  1  0.71554916  0.24032845  0.71128460  1
  N  N12  1  0.44648148  0.73947516  0.15149952  1
  N  N13  1  0.28445084  0.75967155  0.28871540  1
  N  N14  1  0.80898419  0.21212109  0.87710108  1
  N  N15  1  0.55351852  0.26052484  0.84850048  1
  Cl  Cl16  1  0.95356862  0.68884306  0.69567639  1
  Cl  Cl17  1  0.98684587  0.16905985  0.05768438  1
  Cl  Cl18  1  0.30777710  0.07938388  0.43505923  1
  Cl  Cl19  1  0.32109647  0.39795013  0.43626003  1
  Cl  Cl20  1  0.31588589  0.42480517  0.17808831  1
  Cl  Cl21  1  0.98491640  0.34817998  0.66211626  1
  Cl  Cl22  1  0.32134562  0.62904786  0.94825591  1
  Cl  Cl23  1  0.24196226  0.30265285  0.88001219  1
  Cl  Cl24  1  0.63093457  0.53551794  0.29750681  1
  Cl  Cl25  1  0.30935209  0.93138075  0.94460324  1
  Cl  Cl26  1  0.81158986  0.22596915  0.50671553  1
  Cl  Cl27  1  -0.00296143  0.95681698  0.31973416  1
  Cl  Cl28  1  0.31230558  0.10349258  0.17834429  1
  Cl  Cl29  1  0.01508360  0.65182002  0.33788374  1
  Cl  Cl30  1  0.69064791  0.06861925  0.05539676  1
  Cl  Cl31  1  0.41914356  0.80640422  0.69342455  1
  Cl  Cl32  1  0.04643138  0.31115694  0.30432361  1
  Cl  Cl33  1  0.18841014  0.77403085  0.49328447  1
  Cl  Cl34  1  0.61299775  0.83748184  0.31211492  1
  Cl  Cl35  1  0.38700225  0.16251816  0.68788508  1
  Cl  Cl36  1  0.67865438  0.37095214  0.05174409  1
  Cl  Cl37  1  0.68411411  0.57519483  0.82191169  1
  Cl  Cl38  1  0.01315413  0.83094015  0.94231562  1
  Cl  Cl39  1  0.67890353  0.60204987  0.56373997  1
  Cl  Cl40  1  0.00296143  0.04318302  0.68026584  1
  Cl  Cl41  1  0.58085644  0.19359578  0.30657545  1
  Cl  Cl42  1  0.68769442  0.89650742  0.82165571  1
  Cl  Cl43  1  0.75803774  0.69734715  0.11998781  1
  Cl  Cl44  1  0.36906543  0.46448206  0.70249319  1
  Cl  Cl45  1  0.69222290  0.92061612  0.56494077  1
