# generated using pymatgen
data_Sr2V3O9
_symmetry_space_group_name_H-M   'P 1'
_cell_length_a   6.96216206
_cell_length_b   7.29281080
_cell_length_c   8.96616095
_cell_angle_alpha   103.56038010
_cell_angle_beta   102.13670536
_cell_angle_gamma   115.95269453
_symmetry_Int_Tables_number   1
_chemical_formula_structural   Sr2V3O9
_chemical_formula_sum   'Sr4 V6 O18'
_cell_volume   371.56368636
_cell_formula_units_Z   2
loop_
 _symmetry_equiv_pos_site_id
 _symmetry_equiv_pos_as_xyz
  1  'x, y, z'
loop_
 _atom_site_type_symbol
 _atom_site_label
 _atom_site_symmetry_multiplicity
 _atom_site_fract_x
 _atom_site_fract_y
 _atom_site_fract_z
 _atom_site_occupancy
  Sr  Sr0  1  0.12021258  0.87511164  0.74932158  1
  Sr  Sr1  1  0.29793012  0.55073361  0.09707194  1
  Sr  Sr2  1  0.70098984  0.45327421  0.90287598  1
  Sr  Sr3  1  0.87573312  0.12125797  0.25080177  1
  V  V4  1  0.09025562  0.34096285  0.67985927  1
  V  V5  1  0.66861323  0.92097699  0.84184716  1
  V  V6  1  0.49525300  0.52684302  0.49032915  1
  V  V7  1  0.33031820  0.08052913  0.15813673  1
  V  V8  1  0.50459862  0.03625409  0.50960133  1
  V  V9  1  0.91079703  0.65860667  0.32018526  1
  O  O10  1  0.04302096  0.51883935  0.80511020  1
  O  O11  1  0.17005646  0.89407571  0.44816515  1
  O  O12  1  0.07476455  0.85568883  0.03809593  1
  O  O13  1  0.21866456  0.44154307  0.54780422  1
  O  O14  1  0.26500311  0.28880401  0.80363689  1
  O  O15  1  0.53805653  0.81891056  0.96524248  1
  O  O16  1  0.48839145  0.00043637  0.28045255  1
  O  O17  1  0.47049633  0.71521447  0.42635093  1
  O  O18  1  0.29228192  0.28264545  0.27731612  1
  O  O19  1  0.70316387  0.71716320  0.72072034  1
  O  O20  1  0.54319757  0.28794146  0.57380488  1
  O  O21  1  0.50838884  0.00056113  0.72120609  1
  O  O22  1  0.46336325  0.18235269  0.03608136  1
  O  O23  1  0.73573142  0.70786519  0.19354846  1
  O  O24  1  0.77781632  0.55824092  0.45012641  1
  O  O25  1  0.92486570  0.14472674  0.96055239  1
  O  O26  1  0.82817611  0.10831786  0.55386606  1
  O  O27  1  0.96112068  0.48118780  0.19788937  1
