# generated using pymatgen
data_Zr2N2O
_symmetry_space_group_name_H-M   'P 1'
_cell_length_a   8.78026610
_cell_length_b   8.78839471
_cell_length_c   8.79713801
_cell_angle_alpha   109.49301557
_cell_angle_beta   109.44290392
_cell_angle_gamma   109.38314514
_symmetry_Int_Tables_number   1
_chemical_formula_structural   Zr2N2O
_chemical_formula_sum   'Zr16 N16 O8'
_cell_volume   523.16951875
_cell_formula_units_Z   8
loop_
 _symmetry_equiv_pos_site_id
 _symmetry_equiv_pos_as_xyz
  1  'x, y, z'
loop_
 _atom_site_type_symbol
 _atom_site_label
 _atom_site_symmetry_multiplicity
 _atom_site_fract_x
 _atom_site_fract_y
 _atom_site_fract_z
 _atom_site_occupancy
  Zr  Zr0  1  0.02963458  0.24387910  0.78276433  1
  Zr  Zr1  1  0.51710656  0.51066875  0.01324056  1
  Zr  Zr2  1  0.74867783  0.21835104  0.96886295  1
  Zr  Zr3  1  0.25099712  0.29474341  0.53703873  1
  Zr  Zr4  1  0.71676325  0.47493328  0.75449098  1
  Zr  Zr5  1  0.22014938  0.96754770  0.75535450  1
  Zr  Zr6  1  0.00636410  0.00266442  0.99131451  1
  Zr  Zr7  1  0.46480708  0.74641767  0.70895002  1
  Zr  Zr8  1  0.53824781  0.25267835  0.28421896  1
  Zr  Zr9  1  0.49222894  0.98499588  0.49396549  1
  Zr  Zr10  1  0.98821396  0.48577212  0.49190063  1
  Zr  Zr11  1  0.78102362  0.03533366  0.25620348  1
  Zr  Zr12  1  0.28147704  0.52991152  0.25090671  1
  Zr  Zr13  1  0.74453230  0.71170010  0.46375088  1
  Zr  Zr14  1  0.25117914  0.78993685  0.04081528  1
  Zr  Zr15  1  0.96436510  0.74510112  0.20660189  1
  N  N16  1  0.46732413  0.01373224  0.74148775  1
  N  N17  1  0.51024045  0.54352692  0.77196354  1
  N  N18  1  0.96557049  0.73118120  0.95818871  1
  N  N19  1  0.22827957  0.48963562  0.45798966  1
  N  N20  1  0.77180284  0.50955100  0.54350223  1
  N  N21  1  0.98950604  0.26032209  0.53410298  1
  N  N22  1  0.95839668  0.96998437  0.72688015  1
  N  N23  1  0.54819409  0.77525553  0.51627973  1
  N  N24  1  0.22857377  0.76097055  0.27302479  1
  N  N25  1  0.02813159  0.27117199  0.03947712  1
  N  N26  1  0.27067721  0.04153619  0.02942101  1
  N  N27  1  0.48307998  0.45296050  0.22210755  1
  N  N28  1  0.76214900  0.27208014  0.22739525  1
  N  N29  1  0.53358907  0.98948200  0.26365971  1
  N  N30  1  0.73348585  0.77201636  0.23969506  1
  N  N31  1  0.74029016  0.46610359  0.01126333  1
  O  O32  1  0.25884457  0.53313885  0.98006094  1
  O  O33  1  0.27067789  0.22915383  0.76356238  1
  O  O34  1  0.23600022  0.72691364  0.77157273  1
  O  O35  1  0.72837265  0.95214562  0.97069743  1
  O  O36  1  0.77149731  0.24045288  0.72301302  1
  O  O37  1  0.45123075  0.22499928  0.48944370  1
  O  O38  1  0.05079265  0.03894287  0.27388648  1
  O  O39  1  0.01752525  0.74010679  0.47094487  1
