# generated using pymatgen
data_RbC2N3
_symmetry_space_group_name_H-M   'P 1'
_cell_length_a   12.30628748
_cell_length_b   3.88187744
_cell_length_c   25.57799393
_cell_angle_alpha   80.65524310
_cell_angle_beta   90.00000000
_cell_angle_gamma   90.00000000
_symmetry_Int_Tables_number   1
_chemical_formula_structural   RbC2N3
_chemical_formula_sum   'Rb12 C24 N36'
_cell_volume   1205.68352463
_cell_formula_units_Z   12
loop_
 _symmetry_equiv_pos_site_id
 _symmetry_equiv_pos_as_xyz
  1  'x, y, z'
loop_
 _atom_site_type_symbol
 _atom_site_label
 _atom_site_symmetry_multiplicity
 _atom_site_fract_x
 _atom_site_fract_y
 _atom_site_fract_z
 _atom_site_occupancy
  Rb  Rb0  1  0.15018079  0.51906958  0.01424319  1
  Rb  Rb1  1  0.09184280  0.55950549  0.40048679  1
  Rb  Rb2  1  0.59184280  0.44049451  0.09951321  1
  Rb  Rb3  1  0.40815720  0.55950549  0.90048679  1
  Rb  Rb4  1  0.51232613  0.56625867  0.25596265  1
  Rb  Rb5  1  0.90815720  0.44049451  0.59951321  1
  Rb  Rb6  1  0.84981921  0.48093042  0.98575681  1
  Rb  Rb7  1  0.34981921  0.51906958  0.51424319  1
  Rb  Rb8  1  0.48767387  0.43374133  0.74403735  1
  Rb  Rb9  1  0.65018079  0.48093042  0.48575681  1
  Rb  Rb10  1  0.98767387  0.56625867  0.75596265  1
  Rb  Rb11  1  0.01232613  0.43374133  0.24403735  1
  C  C12  1  0.32639989  0.98780004  0.12156177  1
  C  C13  1  0.24489483  0.10124358  0.79216590  1
  C  C14  1  0.82639989  0.01219996  0.37843823  1
  C  C15  1  -0.00028250  0.07201871  0.90143746  1
  C  C16  1  0.78965057  0.96660856  0.29282427  1
  C  C17  1  0.17360011  0.98780004  0.62156177  1
  C  C18  1  0.00028250  0.92798129  0.09856254  1
  C  C19  1  0.12938029  0.97452630  0.53487751  1
  C  C20  1  0.25510517  0.10124358  0.29216590  1
  C  C21  1  0.37061971  0.97452630  0.03487751  1
  C  C22  1  0.34945949  0.98432751  0.64995421  1
  C  C23  1  0.15054051  0.98432751  0.14995421  1
  C  C24  1  0.75510517  0.89875642  0.20783410  1
  C  C25  1  0.67360011  0.01219996  0.87843823  1
  C  C26  1  0.71034943  0.96660856  0.79282427  1
  C  C27  1  0.21034943  0.03339144  0.70717573  1
  C  C28  1  0.62938029  0.02547370  0.96512249  1
  C  C29  1  0.74489483  0.89875642  0.70783410  1
  C  C30  1  0.65054051  0.01567249  0.35004579  1
  C  C31  1  0.87061971  0.02547370  0.46512249  1
  C  C32  1  0.49971750  0.92798129  0.59856254  1
  C  C33  1  0.50028250  0.07201871  0.40143746  1
  C  C34  1  0.84945949  0.01567249  0.85004579  1
  C  C35  1  0.28965057  0.03339144  0.20717573  1
  N  N36  1  0.68171913  0.98511036  0.30062444  1
  N  N37  1  0.82683114  0.92962816  0.24390847  1
  N  N38  1  0.86614383  0.98234202  0.33028898  1
  N  N39  1  0.21970451  0.96968423  0.10925988  1
  N  N40  1  0.45486050  0.10829278  0.44085522  1
  N  N41  1  0.30475880  0.13793579  0.82683473  1
  N  N42  1  0.84920042  0.02680498  0.51017188  1
  N  N43  1  0.13385617  0.01765798  0.66971102  1
  N  N44  1  0.95884289  0.03225029  0.85643008  1
  N  N45  1  0.18171913  0.01488964  0.19937556  1
  N  N46  1  0.40254606  0.97869719  0.08283866  1
  N  N47  1  0.59745394  0.02130281  0.91716134  1
  N  N48  1  0.34920042  0.97319502  0.98982812  1
  N  N49  1  0.09745394  0.97869719  0.58283866  1
  N  N50  1  0.31828087  0.01488964  0.69937556  1
  N  N51  1  0.65079958  0.02680498  0.01017188  1
  N  N52  1  0.69524120  0.86206421  0.17316527  1
  N  N53  1  0.28029549  0.96968423  0.60925988  1
  N  N54  1  0.95486050  0.89170722  0.05914478  1
  N  N55  1  0.36614383  0.01765798  0.16971102  1
  N  N56  1  0.17316886  0.07037184  0.75609153  1
  N  N57  1  0.81828087  0.98511036  0.80062444  1
  N  N58  1  0.78029549  0.03031577  0.89074012  1
  N  N59  1  0.45884289  0.96774971  0.64356992  1
  N  N60  1  0.63385617  0.98234202  0.83028898  1
  N  N61  1  0.04513950  0.10829278  0.94085522  1
  N  N62  1  0.54115711  0.03225029  0.35643008  1
  N  N63  1  0.32683114  0.07037184  0.25609153  1
  N  N64  1  0.19524120  0.13793579  0.32683473  1
  N  N65  1  0.15079958  0.97319502  0.48982812  1
  N  N66  1  0.80475880  0.86206421  0.67316527  1
  N  N67  1  0.71970451  0.03031577  0.39074012  1
  N  N68  1  0.04115711  0.96774971  0.14356992  1
  N  N69  1  0.54513950  0.89170722  0.55914478  1
  N  N70  1  0.90254606  0.02130281  0.41716134  1
  N  N71  1  0.67316886  0.92962816  0.74390847  1
