# generated using pymatgen
data_Rb5Re3S7
_symmetry_space_group_name_H-M   'P 1'
_cell_length_a   10.63950312
_cell_length_b   10.64071751
_cell_length_c   10.61161084
_cell_angle_alpha   60.75195485
_cell_angle_beta   60.99574352
_cell_angle_gamma   60.98599183
_symmetry_Int_Tables_number   1
_chemical_formula_structural   Rb5Re3S7
_chemical_formula_sum   'Rb10 Re6 S14'
_cell_volume   866.92735540
_cell_formula_units_Z   2
loop_
 _symmetry_equiv_pos_site_id
 _symmetry_equiv_pos_as_xyz
  1  'x, y, z'
loop_
 _atom_site_type_symbol
 _atom_site_label
 _atom_site_symmetry_multiplicity
 _atom_site_fract_x
 _atom_site_fract_y
 _atom_site_fract_z
 _atom_site_occupancy
  Rb  Rb0  1  0.01263001  0.99023819  0.99366143  1
  Rb  Rb1  1  0.42303806  0.57155609  0.00334104  1
  Rb  Rb2  1  0.40367713  -0.00172386  0.00560730  1
  Rb  Rb3  1  0.57934293  0.12728367  0.12666028  1
  Rb  Rb4  1  0.01105278  0.56877353  0.01625475  1
  Rb  Rb5  1  0.42502555  0.00496449  0.57165894  1
  Rb  Rb6  1  0.02456371  0.45707814  0.49261614  1
  Rb  Rb7  1  0.00232431  0.01445384  0.56829759  1
  Rb  Rb8  1  0.86029634  0.86261844  0.43234410  1
  Rb  Rb9  1  0.85837567  0.42361489  0.89103411  1
  Re  Re10  1  0.61818941  0.37443325  0.38111229  1
  Re  Re11  1  0.62177259  0.62268748  0.37928543  1
  Re  Re12  1  0.62227368  0.38011587  0.62536344  1
  Re  Re13  1  0.37425876  0.61955138  0.37903026  1
  Re  Re14  1  0.37431055  0.37653903  0.62550334  1
  Re  Re15  1  0.37744671  0.62381398  0.62401468  1
  S  S16  1  0.76889271  0.20770691  0.22827873  1
  S  S17  1  0.78583389  0.77866642  0.22687936  1
  S  S18  1  0.61037718  0.61071279  0.16177331  1
  S  S19  1  0.83524296  0.38628303  0.38743008  1
  S  S20  1  0.60986099  0.15986579  0.62047356  1
  S  S21  1  0.79016486  0.23369434  0.77856017  1
  S  S22  1  0.38512895  0.38160893  0.38766140  1
  S  S23  1  0.61400730  0.61785953  0.61527159  1
  S  S24  1  0.20819853  0.76930961  0.22575166  1
  S  S25  1  0.38689117  0.83895309  0.38578708  1
  S  S26  1  0.15812981  0.61227434  0.61571603  1
  S  S27  1  0.38787834  0.38682291  0.84275569  1
  S  S28  1  0.20766580  0.22356318  0.77789537  1
  S  S29  1  0.21964834  0.78597970  0.78127886  1
