# generated using pymatgen
data_Sr6B(PO4)5
_symmetry_space_group_name_H-M   'P 1'
_cell_length_a   11.76694610
_cell_length_b   11.76694610
_cell_length_c   11.76694610
_cell_angle_alpha   130.94804972
_cell_angle_beta   130.94804972
_cell_angle_gamma   71.89563013
_symmetry_Int_Tables_number   1
_chemical_formula_structural   Sr6B(PO4)5
_chemical_formula_sum   'Sr12 B2 P10 O40'
_cell_volume   909.10386135
_cell_formula_units_Z   2
loop_
 _symmetry_equiv_pos_site_id
 _symmetry_equiv_pos_as_xyz
  1  'x, y, z'
loop_
 _atom_site_type_symbol
 _atom_site_label
 _atom_site_symmetry_multiplicity
 _atom_site_fract_x
 _atom_site_fract_y
 _atom_site_fract_z
 _atom_site_occupancy
  Sr  Sr0  1  0.72037622  0.22037622  0.94075245  1
  Sr  Sr1  1  0.22037622  0.27962378  0.50000000  1
  Sr  Sr2  1  0.27962378  0.77962378  0.05924755  1
  Sr  Sr3  1  0.77962378  0.72037622  0.50000000  1
  Sr  Sr4  1  0.32863851  0.53478104  0.19334400  1
  Sr  Sr5  1  0.34143704  0.13529551  0.80665600  1
  Sr  Sr6  1  0.84143704  0.03478104  0.20614153  1
  Sr  Sr7  1  0.46521896  0.65856296  0.79385847  1
  Sr  Sr8  1  0.86470449  0.67136149  0.20614153  1
  Sr  Sr9  1  0.96521896  0.17136149  0.80665600  1
  Sr  Sr10  1  0.36470449  0.15856296  0.19334400  1
  Sr  Sr11  1  0.82863851  0.63529551  0.79385847  1
  B  B12  1  0.75000000  0.25000000  0.50000000  1
  B  B13  1  0.25000000  0.75000000  0.50000000  1
  P  P14  1  0.12821379  0.44630787  0.27168380  1
  P  P15  1  0.17462407  0.85652999  0.72831620  1
  P  P16  1  0.67462407  0.94630787  0.31809508  1
  P  P17  1  0.55369213  0.82537593  0.68190492  1
  P  P18  1  0.14347001  0.87178621  0.31809508  1
  P  P19  1  0.05369213  0.37178621  0.72831620  1
  P  P20  1  0.64347001  0.32537593  0.27168380  1
  P  P21  1  0.62821379  0.35652999  0.68190492  1
  P  P22  1  0.50000000  0.50000000  0.00000000  1
  P  P23  1  0.00000000  0.00000000  0.00000000  1
  O  O24  1  0.97139992  0.79513274  0.15357472  1
  O  O25  1  0.52848760  0.98329235  0.73968210  1
  O  O26  1  0.24361024  0.78880550  0.26031790  1
  O  O27  1  0.02848760  0.28880550  0.54519526  1
  O  O28  1  0.74361024  0.48329235  0.45480474  1
  O  O29  1  0.71119450  0.25638976  0.73968210  1
  O  O30  1  0.95794230  0.37867683  0.12232725  1
  O  O31  1  0.25634959  0.83561506  0.87767275  1
  O  O32  1  0.75634959  0.87867683  0.42073453  1
  O  O33  1  0.62132317  0.74365041  0.57926547  1
  O  O34  1  0.16438494  0.04205770  0.42073453  1
  O  O35  1  0.12132317  0.54205770  0.87767275  1
  O  O36  1  0.66438494  0.24365041  0.12232725  1
  O  O37  1  0.47139992  0.31782420  0.17626718  1
  O  O38  1  0.20486726  0.35844298  0.17626718  1
  O  O39  1  0.18217580  0.02860008  0.82373282  1
  O  O40  1  0.68217580  0.85844298  0.15357472  1
  O  O41  1  0.64155702  0.81782420  0.84642528  1
  O  O42  1  0.51670765  0.97151240  0.26031790  1
  O  O43  1  0.14155702  0.29513274  0.82373282  1
  O  O44  1  0.21119450  0.47151240  0.45480474  1
  O  O45  1  0.01670765  0.75638976  0.54519526  1
  O  O46  1  0.63121111  0.30851651  0.52100391  1
  O  O47  1  0.69148349  0.21248740  0.32269360  1
  O  O48  1  0.88979280  0.36878889  0.67730640  1
  O  O49  1  0.19148349  0.86878889  0.47899609  1
  O  O50  1  0.38979280  0.71248740  0.52100391  1
  O  O51  1  0.78751260  0.11020720  0.47899609  1
  O  O52  1  0.28751260  0.80851651  0.67730640  1
  O  O53  1  0.13121111  0.61020720  0.32269360  1
  O  O54  1  0.98548188  0.82657615  0.90026294  1
  O  O55  1  0.17342385  0.07368679  0.15890573  1
  O  O56  1  0.91478106  0.01451812  0.84109427  1
  O  O57  1  0.67342385  0.51451812  0.09973706  1
  O  O58  1  0.41478106  0.57368679  0.90026294  1
  O  O59  1  0.92631321  0.08521894  0.09973706  1
  O  O60  1  0.42631321  0.32657615  0.84109427  1
  O  O61  1  0.48548188  0.58521894  0.15890573  1
  O  O62  1  0.70486726  0.52860008  0.84642528  1
  O  O63  1  0.45794230  0.33561506  0.57926547  1
