# generated using pymatgen
data_Al(HO)3
_symmetry_space_group_name_H-M   'P 1'
_cell_length_a   5.02246687
_cell_length_b   8.64002380
_cell_length_c   9.22898822
_cell_angle_alpha   90.00000000
_cell_angle_beta   90.00000000
_cell_angle_gamma   90.00000000
_symmetry_Int_Tables_number   1
_chemical_formula_structural   Al(HO)3
_chemical_formula_sum   'Al8 H24 O24'
_cell_volume   400.48486786
_cell_formula_units_Z   8
loop_
 _symmetry_equiv_pos_site_id
 _symmetry_equiv_pos_as_xyz
  1  'x, y, z'
loop_
 _atom_site_type_symbol
 _atom_site_label
 _atom_site_symmetry_multiplicity
 _atom_site_fract_x
 _atom_site_fract_y
 _atom_site_fract_z
 _atom_site_occupancy
  Al  Al0  1  0.96907295  0.16555664  0.51338635  1
  Al  Al1  1  0.53092705  0.66555664  0.48661365  1
  Al  Al2  1  0.46907295  0.83444336  0.98661365  1
  Al  Al3  1  0.03092705  0.33444336  0.01338635  1
  Al  Al4  1  0.03092705  0.83444336  0.48661365  1
  Al  Al5  1  0.46907295  0.33444336  0.51338635  1
  Al  Al6  1  0.53092705  0.16555664  0.01338635  1
  Al  Al7  1  0.96907295  0.66555664  0.98661365  1
  H  H8  1  0.17600637  0.53900050  0.61061012  1
  H  H9  1  0.32399363  0.03900050  0.38938988  1
  H  H10  1  0.67600637  0.46099950  0.88938988  1
  H  H11  1  0.82399363  0.96099950  0.11061012  1
  H  H12  1  0.82399363  0.46099950  0.38938988  1
  H  H13  1  0.67600637  0.96099950  0.61061012  1
  H  H14  1  0.32399363  0.53900050  0.11061012  1
  H  H15  1  0.17600637  0.03900050  0.88938988  1
  H  H16  1  0.34113190  0.11370765  0.68920940  1
  H  H17  1  0.15886810  0.61370765  0.31079060  1
  H  H18  1  0.84113190  0.88629235  0.81079060  1
  H  H19  1  0.65886810  0.38629235  0.18920940  1
  H  H20  1  0.65886810  0.88629235  0.31079060  1
  H  H21  1  0.84113190  0.38629235  0.68920940  1
  H  H22  1  0.15886810  0.11370765  0.18920940  1
  H  H23  1  0.34113190  0.61370765  0.81079060  1
  H  H24  1  0.83063730  0.68925958  0.69435991  1
  H  H25  1  0.66936270  0.18925958  0.30564009  1
  H  H26  1  0.33063730  0.31074042  0.80564009  1
  H  H27  1  0.16936270  0.81074042  0.19435991  1
  H  H28  1  0.16936270  0.31074042  0.30564009  1
  H  H29  1  0.33063730  0.81074042  0.69435991  1
  H  H30  1  0.66936270  0.68925958  0.19435991  1
  H  H31  1  0.83063730  0.18925958  0.80564009  1
  O  O32  1  0.36649655  0.51674152  0.61268790  1
  O  O33  1  0.13350345  0.01674152  0.38731210  1
  O  O34  1  0.86649655  0.48325848  0.88731210  1
  O  O35  1  0.63350345  0.98325848  0.11268790  1
  O  O36  1  0.63350345  0.48325848  0.38731210  1
  O  O37  1  0.86649655  0.98325848  0.61268790  1
  O  O38  1  0.13350345  0.51674152  0.11268790  1
  O  O39  1  0.36649655  0.01674152  0.88731210  1
  O  O40  1  0.27044254  0.19641186  0.62935880  1
  O  O41  1  0.22955746  0.69641186  0.37064120  1
  O  O42  1  0.77044254  0.80358814  0.87064120  1
  O  O43  1  0.72955746  0.30358814  0.12935880  1
  O  O44  1  0.72955746  0.80358814  0.37064120  1
  O  O45  1  0.77044254  0.30358814  0.62935880  1
  O  O46  1  0.22955746  0.19641186  0.12935880  1
  O  O47  1  0.27044254  0.69641186  0.87064120  1
  O  O48  1  0.85593315  0.67089397  0.59112831  1
  O  O49  1  0.64406685  0.17089397  0.40887169  1
  O  O50  1  0.35593315  0.32910603  0.90887169  1
  O  O51  1  0.14406685  0.82910603  0.09112831  1
  O  O52  1  0.14406685  0.32910603  0.40887169  1
  O  O53  1  0.35593315  0.82910603  0.59112831  1
  O  O54  1  0.64406685  0.67089397  0.09112831  1
  O  O55  1  0.85593315  0.17089397  0.90887169  1
