# generated using pymatgen
data_Ba3Ta6(Si2O13)2
_symmetry_space_group_name_H-M   'P 1'
_cell_length_a   9.04637225
_cell_length_b   9.04637225
_cell_length_c   7.74747576
_cell_angle_alpha   90.00000000
_cell_angle_beta   90.00000000
_cell_angle_gamma   119.99999744
_symmetry_Int_Tables_number   1
_chemical_formula_structural   Ba3Ta6(Si2O13)2
_chemical_formula_sum   'Ba3 Ta6 Si4 O26'
_cell_volume   549.08525096
_cell_formula_units_Z   1
loop_
 _symmetry_equiv_pos_site_id
 _symmetry_equiv_pos_as_xyz
  1  'x, y, z'
loop_
 _atom_site_type_symbol
 _atom_site_label
 _atom_site_symmetry_multiplicity
 _atom_site_fract_x
 _atom_site_fract_y
 _atom_site_fract_z
 _atom_site_occupancy
  Ba  Ba0  1  0.39740269  0.39740269  0.50000000  1
  Ba  Ba1  1  1.00000000  0.60259731  0.50000000  1
  Ba  Ba2  1  0.60259731  1.00000000  0.50000000  1
  Ta  Ta3  1  0.00000000  0.23830368  0.75621358  1
  Ta  Ta4  1  0.76169632  0.76169632  0.75621358  1
  Ta  Ta5  1  0.23830368  0.00000000  0.24378642  1
  Ta  Ta6  1  0.76169632  0.76169632  0.24378642  1
  Ta  Ta7  1  0.23830368  0.00000000  0.75621358  1
  Ta  Ta8  1  0.00000000  0.23830368  0.24378642  1
  Si  Si9  1  0.66666700  0.33333300  0.20627868  1
  Si  Si10  1  0.66666700  0.33333300  0.79372132  1
  Si  Si11  1  0.33333300  0.66666700  0.79372132  1
  Si  Si12  1  0.33333300  0.66666700  0.20627868  1
  O  O13  1  1.00000000  0.22795035  0.50000000  1
  O  O14  1  0.77204965  0.77204965  0.50000000  1
  O  O15  1  0.22795035  1.00000000  0.50000000  1
  O  O16  1  0.51214804  0.69476000  0.28415550  1
  O  O17  1  0.30524000  0.81738804  0.28415550  1
  O  O18  1  0.18261196  0.48785196  0.28415550  1
  O  O19  1  0.48785196  0.18261196  0.71584450  1
  O  O20  1  0.18261196  0.48785196  0.71584450  1
  O  O21  1  0.51214804  0.69476000  0.71584450  1
  O  O22  1  0.30524000  0.81738804  0.71584450  1
  O  O23  1  0.69476000  0.51214804  0.28415550  1
  O  O24  1  0.81738804  0.30524000  0.28415550  1
  O  O25  1  0.81738804  0.30524000  0.71584450  1
  O  O26  1  0.33333300  0.66666700  -0.00000000  1
  O  O27  1  0.66666700  0.33333300  -0.00000000  1
  O  O28  1  0.28139769  0.00000000  -0.00000000  1
  O  O29  1  0.71860231  0.71860231  -0.00000000  1
  O  O30  1  0.00000000  0.28139769  -0.00000000  1
  O  O31  1  0.82150399  1.00000000  0.23178877  1
  O  O32  1  0.17849601  0.17849601  0.76821123  1
  O  O33  1  1.00000000  0.82150399  0.76821123  1
  O  O34  1  1.00000000  0.82150399  0.23178877  1
  O  O35  1  0.17849601  0.17849601  0.23178877  1
  O  O36  1  0.82150399  1.00000000  0.76821123  1
  O  O37  1  0.48785196  0.18261196  0.28415550  1
  O  O38  1  0.69476000  0.51214804  0.71584450  1
