# generated using pymatgen
data_Na3Si2PO8
_symmetry_space_group_name_H-M   'P 1'
_cell_length_a   11.07273800
_cell_length_b   7.28141500
_cell_length_c   11.30430110
_cell_angle_alpha   89.99240740
_cell_angle_beta   90.00000000
_cell_angle_gamma   90.00000000
_symmetry_Int_Tables_number   1
_chemical_formula_structural   Na3Si2PO8
_chemical_formula_sum   'Na12 Si8 P4 O32'
_cell_volume   911.41153536
_cell_formula_units_Z   4
loop_
 _symmetry_equiv_pos_site_id
 _symmetry_equiv_pos_as_xyz
  1  'x, y, z'
loop_
 _atom_site_type_symbol
 _atom_site_label
 _atom_site_symmetry_multiplicity
 _atom_site_fract_x
 _atom_site_fract_y
 _atom_site_fract_z
 _atom_site_occupancy
  Na  Na0  1  0.67860500  0.21870300  0.26047900  1
  Na  Na1  1  0.82120400  0.28075600  0.76046300  1
  Na  Na2  1  0.08457100  0.47163200  0.25423600  1
  Na  Na3  1  0.72810200  0.86358800  0.82353000  1
  Na  Na4  1  0.58457100  0.52836800  0.74576400  1
  Na  Na5  1  0.27231100  0.36373600  0.67704100  1
  Na  Na6  1  0.17860500  0.78129700  0.73952100  1
  Na  Na7  1  0.22810200  0.13641200  0.17647000  1
  Na  Na8  1  0.91572000  0.97191500  0.24527000  1
  Na  Na9  1  0.41572000  0.02808500  0.75473000  1
  Na  Na10  1  0.77231100  0.63626400  0.32295900  1
  Na  Na11  1  0.32120400  0.71924400  0.23953700  1
  Si  Si12  1  0.42924900  0.72054000  0.53099300  1
  Si  Si13  1  0.11854800  0.12275900  0.87775300  1
  Si  Si14  1  0.92924900  0.27946000  0.46900700  1
  Si  Si15  1  0.38129600  0.37699400  0.37789500  1
  Si  Si16  1  0.61854800  0.87724100  0.12224700  1
  Si  Si17  1  0.07070900  0.77914200  0.03045100  1
  Si  Si18  1  0.57070900  0.22085800  0.96954900  1
  Si  Si19  1  0.88129600  0.62300600  0.62210500  1
  P  P20  1  0.52455300  0.61697400  0.01407000  1
  P  P21  1  0.97494100  0.88288700  0.51350800  1
  P  P22  1  0.47494100  0.11711300  0.48649200  1
  P  P23  1  0.02455300  0.38302600  0.98593000  1
  O  O24  1  0.82076300  0.32371400  0.38223700  1
  O  O25  1  0.93085300  0.77866500  0.08617300  1
  O  O26  1  0.56932500  0.72069700  0.58642200  1
  O  O27  1  0.67946600  0.17608600  0.88289800  1
  O  O28  1  0.06932500  0.27930300  0.41357800  1
  O  O29  1  0.91269600  0.07770400  0.54639700  1
  O  O30  1  0.56108400  0.83715700  0.69715800  1
  O  O31  1  0.64779300  0.75196000  0.99790500  1
  O  O32  1  0.79085400  0.59293900  0.72795300  1
  O  O33  1  0.55894000  0.07442800  0.08198300  1
  O  O34  1  0.70934000  0.90684900  0.22774200  1
  O  O35  1  0.17946600  0.82391400  0.11710200  1
  O  O36  1  0.58736800  0.42240000  0.04677900  1
  O  O37  1  0.06108400  0.16284300  0.30284200  1
  O  O38  1  0.43085300  0.22133500  0.91382700  1
  O  O39  1  0.44071300  0.57438500  0.41868900  1
  O  O40  1  0.41269600  0.92229600  0.45360300  1
  O  O41  1  0.50536700  0.71910600  0.14650700  1
  O  O42  1  0.93933800  0.66239900  0.19692900  1
  O  O43  1  0.94071300  0.42561500  0.58131100  1
  O  O44  1  0.43933800  0.33760100  0.80307100  1
  O  O45  1  0.29085400  0.40706100  0.27204700  1
  O  O46  1  0.49460200  0.21913600  0.35421300  1
  O  O47  1  0.08736800  0.57760000  0.95322100  1
  O  O48  1  0.05894000  0.92557200  0.91801700  1
  O  O49  1  0.35155300  0.25161400  0.50223600  1
  O  O50  1  0.20934000  0.09315100  0.77225800  1
  O  O51  1  0.32076300  0.67628600  0.61776300  1
  O  O52  1  0.99460200  0.78086400  0.64578700  1
  O  O53  1  0.85155300  0.74838600  0.49776400  1
  O  O54  1  0.00536700  0.28089400  0.85349300  1
  O  O55  1  0.14779300  0.24804000  0.00209500  1
