# generated using pymatgen
data_Ba2ErCl7
_symmetry_space_group_name_H-M   'P 1'
_cell_length_a   15.58643578
_cell_length_b   6.84403398
_cell_length_c   10.56641524
_cell_angle_alpha   89.43198975
_cell_angle_beta   90.00000000
_cell_angle_gamma   90.00000000
_symmetry_Int_Tables_number   1
_chemical_formula_structural   Ba2ErCl7
_chemical_formula_sum   'Ba8 Er4 Cl28'
_cell_volume   1127.10740626
_cell_formula_units_Z   4
loop_
 _symmetry_equiv_pos_site_id
 _symmetry_equiv_pos_as_xyz
  1  'x, y, z'
loop_
 _atom_site_type_symbol
 _atom_site_label
 _atom_site_symmetry_multiplicity
 _atom_site_fract_x
 _atom_site_fract_y
 _atom_site_fract_z
 _atom_site_occupancy
  Ba  Ba0  1  0.43929740  0.26487806  0.82350754  1
  Ba  Ba1  1  0.27991141  0.73536330  0.54875974  1
  Ba  Ba2  1  0.56070260  0.73512194  0.17649246  1
  Ba  Ba3  1  0.72008859  0.26463670  0.45124026  1
  Ba  Ba4  1  0.93929740  0.73512194  0.67649246  1
  Ba  Ba5  1  0.77991141  0.26463670  0.95124026  1
  Ba  Ba6  1  0.22008859  0.73536330  0.04875974  1
  Ba  Ba7  1  0.06070260  0.26487806  0.32350754  1
  Er  Er8  1  0.37295235  0.21679114  0.28191410  1
  Er  Er9  1  0.12704765  0.21679114  0.78191410  1
  Er  Er10  1  0.87295235  0.78320886  0.21808590  1
  Er  Er11  1  0.62704765  0.78320886  0.71808590  1
  Cl  Cl12  1  0.27148248  0.00172466  0.79484089  1
  Cl  Cl13  1  0.60453052  -0.00046953  0.92774563  1
  Cl  Cl14  1  0.07060381  0.87384264  0.87653362  1
  Cl  Cl15  1  0.86083075  0.70886551  0.97316624  1
  Cl  Cl16  1  0.74309881  0.51277410  0.19858287  1
  Cl  Cl17  1  0.24309881  0.48722590  0.30141713  1
  Cl  Cl18  1  0.53923004  0.29408083  0.28750989  1
  Cl  Cl19  1  0.10509676  0.48581175  0.58674417  1
  Cl  Cl20  1  0.03923004  0.70591917  0.21249011  1
  Cl  Cl21  1  0.72851752  0.99827534  0.20515911  1
  Cl  Cl22  1  0.63916925  0.70886551  0.47316624  1
  Cl  Cl23  1  0.36083075  0.29113449  0.52683376  1
  Cl  Cl24  1  0.89490324  0.51418825  0.41325583  1
  Cl  Cl25  1  0.22851752  0.00172466  0.29484089  1
  Cl  Cl26  1  0.42939619  0.87384264  0.37653362  1
  Cl  Cl27  1  0.10453052  0.00046953  0.57225437  1
  Cl  Cl28  1  0.96076996  0.29408083  0.78750989  1
  Cl  Cl29  1  0.57060381  0.12615736  0.62346638  1
  Cl  Cl30  1  0.39546948  0.00046953  0.07225437  1
  Cl  Cl31  1  0.13916925  0.29113449  0.02683376  1
  Cl  Cl32  1  0.39490324  0.48581175  0.08674417  1
  Cl  Cl33  1  0.25690119  0.48722590  0.80141713  1
  Cl  Cl34  1  0.46076996  0.70591917  0.71249011  1
  Cl  Cl35  1  0.89546948  -0.00046953  0.42774563  1
  Cl  Cl36  1  0.60509676  0.51418825  0.91325583  1
  Cl  Cl37  1  0.92939619  0.12615736  0.12346638  1
  Cl  Cl38  1  0.77148248  0.99827534  0.70515911  1
  Cl  Cl39  1  0.75690119  0.51277410  0.69858287  1
