# generated using pymatgen
data_Cs2MnBr4
_symmetry_space_group_name_H-M   'P 1'
_cell_length_a   7.82690873
_cell_length_b   10.30517383
_cell_length_c   13.85173390
_cell_angle_alpha   90.00000000
_cell_angle_beta   90.00000000
_cell_angle_gamma   90.00000000
_symmetry_Int_Tables_number   1
_chemical_formula_structural   Cs2MnBr4
_chemical_formula_sum   'Cs8 Mn4 Br16'
_cell_volume   1117.24837425
_cell_formula_units_Z   4
loop_
 _symmetry_equiv_pos_site_id
 _symmetry_equiv_pos_as_xyz
  1  'x, y, z'
loop_
 _atom_site_type_symbol
 _atom_site_label
 _atom_site_symmetry_multiplicity
 _atom_site_fract_x
 _atom_site_fract_y
 _atom_site_fract_z
 _atom_site_occupancy
  Cs  Cs0  1  0.25000000  0.62933756  0.40758706  1
  Cs  Cs1  1  0.25000000  0.47972334  0.82785218  1
  Cs  Cs2  1  0.75000000  0.02027666  0.32785218  1
  Cs  Cs3  1  0.75000000  0.37066244  0.59241294  1
  Cs  Cs4  1  0.75000000  0.52027666  0.17214782  1
  Cs  Cs5  1  0.25000000  0.97972334  0.67214782  1
  Cs  Cs6  1  0.25000000  0.12933756  0.09241294  1
  Cs  Cs7  1  0.75000000  0.87066244  0.90758706  1
  Mn  Mn8  1  0.25000000  0.72936258  0.07635422  1
  Mn  Mn9  1  0.75000000  0.77063742  0.57635422  1
  Mn  Mn10  1  0.25000000  0.22936258  0.42364578  1
  Mn  Mn11  1  0.75000000  0.27063742  0.92364578  1
  Br  Br12  1  0.99389249  0.32520984  0.34555968  1
  Br  Br13  1  0.25000000  0.31657251  0.59183924  1
  Br  Br14  1  0.25000000  0.81657251  0.90816076  1
  Br  Br15  1  0.50610751  0.82520984  0.15444032  1
  Br  Br16  1  0.49389249  0.17479016  0.84555968  1
  Br  Br17  1  0.00610751  0.17479016  0.84555968  1
  Br  Br18  1  0.00610751  0.67479016  0.65444032  1
  Br  Br19  1  0.75000000  0.01067804  0.59604807  1
  Br  Br20  1  0.49389249  0.67479016  0.65444032  1
  Br  Br21  1  0.75000000  0.51067804  0.90395193  1
  Br  Br22  1  0.99389249  0.82520984  0.15444032  1
  Br  Br23  1  0.50610751  0.32520984  0.34555968  1
  Br  Br24  1  0.25000000  0.48932196  0.09604807  1
  Br  Br25  1  0.25000000  0.98932196  0.40395193  1
  Br  Br26  1  0.75000000  0.68342749  0.40816076  1
  Br  Br27  1  0.75000000  0.18342749  0.09183924  1
