# generated using pymatgen
data_NdHO2
_symmetry_space_group_name_H-M   'P 1'
_cell_length_a   4.37417373
_cell_length_b   3.83274926
_cell_length_c   6.45502147
_cell_angle_alpha   90.00000000
_cell_angle_beta   112.62378084
_cell_angle_gamma   90.00000000
_symmetry_Int_Tables_number   1
_chemical_formula_structural   NdHO2
_chemical_formula_sum   'Nd2 H2 O4'
_cell_volume   99.89175727
_cell_formula_units_Z   2
loop_
 _symmetry_equiv_pos_site_id
 _symmetry_equiv_pos_as_xyz
  1  'x, y, z'
loop_
 _atom_site_type_symbol
 _atom_site_label
 _atom_site_symmetry_multiplicity
 _atom_site_fract_x
 _atom_site_fract_y
 _atom_site_fract_z
 _atom_site_occupancy
  Nd  Nd0  1  0.63888994  0.22253031  0.30788732  1
  Nd  Nd1  1  0.36111006  0.72253031  0.69211268  1
  H  H2  1  0.08422583  0.63824702  0.05045814  1
  H  H3  1  0.91577417  0.13824702  0.94954186  1
  O  O4  1  0.77843352  0.72439319  0.53840358  1
  O  O5  1  0.22156648  0.22439319  0.46159642  1
  O  O6  1  0.29165138  0.73544249  0.05526132  1
  O  O7  1  0.70834862  0.23544249  0.94473868  1
