# generated using pymatgen
data_Cs4MgZr3(PO4)6
_symmetry_space_group_name_H-M   'P 1'
_cell_length_a   10.44633043
_cell_length_b   10.45660813
_cell_length_c   10.45038131
_cell_angle_alpha   90.00000000
_cell_angle_beta   90.00000000
_cell_angle_gamma   90.11667442
_symmetry_Int_Tables_number   1
_chemical_formula_structural   Cs4MgZr3(PO4)6
_chemical_formula_sum   'Cs8 Mg2 Zr6 P12 O48'
_cell_volume   1141.52605403
_cell_formula_units_Z   2
loop_
 _symmetry_equiv_pos_site_id
 _symmetry_equiv_pos_as_xyz
  1  'x, y, z'
loop_
 _atom_site_type_symbol
 _atom_site_label
 _atom_site_symmetry_multiplicity
 _atom_site_fract_x
 _atom_site_fract_y
 _atom_site_fract_z
 _atom_site_occupancy
  Cs  Cs0  1  0.06380587  0.06512936  0.06597936  1
  Cs  Cs1  1  0.20611308  0.71549958  0.78972405  1
  Cs  Cs2  1  0.29388692  0.28450042  0.28972405  1
  Cs  Cs3  1  0.43619413  0.93487064  0.56597936  1
  Cs  Cs4  1  0.57157324  0.42931984  0.93022350  1
  Cs  Cs5  1  0.71364922  0.79658596  0.20993489  1
  Cs  Cs6  1  0.78635078  0.20341404  0.70993489  1
  Cs  Cs7  1  0.92842676  0.57068016  0.43022350  1
  Mg  Mg8  1  0.64474078  0.14113426  0.35593414  1
  Mg  Mg9  1  0.85525922  0.85886574  0.85593414  1
  Zr  Zr10  1  0.08319603  0.91405639  0.41389669  1
  Zr  Zr11  1  0.13966669  0.35625791  0.64079094  1
  Zr  Zr12  1  0.36033331  0.64374209  0.14079094  1
  Zr  Zr13  1  0.41680397  0.08594361  0.91389669  1
  Zr  Zr14  1  0.59032938  0.58826842  0.58720223  1
  Zr  Zr15  1  0.90967062  0.41173158  0.08720223  1
  P  P16  1  0.04025714  0.72827831  0.12268941  1
  P  P17  1  0.12378699  0.03978532  0.72974490  1
  P  P18  1  0.22744340  0.37446192  0.95760634  1
  P  P19  1  0.27255660  0.62553808  0.45760634  1
  P  P20  1  0.37621301  0.96021468  0.22974490  1
  P  P21  1  0.45974286  0.27172169  0.62268941  1
  P  P22  1  0.54706525  0.77174408  0.87523621  1
  P  P23  1  0.62313865  0.45333466  0.27267916  1
  P  P24  1  0.73020504  0.12064861  0.04499125  1
  P  P25  1  0.76979496  0.87935139  0.54499125  1
  P  P26  1  0.87686135  0.54666534  0.77267916  1
  P  P27  1  0.95293475  0.22825592  0.37523621  1
  O  O28  1  0.00714412  0.09034675  0.35764426  1
  O  O29  1  0.02679822  0.79905282  0.25446215  1
  O  O30  1  0.02261090  0.96124505  0.79737570  1
  O  O31  1  0.04103214  0.29593062  0.47741001  1
  O  O32  1  0.08860084  0.35771556  0.00562438  1
  O  O33  1  0.08691360  0.18486682  0.72881856  1
  O  O34  1  0.14305153  0.99493262  0.58829869  1
  O  O35  1  0.18573449  0.72707840  0.08696842  1
  O  O36  1  0.20382043  0.52136847  0.53841449  1
  O  O37  1  0.19872544  0.75271867  0.47575088  1
  O  O38  1  0.22972933  0.41531325  0.81540853  1
  O  O39  1  0.25528547  0.02686566  0.80031151  1
  O  O40  1  0.24471453  0.97313434  0.30031151  1
  O  O41  1  0.27027067  0.58468675  0.31540853  1
  O  O42  1  0.30127456  0.24728133  0.97575088  1
  O  O43  1  0.29617957  0.47863153  0.03841449  1
  O  O44  1  0.31426551  0.27292160  0.58696842  1
  O  O45  1  0.35694847  0.00506738  0.08829869  1
  O  O46  1  0.41308640  0.81513318  0.22881856  1
  O  O47  1  0.41139916  0.64228444  0.50562438  1
  O  O48  1  0.45896786  0.70406938  0.97741001  1
  O  O49  1  0.47738910  0.03875495  0.29737570  1
  O  O50  1  0.47320178  0.20094718  0.75446215  1
  O  O51  1  0.49285588  0.90965325  0.85764426  1
  O  O52  1  0.50562379  0.41264893  0.64252032  1
  O  O53  1  0.52409540  0.69786995  0.74678698  1
  O  O54  1  0.52118763  0.54067467  0.20448808  1
  O  O55  1  0.53736707  0.20327589  0.52156330  1
  O  O56  1  0.58876103  0.14270932  0.99296864  1
  O  O57  1  0.58148060  0.31497309  0.26898307  1
  O  O58  1  0.64165519  0.50739766  0.41067183  1
  O  O59  1  0.68516958  0.76766413  0.91774417  1
  O  O60  1  0.70286363  0.97622282  0.45902381  1
  O  O61  1  0.70016879  0.74449564  0.52701555  1
  O  O62  1  0.72992614  0.08449558  0.18579722  1
  O  O63  1  0.75239705  0.47603628  0.19931640  1
  O  O64  1  0.74760295  0.52396372  0.69931640  1
  O  O65  1  0.77007386  0.91550442  0.68579722  1
  O  O66  1  0.79983121  0.25550436  0.02701555  1
  O  O67  1  0.79713637  0.02377718  0.95902381  1
  O  O68  1  0.81483042  0.23233587  0.41774417  1
  O  O69  1  0.85834481  0.49260234  0.91067183  1
  O  O70  1  0.91851940  0.68502691  0.76898307  1
  O  O71  1  0.91123897  0.85729068  0.49296864  1
  O  O72  1  0.96263293  0.79672411  0.02156330  1
  O  O73  1  0.97881237  0.45932533  0.70448808  1
  O  O74  1  0.97590460  0.30213005  0.24678698  1
  O  O75  1  0.99437621  0.58735107  0.14252032  1
