# generated using pymatgen
data_Pb4SeBr6
_symmetry_space_group_name_H-M   'P 1'
_cell_length_a   4.37446200
_cell_length_b   9.74794174
_cell_length_c   9.74794174
_cell_angle_alpha   62.90117835
_cell_angle_beta   77.03365076
_cell_angle_gamma   77.03365076
_symmetry_Int_Tables_number   1
_chemical_formula_structural   Pb4SeBr6
_chemical_formula_sum   'Pb4 Se1 Br6'
_cell_volume   357.01135353
_cell_formula_units_Z   1
loop_
 _symmetry_equiv_pos_site_id
 _symmetry_equiv_pos_as_xyz
  1  'x, y, z'
loop_
 _atom_site_type_symbol
 _atom_site_label
 _atom_site_symmetry_multiplicity
 _atom_site_fract_x
 _atom_site_fract_y
 _atom_site_fract_z
 _atom_site_occupancy
  Pb  Pb0  1  0.50000000  0.49223600  0.50776400  1
  Pb  Pb1  1  0.25941100  0.51498600  0.96619100  1
  Pb  Pb2  1  0.00000000  0.03563800  0.96436200  1
  Pb  Pb3  1  0.74058800  0.03380900  0.48501500  1
  Se  Se4  1  0.50000000  0.21329500  0.78670500  1
  Br  Br5  1  0.13605300  0.32796900  0.39992500  1
  Br  Br6  1  0.86394700  0.60007500  0.67203100  1
  Br  Br7  1  0.37759400  0.91226200  0.33255000  1
  Br  Br8  1  0.62240700  0.66744900  0.08773800  1
  Br  Br9  1  0.19151300  0.88297200  0.73400200  1
  Br  Br10  1  0.80848700  0.26599800  0.11702800  1
