# generated using pymatgen
data_KGaO2
_symmetry_space_group_name_H-M   'P 1'
_cell_length_a   5.46125015
_cell_length_b   10.94198676
_cell_length_c   16.30200988
_cell_angle_alpha   90.00000000
_cell_angle_beta   90.00000000
_cell_angle_gamma   90.00000000
_symmetry_Int_Tables_number   1
_chemical_formula_structural   KGaO2
_chemical_formula_sum   'K16 Ga16 O32'
_cell_volume   974.15801165
_cell_formula_units_Z   16
loop_
 _symmetry_equiv_pos_site_id
 _symmetry_equiv_pos_as_xyz
  1  'x, y, z'
loop_
 _atom_site_type_symbol
 _atom_site_label
 _atom_site_symmetry_multiplicity
 _atom_site_fract_x
 _atom_site_fract_y
 _atom_site_fract_z
 _atom_site_occupancy
  K  K0  1  0.74009119  0.74202546  0.68867448  1
  K  K1  1  0.74488226  0.00274280  0.56362969  1
  K  K2  1  0.24488226  0.00274280  0.93637031  1
  K  K3  1  0.25511774  0.99725720  0.43637031  1
  K  K4  1  0.25990881  0.24202546  0.81132552  1
  K  K5  1  0.74488226  0.49725720  0.06362969  1
  K  K6  1  0.24488226  0.49725720  0.43637031  1
  K  K7  1  0.25990881  0.25797454  0.31132552  1
  K  K8  1  0.24009119  0.74202546  0.81132552  1
  K  K9  1  0.75511774  0.50274280  0.56362969  1
  K  K10  1  0.24009119  0.75797454  0.31132552  1
  K  K11  1  0.74009119  0.75797454  0.18867448  1
  K  K12  1  0.25511774  0.50274280  0.93637031  1
  K  K13  1  0.75511774  0.99725720  0.06362969  1
  K  K14  1  0.75990881  0.25797454  0.18867448  1
  K  K15  1  0.75990881  0.24202546  0.68867448  1
  Ga  Ga16  1  0.79192347  0.22930181  0.93789424  1
  Ga  Ga17  1  0.71588011  0.97847089  0.81306140  1
  Ga  Ga18  1  0.28411989  0.47847089  0.68693860  1
  Ga  Ga19  1  0.21588011  0.52152911  0.18693860  1
  Ga  Ga20  1  0.28411989  0.02152911  0.18693860  1
  Ga  Ga21  1  0.71588011  0.52152911  0.31306140  1
  Ga  Ga22  1  0.29192347  0.22930181  0.56210576  1
  Ga  Ga23  1  0.21588011  0.97847089  0.68693860  1
  Ga  Ga24  1  0.20807653  0.77069819  0.06210576  1
  Ga  Ga25  1  0.79192347  0.27069819  0.43789424  1
  Ga  Ga26  1  0.70807653  0.77069819  0.43789424  1
  Ga  Ga27  1  0.78411989  0.02152911  0.31306140  1
  Ga  Ga28  1  0.29192347  0.27069819  0.06210576  1
  Ga  Ga29  1  0.78411989  0.47847089  0.81306140  1
  Ga  Ga30  1  0.70807653  0.72930181  0.93789424  1
  Ga  Ga31  1  0.20807653  0.72930181  0.56210576  1
  O  O32  1  0.73903228  0.93360426  0.40788130  1
  O  O33  1  0.27216947  0.68268124  0.15605816  1
  O  O34  1  0.72783053  0.31731876  0.84394184  1
  O  O35  1  0.89503817  0.00649151  0.71917762  1
  O  O36  1  0.89503817  0.49350849  0.21917762  1
  O  O37  1  0.22783053  0.18268124  0.15605816  1
  O  O38  1  0.11918559  0.25183665  0.46648546  1
  O  O39  1  0.38081441  0.75183665  0.46648546  1
  O  O40  1  0.23903228  0.56639574  0.59211870  1
  O  O41  1  0.72783053  0.18268124  0.34394184  1
  O  O42  1  0.61918559  0.25183665  0.03351454  1
  O  O43  1  0.38081441  0.74816335  0.96648546  1
  O  O44  1  0.39503817  0.00649151  0.78082238  1
  O  O45  1  0.73903228  0.56639574  0.90788130  1
  O  O46  1  0.27216947  0.81731876  0.65605816  1
  O  O47  1  0.76096772  0.43360426  0.40788130  1
  O  O48  1  0.61918559  0.24816335  0.53351454  1
  O  O49  1  0.60496183  0.50649151  0.71917762  1
  O  O50  1  0.26096772  0.43360426  0.09211870  1
  O  O51  1  0.11918559  0.24816335  0.96648546  1
  O  O52  1  0.10496183  0.99350849  0.28082238  1
  O  O53  1  0.10496183  0.50649151  0.78082238  1
  O  O54  1  0.88081441  0.74816335  0.53351454  1
  O  O55  1  0.26096772  0.06639574  0.59211870  1
  O  O56  1  0.23903228  0.93360426  0.09211870  1
  O  O57  1  0.22783053  0.31731876  0.65605816  1
  O  O58  1  0.39503817  0.49350849  0.28082238  1
  O  O59  1  0.60496183  0.99350849  0.21917762  1
  O  O60  1  0.88081441  0.75183665  0.03351454  1
  O  O61  1  0.77216947  0.81731876  0.84394184  1
  O  O62  1  0.76096772  0.06639574  0.90788130  1
  O  O63  1  0.77216947  0.68268124  0.34394184  1
