# generated using pymatgen
data_NbClF8
_symmetry_space_group_name_H-M   'P 1'
_cell_length_a   5.86668805
_cell_length_b   9.82294696
_cell_length_c   10.45351020
_cell_angle_alpha   90.00000000
_cell_angle_beta   90.00000000
_cell_angle_gamma   90.00000000
_symmetry_Int_Tables_number   1
_chemical_formula_structural   NbClF8
_chemical_formula_sum   'Nb4 Cl4 F32'
_cell_volume   602.41661634
_cell_formula_units_Z   4
loop_
 _symmetry_equiv_pos_site_id
 _symmetry_equiv_pos_as_xyz
  1  'x, y, z'
loop_
 _atom_site_type_symbol
 _atom_site_label
 _atom_site_symmetry_multiplicity
 _atom_site_fract_x
 _atom_site_fract_y
 _atom_site_fract_z
 _atom_site_occupancy
  Nb  Nb0  1  0.60657535  0.00000000  0.75000000  1
  Nb  Nb1  1  0.39342465  0.50000000  0.75000000  1
  Nb  Nb2  1  0.60657535  0.50000000  0.25000000  1
  Nb  Nb3  1  0.39342465  0.00000000  0.25000000  1
  Cl  Cl4  1  -0.00000000  0.75000000  0.03931756  1
  Cl  Cl5  1  -0.00000000  0.75000000  0.53931756  1
  Cl  Cl6  1  -0.00000000  0.25000000  0.96068244  1
  Cl  Cl7  1  -0.00000000  0.25000000  0.46068244  1
  F  F8  1  0.11184283  0.84991781  0.93498617  1
  F  F9  1  0.88815717  0.34991781  0.56501383  1
  F  F10  1  0.61487914  0.12166438  0.31258487  1
  F  F11  1  0.38512086  0.87833562  0.68741513  1
  F  F12  1  0.38512086  0.12166438  0.81258487  1
  F  F13  1  0.14062784  0.61898321  0.68331433  1
  F  F14  1  0.63859095  0.09644837  0.59250942  1
  F  F15  1  0.85937216  0.61898321  0.18331433  1
  F  F16  1  0.61487914  0.37833562  0.81258487  1
  F  F17  1  0.63859095  0.40355163  0.09250942  1
  F  F18  1  0.85937216  0.11898321  0.81668567  1
  F  F19  1  0.63859095  0.59644837  0.40749058  1
  F  F20  1  0.61487914  0.87833562  0.18741513  1
  F  F21  1  0.14062784  0.38101679  0.81668567  1
  F  F22  1  0.85937216  0.88101679  0.68331433  1
  F  F23  1  0.88815717  0.15008219  0.06501383  1
  F  F24  1  0.36140905  0.59644837  0.90749058  1
  F  F25  1  0.11184283  0.15008219  0.56501383  1
  F  F26  1  0.38512086  0.62166438  0.18741513  1
  F  F27  1  0.11184283  0.65008219  0.43498617  1
  F  F28  1  0.36140905  0.09644837  0.09250942  1
  F  F29  1  0.36140905  0.90355163  0.40749058  1
  F  F30  1  0.85937216  0.38101679  0.31668567  1
  F  F31  1  0.38512086  0.37833562  0.31258487  1
  F  F32  1  0.88815717  0.65008219  0.93498617  1
  F  F33  1  0.11184283  0.34991781  0.06501383  1
  F  F34  1  0.88815717  0.84991781  0.43498617  1
  F  F35  1  0.14062784  0.11898321  0.31668567  1
  F  F36  1  0.63859095  0.90355163  0.90749058  1
  F  F37  1  0.61487914  0.62166438  0.68741513  1
  F  F38  1  0.14062784  0.88101679  0.18331433  1
  F  F39  1  0.36140905  0.40355163  0.59250942  1
