# generated using pymatgen
data_NaLaS2
_symmetry_space_group_name_H-M   'P 1'
_cell_length_a   7.33126565
_cell_length_b   7.33126565
_cell_length_c   7.33126565
_cell_angle_alpha   133.45369756
_cell_angle_beta   133.45369756
_cell_angle_gamma   67.94253616
_symmetry_Int_Tables_number   1
_chemical_formula_structural   NaLaS2
_chemical_formula_sum   'Na2 La2 S4'
_cell_volume   204.06338793
_cell_formula_units_Z   2
loop_
 _symmetry_equiv_pos_site_id
 _symmetry_equiv_pos_as_xyz
  1  'x, y, z'
loop_
 _atom_site_type_symbol
 _atom_site_label
 _atom_site_symmetry_multiplicity
 _atom_site_fract_x
 _atom_site_fract_y
 _atom_site_fract_z
 _atom_site_occupancy
  Na  Na0  1  -0.00000000  -0.00000000  -0.00000000  1
  Na  Na1  1  0.75000000  0.25000000  0.50000000  1
  La  La2  1  0.25000000  0.75000000  0.50000000  1
  La  La3  1  0.50000000  0.50000000  -0.00000000  1
  S  S4  1  0.48692124  0.98692124  0.50000000  1
  S  S5  1  0.01307876  0.51307876  0.50000000  1
  S  S6  1  0.73692124  0.73692124  0.00000000  1
  S  S7  1  0.26307876  0.26307876  -0.00000000  1
