# generated using pymatgen
data_Rb2NbCuSe4
_symmetry_space_group_name_H-M   'P 1'
_cell_length_a   14.46854400
_cell_length_b   12.91482560
_cell_length_c   7.70575853
_cell_angle_alpha   85.14867078
_cell_angle_beta   62.79998488
_cell_angle_gamma   32.05134435
_symmetry_Int_Tables_number   1
_chemical_formula_structural   Rb2NbCuSe4
_chemical_formula_sum   'Rb4 Nb2 Cu2 Se8'
_cell_volume   521.26859519
_cell_formula_units_Z   2
loop_
 _symmetry_equiv_pos_site_id
 _symmetry_equiv_pos_as_xyz
  1  'x, y, z'
loop_
 _atom_site_type_symbol
 _atom_site_label
 _atom_site_symmetry_multiplicity
 _atom_site_fract_x
 _atom_site_fract_y
 _atom_site_fract_z
 _atom_site_occupancy
  Rb  Rb0  1  0.68025200  0.68002700  0.31508000  1
  Rb  Rb1  1  0.31972100  0.32487800  0.68471100  1
  Rb  Rb2  1  0.93826100  0.92035600  0.56434700  1
  Rb  Rb3  1  0.57036600  0.56882300  0.92620800  1
  Nb  Nb4  1  0.74188800  0.75726300  0.75255400  1
  Nb  Nb5  1  0.49533800  0.50353200  0.49797600  1
  Cu  Cu6  1  0.24488700  0.25182600  0.25685600  1
  Cu  Cu7  1  0.99709100  0.00383900  0.00780500  1
  Se  Se8  1  0.29774000  0.59519600  0.89520500  1
  Se  Se9  1  0.21205100  0.90220900  0.59237700  1
  Se  Se10  1  0.90158500  0.20593400  0.29976500  1
  Se  Se11  1  0.58536700  0.30121600  0.21859300  1
  Se  Se12  1  0.35693200  0.03048000  0.95039500  1
  Se  Se13  1  0.66702100  0.94454200  0.03380800  1
  Se  Se14  1  0.03763200  0.35217700  0.65228600  1
  Se  Se15  1  0.94845100  0.66090000  0.34810000  1
