# generated using pymatgen
data_Nd2(MoO4)3
_symmetry_space_group_name_H-M   'P 1'
_cell_length_a   6.93176007
_cell_length_b   6.93176007
_cell_length_c   11.82363065
_cell_angle_alpha   80.21265085
_cell_angle_beta   80.21265085
_cell_angle_gamma   114.36751309
_symmetry_Int_Tables_number   1
_chemical_formula_structural   Nd2(MoO4)3
_chemical_formula_sum   'Nd4 Mo6 O24'
_cell_volume   491.39056822
_cell_formula_units_Z   2
loop_
 _symmetry_equiv_pos_site_id
 _symmetry_equiv_pos_as_xyz
  1  'x, y, z'
loop_
 _atom_site_type_symbol
 _atom_site_label
 _atom_site_symmetry_multiplicity
 _atom_site_fract_x
 _atom_site_fract_y
 _atom_site_fract_z
 _atom_site_occupancy
  Nd  Nd0  1  0.79219457  0.54457852  0.41020397  1
  Nd  Nd1  1  0.45542148  0.20780543  0.08979603  1
  Nd  Nd2  1  0.20780543  0.45542148  0.58979603  1
  Nd  Nd3  1  0.54457852  0.79219457  0.91020397  1
  Mo  Mo4  1  0.37347829  0.62652171  0.25000000  1
  Mo  Mo5  1  0.03635842  0.28516702  0.92663873  1
  Mo  Mo6  1  0.62652171  0.37347829  0.75000000  1
  Mo  Mo7  1  0.71483298  0.96364158  0.57336127  1
  Mo  Mo8  1  0.28516702  0.03635842  0.42663873  1
  Mo  Mo9  1  0.96364158  0.71483298  0.07336127  1
  O  O10  1  0.17209166  0.58231415  0.38364529  1
  O  O11  1  0.62650959  0.70327487  0.28217673  1
  O  O12  1  0.41768585  0.82790834  0.11635471  1
  O  O13  1  0.07229873  0.97786913  0.09868350  1
  O  O14  1  0.83714565  0.28096522  0.04162569  1
  O  O15  1  0.92770127  0.02213087  0.90131650  1
  O  O16  1  0.30605725  0.39191648  0.95623450  1
  O  O17  1  0.06229885  0.45676616  0.79099118  1
  O  O18  1  0.58231415  0.17209166  0.88364529  1
  O  O19  1  0.37349041  0.29672513  0.71782327  1
  O  O20  1  0.70327487  0.62650959  0.78217673  1
  O  O21  1  0.54323384  0.93770115  0.70900882  1
  O  O22  1  0.82790834  0.41768585  0.61635471  1
  O  O23  1  0.60808352  0.69394275  0.54376550  1
  O  O24  1  0.97786913  0.07229873  0.59868350  1
  O  O25  1  0.71903478  0.16285435  0.45837431  1
  O  O26  1  0.28096522  0.83714565  0.54162569  1
  O  O27  1  0.02213087  0.92770127  0.40131650  1
  O  O28  1  0.39191648  0.30605725  0.45623450  1
  O  O29  1  0.45676616  0.06229885  0.29099118  1
  O  O30  1  0.29672513  0.37349041  0.21782327  1
  O  O31  1  0.93770115  0.54323384  0.20900882  1
  O  O32  1  0.69394275  0.60808352  0.04376550  1
  O  O33  1  0.16285435  0.71903478  0.95837431  1
