# generated using pymatgen
data_Pb13(Br3O5)2
_symmetry_space_group_name_H-M   'P 1'
_cell_length_a   9.03894085
_cell_length_b   9.03894085
_cell_length_c   24.18419331
_cell_angle_alpha   82.20044083
_cell_angle_beta   82.20044083
_cell_angle_gamma   47.53686279
_symmetry_Int_Tables_number   1
_chemical_formula_structural   Pb13(Br3O5)2
_chemical_formula_sum   'Pb26 Br12 O20'
_cell_volume   1441.53578829
_cell_formula_units_Z   2
loop_
 _symmetry_equiv_pos_site_id
 _symmetry_equiv_pos_as_xyz
  1  'x, y, z'
loop_
 _atom_site_type_symbol
 _atom_site_label
 _atom_site_symmetry_multiplicity
 _atom_site_fract_x
 _atom_site_fract_y
 _atom_site_fract_z
 _atom_site_occupancy
  Pb  Pb0  1  0.37078560  0.16226967  0.93809005  1
  Pb  Pb1  1  0.98759771  0.84600168  0.13198353  1
  Pb  Pb2  1  0.25679530  0.39000056  0.64960311  1
  Pb  Pb3  1  0.77736288  0.22263712  0.25000000  1
  Pb  Pb4  1  0.84600168  0.98759771  0.63198353  1
  Pb  Pb5  1  0.88951071  0.31988483  0.70729366  1
  Pb  Pb6  1  0.71290848  0.19234684  0.01117754  1
  Pb  Pb7  1  0.01240229  0.15399832  0.86801647  1
  Pb  Pb8  1  0.05846839  0.21162475  0.08182071  1
  Pb  Pb9  1  0.11048929  0.68011517  0.29270634  1
  Pb  Pb10  1  0.74320470  0.60999944  0.35039689  1
  Pb  Pb11  1  0.39000056  0.25679530  0.14960311  1
  Pb  Pb12  1  0.16226967  0.37078560  0.43809005  1
  Pb  Pb13  1  0.68011517  0.11048929  0.79270634  1
  Pb  Pb14  1  0.31988483  0.88951071  0.20729366  1
  Pb  Pb15  1  0.28709152  0.80765316  0.98882246  1
  Pb  Pb16  1  0.94153161  0.78837525  0.91817929  1
  Pb  Pb17  1  0.22263712  0.77736288  0.75000000  1
  Pb  Pb18  1  0.62921440  0.83773033  0.06190995  1
  Pb  Pb19  1  0.15399832  0.01240229  0.36801647  1
  Pb  Pb20  1  0.19234684  0.71290848  0.51117754  1
  Pb  Pb21  1  0.80765316  0.28709152  0.48882246  1
  Pb  Pb22  1  0.78837525  0.94153161  0.41817929  1
  Pb  Pb23  1  0.60999944  0.74320470  0.85039689  1
  Pb  Pb24  1  0.21162475  0.05846839  0.58182071  1
  Pb  Pb25  1  0.83773033  0.62921440  0.56190995  1
  Br  Br26  1  0.50189934  0.55918573  0.13221062  1
  Br  Br27  1  0.63980746  0.98729127  0.25195418  1
  Br  Br28  1  0.44081427  0.49810066  0.36778938  1
  Br  Br29  1  0.98729127  0.63980746  0.75195418  1
  Br  Br30  1  0.55918573  0.50189934  0.63221062  1
  Br  Br31  1  0.82167204  0.50049740  0.95995239  1
  Br  Br32  1  0.50049740  0.82167204  0.45995239  1
  Br  Br33  1  0.49950260  0.17832796  0.54004761  1
  Br  Br34  1  0.17832796  0.49950260  0.04004761  1
  Br  Br35  1  0.49810066  0.44081427  0.86778938  1
  Br  Br36  1  0.01270873  0.36019254  0.24804582  1
  Br  Br37  1  0.36019254  0.01270873  0.74804582  1
  O  O38  1  0.01639054  0.32720558  0.51830388  1
  O  O39  1  0.98360946  0.67279442  0.48169612  1
  O  O40  1  0.04707639  0.34310032  0.63461466  1
  O  O41  1  0.97144094  0.98213481  0.31696618  1
  O  O42  1  0.95292361  0.65689968  0.36538534  1
  O  O43  1  0.98213481  0.97144094  0.81696618  1
  O  O44  1  0.00010983  0.01831452  0.55827974  1
  O  O45  1  0.02855906  0.01786519  0.68303382  1
  O  O46  1  0.04820317  0.66948597  0.59795003  1
  O  O47  1  0.34310032  0.04707639  0.13461466  1
  O  O48  1  0.65689968  0.95292361  0.86538534  1
  O  O49  1  0.33051403  0.95179683  0.90204997  1
  O  O50  1  0.32720558  0.01639054  0.01830388  1
  O  O51  1  0.01786519  0.02855906  0.18303382  1
  O  O52  1  0.67279442  0.98360946  0.98169612  1
  O  O53  1  0.95179683  0.33051403  0.40204997  1
  O  O54  1  0.01831452  0.00010983  0.05827974  1
  O  O55  1  0.66948597  0.04820317  0.09795003  1
  O  O56  1  0.98168548  -0.00010983  0.94172026  1
  O  O57  1  -0.00010983  0.98168548  0.44172026  1
