# generated using pymatgen
data_Cr(Bi7O12)2
_symmetry_space_group_name_H-M   'P 1'
_cell_length_a   8.70123367
_cell_length_b   8.69012256
_cell_length_c   10.45985832
_cell_angle_alpha   114.03796017
_cell_angle_beta   114.23981248
_cell_angle_gamma   89.98730546
_symmetry_Int_Tables_number   1
_chemical_formula_structural   Cr(Bi7O12)2
_chemical_formula_sum   'Cr1 Bi14 O24'
_cell_volume   645.26170484
_cell_formula_units_Z   1
loop_
 _symmetry_equiv_pos_site_id
 _symmetry_equiv_pos_as_xyz
  1  'x, y, z'
loop_
 _atom_site_type_symbol
 _atom_site_label
 _atom_site_symmetry_multiplicity
 _atom_site_fract_x
 _atom_site_fract_y
 _atom_site_fract_z
 _atom_site_occupancy
  Cr  Cr0  1  0.02311478  0.02149834  0.03407386  1
  Bi  Bi1  1  0.05441800  0.87550294  0.33736409  1
  Bi  Bi2  1  0.53284752  0.94795858  0.66596227  1
  Bi  Bi3  1  0.66045879  0.65628707  0.32053378  1
  Bi  Bi4  1  0.12674718  0.73289390  0.67275395  1
  Bi  Bi5  1  0.55945789  0.79154525  0.00485058  1
  Bi  Bi6  1  0.27667973  0.47235971  0.34368845  1
  Bi  Bi7  1  0.71964039  0.54148952  0.66811583  1
  Bi  Bi8  1  0.21233347  0.56503073  0.00533683  1
  Bi  Bi9  1  0.87072397  0.28279196  0.33925844  1
  Bi  Bi10  1  0.33873861  0.34913257  0.68078126  1
  Bi  Bi11  1  0.78440095  0.43962974  -0.00172432  1
  Bi  Bi12  1  0.46531465  0.06515065  0.34201892  1
  Bi  Bi13  1  0.93985986  0.13362336  0.67031481  1
  Bi  Bi14  1  0.43469819  0.21238464  0.99823427  1
  O  O15  1  0.92096048  0.82551236  0.97010017  1
  O  O16  1  0.66593585  0.00454204  0.50430363  1
  O  O17  1  0.45423847  0.76750262  0.15971391  1
  O  O18  1  0.75797519  0.70285497  0.15882641  1
  O  O19  1  0.98956381  0.82558307  0.49376695  1
  O  O20  1  0.36991313  0.89469544  0.76346089  1
  O  O21  1  0.11829893  0.62506499  0.24171135  1
  O  O22  1  0.49511041  0.67332762  0.49731147  1
  O  O23  1  0.39238900  0.46020736  0.15988440  1
  O  O24  1  0.69754652  0.40017051  0.15883722  1
  O  O25  1  0.18052031  0.51507931  0.52064326  1
  O  O26  1  0.81386186  0.49999209  0.48811083  1
  O  O27  1  0.30075778  0.61140105  0.84748893  1
  O  O28  1  0.59804492  0.54598364  0.84116171  1
  O  O29  1  0.88782471  0.13824687  0.97235730  1
  O  O30  1  0.50007121  0.33785449  0.51479973  1
  O  O31  1  0.87738449  0.38408307  0.76381359  1
  O  O32  1  0.62494232  0.11960389  0.24282162  1
  O  O33  1  0.11425244  0.11088090  0.22825517  1
  O  O34  1  -0.00015191  0.18077502  0.51269941  1
  O  O35  1  0.23358207  0.30557749  0.84712864  1
  O  O36  1  0.53902137  0.24250475  0.84056649  1
  O  O37  1  0.32966871  0.00640533  0.50662063  1
  O  O38  1  0.17655191  0.01357319  0.97745428  1
