# generated using pymatgen
data_Ho3Se3N
_symmetry_space_group_name_H-M   'P 1'
_cell_length_a   7.65622822
_cell_length_b   7.65622822
_cell_length_c   12.50163631
_cell_angle_alpha   72.98344540
_cell_angle_beta   72.98344540
_cell_angle_gamma   82.39269855
_symmetry_Int_Tables_number   1
_chemical_formula_structural   Ho3Se3N
_chemical_formula_sum   'Ho12 Se12 N4'
_cell_volume   669.18209647
_cell_formula_units_Z   4
loop_
 _symmetry_equiv_pos_site_id
 _symmetry_equiv_pos_as_xyz
  1  'x, y, z'
loop_
 _atom_site_type_symbol
 _atom_site_label
 _atom_site_symmetry_multiplicity
 _atom_site_fract_x
 _atom_site_fract_y
 _atom_site_fract_z
 _atom_site_occupancy
  Ho  Ho0  1  0.75184842  0.60919880  0.61274505  1
  Ho  Ho1  1  0.06298392  0.78729377  0.12292075  1
  Ho  Ho2  1  0.21270623  0.93701608  0.37707925  1
  Ho  Ho3  1  0.65997397  0.97872387  0.38283933  1
  Ho  Ho4  1  0.93701608  0.21270623  0.87707925  1
  Ho  Ho5  1  0.39080120  0.24815158  0.88725495  1
  Ho  Ho6  1  0.78729377  0.06298392  0.62292075  1
  Ho  Ho7  1  0.60919880  0.75184842  0.11274505  1
  Ho  Ho8  1  0.02127613  0.34002603  0.11716067  1
  Ho  Ho9  1  0.24815158  0.39080120  0.38725495  1
  Ho  Ho10  1  0.97872387  0.65997397  0.88283933  1
  Ho  Ho11  1  0.34002603  0.02127613  0.61716067  1
  Se  Se12  1  0.92671500  0.21796372  0.37317864  1
  Se  Se13  1  0.33415692  0.50519257  0.14106307  1
  Se  Se14  1  0.50519257  0.33415692  0.64106307  1
  Se  Se15  1  0.69346030  0.95907919  0.87209990  1
  Se  Se16  1  0.21796372  0.92671500  0.87317864  1
  Se  Se17  1  0.07328500  0.78203628  0.62682136  1
  Se  Se18  1  0.04092081  0.30653970  0.62790010  1
  Se  Se19  1  0.78203628  0.07328500  0.12682136  1
  Se  Se20  1  0.30653970  0.04092081  0.12790010  1
  Se  Se21  1  0.66584308  0.49480743  0.85893693  1
  Se  Se22  1  0.95907919  0.69346030  0.37209990  1
  Se  Se23  1  0.49480743  0.66584308  0.35893693  1
  N  N24  1  0.10951888  0.37532622  0.92411220  1
  N  N25  1  0.62467378  0.89048112  0.57588780  1
  N  N26  1  0.37532622  0.10951888  0.42411220  1
  N  N27  1  0.89048112  0.62467378  0.07588780  1
