# generated using pymatgen
data_Cs4Re6Se13
_symmetry_space_group_name_H-M   'P 1'
_cell_length_a   10.41762579
_cell_length_b   10.41762579
_cell_length_c   14.37796884
_cell_angle_alpha   84.59897571
_cell_angle_beta   84.59897571
_cell_angle_gamma   119.87973593
_symmetry_Int_Tables_number   1
_chemical_formula_structural   Cs4Re6Se13
_chemical_formula_sum   'Cs8 Re12 Se26'
_cell_volume   1328.87610690
_cell_formula_units_Z   2
loop_
 _symmetry_equiv_pos_site_id
 _symmetry_equiv_pos_as_xyz
  1  'x, y, z'
loop_
 _atom_site_type_symbol
 _atom_site_label
 _atom_site_symmetry_multiplicity
 _atom_site_fract_x
 _atom_site_fract_y
 _atom_site_fract_z
 _atom_site_occupancy
  Cs  Cs0  1  0.33725663  0.09660093  0.58196562  1
  Cs  Cs1  1  0.09660093  0.33725663  0.08196562  1
  Cs  Cs2  1  0.27972721  0.31803435  0.77814628  1
  Cs  Cs3  1  0.31803435  0.27972721  0.27814628  1
  Cs  Cs4  1  0.66274337  0.90339907  0.41803438  1
  Cs  Cs5  1  0.90339907  0.66274337  0.91803438  1
  Cs  Cs6  1  0.68196565  0.72027279  0.72185372  1
  Cs  Cs7  1  0.72027279  0.68196565  0.22185372  1
  Re  Re8  1  0.68388783  0.00655111  0.97792734  1
  Re  Re9  1  0.41838847  0.85178724  0.92509806  1
  Re  Re10  1  0.31611217  0.99344889  0.02207266  1
  Re  Re11  1  0.58161153  0.14821276  0.07490194  1
  Re  Re12  1  0.85178724  0.41838847  0.42509806  1
  Re  Re13  1  0.14821276  0.58161153  0.57490194  1
  Re  Re14  1  0.00655111  0.68388783  0.47792734  1
  Re  Re15  1  0.14830207  0.56180779  0.39341032  1
  Re  Re16  1  0.99344889  0.31611217  0.52207266  1
  Re  Re17  1  0.85169793  0.43819221  0.60658968  1
  Re  Re18  1  0.56180779  0.14830207  0.89341032  1
  Re  Re19  1  0.43819221  0.85169793  0.10658968  1
  Se  Se20  1  0.18725531  0.71045988  0.05361897  1
  Se  Se21  1  0.69613002  0.00985536  0.15280510  1
  Se  Se22  1  0.34379366  0.99189861  0.19559731  1
  Se  Se23  1  0.71045988  0.18725531  0.55361897  1
  Se  Se24  1  0.63980693  0.36019307  0.75000000  1
  Se  Se25  1  0.46073617  0.27961197  0.99290494  1
  Se  Se26  1  0.65620634  0.00810139  0.80440269  1
  Se  Se27  1  0.28954012  0.81274469  0.44638103  1
  Se  Se28  1  0.00985536  0.69613002  0.65280510  1
  Se  Se29  1  0.94941745  0.02807900  0.93228706  1
  Se  Se30  1  0.72714010  0.36420879  0.16668450  1
  Se  Se31  1  0.05058255  0.97192100  0.06771294  1
  Se  Se32  1  0.72038803  0.53926383  0.50709506  1
  Se  Se33  1  0.30386998  0.99014464  0.84719490  1
  Se  Se34  1  0.81274469  0.28954012  0.94638103  1
  Se  Se35  1  0.00810139  0.65620634  0.30440269  1
  Se  Se36  1  0.36420879  0.72714010  0.66668450  1
  Se  Se37  1  0.36019307  0.63980693  0.25000000  1
  Se  Se38  1  0.99189861  0.34379366  0.69559731  1
  Se  Se39  1  0.27961197  0.46073617  0.49290494  1
  Se  Se40  1  0.53926383  0.72038803  0.00709506  1
  Se  Se41  1  0.27285990  0.63579121  0.83331550  1
  Se  Se42  1  0.02807900  0.94941745  0.43228706  1
  Se  Se43  1  0.63579121  0.27285990  0.33331550  1
  Se  Se44  1  0.97192100  0.05058255  0.56771294  1
  Se  Se45  1  0.99014464  0.30386998  0.34719490  1
