# generated using pymatgen
data_Y(HO)3
_symmetry_space_group_name_H-M   'P 1'
_cell_length_a   3.48443100
_cell_length_b   6.36691200
_cell_length_c   6.46275057
_cell_angle_alpha   61.67944559
_cell_angle_beta   90.00000000
_cell_angle_gamma   90.00000000
_symmetry_Int_Tables_number   1
_chemical_formula_structural   Y(HO)3
_chemical_formula_sum   'Y2 H6 O6'
_cell_volume   126.21540802
_cell_formula_units_Z   2
loop_
 _symmetry_equiv_pos_site_id
 _symmetry_equiv_pos_as_xyz
  1  'x, y, z'
loop_
 _atom_site_type_symbol
 _atom_site_label
 _atom_site_symmetry_multiplicity
 _atom_site_fract_x
 _atom_site_fract_y
 _atom_site_fract_z
 _atom_site_occupancy
  Y  Y0  1  0.50000000  0.34065300  0.32251400  1
  Y  Y1  1  0.00000000  0.65156900  0.67158700  1
  H  H2  1  0.50000000  0.84660300  0.86128400  1
  H  H3  1  0.50000000  0.26156200  0.86550600  1
  H  H4  1  0.50000000  0.85419500  0.30564300  1
  H  H5  1  0.00000000  0.13117900  0.14032800  1
  H  H6  1  0.00000000  0.72969900  0.12925900  1
  H  H7  1  0.00000000  0.13915200  0.69155900  1
  O  O8  1  0.50000000  0.89965600  0.69305300  1
  O  O9  1  0.50000000  0.38533400  0.91310300  1
  O  O10  1  0.50000000  0.68185600  0.40507900  1
  O  O11  1  0.00000000  0.08853900  0.30611900  1
  O  O12  1  0.00000000  0.60541900  0.08232900  1
  O  O13  1  0.00000000  0.31092800  0.58898200  1
