# generated using pymatgen
data_Na2TiFe(PO4)3
_symmetry_space_group_name_H-M   'P 1'
_cell_length_a   8.65004418
_cell_length_b   8.65004418
_cell_length_c   8.73773066
_cell_angle_alpha   60.21551434
_cell_angle_beta   60.21551434
_cell_angle_gamma   60.11186803
_symmetry_Int_Tables_number   1
_chemical_formula_structural   Na2TiFe(PO4)3
_chemical_formula_sum   'Na4 Ti2 Fe2 P6 O24'
_cell_volume   464.18977430
_cell_formula_units_Z   2
loop_
 _symmetry_equiv_pos_site_id
 _symmetry_equiv_pos_as_xyz
  1  'x, y, z'
loop_
 _atom_site_type_symbol
 _atom_site_label
 _atom_site_symmetry_multiplicity
 _atom_site_fract_x
 _atom_site_fract_y
 _atom_site_fract_z
 _atom_site_occupancy
  Na  Na0  1  0.99481041  0.48443191  0.75027568  1
  Na  Na1  1  0.51556809  0.00518959  0.24972432  1
  Na  Na2  1  0.24995707  0.38376970  0.99051048  1
  Na  Na3  1  0.61623030  0.75004293  0.00948952  1
  Ti  Ti4  1  0.13950052  0.64344024  0.32248297  1
  Ti  Ti5  1  0.35655976  0.86049948  0.67751703  1
  Fe  Fe6  1  0.65337386  0.14710412  0.80567623  1
  Fe  Fe7  1  0.85289588  0.34662614  0.19432377  1
  P  P8  1  0.74932068  0.95145053  0.51307508  1
  P  P9  1  0.04854947  0.25067932  0.48692492  1
  P  P10  1  0.45772585  0.54227415  0.50000000  1
  P  P11  1  0.53922383  0.46077617  0.00000000  1
  P  P12  1  0.95802473  0.75538039  0.00078967  1
  P  P13  1  0.24461961  0.04197527  -0.00078967  1
  O  O14  1  0.29814368  0.00355700  0.82296968  1
  O  O15  1  0.50047564  0.63160724  0.82751999  1
  O  O16  1  0.91906686  0.77018844  0.49453504  1
  O  O17  1  0.12865752  0.79863872  0.83018142  1
  O  O18  1  0.79090207  0.12385670  0.34918011  1
  O  O19  1  0.58293151  0.93338033  0.51014359  1
  O  O20  1  0.06661967  0.41706849  0.48985641  1
  O  O21  1  0.22981156  0.08093314  0.50546496  1
  O  O22  1  0.43164260  0.72457751  0.51420906  1
  O  O23  1  0.36839276  0.49952436  0.17248001  1
  O  O24  1  0.71850555  0.44596938  0.00746251  1
  O  O25  1  -0.00355700  0.70185632  0.17703032  1
  O  O26  1  0.03526928  0.29650613  0.30037412  1
  O  O27  1  0.27542249  0.56835740  0.48579094  1
  O  O28  1  0.62503811  0.51763137  0.32261609  1
  O  O29  1  0.55403062  0.28149445  0.99253749  1
  O  O30  1  0.77360332  0.92077206  0.99846176  1
  O  O31  1  0.94104890  0.58836120  0.99750326  1
  O  O32  1  0.41163880  0.05895110  0.00249674  1
  O  O33  1  0.20136128  0.87134248  0.16981858  1
  O  O34  1  0.87614330  0.20909793  0.65081989  1
  O  O35  1  0.07922794  0.22639668  0.00153824  1
  O  O36  1  0.48236863  0.37496189  0.67738391  1
  O  O37  1  0.70349387  0.96473072  0.69962588  1
