# generated using pymatgen
data_Zr2N2O
_symmetry_space_group_name_H-M   'P 1'
_cell_length_a   8.77752984
_cell_length_b   8.80357151
_cell_length_c   8.79062729
_cell_angle_alpha   109.36965941
_cell_angle_beta   109.44062823
_cell_angle_gamma   109.58549709
_symmetry_Int_Tables_number   1
_chemical_formula_structural   Zr2N2O
_chemical_formula_sum   'Zr16 N16 O8'
_cell_volume   523.02658782
_cell_formula_units_Z   8
loop_
 _symmetry_equiv_pos_site_id
 _symmetry_equiv_pos_as_xyz
  1  'x, y, z'
loop_
 _atom_site_type_symbol
 _atom_site_label
 _atom_site_symmetry_multiplicity
 _atom_site_fract_x
 _atom_site_fract_y
 _atom_site_fract_z
 _atom_site_occupancy
  Zr  Zr0  1  0.21881673  0.75919475  0.97094320  1
  Zr  Zr1  1  0.98817577  0.48988931  0.48204955  1
  Zr  Zr2  1  0.03037372  0.77799816  0.25192734  1
  Zr  Zr3  1  0.24392667  0.03936072  0.78038146  1
  Zr  Zr4  1  0.46525729  0.71572303  0.75626237  1
  Zr  Zr5  1  0.25198876  0.53219057  0.29139586  1
  Zr  Zr6  1  0.50732377  0.01796578  0.50982465  1
  Zr  Zr7  1  0.99782639  0.98786258  0.99054417  1
  Zr  Zr8  1  0.28214770  0.24886109  0.53439073  1
  Zr  Zr9  1  0.71735607  0.74918347  0.46031926  1
  Zr  Zr10  1  0.49669130  0.50534023  0.00988446  1
  Zr  Zr11  1  0.75568038  0.46930922  0.71733215  1
  Zr  Zr12  1  0.74306671  0.96201846  0.21103836  1
  Zr  Zr13  1  0.53564978  0.28656053  0.25830744  1
  Zr  Zr14  1  0.96003700  0.20511374  0.74020591  1
  Zr  Zr15  1  0.78431269  0.24610543  0.03210822  1
  N  N16  1  0.25730112  0.98104891  0.53117440  1
  N  N17  1  0.23017341  0.27484426  0.76208703  1
  N  N18  1  0.23146957  0.45707701  0.48987846  1
  N  N19  1  0.72663539  0.96347030  0.94919173  1
  N  N20  1  0.46333813  0.73465516  0.00747304  1
  N  N21  1  0.45244904  0.48774692  0.22542662  1
  N  N22  1  0.27397937  0.03032991  0.04228845  1
  N  N23  1  0.48735087  0.22974655  0.45860099  1
  N  N24  1  0.95668906  0.72825567  0.96989511  1
  N  N25  1  0.73043881  0.24153757  0.77395894  1
  N  N26  1  0.96754103  0.95903868  0.73114524  1
  N  N27  1  0.77887406  0.54898922  0.51642486  1
  N  N28  1  0.77300223  0.72809343  0.23810194  1
  N  N29  1  0.73815442  0.01230004  0.46736510  1
  N  N30  1  0.76037765  0.22854053  0.27163711  1
  N  N31  1  0.99114183  0.53042768  0.25762574  1
  O  O32  1  0.01448500  0.46982013  0.74014570  1
  O  O33  1  0.24089187  0.77098367  0.73030998  1
  O  O34  1  0.03474008  0.04879361  0.27317707  1
  O  O35  1  0.04619582  0.27166549  0.03781486  1
  O  O36  1  0.27747142  0.76103786  0.22730363  1
  O  O37  1  0.50535880  0.77147355  0.54114561  1
  O  O38  1  0.54716359  0.51369375  0.77303127  1
  O  O39  1  0.53614771  0.26375004  0.98787898  1
