# generated using pymatgen
data_PSeCl9
_symmetry_space_group_name_H-M   'P 1'
_cell_length_a   11.95548166
_cell_length_b   11.95557654
_cell_length_c   11.95528101
_cell_angle_alpha   120.34732498
_cell_angle_beta   119.16300059
_cell_angle_gamma   90.42864361
_symmetry_Int_Tables_number   1
_chemical_formula_structural   PSeCl9
_chemical_formula_sum   'P4 Se4 Cl36'
_cell_volume   1212.58504167
_cell_formula_units_Z   4
loop_
 _symmetry_equiv_pos_site_id
 _symmetry_equiv_pos_as_xyz
  1  'x, y, z'
loop_
 _atom_site_type_symbol
 _atom_site_label
 _atom_site_symmetry_multiplicity
 _atom_site_fract_x
 _atom_site_fract_y
 _atom_site_fract_z
 _atom_site_occupancy
  P  P0  1  0.78759313  0.52337341  0.28356742  1
  P  P1  1  0.21237775  0.49595298  0.73575053  1
  P  P2  1  0.26019711  0.99598081  0.28357790  1
  P  P3  1  0.73979965  0.02339182  0.73577631  1
  Se  Se4  1  0.77667841  0.54835239  0.82502783  1
  Se  Se5  1  0.22336667  0.04828426  0.77165270  1
  Se  Se6  1  0.64674977  0.97563456  0.12239556  1
  Se  Se7  1  0.35326120  0.47569764  0.32894235  1
  Cl  Cl8  1  0.43434135  0.93992010  0.87426713  1
  Cl  Cl9  1  0.85723561  0.36970748  0.72694333  1
  Cl  Cl10  1  0.77272718  0.68355959  0.28014511  1
  Cl  Cl11  1  0.63979605  0.40251051  0.82747439  1
  Cl  Cl12  1  0.16377436  0.48663062  0.15039300  1
  Cl  Cl13  1  0.32748850  0.22816387  0.05564851  1
  Cl  Cl14  1  0.70377820  0.98101991  0.53821488  1
  Cl  Cl15  1  0.62176379  0.36942958  0.10320262  1
  Cl  Cl16  1  0.62267222  0.15709503  0.27978420  1
  Cl  Cl17  1  0.76620371  0.86943198  0.74766179  1
  Cl  Cl18  1  0.36022422  0.18763694  0.76270077  1
  Cl  Cl19  1  0.37733099  0.65713011  0.53445578  1
  Cl  Cl20  1  0.83622551  0.98657351  0.32281174  1
  Cl  Cl21  1  0.58515628  0.06171418  0.74379762  1
  Cl  Cl22  1  0.37822244  0.48145396  0.74764651  1
  Cl  Cl23  1  0.07505608  0.90247700  0.76270469  1
  Cl  Cl24  1  0.20490788  0.32968638  0.32011145  1
  Cl  Cl25  1  0.90340150  0.18355995  0.91084091  1
  Cl  Cl26  1  0.06414741  0.13983767  0.70397905  1
  Cl  Cl27  1  0.22727285  0.50741832  0.91082012  1
  Cl  Cl28  1  0.67252189  0.72819977  0.90072123  1
  Cl  Cl29  1  0.94279094  0.48099717  0.27724525  1
  Cl  Cl30  1  0.29625535  0.83445590  0.27724863  1
  Cl  Cl31  1  0.05719056  0.33441966  0.53818026  1
  Cl  Cl32  1  0.93587402  0.63989350  0.07576763  1
  Cl  Cl33  1  0.50956766  0.82964214  0.12473775  1
  Cl  Cl34  1  0.18206628  0.65862161  0.74377507  1
  Cl  Cl35  1  0.14277588  0.86966024  0.51243746  1
  Cl  Cl36  1  0.79509559  0.11517464  0.12474953  1
  Cl  Cl37  1  0.92495428  0.68767604  0.82747090  1
  Cl  Cl38  1  0.81787989  0.56171279  0.47653826  1
  Cl  Cl39  1  0.09658598  0.00741368  0.28014501  1
  Cl  Cl40  1  0.41482102  0.15866340  0.47653959  1
  Cl  Cl41  1  0.49043965  0.61521685  0.32011596  1
  Cl  Cl42  1  0.56565869  0.43998593  0.50563616  1
  Cl  Cl43  1  0.23377247  0.98144413  0.10320109  1
