# generated using pymatgen
data_Rb3ZnH5
_symmetry_space_group_name_H-M   'P 1'
_cell_length_a   8.02936653
_cell_length_b   8.02936653
_cell_length_c   8.02936653
_cell_angle_alpha   121.51475264
_cell_angle_beta   121.51475264
_cell_angle_gamma   87.39580242
_symmetry_Int_Tables_number   1
_chemical_formula_structural   Rb3ZnH5
_chemical_formula_sum   'Rb6 Zn2 H10'
_cell_volume   357.25851235
_cell_formula_units_Z   2
loop_
 _symmetry_equiv_pos_site_id
 _symmetry_equiv_pos_as_xyz
  1  'x, y, z'
loop_
 _atom_site_type_symbol
 _atom_site_label
 _atom_site_symmetry_multiplicity
 _atom_site_fract_x
 _atom_site_fract_y
 _atom_site_fract_z
 _atom_site_occupancy
  Rb  Rb0  1  0.17979946  0.67979946  0.85959792  1
  Rb  Rb1  1  0.82020054  0.32020054  0.14040208  1
  Rb  Rb2  1  0.67979946  0.82020054  0.50000000  1
  Rb  Rb3  1  0.32020054  0.17979946  0.50000000  1
  Rb  Rb4  1  0.25000000  0.25000000  0.00000000  1
  Rb  Rb5  1  0.75000000  0.75000000  0.00000000  1
  Zn  Zn6  1  0.25000000  0.75000000  0.50000000  1
  Zn  Zn7  1  0.75000000  0.25000000  0.50000000  1
  H  H8  1  0.45411803  0.95411803  0.73993943  1
  H  H9  1  0.21417861  0.71417861  0.26006057  1
  H  H10  1  0.95411803  0.21417861  0.50000000  1
  H  H11  1  0.71417861  0.45411803  0.50000000  1
  H  H12  1  0.54588197  0.04588197  0.26006057  1
  H  H13  1  0.78582139  0.28582139  0.73993943  1
  H  H14  1  0.04588197  0.78582139  0.50000000  1
  H  H15  1  0.28582139  0.54588197  0.50000000  1
  H  H16  1  0.50000000  0.50000000  0.00000000  1
  H  H17  1  0.00000000  -0.00000000  0.00000000  1
