# generated using pymatgen
data_Ca3Cr2(SiO4)3
_symmetry_space_group_name_H-M   'P 1'
_cell_length_a   10.40490778
_cell_length_b   10.40490778
_cell_length_c   10.40490778
_cell_angle_alpha   109.47122063
_cell_angle_beta   109.47122063
_cell_angle_gamma   109.47122063
_symmetry_Int_Tables_number   1
_chemical_formula_structural   Ca3Cr2(SiO4)3
_chemical_formula_sum   'Ca12 Cr8 Si12 O48'
_cell_volume   867.14717948
_cell_formula_units_Z   4
loop_
 _symmetry_equiv_pos_site_id
 _symmetry_equiv_pos_as_xyz
  1  'x, y, z'
loop_
 _atom_site_type_symbol
 _atom_site_label
 _atom_site_symmetry_multiplicity
 _atom_site_fract_x
 _atom_site_fract_y
 _atom_site_fract_z
 _atom_site_occupancy
  Ca  Ca0  1  0.25000000  0.37500000  0.12500000  1
  Ca  Ca1  1  0.75000000  0.12500000  0.37500000  1
  Ca  Ca2  1  0.37500000  0.12500000  0.25000000  1
  Ca  Ca3  1  0.12500000  0.37500000  0.75000000  1
  Ca  Ca4  1  0.25000000  0.87500000  0.62500000  1
  Ca  Ca5  1  0.12500000  0.25000000  0.37500000  1
  Ca  Ca6  1  0.62500000  0.25000000  0.87500000  1
  Ca  Ca7  1  0.75000000  0.62500000  0.87500000  1
  Ca  Ca8  1  0.87500000  0.75000000  0.62500000  1
  Ca  Ca9  1  0.87500000  0.62500000  0.25000000  1
  Ca  Ca10  1  0.62500000  0.87500000  0.75000000  1
  Ca  Ca11  1  0.37500000  0.75000000  0.12500000  1
  Cr  Cr12  1  0.50000000  -0.00000000  0.00000000  1
  Cr  Cr13  1  0.50000000  0.50000000  0.00000000  1
  Cr  Cr14  1  -0.00000000  0.50000000  0.50000000  1
  Cr  Cr15  1  -0.00000000  -0.00000000  0.50000000  1
  Cr  Cr16  1  0.50000000  0.50000000  0.50000000  1
  Cr  Cr17  1  -0.00000000  0.50000000  0.00000000  1
  Cr  Cr18  1  0.50000000  -0.00000000  0.50000000  1
  Cr  Cr19  1  -0.00000000  -0.00000000  0.00000000  1
  Si  Si20  1  0.12500000  0.75000000  0.87500000  1
  Si  Si21  1  0.87500000  0.25000000  0.12500000  1
  Si  Si22  1  0.75000000  0.37500000  0.62500000  1
  Si  Si23  1  0.12500000  0.87500000  0.25000000  1
  Si  Si24  1  0.25000000  0.12500000  0.87500000  1
  Si  Si25  1  0.37500000  0.62500000  0.75000000  1
  Si  Si26  1  0.37500000  0.25000000  0.62500000  1
  Si  Si27  1  0.87500000  0.12500000  0.75000000  1
  Si  Si28  1  0.62500000  0.37500000  0.25000000  1
  Si  Si29  1  0.75000000  0.87500000  0.12500000  1
  Si  Si30  1  0.25000000  0.62500000  0.37500000  1
  Si  Si31  1  0.62500000  0.75000000  0.37500000  1
  O  O32  1  0.58699890  0.89332665  0.38488779  1
  O  O33  1  0.38488779  0.58699890  0.89332665  1
  O  O34  1  0.29788889  0.30632775  0.91300110  1
  O  O35  1  0.49156115  0.60667335  0.19367225  1
  O  O36  1  0.30632775  0.89332665  0.00843885  1
  O  O37  1  0.11511221  0.00843885  0.20211111  1
  O  O38  1  0.38488779  0.29788889  0.49156115  1
  O  O39  1  0.89332665  0.38488779  0.58699890  1
  O  O40  1  0.19367225  0.20211111  0.58699890  1
  O  O41  1  0.49156115  0.38488779  0.29788889  1
  O  O42  1  0.89332665  0.00843885  0.30632775  1
  O  O43  1  0.60667335  0.91300110  0.11511221  1
  O  O44  1  0.91300110  0.11511221  0.60667335  1
  O  O45  1  0.29788889  0.49156115  0.38488779  1
  O  O46  1  0.58699890  0.19367225  0.20211111  1
  O  O47  1  0.20211111  0.58699890  0.19367225  1
  O  O48  1  0.00843885  0.30632775  0.89332665  1
  O  O49  1  0.91300110  0.29788889  0.30632775  1
  O  O50  1  0.00843885  0.20211111  0.11511221  1
  O  O51  1  0.80632775  0.79788889  0.41300110  1
  O  O52  1  0.19367225  0.49156115  0.60667335  1
  O  O53  1  0.60667335  0.19367225  0.49156115  1
  O  O54  1  0.20211111  0.11511221  0.00843885  1
  O  O55  1  0.11511221  0.60667335  0.91300110  1
  O  O56  1  0.41300110  0.10667335  0.61511221  1
  O  O57  1  0.61511221  0.41300110  0.10667335  1
  O  O58  1  0.70211111  0.69367225  0.08699890  1
  O  O59  1  0.50843885  0.39332665  0.80632775  1
  O  O60  1  0.69367225  0.10667335  0.99156115  1
  O  O61  1  0.88488779  0.99156115  0.79788889  1
  O  O62  1  0.61511221  0.70211111  0.50843885  1
  O  O63  1  0.10667335  0.61511221  0.41300110  1
  O  O64  1  0.88488779  0.39332665  0.08699890  1
  O  O65  1  0.79788889  0.88488779  0.99156115  1
  O  O66  1  0.39332665  0.80632775  0.50843885  1
  O  O67  1  0.69367225  0.08699890  0.70211111  1
  O  O68  1  0.80632775  0.50843885  0.39332665  1
  O  O69  1  0.99156115  0.79788889  0.88488779  1
  O  O70  1  0.08699890  0.70211111  0.69367225  1
  O  O71  1  0.99156115  0.69367225  0.10667335  1
  O  O72  1  0.79788889  0.41300110  0.80632775  1
  O  O73  1  0.41300110  0.80632775  0.79788889  1
  O  O74  1  0.70211111  0.50843885  0.61511221  1
  O  O75  1  0.08699890  0.88488779  0.39332665  1
  O  O76  1  0.39332665  0.08699890  0.88488779  1
  O  O77  1  0.10667335  0.99156115  0.69367225  1
  O  O78  1  0.50843885  0.61511221  0.70211111  1
  O  O79  1  0.30632775  0.91300110  0.29788889  1
