# generated using pymatgen
data_K3Gd3(PS4)4
_symmetry_space_group_name_H-M   'P 1'
_cell_length_a   10.03223006
_cell_length_b   10.03222982
_cell_length_c   14.74725913
_cell_angle_alpha   89.22925574
_cell_angle_beta   89.22925576
_cell_angle_gamma   72.01229974
_symmetry_Int_Tables_number   1
_chemical_formula_structural   K3Gd3(PS4)4
_chemical_formula_sum   'K6 Gd6 P8 S32'
_cell_volume   1411.50630799
_cell_formula_units_Z   2
loop_
 _symmetry_equiv_pos_site_id
 _symmetry_equiv_pos_as_xyz
  1  'x, y, z'
loop_
 _atom_site_type_symbol
 _atom_site_label
 _atom_site_symmetry_multiplicity
 _atom_site_fract_x
 _atom_site_fract_y
 _atom_site_fract_z
 _atom_site_occupancy
  K  K0  1  0.02814951  0.38751816  0.16307916  1
  K  K1  1  0.61248184  0.97185049  0.33692084  1
  K  K2  1  0.38751816  0.02814951  0.66307916  1
  K  K3  1  0.00000000  0.00000000  0.00000000  1
  K  K4  1  0.97185049  0.61248184  0.83692084  1
  K  K5  1  0.00000000  0.00000000  0.50000000  1
  Gd  Gd6  1  0.25358987  0.48555554  0.51180467  1
  Gd  Gd7  1  0.74641013  0.51444446  0.48819533  1
  Gd  Gd8  1  0.48555554  0.25358987  0.01180467  1
  Gd  Gd9  1  0.24922104  0.75077896  0.25000000  1
  Gd  Gd10  1  0.75077896  0.24922104  0.75000000  1
  Gd  Gd11  1  0.51444446  0.74641013  0.98819533  1
  P  P12  1  0.23731716  0.60136968  0.02336474  1
  P  P13  1  0.76268284  0.39863032  0.97663526  1
  P  P14  1  0.39863032  0.76268284  0.47663526  1
  P  P15  1  0.96132427  0.66823156  0.36142088  1
  P  P16  1  0.66823156  0.96132427  0.86142088  1
  P  P17  1  0.60136968  0.23731716  0.52336474  1
  P  P18  1  0.03867573  0.33176844  0.63857912  1
  P  P19  1  0.33176844  0.03867573  0.13857912  1
  S  S20  1  0.27017501  0.74050706  0.58128322  1
  S  S21  1  0.32155117  0.05272541  0.99964031  1
  S  S22  1  0.84344872  0.47214424  0.67111733  1
  S  S23  1  0.05272541  0.32155117  0.49964031  1
  S  S24  1  0.72982499  0.25949294  0.41871678  1
  S  S25  1  0.14382573  0.03912011  0.19455773  1
  S  S26  1  0.52785576  0.15655128  0.82888267  1
  S  S27  1  0.29693860  0.92398753  0.39263424  1
  S  S28  1  0.96087989  0.85617427  0.30544227  1
  S  S29  1  0.15655128  0.52785576  0.32888267  1
  S  S30  1  0.40184071  0.19447442  0.18702030  1
  S  S31  1  0.41577984  0.54542159  0.10416803  1
  S  S32  1  0.45457841  0.58422016  0.39583197  1
  S  S33  1  0.85617427  0.96087989  0.80544227  1
  S  S34  1  0.25949295  0.72982499  0.91871678  1
  S  S35  1  0.70306140  0.07601247  0.60736576  1
  S  S36  1  0.94727459  0.67844883  0.50035969  1
  S  S37  1  0.67844883  0.94727459  0.00035969  1
  S  S38  1  0.92398753  0.29693860  0.89263424  1
  S  S39  1  0.80552558  0.59815929  0.31297970  1
  S  S40  1  0.21189065  0.42070456  0.97429832  1
  S  S41  1  0.57929544  0.78810935  0.52570168  1
  S  S42  1  0.07601247  0.70306140  0.10736576  1
  S  S43  1  0.42070456  0.21189065  0.47429832  1
  S  S44  1  0.03912011  0.14382573  0.69455773  1
  S  S45  1  0.59815929  0.80552558  0.81297970  1
  S  S46  1  0.58422016  0.45457841  0.89583197  1
  S  S47  1  0.54542159  0.41577984  0.60416803  1
  S  S48  1  0.47214424  0.84344872  0.17111733  1
  S  S49  1  0.74050705  0.27017501  0.08128322  1
  S  S50  1  0.78810935  0.57929544  0.02570168  1
  S  S51  1  0.19447442  0.40184071  0.68702030  1
