# generated using pymatgen
data_Te3(PdBr)4
_symmetry_space_group_name_H-M   'P 1'
_cell_length_a   8.57746784
_cell_length_b   8.70043390
_cell_length_c   8.96617955
_cell_angle_alpha   108.25750792
_cell_angle_beta   98.09550052
_cell_angle_gamma   89.08318201
_symmetry_Int_Tables_number   1
_chemical_formula_structural   Te3(PdBr)4
_chemical_formula_sum   'Te6 Pd8 Br8'
_cell_volume   628.82650363
_cell_formula_units_Z   2
loop_
 _symmetry_equiv_pos_site_id
 _symmetry_equiv_pos_as_xyz
  1  'x, y, z'
loop_
 _atom_site_type_symbol
 _atom_site_label
 _atom_site_symmetry_multiplicity
 _atom_site_fract_x
 _atom_site_fract_y
 _atom_site_fract_z
 _atom_site_occupancy
  Te  Te0  1  0.15057414  0.28553488  0.97169995  1
  Te  Te1  1  0.19363853  0.47438162  0.70553160  1
  Te  Te2  1  0.80636147  0.52561838  0.29446840  1
  Te  Te3  1  0.38201302  0.14226142  0.69770284  1
  Te  Te4  1  0.61798698  0.85773858  0.30229716  1
  Te  Te5  1  0.84942586  0.71446512  0.02830005  1
  Pd  Pd6  1  0.21810177  0.58010551  0.00642930  1
  Pd  Pd7  1  0.44057862  0.21831031  0.99648654  1
  Pd  Pd8  1  0.55942138  0.78168969  0.00351346  1
  Pd  Pd9  1  0.78189823  0.41989449  0.99357070  1
  Pd  Pd10  1  0.92348248  0.81418267  0.33643819  1
  Pd  Pd11  1  0.48402822  0.41671858  0.70464611  1
  Pd  Pd12  1  0.07651752  0.18581733  0.66356181  1
  Pd  Pd13  1  0.51597178  0.58328142  0.29535389  1
  Br  Br14  1  0.45767312  0.29805285  0.29811132  1
  Br  Br15  1  0.54232688  0.70194715  0.70188868  1
  Br  Br16  1  0.27468301  0.86687782  0.00975970  1
  Br  Br17  1  0.22371809  0.66745332  0.31072488  1
  Br  Br18  1  0.02290921  0.10395873  0.35689311  1
  Br  Br19  1  0.97709079  0.89604127  0.64310689  1
  Br  Br20  1  0.72531699  0.13312218  0.99024030  1
  Br  Br21  1  0.77628191  0.33254668  0.68927512  1
