# generated using pymatgen
data_Lu4Hf3O12
_symmetry_space_group_name_H-M   'P 1'
_cell_length_a   6.22201686
_cell_length_b   6.28666149
_cell_length_c   12.48052485
_cell_angle_alpha   99.33274668
_cell_angle_beta   99.29629458
_cell_angle_gamma   99.39120587
_symmetry_Int_Tables_number   1
_chemical_formula_structural   Lu4Hf3O12
_chemical_formula_sum   'Lu8 Hf6 O24'
_cell_volume   466.32015640
_cell_formula_units_Z   2
loop_
 _symmetry_equiv_pos_site_id
 _symmetry_equiv_pos_as_xyz
  1  'x, y, z'
loop_
 _atom_site_type_symbol
 _atom_site_label
 _atom_site_symmetry_multiplicity
 _atom_site_fract_x
 _atom_site_fract_y
 _atom_site_fract_z
 _atom_site_occupancy
  Lu  Lu0  1  0.29953237  0.60981890  0.81862311  1
  Lu  Lu1  1  0.38970239  0.86472529  0.59662676  1
  Lu  Lu2  1  0.85876167  0.68947656  0.94698184  1
  Lu  Lu3  1  0.31239885  0.60927401  0.31784048  1
  Lu  Lu4  1  0.14123833  0.31052344  0.05301816  1
  Lu  Lu5  1  0.70046763  0.39018110  0.18137689  1
  Lu  Lu6  1  0.68760115  0.39072599  0.68215952  1
  Lu  Lu7  1  0.61029761  0.13527471  0.40337324  1
  Hf  Hf8  1  0.00699612  0.00588261  0.25179833  1
  Hf  Hf9  1  0.39187590  0.85731045  0.09401213  1
  Hf  Hf10  1  0.99300388  0.99411739  0.74820167  1
  Hf  Hf11  1  0.85469926  0.67589191  0.44647895  1
  Hf  Hf12  1  0.14530074  0.32410809  0.55352105  1
  Hf  Hf13  1  0.60812410  0.14268955  0.90598787  1
  O  O14  1  0.31717701  0.95976303  0.79684462  1
  O  O15  1  0.07094765  0.91777495  0.09301988  1
  O  O16  1  0.32231607  0.94314832  0.28578035  1
  O  O17  1  0.03667529  0.89434218  0.58862789  1
  O  O18  1  0.57051003  0.83053850  0.96257721  1
  O  O19  1  0.58782282  0.81971859  0.46221804  1
  O  O20  1  0.18517136  0.59112111  0.96847290  1
  O  O21  1  0.92246631  0.68047193  0.77839428  1
  O  O22  1  0.42932238  0.58333882  0.15829008  1
  O  O23  1  0.17375972  0.57490337  0.46385713  1
  O  O24  1  0.92100592  0.69297024  0.28960517  1
  O  O25  1  0.57067762  0.41666118  0.84170992  1
  O  O26  1  0.40958190  0.56984256  0.65798152  1
  O  O27  1  0.07753369  0.31952807  0.22160572  1
  O  O28  1  0.81482864  0.40887889  0.03152710  1
  O  O29  1  0.59041810  0.43015744  0.34201848  1
  O  O30  1  0.07899408  0.30702976  0.71039483  1
  O  O31  1  0.82624028  0.42509663  0.53614287  1
  O  O32  1  0.42948997  0.16946150  0.03742279  1
  O  O33  1  0.41217718  0.18028141  0.53778196  1
  O  O34  1  0.92905235  0.08222505  0.90698012  1
  O  O35  1  0.68282299  0.04023697  0.20315538  1
  O  O36  1  0.96332471  0.10565782  0.41137211  1
  O  O37  1  0.67768393  0.05685168  0.71421965  1
