# generated using pymatgen
data_Y10U4O27
_symmetry_space_group_name_H-M   'P 1'
_cell_length_a   6.50747570
_cell_length_b   6.53550687
_cell_length_c   13.00283988
_cell_angle_alpha   99.09260724
_cell_angle_beta   99.30838186
_cell_angle_gamma   99.60360527
_symmetry_Int_Tables_number   1
_chemical_formula_structural   Y10U4O27
_chemical_formula_sum   'Y10 U4 O27'
_cell_volume   528.25922033
_cell_formula_units_Z   1
loop_
 _symmetry_equiv_pos_site_id
 _symmetry_equiv_pos_as_xyz
  1  'x, y, z'
loop_
 _atom_site_type_symbol
 _atom_site_label
 _atom_site_symmetry_multiplicity
 _atom_site_fract_x
 _atom_site_fract_y
 _atom_site_fract_z
 _atom_site_occupancy
  Y  Y0  1  0.69666817  0.84949548  0.21073165  1
  Y  Y1  1  0.14003724  0.56951629  0.14153987  1
  Y  Y2  1  0.70279619  0.85745637  0.71326291  1
  Y  Y3  1  0.42256051  0.70401040  0.43023390  1
  Y  Y4  1  0.14702336  0.60845939  0.64851001  1
  Y  Y5  1  0.57091847  0.28663768  0.07199481  1
  Y  Y6  1  0.60771685  0.30574157  0.57719598  1
  Y  Y7  1  0.28550735  0.13091246  0.28238581  1
  Y  Y8  1  0.85460702  0.42507196  0.84942365  1
  Y  Y9  1  0.30092882  0.14752292  0.79985095  1
  U  U10  1  0.98351320  0.98621463  0.49061370  1
  U  U11  1  0.99719865  0.00640036  0.00087963  1
  U  U12  1  0.42742448  0.70447247  0.92782751  1
  U  U13  1  0.85252362  0.42147385  0.34920917  1
  O  O14  1  0.02157776  0.89655578  0.14423145  1
  O  O15  1  0.66930268  0.95709244  0.04390796  1
  O  O16  1  0.07303326  0.95205796  0.64880016  1
  O  O17  1  0.37730738  0.81779007  0.27255037  1
  O  O18  1  0.69210478  0.95665911  0.54175409  1
  O  O19  1  0.07698252  0.67630248  0.47475990  1
  O  O20  1  0.45526468  0.61408302  0.07917489  1
  O  O21  1  0.39714327  0.82173998  0.78341535  1
  O  O22  1  0.74909943  0.73356118  0.37122206  1
  O  O23  1  0.82095873  0.53372961  0.20158361  1
  O  O24  1  0.11078081  0.68302662  0.97294981  1
  O  O25  1  0.44603392  0.58826362  0.58882638  1
  O  O26  1  0.74306453  0.75162198  0.88386752  1
  O  O27  1  0.15154607  0.44543694  0.31060877  1
  O  O28  1  0.83571720  0.56266670  0.69629272  1
  O  O29  1  0.24424318  0.24406198  0.12375580  1
  O  O30  1  0.56840025  0.38405468  0.40667946  1
  O  O31  1  0.89811855  0.30300065  0.01728187  1
  O  O32  1  0.19597488  0.45990259  0.79991364  1
  O  O33  1  0.62465314  0.18562805  0.23476043  1
  O  O34  1  0.53790927  0.40749496  0.91506301  1
  O  O35  1  0.93918145  0.30868261  0.52244468  1
  O  O36  1  0.29463725  0.05998183  0.47262618  1
  O  O37  1  0.59162090  0.18216647  0.72442859  1
  O  O38  1  0.95104266  0.09014835  0.34074992  1
  O  O39  1  0.31496812  0.02597547  0.95381953  1
  O  O40  1  0.96490938  0.08992807  0.84837130  1
