# generated using pymatgen
data_SrMg2FeH8
_symmetry_space_group_name_H-M   'P 1'
_cell_length_a   4.46933434
_cell_length_b   4.46933434
_cell_length_c   6.51780904
_cell_angle_alpha   90.00000000
_cell_angle_beta   90.00000000
_cell_angle_gamma   119.99999050
_symmetry_Int_Tables_number   1
_chemical_formula_structural   SrMg2FeH8
_chemical_formula_sum   'Sr1 Mg2 Fe1 H8'
_cell_volume   112.75037475
_cell_formula_units_Z   1
loop_
 _symmetry_equiv_pos_site_id
 _symmetry_equiv_pos_as_xyz
  1  'x, y, z'
loop_
 _atom_site_type_symbol
 _atom_site_label
 _atom_site_symmetry_multiplicity
 _atom_site_fract_x
 _atom_site_fract_y
 _atom_site_fract_z
 _atom_site_occupancy
  Sr  Sr0  1  -0.00000000  0.00000000  0.50000000  1
  Mg  Mg1  1  0.66666700  0.33333300  0.87705940  1
  Mg  Mg2  1  0.33333300  0.66666700  0.12294060  1
  Fe  Fe3  1  -0.00000000  0.00000000  -0.00000000  1
  H  H4  1  0.32178386  0.16089243  0.14352933  1
  H  H5  1  0.83910757  0.67821614  0.14352933  1
  H  H6  1  0.83910757  0.16089243  0.14352933  1
  H  H7  1  0.67821614  0.83910757  0.85647067  1
  H  H8  1  0.16089243  0.32178386  0.85647067  1
  H  H9  1  0.16089243  0.83910757  0.85647067  1
  H  H10  1  0.66666700  0.33333300  0.58566352  1
  H  H11  1  0.33333300  0.66666700  0.41433648  1
