# generated using pymatgen
data_TlBiF4
_symmetry_space_group_name_H-M   'P 1'
_cell_length_a   3.70604173
_cell_length_b   8.34217287
_cell_length_c   6.30028742
_cell_angle_alpha   97.25011112
_cell_angle_beta   90.00000000
_cell_angle_gamma   90.00000000
_symmetry_Int_Tables_number   1
_chemical_formula_structural   TlBiF4
_chemical_formula_sum   'Tl2 Bi2 F8'
_cell_volume   193.22511945
_cell_formula_units_Z   2
loop_
 _symmetry_equiv_pos_site_id
 _symmetry_equiv_pos_as_xyz
  1  'x, y, z'
loop_
 _atom_site_type_symbol
 _atom_site_label
 _atom_site_symmetry_multiplicity
 _atom_site_fract_x
 _atom_site_fract_y
 _atom_site_fract_z
 _atom_site_occupancy
  Tl  Tl0  1  0.25000000  0.09862865  0.74268308  1
  Tl  Tl1  1  0.75000000  0.90137135  0.25731692  1
  Bi  Bi2  1  0.25000000  0.61043006  0.76237161  1
  Bi  Bi3  1  0.75000000  0.38956994  0.23762839  1
  F  F4  1  0.25000000  0.24653583  0.34263019  1
  F  F5  1  0.25000000  0.85143677  0.97534285  1
  F  F6  1  0.25000000  0.38704060  0.97851806  1
  F  F7  1  0.25000000  0.57488288  0.37808750  1
  F  F8  1  0.75000000  0.75346417  0.65736981  1
  F  F9  1  0.75000000  0.42511712  0.62191250  1
  F  F10  1  0.75000000  0.61295940  0.02148194  1
  F  F11  1  0.75000000  0.14856323  0.02465715  1
