# generated using pymatgen
data_Na4UC3O11
_symmetry_space_group_name_H-M   'P 1'
_cell_length_a   9.24123292
_cell_length_b   9.24123346
_cell_length_c   12.76690930
_cell_angle_alpha   90.00000000
_cell_angle_beta   90.00000000
_cell_angle_gamma   120.00000143
_symmetry_Int_Tables_number   1
_chemical_formula_structural   Na4UC3O11
_chemical_formula_sum   'Na16 U4 C12 O44'
_cell_volume   944.22665680
_cell_formula_units_Z   4
loop_
 _symmetry_equiv_pos_site_id
 _symmetry_equiv_pos_as_xyz
  1  'x, y, z'
loop_
 _atom_site_type_symbol
 _atom_site_label
 _atom_site_symmetry_multiplicity
 _atom_site_fract_x
 _atom_site_fract_y
 _atom_site_fract_z
 _atom_site_occupancy
  Na  Na0  1  0.69211401  0.12949732  0.87501477  1
  Na  Na1  1  0.87050268  0.56261768  0.87501477  1
  Na  Na2  1  0.43738232  0.30788599  0.87501477  1
  Na  Na3  1  0.56261768  0.87050268  0.62498523  1
  Na  Na4  1  0.30788599  0.43738232  0.62498523  1
  Na  Na5  1  0.12949732  0.69211401  0.62498523  1
  Na  Na6  1  0.30788599  0.87050268  0.12498523  1
  Na  Na7  1  0.12949732  0.43738232  0.12498523  1
  Na  Na8  1  0.56261768  0.69211401  0.12498523  1
  Na  Na9  1  0.43738232  0.12949732  0.37501477  1
  Na  Na10  1  0.69211401  0.56261768  0.37501477  1
  Na  Na11  1  0.87050268  0.30788599  0.37501477  1
  Na  Na12  1  0.00000000  0.00000000  0.50000000  1
  Na  Na13  1  0.00000000  0.00000000  -0.00000000  1
  Na  Na14  1  0.00000000  0.00000000  0.75000000  1
  Na  Na15  1  0.00000000  0.00000000  0.25000000  1
  U  U16  1  0.66666700  0.33333300  0.62926606  1
  U  U17  1  0.33333300  0.66666700  0.87073394  1
  U  U18  1  0.33333300  0.66666700  0.37073394  1
  U  U19  1  0.66666700  0.33333300  0.12926606  1
  C  C20  1  0.25220439  0.92577021  0.87193804  1
  C  C21  1  0.07422979  0.32643418  0.87193804  1
  C  C22  1  0.67356582  0.74779561  0.87193804  1
  C  C23  1  0.32643418  0.07422979  0.62806196  1
  C  C24  1  0.74779561  0.67356582  0.62806196  1
  C  C25  1  0.92577021  0.25220439  0.62806196  1
  C  C26  1  0.74779561  0.07422979  0.12806196  1
  C  C27  1  0.92577021  0.67356582  0.12806196  1
  C  C28  1  0.32643418  0.25220439  0.12806196  1
  C  C29  1  0.67356582  0.92577021  0.37193804  1
  C  C30  1  0.25220439  0.32643418  0.37193804  1
  C  C31  1  0.07422979  0.74779561  0.37193804  1
  O  O32  1  0.62508104  0.85664722  0.85664387  1
  O  O33  1  0.14335278  0.76843382  0.85664387  1
  O  O34  1  0.23156618  0.37491896  0.85664387  1
  O  O35  1  0.76843382  0.14335278  0.64335613  1
  O  O36  1  0.37491896  0.23156618  0.64335613  1
  O  O37  1  0.85664722  0.62508104  0.64335613  1
  O  O38  1  0.37491896  0.14335278  0.14335613  1
  O  O39  1  0.85664722  0.23156618  0.14335613  1
  O  O40  1  0.76843382  0.62508104  0.14335613  1
  O  O41  1  0.23156618  0.85664722  0.35664387  1
  O  O42  1  0.62508104  0.76843382  0.35664387  1
  O  O43  1  0.14335278  0.37491896  0.35664387  1
  O  O44  1  0.40475576  0.95554581  0.88212025  1
  O  O45  1  0.04445419  0.44920894  0.88212025  1
  O  O46  1  0.55079106  0.59524424  0.88212025  1
  O  O47  1  0.44920894  0.04445419  0.61787975  1
  O  O48  1  0.59524424  0.55079106  0.61787975  1
  O  O49  1  0.95554581  0.40475576  0.61787975  1
  O  O50  1  0.59524424  0.04445419  0.11787975  1
  O  O51  1  0.95554581  0.55079106  0.11787975  1
  O  O52  1  0.44920894  0.40475576  0.11787975  1
  O  O53  1  0.55079106  0.95554581  0.38212025  1
  O  O54  1  0.40475576  0.44920894  0.38212025  1
  O  O55  1  0.04445419  0.59524424  0.38212025  1
  O  O56  1  0.21334303  0.03752752  0.87738227  1
  O  O57  1  0.96247248  0.17581651  0.87738227  1
  O  O58  1  0.82418349  0.78665697  0.87738227  1
  O  O59  1  0.17581651  0.96247248  0.62261773  1
  O  O60  1  0.78665697  0.82418349  0.62261773  1
  O  O61  1  0.03752752  0.21334303  0.62261773  1
  O  O62  1  0.78665697  0.96247248  0.12261773  1
  O  O63  1  0.03752752  0.82418349  0.12261773  1
  O  O64  1  0.17581651  0.21334303  0.12261773  1
  O  O65  1  0.82418349  0.03752752  0.37738227  1
  O  O66  1  0.21334303  0.17581651  0.37738227  1
  O  O67  1  0.96247248  0.78665697  0.37738227  1
  O  O68  1  0.66666700  0.33333300  0.48474843  1
  O  O69  1  0.33333300  0.66666700  0.01525157  1
  O  O70  1  0.33333300  0.66666700  0.51525157  1
  O  O71  1  0.66666700  0.33333300  0.98474843  1
  O  O72  1  0.66666700  0.33333300  0.77388347  1
  O  O73  1  0.33333300  0.66666700  0.72611653  1
  O  O74  1  0.33333300  0.66666700  0.22611653  1
  O  O75  1  0.66666700  0.33333300  0.27388347  1
