# generated using pymatgen
data_C
_symmetry_space_group_name_H-M   'P 1'
_cell_length_a   8.98532991
_cell_length_b   9.08330944
_cell_length_c   10.02826860
_cell_angle_alpha   116.92894671
_cell_angle_beta   116.61545261
_cell_angle_gamma   89.99999882
_symmetry_Int_Tables_number   1
_chemical_formula_structural   C
_chemical_formula_sum   C60
_cell_volume   630.90948585
_cell_formula_units_Z   60
loop_
 _symmetry_equiv_pos_site_id
 _symmetry_equiv_pos_as_xyz
  1  'x, y, z'
loop_
 _atom_site_type_symbol
 _atom_site_label
 _atom_site_symmetry_multiplicity
 _atom_site_fract_x
 _atom_site_fract_y
 _atom_site_fract_z
 _atom_site_occupancy
  C  C0  1  0.70032681  0.23808724  0.90508894  1
  C  C1  1  0.79523787  0.33299830  0.09491106  1
  C  C2  1  0.94866582  0.36167571  0.89733063  1
  C  C3  1  0.08509533  0.91277204  0.33078123  1
  C  C4  1  0.59067880  0.08428837  0.84926522  1
  C  C5  1  0.40932120  0.91571163  0.15073478  1
  C  C6  1  0.75431410  0.58199082  0.66921877  1
  C  C7  1  0.35039075  0.32071630  0.38539377  1
  C  C8  1  0.70032681  0.66700170  0.90508894  1
  C  C9  1  0.79523787  0.76191276  0.09491106  1
  C  C10  1  0.03500302  0.06467847  0.38539377  1
  C  C11  1  0.64960925  0.93532153  0.61460623  1
  C  C12  1  0.56678141  0.77282153  0.70725002  1
  C  C13  1  0.05133418  0.63832429  0.10266937  1
  C  C14  1  0.05133418  0.46434608  0.10266937  1
  C  C15  1  0.70153670  0.77872033  0.55744066  1
  C  C16  1  0.25858642  0.08428837  0.84926522  1
  C  C17  1  0.24568590  0.91277204  0.33078123  1
  C  C18  1  0.96499698  0.93532153  0.61460623  1
  C  C19  1  0.20476213  0.66700170  0.90508894  1
  C  C20  1  0.94866582  0.53565392  0.89733063  1
  C  C21  1  0.64960925  0.67928370  0.61460623  1
  C  C22  1  0.03692505  0.24205489  0.81370061  1
  C  C23  1  0.58798964  0.91208889  0.00000000  1
  C  C24  1  0.03500302  0.32071630  0.38539377  1
  C  C25  1  0.41201036  0.08791111  -0.00000000  1
  C  C26  1  0.14046961  0.93442949  0.70725002  1
  C  C27  1  0.35039075  0.06467847  0.38539377  1
  C  C28  1  0.96499698  0.67928370  0.61460623  1
  C  C29  1  0.96307495  0.75794511  0.18629939  1
  C  C30  1  0.96307495  0.42835528  0.18629939  1
  C  C31  1  0.77677556  0.24205489  0.81370061  1
  C  C32  1  0.24568590  0.41800918  0.33078123  1
  C  C33  1  0.91490467  0.08722796  0.66921877  1
  C  C34  1  0.22322444  0.75794511  0.18629939  1
  C  C35  1  0.74141358  0.91571163  0.15073478  1
  C  C36  1  0.74141358  0.23502215  0.15073478  1
  C  C37  1  0.85953039  0.06557051  0.29274998  1
  C  C38  1  0.58798964  0.08791111  0.00000000  1
  C  C39  1  0.29967319  0.33299830  0.09491106  1
  C  C40  1  0.56678141  0.93442949  0.70725002  1
  C  C41  1  0.08509533  0.41800918  0.33078123  1
  C  C42  1  0.22322444  0.42835528  0.18629939  1
  C  C43  1  0.77677556  0.57164472  0.81370061  1
  C  C44  1  0.40932120  0.23502215  0.15073478  1
  C  C45  1  0.25858642  0.76497785  0.84926522  1
  C  C46  1  0.85953039  0.22717847  0.29274998  1
  C  C47  1  0.03692505  0.57164472  0.81370061  1
  C  C48  1  0.43321859  0.22717847  0.29274998  1
  C  C49  1  0.91490467  0.58199082  0.66921877  1
  C  C50  1  0.14046961  0.77282153  0.70725002  1
  C  C51  1  0.85590296  0.77872033  0.55744066  1
  C  C52  1  0.59067880  0.76497785  0.84926522  1
  C  C53  1  0.29846330  0.22127967  0.44255934  1
  C  C54  1  0.43321859  0.06557051  0.29274998  1
  C  C55  1  0.29967319  0.76191276  0.09491106  1
  C  C56  1  0.41201036  0.91208889  -0.00000000  1
  C  C57  1  0.75431410  0.08722796  0.66921877  1
  C  C58  1  0.20476213  0.23808724  0.90508894  1
  C  C59  1  0.14409704  0.22127967  0.44255934  1
