# generated using pymatgen
data_ClF3
_symmetry_space_group_name_H-M   'P 1'
_cell_length_a   4.25464984
_cell_length_b   7.72007655
_cell_length_c   15.05671491
_cell_angle_alpha   96.11405458
_cell_angle_beta   90.00000000
_cell_angle_gamma   90.00000000
_symmetry_Int_Tables_number   1
_chemical_formula_structural   ClF3
_chemical_formula_sum   'Cl8 F24'
_cell_volume   491.74309619
_cell_formula_units_Z   8
loop_
 _symmetry_equiv_pos_site_id
 _symmetry_equiv_pos_as_xyz
  1  'x, y, z'
loop_
 _atom_site_type_symbol
 _atom_site_label
 _atom_site_symmetry_multiplicity
 _atom_site_fract_x
 _atom_site_fract_y
 _atom_site_fract_z
 _atom_site_occupancy
  Cl  Cl0  1  0.92815648  0.78466244  0.58004172  1
  Cl  Cl1  1  0.99427283  0.38405290  0.13200002  1
  Cl  Cl2  1  0.50572717  0.38405290  0.63200002  1
  Cl  Cl3  1  0.49427283  0.61594710  0.36799998  1
  Cl  Cl4  1  0.07184352  0.21533756  0.41995828  1
  Cl  Cl5  1  0.42815648  0.21533756  0.91995828  1
  Cl  Cl6  1  0.00572717  0.61594710  0.86799998  1
  Cl  Cl7  1  0.57184352  0.78466244  0.08004172  1
  F  F8  1  0.69750965  0.59441782  0.94974407  1
  F  F9  1  0.28693323  0.64705616  0.79140724  1
  F  F10  1  0.72554644  0.12236365  0.97508662  1
  F  F11  1  0.21306677  0.64705616  0.29140724  1
  F  F12  1  0.40501228  0.18219004  0.63017569  1
  F  F13  1  -0.01062149  0.08970513  0.33017870  1
  F  F14  1  0.01062149  0.91029487  0.66982130  1
  F  F15  1  0.22554644  0.87763635  0.52491338  1
  F  F16  1  0.80249035  0.59441782  0.44974407  1
  F  F17  1  0.27445356  0.87763635  0.02491338  1
  F  F18  1  0.59498772  0.81780996  0.36982431  1
  F  F19  1  0.62201445  0.69138602  0.64293349  1
  F  F20  1  0.09498772  0.18219004  0.13017469  1
  F  F21  1  0.71306677  0.35294384  0.20859276  1
  F  F22  1  0.12201445  0.30861398  0.85706651  1
  F  F23  1  0.51062149  0.08970513  0.83017870  1
  F  F24  1  0.37798555  0.30861398  0.35706651  1
  F  F25  1  0.77445356  0.12236365  0.47508662  1
  F  F26  1  0.87798555  0.69138602  0.14293349  1
  F  F27  1  0.19750965  0.40558218  0.55025593  1
  F  F28  1  0.30249035  0.40558218  0.05025593  1
  F  F29  1  0.48937851  0.91029487  0.16982130  1
  F  F30  1  0.78693323  0.35294384  0.70859276  1
  F  F31  1  0.90501228  0.81780996  0.86982431  1
