# generated using pymatgen
data_TaTlO3
_symmetry_space_group_name_H-M   'P 1'
_cell_length_a   7.54030697
_cell_length_b   7.54030697
_cell_length_c   13.06202910
_cell_angle_alpha   72.93415426
_cell_angle_beta   72.93415426
_cell_angle_gamma   60.01921597
_symmetry_Int_Tables_number   1
_chemical_formula_structural   TaTlO3
_chemical_formula_sum   'Ta8 Tl8 O24'
_cell_volume   605.21610942
_cell_formula_units_Z   8
loop_
 _symmetry_equiv_pos_site_id
 _symmetry_equiv_pos_as_xyz
  1  'x, y, z'
loop_
 _atom_site_type_symbol
 _atom_site_label
 _atom_site_symmetry_multiplicity
 _atom_site_fract_x
 _atom_site_fract_y
 _atom_site_fract_z
 _atom_site_occupancy
  Ta  Ta0  1  0.50000000  0.00000000  0.50000000  1
  Ta  Ta1  1  0.50000000  0.50000000  0.50000000  1
  Ta  Ta2  1  -0.00000000  0.00000000  0.00000000  1
  Ta  Ta3  1  -0.00000000  0.00000000  0.50000000  1
  Ta  Ta4  1  0.25248020  0.74751980  0.75000000  1
  Ta  Ta5  1  -0.00000000  0.50000000  0.00000000  1
  Ta  Ta6  1  0.74751980  0.25248020  0.25000000  1
  Ta  Ta7  1  0.50000000  0.50000000  0.00000000  1
  Tl  Tl8  1  0.80727735  0.67056573  0.74148109  1
  Tl  Tl9  1  -0.00000000  0.50000000  0.50000000  1
  Tl  Tl10  1  0.76372083  0.23627917  0.75000000  1
  Tl  Tl11  1  0.67056573  0.80727735  0.24148109  1
  Tl  Tl12  1  0.50000000  0.00000000  0.00000000  1
  Tl  Tl13  1  0.32943427  0.19272265  0.75851891  1
  Tl  Tl14  1  0.23627917  0.76372083  0.25000000  1
  Tl  Tl15  1  0.19272265  0.32943427  0.25851891  1
  O  O16  1  0.09856680  0.59047649  0.84460026  1
  O  O17  1  0.77979624  0.91147153  0.52867168  1
  O  O18  1  0.40685412  0.27910986  0.53408902  1
  O  O19  1  0.46312180  0.59435038  0.84573712  1
  O  O20  1  0.71999567  0.21969987  0.96983968  1
  O  O21  1  0.59047649  0.09856680  0.34460026  1
  O  O22  1  0.27910986  0.40685412  0.03408902  1
  O  O23  1  0.40564962  0.53687820  0.65426288  1
  O  O24  1  0.09786034  0.96963049  0.84300337  1
  O  O25  1  0.78030013  0.28000433  0.53016032  1
  O  O26  1  0.91147153  0.77979624  0.02867168  1
  O  O27  1  0.03036951  0.90213966  0.65699663  1
  O  O28  1  0.08852847  0.22020376  0.97132832  1
  O  O29  1  0.96963049  0.09786034  0.34300337  1
  O  O30  1  0.21969987  0.71999567  0.46983968  1
  O  O31  1  0.90213966  0.03036951  0.15699663  1
  O  O32  1  0.59435038  0.46312180  0.34573712  1
  O  O33  1  0.72089014  0.59314588  0.96591098  1
  O  O34  1  0.28000433  0.78030013  0.03016032  1
  O  O35  1  0.40952351  0.90143320  0.65539974  1
  O  O36  1  0.53687820  0.40564962  0.15426288  1
  O  O37  1  0.59314588  0.72089014  0.46591098  1
  O  O38  1  0.22020376  0.08852847  0.47132832  1
  O  O39  1  0.90143320  0.40952351  0.15539974  1
