# generated using pymatgen
data_Na3In(PO4)2
_symmetry_space_group_name_H-M   'P 1'
_cell_length_a   5.11566393
_cell_length_b   7.02954556
_cell_length_c   18.19575683
_cell_angle_alpha   90.00002115
_cell_angle_beta   90.00002849
_cell_angle_gamma   92.02880072
_symmetry_Int_Tables_number   1
_chemical_formula_structural   Na3In(PO4)2
_chemical_formula_sum   'Na12 In4 P8 O32'
_cell_volume   653.92367536
_cell_formula_units_Z   4
loop_
 _symmetry_equiv_pos_site_id
 _symmetry_equiv_pos_as_xyz
  1  'x, y, z'
loop_
 _atom_site_type_symbol
 _atom_site_label
 _atom_site_symmetry_multiplicity
 _atom_site_fract_x
 _atom_site_fract_y
 _atom_site_fract_z
 _atom_site_occupancy
  Na  Na0  1  0.80062129  0.19765901  0.30643300  1
  Na  Na1  1  0.78693370  0.48594229  0.12438632  1
  Na  Na2  1  0.71306652  0.01405746  0.62438653  1
  Na  Na3  1  0.21306524  0.51405763  0.87561410  1
  Na  Na4  1  0.28693240  0.98594246  0.37561303  1
  Na  Na5  1  0.30062073  0.69765999  0.19356656  1
  Na  Na6  1  0.19937928  0.80234031  0.69356663  1
  Na  Na7  1  0.69937991  0.30233937  0.80643382  1
  Na  Na8  1  0.74140338  0.79159677  0.44990272  1
  Na  Na9  1  0.24140336  0.29159678  0.05009733  1
  Na  Na10  1  0.25859691  0.20840353  0.55009718  1
  Na  Na11  1  0.75859686  0.70840348  0.94990275  1
  In  In12  1  0.28440913  0.48694192  0.37224290  1
  In  In13  1  0.21559121  0.01305741  0.87224241  1
  In  In14  1  0.71559117  0.51305738  0.62775756  1
  In  In15  1  0.78440914  0.98694190  0.12775714  1
  P  P16  1  0.77187907  0.28241078  0.46368294  1
  P  P17  1  0.80326152  0.71763536  0.28608266  1
  P  P18  1  0.69673827  0.78236425  0.78608287  1
  P  P19  1  0.19673866  0.28236448  0.71391722  1
  P  P20  1  0.30326203  0.21763564  0.21391727  1
  P  P21  1  0.72812021  0.21758929  0.96368286  1
  P  P22  1  0.27187918  0.78241086  0.03631697  1
  P  P23  1  0.22812029  0.71758940  0.53631721  1
  O  O24  1  0.37072427  0.89604108  0.56215563  1
  O  O25  1  0.12927419  0.60395910  0.06215541  1
  O  O26  1  0.62927375  0.10395908  0.43784448  1
  O  O27  1  0.87072387  0.39604103  0.93784446  1
  O  O28  1  0.35786565  0.54055588  0.56692841  1
  O  O29  1  0.14213709  0.95944543  0.06692857  1
  O  O30  1  0.64213709  0.45944560  0.43307144  1
  O  O31  1  0.85786565  0.04055601  0.93307157  1
  O  O32  1  0.22105459  0.71404351  0.45094290  1
  O  O33  1  0.27894501  0.78595660  0.95094273  1
  O  O34  1  0.77894526  0.28595654  0.54905723  1
  O  O35  1  0.72105486  0.21404342  0.04905713  1
  O  O36  1  0.93936398  0.71858445  0.56332470  1
  O  O37  1  0.56063588  0.78141368  0.06332472  1
  O  O38  1  0.06063577  0.28141358  0.43667515  1
  O  O39  1  0.43936383  0.21858439  0.93667542  1
  O  O40  1  0.45477851  0.03657589  0.19710424  1
  O  O41  1  0.04522264  0.46342432  0.69710446  1
  O  O42  1  0.54522248  0.96342425  0.80289555  1
  O  O43  1  0.95477808  0.53657574  0.30289579  1
  O  O44  1  0.00964054  0.18526857  0.19457477  1
  O  O45  1  0.49035986  0.31473232  0.69457553  1
  O  O46  1  0.99035950  0.81473221  0.80542467  1
  O  O47  1  0.50964000  0.68526851  0.30542506  1
  O  O48  1  0.83125141  0.74659863  0.20158902  1
  O  O49  1  0.66874903  0.75340110  0.70158916  1
  O  O50  1  0.16874906  0.25340119  0.79841093  1
  O  O51  1  0.33125151  0.24659878  0.29841091  1
  O  O52  1  0.90985741  0.88755662  0.32811458  1
  O  O53  1  0.59014099  0.61244396  0.82811502  1
  O  O54  1  0.09014165  0.11244403  0.67188506  1
  O  O55  1  0.40985808  0.38755674  0.17188534  1
