# generated using pymatgen
data_FeHO2
_symmetry_space_group_name_H-M   'P 1'
_cell_length_a   4.97820491
_cell_length_b   6.33786039
_cell_length_c   4.97900038
_cell_angle_alpha   81.50602102
_cell_angle_beta   104.32577538
_cell_angle_gamma   81.50322866
_symmetry_Int_Tables_number   1
_chemical_formula_structural   FeHO2
_chemical_formula_sum   'Fe4 H4 O8'
_cell_volume   147.72848675
_cell_formula_units_Z   4
loop_
 _symmetry_equiv_pos_site_id
 _symmetry_equiv_pos_as_xyz
  1  'x, y, z'
loop_
 _atom_site_type_symbol
 _atom_site_label
 _atom_site_symmetry_multiplicity
 _atom_site_fract_x
 _atom_site_fract_y
 _atom_site_fract_z
 _atom_site_occupancy
  Fe  Fe0  1  0.78538483  0.35484533  0.53788646  1
  Fe  Fe1  1  0.21230270  0.64511788  0.46486106  1
  Fe  Fe2  1  0.28538059  0.35484127  0.03788926  1
  Fe  Fe3  1  0.71229814  0.64511975  0.96485500  1
  H  H4  1  0.71158820  0.03445696  0.27094323  1
  H  H5  1  0.21157523  0.03446202  0.77092792  1
  H  H6  1  0.47872254  0.96550974  0.53822041  1
  H  H7  1  0.97873013  0.96551172  0.03821123  1
  O  O8  1  0.47901476  0.58397575  0.22942757  1
  O  O9  1  0.97900976  0.58398132  0.72942973  1
  O  O10  1  0.52091585  0.41604065  0.77124216  1
  O  O11  1  0.02092007  0.41603981  0.27123924  1
  O  O12  1  0.58872393  0.14102597  0.34082638  1
  O  O13  1  0.08872752  0.14101911  0.84080027  1
  O  O14  1  0.40884515  0.85902951  0.66111399  1
  O  O15  1  0.90885061  0.85902422  0.16113310  1
