# generated using pymatgen
data_Rb2ZnCl4
_symmetry_space_group_name_H-M   'P 1'
_cell_length_a   7.22689508
_cell_length_b   9.28489480
_cell_length_c   12.77547047
_cell_angle_alpha   90.00000000
_cell_angle_beta   90.00000000
_cell_angle_gamma   90.00000000
_symmetry_Int_Tables_number   1
_chemical_formula_structural   Rb2ZnCl4
_chemical_formula_sum   'Rb8 Zn4 Cl16'
_cell_volume   857.24634000
_cell_formula_units_Z   4
loop_
 _symmetry_equiv_pos_site_id
 _symmetry_equiv_pos_as_xyz
  1  'x, y, z'
loop_
 _atom_site_type_symbol
 _atom_site_label
 _atom_site_symmetry_multiplicity
 _atom_site_fract_x
 _atom_site_fract_y
 _atom_site_fract_z
 _atom_site_occupancy
  Rb  Rb0  1  0.75000000  0.87341079  0.08134742  1
  Rb  Rb1  1  0.75000000  0.01602850  0.67749255  1
  Rb  Rb2  1  0.75000000  0.51602850  0.82250745  1
  Rb  Rb3  1  0.75000000  0.37341079  0.41865258  1
  Rb  Rb4  1  0.25000000  0.12658921  0.91865258  1
  Rb  Rb5  1  0.25000000  0.98397150  0.32250745  1
  Rb  Rb6  1  0.25000000  0.48397150  0.17749255  1
  Rb  Rb7  1  0.25000000  0.62658921  0.58134742  1
  Zn  Zn8  1  0.75000000  0.77536469  0.42267596  1
  Zn  Zn9  1  0.25000000  0.72463531  0.92267596  1
  Zn  Zn10  1  0.25000000  0.22463531  0.57732404  1
  Zn  Zn11  1  0.75000000  0.27536469  0.07732404  1
  Cl  Cl12  1  0.25000000  0.48300570  0.91397603  1
  Cl  Cl13  1  0.99691090  0.31978950  0.65456973  1
  Cl  Cl14  1  0.25000000  0.81684750  0.08803406  1
  Cl  Cl15  1  0.25000000  0.31684750  0.41196594  1
  Cl  Cl16  1  0.75000000  0.68315250  0.58803406  1
  Cl  Cl17  1  0.49691090  0.68021050  0.34543027  1
  Cl  Cl18  1  0.25000000  0.98300570  0.58602397  1
  Cl  Cl19  1  0.00308910  0.18021050  0.15456973  1
  Cl  Cl20  1  0.75000000  0.51699430  0.08602397  1
  Cl  Cl21  1  0.99691090  0.81978950  0.84543027  1
  Cl  Cl22  1  0.00308910  0.68021050  0.34543027  1
  Cl  Cl23  1  0.50308910  0.31978950  0.65456973  1
  Cl  Cl24  1  0.75000000  0.18315250  0.91196594  1
  Cl  Cl25  1  0.49691090  0.18021050  0.15456973  1
  Cl  Cl26  1  0.75000000  0.01699430  0.41397603  1
  Cl  Cl27  1  0.50308910  0.81978950  0.84543027  1
