# generated using pymatgen
data_Sn3(HO2)2
_symmetry_space_group_name_H-M   'P 1'
_cell_length_a   7.92396980
_cell_length_b   7.92396980
_cell_length_c   9.07826490
_cell_angle_alpha   90.00000000
_cell_angle_beta   90.00000000
_cell_angle_gamma   90.00000000
_symmetry_Int_Tables_number   1
_chemical_formula_structural   Sn3(HO2)2
_chemical_formula_sum   'Sn12 H8 O16'
_cell_volume   570.01787460
_cell_formula_units_Z   4
loop_
 _symmetry_equiv_pos_site_id
 _symmetry_equiv_pos_as_xyz
  1  'x, y, z'
loop_
 _atom_site_type_symbol
 _atom_site_label
 _atom_site_symmetry_multiplicity
 _atom_site_fract_x
 _atom_site_fract_y
 _atom_site_fract_z
 _atom_site_occupancy
  Sn  Sn0  1  0.79518148  0.61895110  0.50292877  1
  Sn  Sn1  1  0.29518148  0.88104890  0.99707123  1
  Sn  Sn2  1  0.20481852  0.38104890  0.50292877  1
  Sn  Sn3  1  0.70481852  0.11895110  0.99707123  1
  Sn  Sn4  1  0.61895110  0.20481852  0.49707123  1
  Sn  Sn5  1  0.88104890  0.70481852  0.00292877  1
  Sn  Sn6  1  0.38104890  0.79518148  0.49707123  1
  Sn  Sn7  1  0.11895110  0.29518148  0.00292877  1
  Sn  Sn8  1  0.50000000  0.50000000  0.77722733  1
  Sn  Sn9  1  -0.00000000  -0.00000000  0.72277267  1
  Sn  Sn10  1  0.50000000  0.50000000  0.22277267  1
  Sn  Sn11  1  -0.00000000  -0.00000000  0.27722733  1
  H  H12  1  0.66087011  0.82412987  0.73745358  1
  H  H13  1  0.16087011  0.67587013  0.76254642  1
  H  H14  1  0.33912989  0.17587013  0.73745358  1
  H  H15  1  0.83912989  0.32412987  0.76254642  1
  H  H16  1  0.82412987  0.33912989  0.26254642  1
  H  H17  1  0.67587013  0.83912989  0.23745358  1
  H  H18  1  0.17587013  0.66087011  0.26254642  1
  H  H19  1  0.32412987  0.16087011  0.23745358  1
  O  O20  1  0.60961192  0.74522987  0.66734997  1
  O  O21  1  0.10961192  0.75477013  0.83265003  1
  O  O22  1  0.39038808  0.25477013  0.66734997  1
  O  O23  1  0.89038808  0.24522987  0.83265003  1
  O  O24  1  0.74522987  0.39038808  0.33265003  1
  O  O25  1  0.75477013  0.89038808  0.16734997  1
  O  O26  1  0.25477013  0.60961192  0.33265003  1
  O  O27  1  0.24522987  0.10961192  0.16734997  1
  O  O28  1  0.68399186  0.41945583  0.62205216  1
  O  O29  1  0.18399186  0.08054417  0.87794784  1
  O  O30  1  0.31600814  0.58054417  0.62205216  1
  O  O31  1  0.81600814  0.91945583  0.87794784  1
  O  O32  1  0.41945583  0.31600814  0.37794784  1
  O  O33  1  0.08054417  0.81600814  0.12205216  1
  O  O34  1  0.58054417  0.68399186  0.37794784  1
  O  O35  1  0.91945583  0.18399186  0.12205216  1
