# generated using pymatgen
data_MoCl2
_symmetry_space_group_name_H-M   'P 1'
_cell_length_a   9.28185164
_cell_length_b   9.28184986
_cell_length_c   11.38363907
_cell_angle_alpha   90.00000000
_cell_angle_beta   90.00000000
_cell_angle_gamma   104.13092524
_symmetry_Int_Tables_number   1
_chemical_formula_structural   MoCl2
_chemical_formula_sum   'Mo12 Cl24'
_cell_volume   951.05527984
_cell_formula_units_Z   12
loop_
 _symmetry_equiv_pos_site_id
 _symmetry_equiv_pos_as_xyz
  1  'x, y, z'
loop_
 _atom_site_type_symbol
 _atom_site_label
 _atom_site_symmetry_multiplicity
 _atom_site_fract_x
 _atom_site_fract_y
 _atom_site_fract_z
 _atom_site_occupancy
  Mo  Mo0  1  0.62589473  0.37410527  0.50000000  1
  Mo  Mo1  1  0.35390435  0.35390435  0.56737426  1
  Mo  Mo2  1  0.64609565  0.64609565  0.43262574  1
  Mo  Mo3  1  0.14609565  0.14609565  0.06737426  1
  Mo  Mo4  1  0.93273724  0.93273724  0.14645417  1
  Mo  Mo5  1  0.87410527  0.12589473  0.00000000  1
  Mo  Mo6  1  0.56726276  0.56726276  0.64645417  1
  Mo  Mo7  1  0.06726276  0.06726276  0.85354583  1
  Mo  Mo8  1  0.85390435  0.85390435  0.93262574  1
  Mo  Mo9  1  0.12589473  0.87410527  0.00000000  1
  Mo  Mo10  1  0.43273724  0.43273724  0.35354583  1
  Mo  Mo11  1  0.37410527  0.62589473  0.50000000  1
  Cl  Cl12  1  0.19516895  0.95668305  0.20512996  1
  Cl  Cl13  1  0.17611016  0.41487528  0.42394294  1
  Cl  Cl14  1  0.08512472  0.32388984  0.92394294  1
  Cl  Cl15  1  0.35134233  0.35134233  0.14815739  1
  Cl  Cl16  1  0.95668305  0.19516895  0.20512996  1
  Cl  Cl17  1  0.32388984  0.08512472  0.92394294  1
  Cl  Cl18  1  0.04331695  0.80483105  0.79487004  1
  Cl  Cl19  1  0.71157061  0.28842939  0.00000000  1
  Cl  Cl20  1  0.64865767  0.64865767  0.85184261  1
  Cl  Cl21  1  0.21157061  0.78842939  0.50000000  1
  Cl  Cl22  1  0.85134233  0.85134233  0.35184261  1
  Cl  Cl23  1  0.69516895  0.45668305  0.29487004  1
  Cl  Cl24  1  0.82388984  0.58512472  0.57605706  1
  Cl  Cl25  1  0.41487528  0.17611016  0.42394294  1
  Cl  Cl26  1  0.67611016  0.91487528  0.07605706  1
  Cl  Cl27  1  0.58512472  0.82388984  0.57605706  1
  Cl  Cl28  1  0.54331695  0.30483105  0.70512996  1
  Cl  Cl29  1  0.80483105  0.04331695  0.79487004  1
  Cl  Cl30  1  0.28842939  0.71157061  0.00000000  1
  Cl  Cl31  1  0.91487528  0.67611016  0.07605706  1
  Cl  Cl32  1  0.78842939  0.21157061  0.50000000  1
  Cl  Cl33  1  0.14865767  0.14865767  0.64815739  1
  Cl  Cl34  1  0.30483105  0.54331695  0.70512996  1
  Cl  Cl35  1  0.45668305  0.69516895  0.29487004  1
