# generated using pymatgen
data_HoHO2
_symmetry_space_group_name_H-M   'P 1'
_cell_length_a   5.92024012
_cell_length_b   3.60461661
_cell_length_c   4.27263170
_cell_angle_alpha   90.00276583
_cell_angle_beta   109.15469563
_cell_angle_gamma   89.99752753
_symmetry_Int_Tables_number   1
_chemical_formula_structural   HoHO2
_chemical_formula_sum   'Ho2 H2 O4'
_cell_volume   86.13078475
_cell_formula_units_Z   2
loop_
 _symmetry_equiv_pos_site_id
 _symmetry_equiv_pos_as_xyz
  1  'x, y, z'
loop_
 _atom_site_type_symbol
 _atom_site_label
 _atom_site_symmetry_multiplicity
 _atom_site_fract_x
 _atom_site_fract_y
 _atom_site_fract_z
 _atom_site_occupancy
  Ho  Ho0  1  0.18780666  0.75027878  0.33290524  1
  Ho  Ho1  1  0.80969942  0.25031985  0.66691164  1
  H  H2  1  0.57785982  0.75286600  0.98453135  1
  H  H3  1  0.41995096  0.25264993  0.01548638  1
  O  O4  1  0.04891165  0.75016850  0.76572745  1
  O  O5  1  0.94852703  0.25016357  0.23405505  1
  O  O6  1  0.56013765  0.74998557  0.75177264  1
  O  O7  1  0.43737881  0.24990678  0.24805424  1
