# generated using pymatgen
data_KHO
_symmetry_space_group_name_H-M   'P 1'
_cell_length_a   5.64683085
_cell_length_b   3.96829701
_cell_length_c   7.70901312
_cell_angle_alpha   90.00000000
_cell_angle_beta   109.92000071
_cell_angle_gamma   90.00000000
_symmetry_Int_Tables_number   1
_chemical_formula_structural   KHO
_chemical_formula_sum   'K4 H4 O4'
_cell_volume   162.41037754
_cell_formula_units_Z   4
loop_
 _symmetry_equiv_pos_site_id
 _symmetry_equiv_pos_as_xyz
  1  'x, y, z'
loop_
 _atom_site_type_symbol
 _atom_site_label
 _atom_site_symmetry_multiplicity
 _atom_site_fract_x
 _atom_site_fract_y
 _atom_site_fract_z
 _atom_site_occupancy
  K  K0  1  0.71452900  0.75363039  0.43482919  1
  K  K1  1  0.21452900  0.74636961  0.93482919  1
  K  K2  1  0.28547100  0.24636961  0.56517081  1
  K  K3  1  0.78547100  0.25363039  0.06517081  1
  H  H4  1  0.19912336  0.61250646  0.26556364  1
  H  H5  1  0.69912436  0.88749354  0.76556364  1
  H  H6  1  0.80087564  0.38749354  0.73443636  1
  H  H7  1  0.30087564  0.11250646  0.23443636  1
  O  O8  1  0.08004850  0.77105673  0.28740237  1
  O  O9  1  0.58004850  0.72894327  0.78740237  1
  O  O10  1  0.91995150  0.22894327  0.71259763  1
  O  O11  1  0.41995150  0.27105673  0.21259763  1
