# generated using pymatgen
data_MgPS3
_symmetry_space_group_name_H-M   'P 1'
_cell_length_a   6.09078828
_cell_length_b   6.08879344
_cell_length_c   7.08020461
_cell_angle_alpha   81.98286681
_cell_angle_beta   73.80104249
_cell_angle_gamma   59.98799497
_symmetry_Int_Tables_number   1
_chemical_formula_structural   MgPS3
_chemical_formula_sum   'Mg2 P2 S6'
_cell_volume   218.34085278
_cell_formula_units_Z   2
loop_
 _symmetry_equiv_pos_site_id
 _symmetry_equiv_pos_as_xyz
  1  'x, y, z'
loop_
 _atom_site_type_symbol
 _atom_site_label
 _atom_site_symmetry_multiplicity
 _atom_site_fract_x
 _atom_site_fract_y
 _atom_site_fract_z
 _atom_site_occupancy
  Mg  Mg0  1  0.33324793  0.33351263  0.99999065  1
  Mg  Mg1  1  0.66675207  0.66648737  0.00000935  1
  P  P2  1  0.05244156  0.99999314  0.83922027  1
  P  P3  1  0.94755844  0.00000686  0.16077973  1
  S  S4  1  0.24396616  0.00002241  0.23821438  1
  S  S5  1  0.07743826  0.32142643  0.76158107  1
  S  S6  1  0.60109117  0.32144848  0.23842735  1
  S  S7  1  0.39890883  0.67855152  0.76157265  1
  S  S8  1  0.75603384  0.99997759  0.76178562  1
  S  S9  1  0.92256174  0.67857357  0.23841893  1
