# generated using pymatgen
data_K2Zn2(SO4)3
_symmetry_space_group_name_H-M   'P 1'
_cell_length_a   9.89983554
_cell_length_b   9.89983554
_cell_length_c   9.89983554
_cell_angle_alpha   90.00000000
_cell_angle_beta   90.00000000
_cell_angle_gamma   90.00000000
_symmetry_Int_Tables_number   1
_chemical_formula_structural   K2Zn2(SO4)3
_chemical_formula_sum   'K8 Zn8 S12 O48'
_cell_volume   970.25064463
_cell_formula_units_Z   4
loop_
 _symmetry_equiv_pos_site_id
 _symmetry_equiv_pos_as_xyz
  1  'x, y, z'
loop_
 _atom_site_type_symbol
 _atom_site_label
 _atom_site_symmetry_multiplicity
 _atom_site_fract_x
 _atom_site_fract_y
 _atom_site_fract_z
 _atom_site_occupancy
  K  K0  1  0.68472394  0.18472394  0.31527606  1
  K  K1  1  0.31527606  0.68472394  0.18472394  1
  K  K2  1  0.95009775  0.54990225  0.45009775  1
  K  K3  1  0.18472394  0.31527606  0.68472394  1
  K  K4  1  0.04990225  0.04990225  0.04990225  1
  K  K5  1  0.45009775  0.95009775  0.54990225  1
  K  K6  1  0.54990225  0.45009775  0.95009775  1
  K  K7  1  0.81527606  0.81527606  0.81527606  1
  Zn  Zn8  1  0.33439820  0.33439820  0.33439820  1
  Zn  Zn9  1  0.16560180  0.66560180  0.83439820  1
  Zn  Zn10  1  0.83439820  0.16560180  0.66560180  1
  Zn  Zn11  1  0.66560180  0.83439820  0.16560180  1
  Zn  Zn12  1  0.59200134  0.59200134  0.59200134  1
  Zn  Zn13  1  0.09200134  0.90799866  0.40799866  1
  Zn  Zn14  1  0.40799866  0.09200134  0.90799866  1
  Zn  Zn15  1  0.90799866  0.40799866  0.09200134  1
  S  S16  1  0.28123082  0.62336992  0.51849211  1
  S  S17  1  0.78123082  0.87663008  0.48150789  1
  S  S18  1  0.71876918  0.12336992  0.98150789  1
  S  S19  1  0.87663008  0.48150789  0.78123082  1
  S  S20  1  0.98150789  0.71876918  0.12336992  1
  S  S21  1  0.48150789  0.78123082  0.87663008  1
  S  S22  1  0.62336992  0.51849211  0.28123082  1
  S  S23  1  0.51849211  0.28123082  0.62336992  1
  S  S24  1  0.12336992  0.98150789  0.71876918  1
  S  S25  1  0.21876918  0.37663008  0.01849211  1
  S  S26  1  0.01849211  0.21876918  0.37663008  1
  S  S27  1  0.37663008  0.01849211  0.21876918  1
  O  O28  1  0.25544325  0.59617595  0.66145281  1
  O  O29  1  0.75544325  0.90382405  0.33854719  1
  O  O30  1  0.74455675  0.09617595  0.83854719  1
  O  O31  1  0.90382405  0.33854719  0.75544325  1
  O  O32  1  0.83854719  0.74455675  0.09617595  1
  O  O33  1  0.33854719  0.75544325  0.90382405  1
  O  O34  1  0.59617595  0.66145281  0.25544325  1
  O  O35  1  0.66145281  0.25544325  0.59617595  1
  O  O36  1  0.09617595  0.83854719  0.74455675  1
  O  O37  1  0.40382405  0.16145281  0.24455675  1
  O  O38  1  0.16145281  0.24455675  0.40382405  1
  O  O39  1  0.24455675  0.40382405  0.16145281  1
  O  O40  1  0.25700622  0.49730434  0.44245800  1
  O  O41  1  0.75700622  0.00269566  0.55754200  1
  O  O42  1  0.74299378  -0.00269566  0.05754200  1
  O  O43  1  0.00269566  0.55754200  0.75700622  1
  O  O44  1  0.05754200  0.74299378  -0.00269566  1
  O  O45  1  0.55754200  0.75700622  0.00269566  1
  O  O46  1  0.00071805  0.57800775  0.17055040  1
  O  O47  1  0.49730434  0.44245800  0.25700622  1
  O  O48  1  -0.00269566  0.05754200  0.74299378  1
  O  O49  1  0.50269566  0.94245800  0.24299378  1
  O  O50  1  0.94245800  0.24299378  0.50269566  1
  O  O51  1  0.24299378  0.50269566  0.94245800  1
  O  O52  1  0.42199225  0.67055040  0.49928195  1
  O  O53  1  0.92199225  0.82944960  0.50071805  1
  O  O54  1  0.57800775  0.17055040  0.00071805  1
  O  O55  1  0.82944960  0.50071805  0.92199225  1
  O  O56  1  0.31074662  0.27408985  0.96322792  1
  O  O57  1  0.96322792  0.31074662  0.27408985  1
  O  O58  1  0.27408985  0.96322792  0.31074662  1
  O  O59  1  0.22591015  0.03677208  0.81074662  1
  O  O60  1  0.46322792  0.18925338  0.72591015  1
  O  O61  1  0.72591015  0.46322792  0.18925338  1
  O  O62  1  0.53677208  0.68925338  0.77408985  1
  O  O63  1  0.03677208  0.81074662  0.22591015  1
  O  O64  1  0.77408985  0.53677208  0.68925338  1
  O  O65  1  0.81074662  0.22591015  0.03677208  1
  O  O66  1  0.68925338  0.77408985  0.53677208  1
  O  O67  1  0.18925338  0.72591015  0.46322792  1
  O  O68  1  0.07800775  0.32944960  -0.00071805  1
  O  O69  1  -0.00071805  0.07800775  0.32944960  1
  O  O70  1  0.32944960  -0.00071805  0.07800775  1
  O  O71  1  0.17055040  0.00071805  0.57800775  1
  O  O72  1  0.49928195  0.42199225  0.67055040  1
  O  O73  1  0.67055040  0.49928195  0.42199225  1
  O  O74  1  0.50071805  0.92199225  0.82944960  1
  O  O75  1  0.44245800  0.25700622  0.49730434  1
