# generated using pymatgen
data_Rb2NbCuS4
_symmetry_space_group_name_H-M   'P 1'
_cell_length_a   13.98986513
_cell_length_b   12.47726316
_cell_length_c   7.46683337
_cell_angle_alpha   85.16063384
_cell_angle_beta   62.71025399
_cell_angle_gamma   32.12911218
_symmetry_Int_Tables_number   1
_chemical_formula_structural   Rb2NbCuS4
_chemical_formula_sum   'Rb4 Nb2 Cu2 S8'
_cell_volume   471.78364544
_cell_formula_units_Z   2
loop_
 _symmetry_equiv_pos_site_id
 _symmetry_equiv_pos_as_xyz
  1  'x, y, z'
loop_
 _atom_site_type_symbol
 _atom_site_label
 _atom_site_symmetry_multiplicity
 _atom_site_fract_x
 _atom_site_fract_y
 _atom_site_fract_z
 _atom_site_occupancy
  Rb  Rb0  1  0.54858300  0.55316000  0.20458800  1
  Rb  Rb1  1  0.19528500  0.20344200  0.55419400  1
  Rb  Rb2  1  0.44173600  0.45229400  0.81213600  1
  Rb  Rb3  1  0.79674400  0.81099700  0.45131200  1
  Nb  Nb4  1  0.63309200  0.61779600  0.61526700  1
  Nb  Nb5  1  0.38251200  0.37037200  0.36697600  1
  Cu  Cu6  1  0.13231400  0.12087900  0.11789400  1
  Cu  Cu7  1  0.86593600  0.88359400  0.88412300  1
  S  S8  1  0.18226300  0.46241700  0.76336400  1
  S  S9  1  0.07938600  0.77715800  0.47472500  1
  S  S10  1  0.77116000  0.08928700  0.17405500  1
  S  S11  1  0.46309800  0.17649300  0.09523800  1
  S  S12  1  0.53160700  0.82472500  0.91673700  1
  S  S13  1  0.90146000  0.24043100  0.53683700  1
  S  S14  1  0.24047800  0.90338600  0.82360600  1
  S  S15  1  0.81888800  0.53537500  0.23979200  1
