# generated using pymatgen
data_KPb2Cl5
_symmetry_space_group_name_H-M   'P 1'
_cell_length_a   8.10691252
_cell_length_b   8.83520918
_cell_length_c   12.49520094
_cell_angle_alpha   90.00000000
_cell_angle_beta   90.00000000
_cell_angle_gamma   90.00000000
_symmetry_Int_Tables_number   1
_chemical_formula_structural   KPb2Cl5
_chemical_formula_sum   'K4 Pb8 Cl20'
_cell_volume   894.98461022
_cell_formula_units_Z   4
loop_
 _symmetry_equiv_pos_site_id
 _symmetry_equiv_pos_as_xyz
  1  'x, y, z'
loop_
 _atom_site_type_symbol
 _atom_site_label
 _atom_site_symmetry_multiplicity
 _atom_site_fract_x
 _atom_site_fract_y
 _atom_site_fract_z
 _atom_site_occupancy
  K  K0  1  0.52871098  0.50503898  0.17215258  1
  K  K1  1  0.97128902  0.50503898  0.67215258  1
  K  K2  1  0.02871098  0.00503898  0.32784742  1
  K  K3  1  0.47128902  0.00503898  0.82784742  1
  Pb  Pb4  1  0.49704777  0.01515664  0.18131521  1
  Pb  Pb5  1  0.58161588  0.24768035  0.49680167  1
  Pb  Pb6  1  0.91838412  0.24768035  0.99680167  1
  Pb  Pb7  1  0.00295223  0.01515664  0.68131521  1
  Pb  Pb8  1  0.99704777  0.51515664  0.31868479  1
  Pb  Pb9  1  0.08161588  0.74768035  0.00319833  1
  Pb  Pb10  1  0.41838412  0.74768035  0.50319833  1
  Pb  Pb11  1  0.50295223  0.51515664  0.81868479  1
  Cl  Cl12  1  0.54666411  0.24329917  0.00414116  1
  Cl  Cl13  1  0.64559739  0.73238805  0.69039589  1
  Cl  Cl14  1  0.67629773  0.53897460  0.41037297  1
  Cl  Cl15  1  0.65499007  0.95535764  0.40089095  1
  Cl  Cl16  1  0.68663554  0.26214258  0.72348463  1
  Cl  Cl17  1  0.81336446  0.26214258  0.22348463  1
  Cl  Cl18  1  0.84500993  0.95535764  0.90089095  1
  Cl  Cl19  1  0.82370227  0.53897460  0.91037297  1
  Cl  Cl20  1  0.85440261  0.73238805  0.19039589  1
  Cl  Cl21  1  0.95333589  0.24329917  0.50414116  1
  Cl  Cl22  1  0.04666411  0.74329917  0.49585884  1
  Cl  Cl23  1  0.14559739  0.23238805  0.80960411  1
  Cl  Cl24  1  0.15499007  0.45535764  0.09910905  1
  Cl  Cl25  1  0.17629773  0.03897460  0.08962703  1
  Cl  Cl26  1  0.18663554  0.76214258  0.77651537  1
  Cl  Cl27  1  0.31336446  0.76214258  0.27651537  1
  Cl  Cl28  1  0.32370227  0.03897460  0.58962703  1
  Cl  Cl29  1  0.34500993  0.45535764  0.59910905  1
  Cl  Cl30  1  0.35440261  0.23238805  0.30960411  1
  Cl  Cl31  1  0.45333589  0.74329917  0.99585884  1
