# generated using pymatgen
data_C
_symmetry_space_group_name_H-M   'P 1'
_cell_length_a   2.51003140
_cell_length_b   2.51003199
_cell_length_c   8.28026261
_cell_angle_alpha   90.00000000
_cell_angle_beta   90.00000000
_cell_angle_gamma   119.99999220
_symmetry_Int_Tables_number   1
_chemical_formula_structural   C
_chemical_formula_sum   C8
_cell_volume   45.17864359
_cell_formula_units_Z   8
loop_
 _symmetry_equiv_pos_site_id
 _symmetry_equiv_pos_as_xyz
  1  'x, y, z'
loop_
 _atom_site_type_symbol
 _atom_site_label
 _atom_site_symmetry_multiplicity
 _atom_site_fract_x
 _atom_site_fract_y
 _atom_site_fract_z
 _atom_site_occupancy
  C  C0  1  0.00000000  -0.00000000  0.59291292  1
  C  C1  1  0.33333300  0.66666700  0.34446448  1
  C  C2  1  -0.00000000  -0.00000000  0.40708708  1
  C  C3  1  0.66666700  0.33333300  0.65553552  1
  C  C4  1  0.00000000  0.00000000  0.90708708  1
  C  C5  1  0.33333300  0.66666700  0.15553552  1
  C  C6  1  0.00000000  0.00000000  0.09291292  1
  C  C7  1  0.66666700  0.33333300  0.84446448  1
