# generated using pymatgen
data_H3NO4
_symmetry_space_group_name_H-M   'P 1'
_cell_length_a   5.43055620
_cell_length_b   6.17575005
_cell_length_c   8.60927030
_cell_angle_alpha   90.00000000
_cell_angle_beta   90.00000000
_cell_angle_gamma   90.00000000
_symmetry_Int_Tables_number   1
_chemical_formula_structural   H3NO4
_chemical_formula_sum   'H12 N4 O16'
_cell_volume   288.73562150
_cell_formula_units_Z   4
loop_
 _symmetry_equiv_pos_site_id
 _symmetry_equiv_pos_as_xyz
  1  'x, y, z'
loop_
 _atom_site_type_symbol
 _atom_site_label
 _atom_site_symmetry_multiplicity
 _atom_site_fract_x
 _atom_site_fract_y
 _atom_site_fract_z
 _atom_site_occupancy
  H  H0  1  0.08551577  0.87557569  0.32635440  1
  H  H1  1  0.58551577  0.12442431  0.67364560  1
  H  H2  1  0.58551577  0.62442431  0.82635440  1
  H  H3  1  0.08551577  0.37557569  0.17364560  1
  H  H4  1  0.80214138  0.90705254  0.25042860  1
  H  H5  1  0.04872507  0.87936180  0.13542889  1
  H  H6  1  0.54872507  0.12063820  0.86457111  1
  H  H7  1  0.30214138  0.09294746  0.74957140  1
  H  H8  1  0.30214138  0.59294746  0.75042860  1
  H  H9  1  0.54872507  0.62063820  0.63542889  1
  H  H10  1  0.80214138  0.40705254  0.24957140  1
  H  H11  1  0.04872507  0.37936180  0.36457111  1
  N  N12  1  0.47763694  0.79780801  0.40426804  1
  N  N13  1  0.97763694  0.20219199  0.59573196  1
  N  N14  1  0.97763694  0.70219199  0.90426804  1
  N  N15  1  0.47763694  0.29780801  0.09573196  1
  O  O16  1  0.65210033  0.72037341  0.48315419  1
  O  O17  1  0.15210033  0.27962659  0.51684581  1
  O  O18  1  0.15210033  0.77962659  -0.01684581  1
  O  O19  1  0.65210033  0.22037341  0.01684581  1
  O  O20  1  0.26026634  0.78818613  0.45520253  1
  O  O21  1  0.76026634  0.21181387  0.54479747  1
  O  O22  1  0.76026634  0.71181387  0.95520253  1
  O  O23  1  0.26026634  0.28818613  0.04479747  1
  O  O24  1  0.52044113  0.88422427  0.27469488  1
  O  O25  1  0.02044113  0.11577573  0.72530512  1
  O  O26  1  0.02044113  0.61577573  0.77469488  1
  O  O27  1  0.52044113  0.38422427  0.22530512  1
  O  O28  1  0.98490206  0.94001847  0.23793167  1
  O  O29  1  0.48490206  0.05998153  0.76206833  1
  O  O30  1  0.48490206  0.55998153  0.73793167  1
  O  O31  1  0.98490206  0.44001847  0.26206833  1
