# generated using pymatgen
data_Nb4Te17I4
_symmetry_space_group_name_H-M   'P 1'
_cell_length_a   9.30568929
_cell_length_b   9.30571592
_cell_length_c   27.07673165
_cell_angle_alpha   77.08387362
_cell_angle_beta   77.09785589
_cell_angle_gamma   54.15040774
_symmetry_Int_Tables_number   1
_chemical_formula_structural   Nb4Te17I4
_chemical_formula_sum   'Nb8 Te34 I8'
_cell_volume   1839.75168010
_cell_formula_units_Z   2
loop_
 _symmetry_equiv_pos_site_id
 _symmetry_equiv_pos_as_xyz
  1  'x, y, z'
loop_
 _atom_site_type_symbol
 _atom_site_label
 _atom_site_symmetry_multiplicity
 _atom_site_fract_x
 _atom_site_fract_y
 _atom_site_fract_z
 _atom_site_occupancy
  Nb  Nb0  1  0.09350936  0.52569993  0.44289124  1
  Nb  Nb1  1  0.90652368  0.47433475  0.55711089  1
  Nb  Nb2  1  0.62114506  0.22490615  0.82843155  1
  Nb  Nb3  1  0.52577065  0.09347968  0.94289237  1
  Nb  Nb4  1  0.77512007  0.37892184  0.67155243  1
  Nb  Nb5  1  0.47425705  0.90655821  0.05710572  1
  Nb  Nb6  1  0.22477708  0.62109743  0.32844624  1
  Nb  Nb7  1  0.37874574  0.77517338  0.17156796  1
  Te  Te8  1  0.41814023  0.45964624  0.90702724  1
  Te  Te9  1  0.07500834  0.66281323  0.53027604  1
  Te  Te10  1  0.09953747  0.35090945  0.64564631  1
  Te  Te11  1  0.33709776  0.92513281  0.96972111  1
  Te  Te12  1  0.58184030  0.54039490  0.09296652  1
  Te  Te13  1  0.66526886  0.73209868  0.63280118  1
  Te  Te14  1  0.61004984  0.19587296  0.72492846  1
  Te  Te15  1  0.79789317  0.76099985  0.99062657  1
  Te  Te16  1  0.96497877  0.88013793  0.82303848  1
  Te  Te17  1  0.54726155  0.45232628  0.25005942  1
  Te  Te18  1  0.76114858  0.79795477  0.49059422  1
  Te  Te19  1  0.90561270  0.14829764  0.59983084  1
  Te  Te20  1  0.33468191  0.26793791  0.36721752  1
  Te  Te21  1  0.45970986  0.41806828  0.40702628  1
  Te  Te22  1  0.23901926  0.20210658  0.50946357  1
  Te  Te23  1  0.03497378  0.11989857  0.17698865  1
  Te  Te24  1  0.11987620  0.03510005  0.67699951  1
  Te  Te25  1  0.19567470  0.61011601  0.22493608  1
  Te  Te26  1  0.45265855  0.54754043  0.74998711  1
  Te  Te27  1  0.80435748  0.38982768  0.77504508  1
  Te  Te28  1  0.26798247  0.33472089  0.86718159  1
  Te  Te29  1  0.88012181  0.96491076  0.32300409  1
  Te  Te30  1  0.20203976  0.23913843  0.00935747  1
  Te  Te31  1  0.38990241  0.80405769  0.27505471  1
  Te  Te32  1  0.92508770  0.33719056  0.46973729  1
  Te  Te33  1  0.66273537  0.07503318  0.03028720  1
  Te  Te34  1  0.64918130  0.90041278  0.85437031  1
  Te  Te35  1  0.85169894  0.09442912  0.90017884  1
  Te  Te36  1  0.35078424  0.09959622  0.14563950  1
  Te  Te37  1  0.73198430  0.66533355  0.13281675  1
  Te  Te38  1  0.09447608  0.85162906  0.40017174  1
  Te  Te39  1  0.54025965  0.58198731  0.59295946  1
  Te  Te40  1  0.14826712  0.90566899  0.09979687  1
  Te  Te41  1  0.90040099  0.64906644  0.35438305  1
  I  I42  1  0.52780500  0.26161777  0.55559152  1
  I  I43  1  0.90223339  0.79857099  0.70612479  1
  I  I44  1  0.20193141  0.09738107  0.79368480  1
  I  I45  1  0.73816605  0.47206110  0.94448629  1
  I  I46  1  0.26206080  0.52796317  0.05549182  1
  I  I47  1  0.09780635  0.20137762  0.29384856  1
  I  I48  1  0.79836931  0.90249503  0.20614654  1
  I  I49  1  0.47206457  0.73800865  0.44450720  1
