# generated using pymatgen
data_TaP2NCl12
_symmetry_space_group_name_H-M   'P 1'
_cell_length_a   8.07832988
_cell_length_b   8.07832988
_cell_length_c   15.39205684
_cell_angle_alpha   78.31437745
_cell_angle_beta   78.31437745
_cell_angle_gamma   65.51184337
_symmetry_Int_Tables_number   1
_chemical_formula_structural   TaP2NCl12
_chemical_formula_sum   'Ta2 P4 N2 Cl24'
_cell_volume   887.21380437
_cell_formula_units_Z   2
loop_
 _symmetry_equiv_pos_site_id
 _symmetry_equiv_pos_as_xyz
  1  'x, y, z'
loop_
 _atom_site_type_symbol
 _atom_site_label
 _atom_site_symmetry_multiplicity
 _atom_site_fract_x
 _atom_site_fract_y
 _atom_site_fract_z
 _atom_site_occupancy
  Ta  Ta0  1  -0.00000000  -0.00000000  0.50000000  1
  Ta  Ta1  1  -0.00000000  -0.00000000  -0.00000000  1
  P  P2  1  0.45884893  0.31751689  0.27126237  1
  P  P3  1  0.68248311  0.54115107  0.22873763  1
  P  P4  1  0.31751689  0.45884893  0.77126237  1
  P  P5  1  0.54115107  0.68248311  0.72873763  1
  N  N6  1  0.37639218  0.62360782  0.75000000  1
  N  N7  1  0.62360782  0.37639218  0.25000000  1
  Cl  Cl8  1  0.76675063  0.49850448  0.67394017  1
  Cl  Cl9  1  0.27017632  0.39773108  0.66394817  1
  Cl  Cl10  1  0.39773108  0.27017632  0.16394817  1
  Cl  Cl11  1  0.49850448  0.76675063  0.17394017  1
  Cl  Cl12  1  0.10334634  0.21635680  0.52864140  1
  Cl  Cl13  1  0.04664634  0.09470926  0.34500619  1
  Cl  Cl14  1  0.50149552  0.23324937  0.82605983  1
  Cl  Cl15  1  0.09470926  0.04664634  0.84500619  1
  Cl  Cl16  1  0.08922603  0.51549500  0.85371140  1
  Cl  Cl17  1  0.91077397  0.48450500  0.14628860  1
  Cl  Cl18  1  0.90529074  0.95335366  0.15499381  1
  Cl  Cl19  1  0.69668898  0.22330925  0.50902456  1
  Cl  Cl20  1  0.21635680  0.10334634  0.02864140  1
  Cl  Cl21  1  0.95335366  0.90529074  0.65499381  1
  Cl  Cl22  1  0.30331102  0.77669075  0.49097544  1
  Cl  Cl23  1  0.22330925  0.69668898  0.00902456  1
  Cl  Cl24  1  0.51549500  0.08922603  0.35371140  1
  Cl  Cl25  1  0.78364320  0.89665366  0.97135860  1
  Cl  Cl26  1  0.23324937  0.50149552  0.32605983  1
  Cl  Cl27  1  0.48450500  0.91077397  0.64628860  1
  Cl  Cl28  1  0.89665366  0.78364320  0.47135860  1
  Cl  Cl29  1  0.72982368  0.60226992  0.33605183  1
  Cl  Cl30  1  0.60226892  0.72982368  0.83605183  1
  Cl  Cl31  1  0.77669075  0.30331102  0.99097544  1
