# generated using pymatgen
data_KYH4C4O9
_symmetry_space_group_name_H-M   'P 1'
_cell_length_a   6.34494819
_cell_length_b   6.57860642
_cell_length_c   6.79751367
_cell_angle_alpha   108.75180241
_cell_angle_beta   112.38854038
_cell_angle_gamma   103.02199636
_symmetry_Int_Tables_number   1
_chemical_formula_structural   KYH4C4O9
_chemical_formula_sum   'K1 Y1 H4 C4 O9'
_cell_volume   227.98437451
_cell_formula_units_Z   1
loop_
 _symmetry_equiv_pos_site_id
 _symmetry_equiv_pos_as_xyz
  1  'x, y, z'
loop_
 _atom_site_type_symbol
 _atom_site_label
 _atom_site_symmetry_multiplicity
 _atom_site_fract_x
 _atom_site_fract_y
 _atom_site_fract_z
 _atom_site_occupancy
  K  K0  1  0.16161270  0.67831085  0.43503602  1
  Y  Y1  1  0.98037865  0.99045555  0.98783134  1
  H  H2  1  0.58802251  0.36240482  0.26480928  1
  H  H3  1  0.95782014  0.38461178  0.69394798  1
  H  H4  1  0.39632856  0.26501843  0.75320246  1
  H  H5  1  0.59575313  0.82210268  0.31817111  1
  C  C6  1  0.58405114  0.19852017  0.14721982  1
  C  C7  1  0.04063608  0.46210361  0.88988559  1
  C  C8  1  0.35548491  0.27820732  0.58704256  1
  C  C9  1  0.69825377  0.86649714  0.50886009  1
  O  O10  1  0.37710956  0.02756691  0.00991492  1
  O  O11  1  0.79132369  0.20230965  0.16558645  1
  O  O12  1  0.12475339  0.34691356  0.99336314  1
  O  O13  1  0.04628973  0.66016963  0.99695447  1
  O  O14  1  0.20478125  0.10023457  0.39102089  1
  O  O15  1  0.46126907  0.47440666  0.60089464  1
  O  O16  1  0.63690350  0.97763519  0.65238841  1
  O  O17  1  0.87673052  0.80381162  0.58009618  1
  O  O18  1  0.65569670  0.70912086  0.97297363  1
