# generated using pymatgen
data_Na2MgSiO4
_symmetry_space_group_name_H-M   'P 1'
_cell_length_a   5.23032810
_cell_length_b   5.48173708
_cell_length_c   6.93723659
_cell_angle_alpha   90.00000000
_cell_angle_beta   90.20059397
_cell_angle_gamma   90.00000000
_symmetry_Int_Tables_number   1
_chemical_formula_structural   Na2MgSiO4
_chemical_formula_sum   'Na4 Mg2 Si2 O8'
_cell_volume   198.89825781
_cell_formula_units_Z   2
loop_
 _symmetry_equiv_pos_site_id
 _symmetry_equiv_pos_as_xyz
  1  'x, y, z'
loop_
 _atom_site_type_symbol
 _atom_site_label
 _atom_site_symmetry_multiplicity
 _atom_site_fract_x
 _atom_site_fract_y
 _atom_site_fract_z
 _atom_site_occupancy
  Na  Na0  1  0.51297379  0.33118069  0.25015817  1
  Na  Na1  1  0.00871861  0.18336077  0.49441753  1
  Na  Na2  1  0.01297379  0.66881931  0.75015817  1
  Na  Na3  1  0.50871861  0.81663923  0.99441753  1
  Mg  Mg4  1  0.99941129  0.18474916  -0.00009254  1
  Mg  Mg5  1  0.49941129  0.81525084  0.49990746  1
  Si  Si6  1  0.49479879  0.31401245  0.74764534  1
  Si  Si7  1  0.99479879  0.68598755  0.24764534  1
  O  O8  1  0.13591895  0.79023222  0.44152853  1
  O  O9  1  0.63591895  0.20976778  0.94152853  1
  O  O10  1  0.07619550  0.84286641  0.05582779  1
  O  O11  1  0.57619550  0.15713359  0.55582779  1
  O  O12  1  0.18597903  0.28868058  0.77572030  1
  O  O13  1  0.57007304  0.60200419  0.71834287  1
  O  O14  1  0.07007304  0.39799481  0.21834287  1
  O  O15  1  0.68597903  0.71131942  0.27572030  1
