# generated using pymatgen
data_Ba3(H6Ir)2
_symmetry_space_group_name_H-M   'P 1'
_cell_length_a   5.50894140
_cell_length_b   5.50896143
_cell_length_c   8.90146958
_cell_angle_alpha   90.00003417
_cell_angle_beta   90.00132420
_cell_angle_gamma   120.00018343
_symmetry_Int_Tables_number   1
_chemical_formula_structural   Ba3(H6Ir)2
_chemical_formula_sum   'Ba3 H12 Ir2'
_cell_volume   233.95343468
_cell_formula_units_Z   1
loop_
 _symmetry_equiv_pos_site_id
 _symmetry_equiv_pos_as_xyz
  1  'x, y, z'
loop_
 _atom_site_type_symbol
 _atom_site_label
 _atom_site_symmetry_multiplicity
 _atom_site_fract_x
 _atom_site_fract_y
 _atom_site_fract_z
 _atom_site_occupancy
  Ba  Ba0  1  0.00000000  -0.00000000  0.00000000  1
  Ba  Ba1  1  0.66666042  0.33333031  0.35830236  1
  Ba  Ba2  1  0.33333958  0.66666969  0.64169764  1
  H  H3  1  0.18703762  0.81295345  0.34695384  1
  H  H4  1  0.62589326  0.81294666  0.34694684  1
  H  H5  1  0.18703702  0.37408338  0.34695369  1
  H  H6  1  0.81296238  0.18704655  0.65304616  1
  H  H7  1  0.37410674  0.18705334  0.65305316  1
  H  H8  1  0.81296298  0.62591662  0.65304631  1
  H  H9  1  0.52754018  0.05507626  0.87248282  1
  H  H10  1  0.52754044  0.47246504  0.87248295  1
  H  H11  1  0.94494214  0.47247147  0.87248827  1
  H  H12  1  0.47245982  0.94492374  0.12751718  1
  H  H13  1  0.47245956  0.52753496  0.12751705  1
  H  H14  1  0.05505786  0.52752853  0.12751173  1
  Ir  Ir15  1  0.66663114  0.33331543  0.75985233  1
  Ir  Ir16  1  0.33336886  0.66668457  0.24014767  1
