# generated using pymatgen
data_Sr(AlS2)2
_symmetry_space_group_name_H-M   'P 1'
_cell_length_a   14.80099946
_cell_length_b   12.24695321
_cell_length_c   11.99332931
_cell_angle_alpha   75.25696413
_cell_angle_beta   53.14911161
_cell_angle_gamma   51.59392425
_symmetry_Int_Tables_number   1
_chemical_formula_structural   Sr(AlS2)2
_chemical_formula_sum   'Sr8 Al16 S32'
_cell_volume   1338.83018038
_cell_formula_units_Z   8
loop_
 _symmetry_equiv_pos_site_id
 _symmetry_equiv_pos_as_xyz
  1  'x, y, z'
loop_
 _atom_site_type_symbol
 _atom_site_label
 _atom_site_symmetry_multiplicity
 _atom_site_fract_x
 _atom_site_fract_y
 _atom_site_fract_z
 _atom_site_occupancy
  Sr  Sr0  1  0.87622200  0.87338300  0.37797700  1
  Sr  Sr1  1  0.37952200  0.37458000  0.87507000  1
  Sr  Sr2  1  0.12843000  0.12405100  0.62640700  1
  Sr  Sr3  1  0.62142300  0.62227600  0.12578800  1
  Sr  Sr4  1  0.62153800  0.62679900  0.63024000  1
  Sr  Sr5  1  0.37644700  0.37156600  0.37793700  1
  Sr  Sr6  1  0.12513800  0.12118300  0.12783200  1
  Sr  Sr7  1  0.87110400  0.87910900  0.87905600  1
  Al  Al8  1  0.89234400  0.60572400  0.13112200  1
  Al  Al9  1  0.86972500  0.13437900  0.60740700  1
  Al  Al10  1  0.13711800  0.86443000  0.88602500  1
  Al  Al11  1  0.60363300  0.89384000  0.86612200  1
  Al  Al12  1  0.10425700  0.39431600  0.86579100  1
  Al  Al13  1  0.13140400  0.86788100  0.38998600  1
  Al  Al14  1  0.86208700  0.13820100  0.11285200  1
  Al  Al15  1  0.38677900  0.11252300  0.13598400  1
  Al  Al16  1  0.02982300  0.47256000  0.36588100  1
  Al  Al17  1  0.63172400  0.36684100  0.47163100  1
  Al  Al18  1  0.36599700  0.63347900  0.03314700  1
  Al  Al19  1  0.46763400  0.02875500  0.63607200  1
  Al  Al20  1  0.96942900  0.53366300  0.63286300  1
  Al  Al21  1  0.35829400  0.63874300  0.53318100  1
  Al  Al22  1  0.63945700  0.35787000  0.96808500  1
  Al  Al23  1  0.52913300  0.96687600  0.36758600  1
  S  S24  1  0.30864200  0.19456900  0.83646400  1
  S  S25  1  0.15540700  0.83979700  0.19238800  1
  S  S26  1  0.83887600  0.16407400  0.30986600  1
  S  S27  1  0.18677100  0.31029100  0.16390000  1
  S  S28  1  0.68491000  0.81034000  0.16619400  1
  S  S29  1  0.84497400  0.15928600  0.80531600  1
  S  S30  1  0.15791400  0.84320100  0.68799000  1
  S  S31  1  0.80695300  0.69328300  0.83812000  1
  S  S32  1  0.91302800  0.92354900  0.58337500  1
  S  S33  1  0.07545600  0.58197800  0.92334000  1
  S  S34  1  0.58486100  0.07484700  0.91695200  1
  S  S35  1  0.92434200  0.91359900  0.07670700  1
  S  S36  1  0.07836300  0.08398700  0.41811500  1
  S  S37  1  0.92250100  0.41359700  0.07897600  1
  S  S38  1  0.41945500  0.91547100  0.08353500  1
  S  S39  1  0.07649000  0.08445900  0.92474200  1
  S  S40  1  0.41466000  0.41891700  0.58502500  1
  S  S41  1  0.07633300  0.58146100  0.42174500  1
  S  S42  1  0.58466500  0.07815800  0.41328200  1
  S  S43  1  0.42074200  0.41421800  0.07843500  1
  S  S44  1  0.58314200  0.57898900  0.41363000  1
  S  S45  1  0.92455000  0.41695700  0.57658200  1
  S  S46  1  0.41743400  0.92201900  0.57801400  1
  S  S47  1  0.57925100  0.58127200  0.92451100  1
  S  S48  1  0.64103600  0.85696000  0.66192000  1
  S  S49  1  0.34104200  0.66379700  0.84959000  1
  S  S50  1  0.66430500  0.33586900  0.64017700  1
  S  S51  1  0.85122200  0.64327600  0.34209000  1
  S  S52  1  0.35392900  0.14797400  0.33349600  1
  S  S53  1  0.65898000  0.34081100  0.14875500  1
  S  S54  1  0.33645400  0.66619600  0.35350800  1
  S  S55  1  0.14625400  0.35908400  0.66302500  1
