# generated using pymatgen
data_Cs2HgBr4
_symmetry_space_group_name_H-M   'P 1'
_cell_length_a   7.97773399
_cell_length_b   10.38992449
_cell_length_c   14.09203799
_cell_angle_alpha   90.00000000
_cell_angle_beta   90.00000000
_cell_angle_gamma   90.00000000
_symmetry_Int_Tables_number   1
_chemical_formula_structural   Cs2HgBr4
_chemical_formula_sum   'Cs8 Hg4 Br16'
_cell_volume   1168.06160247
_cell_formula_units_Z   4
loop_
 _symmetry_equiv_pos_site_id
 _symmetry_equiv_pos_as_xyz
  1  'x, y, z'
loop_
 _atom_site_type_symbol
 _atom_site_label
 _atom_site_symmetry_multiplicity
 _atom_site_fract_x
 _atom_site_fract_y
 _atom_site_fract_z
 _atom_site_occupancy
  Cs  Cs0  1  0.25000000  0.98219584  0.16914454  1
  Cs  Cs1  1  0.75000000  0.38613671  0.08053347  1
  Cs  Cs2  1  0.75000000  0.51780416  0.66914454  1
  Cs  Cs3  1  0.25000000  0.11386329  0.58053347  1
  Cs  Cs4  1  0.25000000  0.61386329  0.91946653  1
  Cs  Cs5  1  0.25000000  0.48219584  0.33085546  1
  Cs  Cs6  1  0.75000000  0.88613671  0.41946653  1
  Cs  Cs7  1  0.75000000  0.01780416  0.83085546  1
  Hg  Hg8  1  0.25000000  0.71903679  0.57708857  1
  Hg  Hg9  1  0.75000000  0.28096321  0.42291143  1
  Hg  Hg10  1  0.25000000  0.21903679  0.92291143  1
  Hg  Hg11  1  0.75000000  0.78096321  0.07708857  1
  Br  Br12  1  0.25000000  0.96902630  0.90372631  1
  Br  Br13  1  0.25000000  0.32130271  0.09681639  1
  Br  Br14  1  0.51828103  0.32716341  0.84728445  1
  Br  Br15  1  0.75000000  0.17869729  0.59681639  1
  Br  Br16  1  0.25000000  0.46902630  0.59627369  1
  Br  Br17  1  0.98171897  0.82716341  0.65271555  1
  Br  Br18  1  0.48171897  0.17283659  0.34728445  1
  Br  Br19  1  0.01828103  0.17283659  0.34728445  1
  Br  Br20  1  0.98171897  0.32716341  0.84728445  1
  Br  Br21  1  0.01828103  0.67283659  0.15271555  1
  Br  Br22  1  0.75000000  0.67869729  0.90318361  1
  Br  Br23  1  0.25000000  0.82130271  0.40318361  1
  Br  Br24  1  0.75000000  0.03097370  0.09627369  1
  Br  Br25  1  0.51828103  0.82716341  0.65271555  1
  Br  Br26  1  0.75000000  0.53097370  0.40372631  1
  Br  Br27  1  0.48171897  0.67283659  0.15271555  1
