# generated using pymatgen
data_RbTiAsO5
_symmetry_space_group_name_H-M   'P 1'
_cell_length_a   6.70833654
_cell_length_b   10.76169787
_cell_length_c   13.29144465
_cell_angle_alpha   90.00000000
_cell_angle_beta   90.00000000
_cell_angle_gamma   90.00000000
_symmetry_Int_Tables_number   1
_chemical_formula_structural   RbTiAsO5
_chemical_formula_sum   'Rb8 Ti8 As8 O40'
_cell_volume   959.55047385
_cell_formula_units_Z   8
loop_
 _symmetry_equiv_pos_site_id
 _symmetry_equiv_pos_as_xyz
  1  'x, y, z'
loop_
 _atom_site_type_symbol
 _atom_site_label
 _atom_site_symmetry_multiplicity
 _atom_site_fract_x
 _atom_site_fract_y
 _atom_site_fract_z
 _atom_site_occupancy
  Rb  Rb0  1  0.19184615  0.40595053  0.38951857  1
  Rb  Rb1  1  0.80815385  0.90595053  0.61048143  1
  Rb  Rb2  1  0.30815385  0.40595053  0.88951857  1
  Rb  Rb3  1  0.69184615  0.90595053  0.11048143  1
  Rb  Rb4  1  0.28187603  0.15424550  0.11841242  1
  Rb  Rb5  1  0.71812397  0.65424550  0.88158758  1
  Rb  Rb6  1  0.21812397  0.15424550  0.61841242  1
  Rb  Rb7  1  0.78187603  0.65424550  0.38158758  1
  Ti  Ti8  1  0.00384769  0.47261666  0.12766616  1
  Ti  Ti9  1  0.50384769  0.97261666  0.37233384  1
  Ti  Ti10  1  0.49615231  0.47261666  0.62766616  1
  Ti  Ti11  1  0.99615231  0.97261666  0.87233384  1
  Ti  Ti12  1  0.26211141  0.72356234  0.24703083  1
  Ti  Ti13  1  0.73788859  0.22356234  0.75296917  1
  Ti  Ti14  1  0.23788859  0.72356234  0.74703083  1
  Ti  Ti15  1  0.76211141  0.22356234  0.25296917  1
  As  As16  1  0.00653397  0.96699659  0.32070928  1
  As  As17  1  0.66905682  0.21923800  0.50054495  1
  As  As18  1  0.16905682  0.71923800  0.99945505  1
  As  As19  1  0.83094318  0.21923800  0.00054495  1
  As  As20  1  0.33094318  0.71923800  0.49945505  1
  As  As21  1  0.50653397  0.46699659  0.17929072  1
  As  As22  1  0.49346603  0.96699659  0.82070928  1
  As  As23  1  0.99346603  0.46699659  0.67929072  1
  O  O24  1  0.96257635  0.08897557  0.24279553  1
  O  O25  1  0.03742365  0.58897557  0.75720447  1
  O  O26  1  0.53742365  0.08897557  0.74279553  1
  O  O27  1  0.46257635  0.58897557  0.25720447  1
  O  O28  1  0.04264724  0.84433275  0.24134941  1
  O  O29  1  0.95735276  0.34433275  0.75865059  1
  O  O30  1  0.45735276  0.84433275  0.74134941  1
  O  O31  1  0.54264724  0.34433275  0.25865059  1
  O  O32  1  0.20685488  -0.00029492  0.39335937  1
  O  O33  1  0.79314512  0.49970508  0.60664063  1
  O  O34  1  0.29314512  -0.00029492  0.89335937  1
  O  O35  1  0.70685488  0.49970508  0.10664063  1
  O  O36  1  0.80487720  0.93081034  0.39138093  1
  O  O37  1  0.19512280  0.43081034  0.60861907  1
  O  O38  1  0.69512280  0.93081034  0.89138093  1
  O  O39  1  0.67850763  0.24177389  0.89952619  1
  O  O40  1  0.30487720  0.43081034  0.10861907  1
  O  O41  1  0.43618257  0.59013055  0.71773371  1
  O  O42  1  0.93618257  0.09013055  0.78226629  1
  O  O43  1  0.06381743  0.59013055  0.21773371  1
  O  O44  1  0.94883132  0.34063244  0.21755249  1
  O  O45  1  0.05116868  0.84063244  0.78244751  1
  O  O46  1  0.55116868  0.34063244  0.71755249  1
  O  O47  1  0.44883132  0.84063244  0.28244751  1
  O  O48  1  0.49272493  0.83718161  0.48711359  1
  O  O49  1  0.50727507  0.33718161  0.51288641  1
  O  O50  1  0.00727507  0.83718161  0.98711359  1
  O  O51  1  0.99272493  0.33718161  0.01288641  1
  O  O52  1  0.46385923  0.58568479  0.50993456  1
  O  O53  1  0.53614077  0.08568479  0.49006544  1
  O  O54  1  0.03614077  0.58568479  0.00993456  1
  O  O55  1  0.96385923  0.08568479  0.99006544  1
  O  O56  1  0.18743014  0.69846536  0.39513403  1
  O  O57  1  0.81256986  0.19846536  0.60486597  1
  O  O58  1  0.31256986  0.69846536  0.89513403  1
  O  O59  1  0.68743014  0.19846536  0.10486597  1
  O  O60  1  0.17850763  0.74177389  0.60047381  1
  O  O61  1  0.82149237  0.24177389  0.39952619  1
  O  O62  1  0.32149237  0.74177389  0.10047381  1
  O  O63  1  0.56381743  0.09013055  0.28226629  1
