# generated using pymatgen
data_Cs2H6Pt
_symmetry_space_group_name_H-M   'P 1'
_cell_length_a   6.34440910
_cell_length_b   6.34440910
_cell_length_c   6.34440910
_cell_angle_alpha   60.00000000
_cell_angle_beta   60.00000000
_cell_angle_gamma   60.00000000
_symmetry_Int_Tables_number   1
_chemical_formula_structural   Cs2H6Pt
_chemical_formula_sum   'Cs2 H6 Pt1'
_cell_volume   180.57538152
_cell_formula_units_Z   1
loop_
 _symmetry_equiv_pos_site_id
 _symmetry_equiv_pos_as_xyz
  1  'x, y, z'
loop_
 _atom_site_type_symbol
 _atom_site_label
 _atom_site_symmetry_multiplicity
 _atom_site_fract_x
 _atom_site_fract_y
 _atom_site_fract_z
 _atom_site_occupancy
  Cs  Cs0  1  0.75000000  0.75000000  0.75000000  1
  Cs  Cs1  1  0.25000000  0.25000000  0.25000000  1
  H  H2  1  0.18313823  0.81686177  0.81686177  1
  H  H3  1  0.18313823  0.18313823  0.81686177  1
  H  H4  1  0.18313823  0.81686177  0.18313823  1
  H  H5  1  0.81686177  0.18313823  0.18313823  1
  H  H6  1  0.81686177  0.81686177  0.18313823  1
  H  H7  1  0.81686177  0.18313823  0.81686177  1
  Pt  Pt8  1  -0.00000000  0.00000000  -0.00000000  1
