# generated using pymatgen
data_SiI4
_symmetry_space_group_name_H-M   'P 1'
_cell_length_a   12.27229368
_cell_length_b   12.27229368
_cell_length_c   12.27229368
_cell_angle_alpha   90.00000000
_cell_angle_beta   90.00000000
_cell_angle_gamma   90.00000000
_symmetry_Int_Tables_number   1
_chemical_formula_structural   SiI4
_chemical_formula_sum   'Si8 I32'
_cell_volume   1848.32023720
_cell_formula_units_Z   8
loop_
 _symmetry_equiv_pos_site_id
 _symmetry_equiv_pos_as_xyz
  1  'x, y, z'
loop_
 _atom_site_type_symbol
 _atom_site_label
 _atom_site_symmetry_multiplicity
 _atom_site_fract_x
 _atom_site_fract_y
 _atom_site_fract_z
 _atom_site_occupancy
  Si  Si0  1  0.36877402  0.63122598  0.13122598  1
  Si  Si1  1  0.13122598  0.13122598  0.13122598  1
  Si  Si2  1  0.86877402  0.63122598  0.36877402  1
  Si  Si3  1  0.13122598  0.36877402  0.63122598  1
  Si  Si4  1  0.63122598  0.13122598  0.36877402  1
  Si  Si5  1  0.36877402  0.86877402  0.63122598  1
  Si  Si6  1  0.86877402  0.86877402  0.86877402  1
  Si  Si7  1  0.63122598  0.36877402  0.86877402  1
  I  I8  1  0.99075344  0.74585727  0.47659256  1
  I  I9  1  0.02340744  0.49075344  0.74585727  1
  I  I10  1  0.74586266  0.24586266  0.25413734  1
  I  I11  1  0.75414273  0.52340744  0.49075344  1
  I  I12  1  0.25414273  0.52340744  0.00924656  1
  I  I13  1  0.00924656  0.25414273  0.52340744  1
  I  I14  1  0.47659256  0.99075344  0.74585727  1
  I  I15  1  0.24586266  0.25413734  0.74586266  1
  I  I16  1  0.75414273  0.97659256  0.99075344  1
  I  I17  1  0.74585727  0.02340744  0.49075344  1
  I  I18  1  0.25413734  0.75413734  0.74586266  1
  I  I19  1  0.24585727  0.47659256  0.50924656  1
  I  I20  1  0.52340744  0.49075344  0.75414273  1
  I  I21  1  0.47659256  0.50924656  0.24585727  1
  I  I22  1  0.24586266  0.24586266  0.24586266  1
  I  I23  1  0.99075344  0.75414273  0.97659256  1
  I  I24  1  0.25414273  0.97659256  0.50924656  1
  I  I25  1  0.74586266  0.25413734  0.75413734  1
  I  I26  1  0.50924656  0.24585727  0.47659256  1
  I  I27  1  0.00924656  0.24585727  0.02340744  1
  I  I28  1  0.24585727  0.02340744  0.00924656  1
  I  I29  1  0.25413734  0.74586266  0.24586266  1
  I  I30  1  0.50924656  0.25414273  0.97659256  1
  I  I31  1  0.74585727  0.47659256  0.99075344  1
  I  I32  1  0.97659256  0.99075344  0.75414273  1
  I  I33  1  0.49075344  0.75414273  0.52340744  1
  I  I34  1  0.75413734  0.74586266  0.25413734  1
  I  I35  1  0.52340744  0.00924656  0.25414273  1
  I  I36  1  0.75413734  0.75413734  0.75413734  1
  I  I37  1  0.02340744  0.00924656  0.24585727  1
  I  I38  1  0.97659256  0.50924656  0.25414273  1
  I  I39  1  0.49075344  0.74585727  0.02340744  1
