# generated using pymatgen
data_Ho7(CuTe4)3
_symmetry_space_group_name_H-M   'P 1'
_cell_length_a   7.48702060
_cell_length_b   7.48643396
_cell_length_c   14.18010156
_cell_angle_alpha   94.96723303
_cell_angle_beta   95.05940967
_cell_angle_gamma   119.98995828
_symmetry_Int_Tables_number   1
_chemical_formula_structural   Ho7(CuTe4)3
_chemical_formula_sum   'Ho7 Cu3 Te12'
_cell_volume   677.80283762
_cell_formula_units_Z   1
loop_
 _symmetry_equiv_pos_site_id
 _symmetry_equiv_pos_as_xyz
  1  'x, y, z'
loop_
 _atom_site_type_symbol
 _atom_site_label
 _atom_site_symmetry_multiplicity
 _atom_site_fract_x
 _atom_site_fract_y
 _atom_site_fract_z
 _atom_site_occupancy
  Ho  Ho0  1  0.57648473  0.58165071  0.74426386  1
  Ho  Ho1  1  0.33171692  0.66365970  0.99688362  1
  Ho  Ho2  1  0.08960130  0.75749676  0.25285616  1
  Ho  Ho3  1  0.24622223  0.90782054  0.74502439  1
  Ho  Ho4  1  0.74945704  0.07843195  0.25299100  1
  Ho  Ho5  1  0.91870252  0.25425117  0.74512705  1
  Ho  Ho6  1  0.41764982  0.41804453  0.25330286  1
  Cu  Cu7  1  0.86160895  0.52755728  0.58086566  1
  Cu  Cu8  1  0.47382463  0.14138888  0.42805351  1
  Cu  Cu9  1  0.80899685  0.81077201  0.42773532  1
  Te  Te10  1  0.12776086  0.13222114  0.38275088  1
  Te  Te11  1  0.80016405  0.46080609  0.38277898  1
  Te  Te12  1  0.95608490  0.62394549  0.87397984  1
  Te  Te13  1  0.70755794  0.70702704  0.12654329  1
  Te  Te14  1  0.45674118  0.78979994  0.38372721  1
  Te  Te15  1  0.87346943  0.87763659  0.61884654  1
  Te  Te16  1  0.62377706  0.95681776  0.87352115  1
  Te  Te17  1  0.37981873  0.04325393  0.12621380  1
  Te  Te18  1  0.53487482  0.20304747  0.61885714  1
  Te  Te19  1  0.29068346  0.29066740  0.87301206  1
  Te  Te20  1  0.04426482  0.37941667  0.12750133  1
  Te  Te21  1  0.20800076  0.53841795  0.61756634  1
