# generated using pymatgen
data_NaCrF6
_symmetry_space_group_name_H-M   'P 1'
_cell_length_a   5.80407637
_cell_length_b   7.56544225
_cell_length_c   9.33492214
_cell_angle_alpha   90.00000000
_cell_angle_beta   90.00000000
_cell_angle_gamma   90.00000000
_symmetry_Int_Tables_number   1
_chemical_formula_structural   NaCrF6
_chemical_formula_sum   'Na4 Cr4 F24'
_cell_volume   409.90020800
_cell_formula_units_Z   4
loop_
 _symmetry_equiv_pos_site_id
 _symmetry_equiv_pos_as_xyz
  1  'x, y, z'
loop_
 _atom_site_type_symbol
 _atom_site_label
 _atom_site_symmetry_multiplicity
 _atom_site_fract_x
 _atom_site_fract_y
 _atom_site_fract_z
 _atom_site_occupancy
  Na  Na0  1  0.25000000  0.16509652  0.50153547  1
  Na  Na1  1  0.75000000  0.66509652  0.99846453  1
  Na  Na2  1  0.75000000  0.83490348  0.49846453  1
  Na  Na3  1  0.25000000  0.33490348  0.00153547  1
  Cr  Cr4  1  0.75000000  0.11554842  0.77106459  1
  Cr  Cr5  1  0.75000000  0.38445158  0.27106459  1
  Cr  Cr6  1  0.25000000  0.61554842  0.72893541  1
  Cr  Cr7  1  0.25000000  0.88445158  0.22893541  1
  F  F8  1  0.03471160  0.95139603  0.35832623  1
  F  F9  1  0.75000000  0.17689515  0.19514365  1
  F  F10  1  0.03471160  0.54860397  0.85832623  1
  F  F11  1  0.46850879  0.82706327  0.10526972  1
  F  F12  1  0.25000000  0.82310485  0.80485635  1
  F  F13  1  0.96528840  0.04860397  0.64167377  1
  F  F14  1  0.03149121  0.82706327  0.10526972  1
  F  F15  1  0.75000000  0.89662428  0.83661747  1
  F  F16  1  0.75000000  0.60337572  0.33661747  1
  F  F17  1  0.53149121  0.32706327  0.39473028  1
  F  F18  1  0.46528840  0.54860397  0.85832623  1
  F  F19  1  0.25000000  0.39662428  0.66338253  1
  F  F20  1  0.96528840  0.45139603  0.14167377  1
  F  F21  1  0.53149121  0.17293673  0.89473028  1
  F  F22  1  0.53471160  0.45139603  0.14167377  1
  F  F23  1  0.53471160  0.04860397  0.64167377  1
  F  F24  1  0.25000000  0.67689515  0.30485635  1
  F  F25  1  0.46850879  0.67293673  0.60526972  1
  F  F26  1  0.46528840  0.95139603  0.35832623  1
  F  F27  1  0.03149121  0.67293673  0.60526972  1
  F  F28  1  0.96850879  0.17293673  0.89473028  1
  F  F29  1  0.75000000  0.32310485  0.69514365  1
  F  F30  1  0.25000000  0.10337572  0.16338253  1
  F  F31  1  0.96850879  0.32706327  0.39473028  1
