# generated using pymatgen
data_Tl2S
_symmetry_space_group_name_H-M   'P 1'
_cell_length_a   9.47438706
_cell_length_b   9.47438684
_cell_length_c   9.47438683
_cell_angle_alpha   81.42116123
_cell_angle_beta   81.42116527
_cell_angle_gamma   81.42116034
_symmetry_Int_Tables_number   1
_chemical_formula_structural   Tl2S
_chemical_formula_sum   'Tl18 S9'
_cell_volume   824.49938883
_cell_formula_units_Z   9
loop_
 _symmetry_equiv_pos_site_id
 _symmetry_equiv_pos_as_xyz
  1  'x, y, z'
loop_
 _atom_site_type_symbol
 _atom_site_label
 _atom_site_symmetry_multiplicity
 _atom_site_fract_x
 _atom_site_fract_y
 _atom_site_fract_z
 _atom_site_occupancy
  Tl  Tl0  1  0.33709461  0.96582788  0.99663976  1
  Tl  Tl1  1  0.99663976  0.33709461  0.96582788  1
  Tl  Tl2  1  0.96582788  0.99663976  0.33709461  1
  Tl  Tl3  1  0.62438987  0.29441621  0.33163672  1
  Tl  Tl4  1  0.33163672  0.62438987  0.29441621  1
  Tl  Tl5  1  0.29441621  0.33163672  0.62438987  1
  Tl  Tl6  1  0.95803045  0.62505869  0.66732395  1
  Tl  Tl7  1  0.66732395  0.95803045  0.62505869  1
  Tl  Tl8  1  0.62505869  0.66732395  0.95803045  1
  Tl  Tl9  1  0.67171599  0.33471777  0.70951030  1
  Tl  Tl10  1  0.33471777  0.70951030  0.67171599  1
  Tl  Tl11  1  0.70951030  0.67171599  0.33471777  1
  Tl  Tl12  1  0.34248939  0.00237591  0.37381859  1
  Tl  Tl13  1  0.00237591  0.37381859  0.34248939  1
  Tl  Tl14  1  0.37381859  0.34248939  0.00237591  1
  Tl  Tl15  1  0.00430062  0.71458918  0.04838175  1
  Tl  Tl16  1  0.71458918  0.04838175  0.00430062  1
  Tl  Tl17  1  0.04838175  0.00430062  0.71458918  1
  S  S18  1  0.30967246  0.65250187  0.98341478  1
  S  S19  1  0.65250187  0.98341478  0.30967246  1
  S  S20  1  0.98341478  0.30967246  0.65250187  1
  S  S21  1  0.68533567  0.36200107  0.02580106  1
  S  S22  1  0.36200107  0.02580106  0.68533567  1
  S  S23  1  0.02580106  0.68533567  0.36200107  1
  S  S24  1  0.64505021  0.64505021  0.64505021  1
  S  S25  1  0.31191268  0.31191268  0.31191268  1
  S  S26  1  0.02759258  0.02759258  0.02759258  1
