# generated using pymatgen
data_CsPbCl3
_symmetry_space_group_name_H-M   'P 1'
_cell_length_a   5.76356648
_cell_length_b   11.13439393
_cell_length_c   7.86750536
_cell_angle_alpha   44.95846599
_cell_angle_beta   90.00000000
_cell_angle_gamma   90.00000000
_symmetry_Int_Tables_number   1
_chemical_formula_structural   CsPbCl3
_chemical_formula_sum   'Cs2 Pb2 Cl6'
_cell_volume   356.75074463
_cell_formula_units_Z   2
loop_
 _symmetry_equiv_pos_site_id
 _symmetry_equiv_pos_as_xyz
  1  'x, y, z'
loop_
 _atom_site_type_symbol
 _atom_site_label
 _atom_site_symmetry_multiplicity
 _atom_site_fract_x
 _atom_site_fract_y
 _atom_site_fract_z
 _atom_site_occupancy
  Cs  Cs0  1  0.50000000  0.49498888  0.50000000  1
  Cs  Cs1  1  0.50000000  0.98979370  0.50000000  1
  Pb  Pb2  1  0.00000000  0.99343078  0.99871929  1
  Pb  Pb3  1  -0.00000000  0.49215006  0.00128071  1
  Cl  Cl4  1  -0.00000000  0.18458710  0.11729796  1
  Cl  Cl5  1  0.50000000  0.48960809  0.00210531  1
  Cl  Cl6  1  0.50000000  0.99171340  0.99789469  1
  Cl  Cl7  1  -0.00000000  0.30460917  0.50000000  1
  Cl  Cl8  1  0.00000000  0.68523076  0.50000000  1
  Cl  Cl9  1  -0.00000000  0.80188506  0.88270204  1
