# generated using pymatgen
data_Na2PdO3
_symmetry_space_group_name_H-M   'P 1'
_cell_length_a   5.37280513
_cell_length_b   5.37280513
_cell_length_c   42.16745917
_cell_angle_alpha   88.88933862
_cell_angle_beta   88.88933862
_cell_angle_gamma   120.00887098
_symmetry_Int_Tables_number   1
_chemical_formula_structural   Na2PdO3
_chemical_formula_sum   'Na32 Pd16 O48'
_cell_volume   1053.28217621
_cell_formula_units_Z   16
loop_
 _symmetry_equiv_pos_site_id
 _symmetry_equiv_pos_as_xyz
  1  'x, y, z'
loop_
 _atom_site_type_symbol
 _atom_site_label
 _atom_site_symmetry_multiplicity
 _atom_site_fract_x
 _atom_site_fract_y
 _atom_site_fract_z
 _atom_site_occupancy
  Na  Na0  1  0.66503715  0.95447446  0.06223371  1
  Na  Na1  1  0.12646516  0.75198167  0.68778618  1
  Na  Na2  1  0.01345463  0.98654537  0.00000000  1
  Na  Na3  1  0.35451424  0.64548576  0.00000000  1
  Na  Na4  1  0.05544770  0.67221375  0.87522271  1
  Na  Na5  1  0.87469196  0.49977014  0.43742879  1
  Na  Na6  1  0.77866879  0.72208066  0.75039274  1
  Na  Na7  1  0.09629180  0.40437929  0.75041523  1
  Na  Na8  1  0.81302865  0.43809181  0.62517728  1
  Na  Na9  1  0.04552554  0.33496285  0.93776629  1
  Na  Na10  1  0.62424806  0.25167258  0.18711473  1
  Na  Na11  1  0.52860493  0.47139507  0.50000000  1
  Na  Na12  1  0.84635645  0.15364355  0.50000000  1
  Na  Na13  1  0.74832742  0.37575194  0.81288527  1
  Na  Na14  1  0.56190819  0.18697135  0.37482272  1
  Na  Na15  1  0.27791934  0.22133121  0.24960726  1
  Na  Na16  1  0.59562071  0.90370820  0.24958477  1
  Na  Na17  1  0.69600104  0.30399896  0.00000000  1
  Na  Na18  1  0.50022986  0.12530804  0.56257121  1
  Na  Na19  1  0.32778625  0.94455230  0.12477729  1
  Na  Na20  1  0.39629971  0.35430309  0.87539255  1
  Na  Na21  1  0.73864756  0.03710593  0.87546373  1
  Na  Na22  1  0.43809767  0.06349233  0.75028346  1
  Na  Na23  1  0.24801833  0.87353484  0.31221382  1
  Na  Na24  1  0.15381889  0.09674476  0.62520051  1
  Na  Na25  1  0.47160032  0.77894214  0.62519618  1
  Na  Na26  1  0.18748944  0.81251056  0.50000000  1
  Na  Na27  1  0.90325524  0.84618111  0.37479949  1
  Na  Na28  1  0.22105786  0.52839968  0.37480382  1
  Na  Na29  1  0.93650767  0.56190233  0.24971654  1
  Na  Na30  1  0.64569691  0.60370029  0.12460745  1
  Na  Na31  1  0.96289407  0.26135244  0.12453627  1
  Pd  Pd32  1  0.37631389  0.00032409  0.93767038  1
  Pd  Pd33  1  0.41696953  0.70945340  0.81284879  1
  Pd  Pd34  1  0.16713575  0.45830233  0.56257784  1
  Pd  Pd35  1  -0.00032409  0.62368611  0.06232962  1
  Pd  Pd36  1  0.91592251  0.20728831  0.31227365  1
  Pd  Pd37  1  0.71023240  0.66731232  0.93767510  1
  Pd  Pd38  1  0.79271169  0.08407749  0.68772635  1
  Pd  Pd39  1  0.45882495  0.41791730  0.68772505  1
  Pd  Pd40  1  0.54169767  0.83286425  0.43742216  1
  Pd  Pd41  1  0.20781862  0.16674677  0.43742580  1
  Pd  Pd42  1  0.29054660  0.58303047  0.18715121  1
  Pd  Pd43  1  0.95760711  0.91699647  0.18716402  1
  Pd  Pd44  1  0.08300353  0.04239289  0.81283598  1
  Pd  Pd45  1  0.83325323  0.79218138  0.56257420  1
  Pd  Pd46  1  0.58208270  0.54117505  0.31227495  1
  Pd  Pd47  1  0.33268768  0.28976760  0.06232490  1
  O  O48  1  0.67390850  0.96417726  0.96392438  1
  O  O49  1  0.48046563  0.74257892  0.71406922  1
  O  O50  1  0.31135059  0.96441473  0.03605497  1
  O  O51  1  0.22950037  0.49147266  0.46375764  1
  O  O52  1  0.41440460  0.70486041  0.91134971  1
  O  O53  1  0.11948201  0.74575505  0.78654500  1
  O  O54  1  0.97891774  0.24247767  0.21345423  1
  O  O55  1  0.13399230  0.39635213  0.66140369  1
  O  O56  1  0.86976742  0.49481690  0.53624337  1
  O  O57  1  0.03558527  0.68864941  0.96394503  1
  O  O58  1  0.74131042  0.73041731  0.83916816  1
  O  O59  1  0.10271657  0.36730426  0.83910323  1
  O  O60  1  0.88310354  0.14508126  0.41108867  1
  O  O61  1  0.61841258  0.24373084  0.28595777  1
  O  O62  1  0.75626916  0.38158742  0.71404223  1
  O  O63  1  0.49183929  0.47997975  0.58891380  1
  O  O64  1  0.85491874  0.11689646  0.58891133  1
  O  O65  1  0.67428469  0.60191247  0.03602241  1
  O  O66  1  0.03582274  0.32609150  0.03607562  1
  O  O67  1  0.69099909  0.34241723  0.91148356  1
  O  O68  1  0.63269574  0.89728343  0.16089677  1
  O  O69  1  0.50518310  0.13023258  0.46375663  1
  O  O70  1  0.24073978  0.22893017  0.33860126  1
  O  O71  1  0.60364787  0.86600770  0.33859631  1
  O  O72  1  0.39508678  0.38385033  0.78651186  1
  O  O73  1  0.75752233  0.02108226  0.78654577  1
  O  O74  1  0.49535658  0.12056814  0.66139191  1
  O  O75  1  0.39808753  0.32571531  0.96397759  1
  O  O76  1  0.25424495  0.88051799  0.21345500  1
  O  O77  1  0.02052263  0.94811199  0.08859779  1
  O  O78  1  0.29513959  0.58559540  0.08865029  1
  O  O79  1  0.14544223  0.13356209  0.53624323  1
  O  O80  1  0.50852734  0.77049963  0.53624236  1
  O  O81  1  0.24427959  0.86933855  0.41109318  1
  O  O82  1  0.37874237  0.00479052  0.83919333  1
  O  O83  1  0.11727950  0.10589249  0.71408552  1
  O  O84  1  0.89410751  0.88272050  0.28591448  1
  O  O85  1  0.25742108  0.51953437  0.28593078  1
  O  O86  1  0.99520948  0.62125763  0.16080667  1
  O  O87  1  0.13066145  0.75572041  0.58890682  1
  O  O88  1  0.86643791  0.85455777  0.46375677  1
  O  O89  1  0.05188801  0.97947737  0.91140221  1
  O  O90  1  0.87943186  0.50464342  0.33860809  1
  O  O91  1  0.61614967  0.60491322  0.21348814  1
  O  O92  1  0.77106983  0.75926022  0.66139874  1
  O  O93  1  0.65758277  0.30900091  0.08851644  1
  O  O94  1  0.52002025  0.50816071  0.41108620  1
  O  O95  1  0.26958269  0.25868958  0.16083184  1
