# generated using pymatgen
data_La4(GeS4)3
_symmetry_space_group_name_H-M   'P 1'
_cell_length_a   11.62714429
_cell_length_b   11.62714429
_cell_length_c   11.62714466
_cell_angle_alpha   114.73384208
_cell_angle_beta   114.73384208
_cell_angle_gamma   114.73383320
_symmetry_Int_Tables_number   1
_chemical_formula_structural   La4(GeS4)3
_chemical_formula_sum   'La8 Ge6 S24'
_cell_volume   900.67808006
_cell_formula_units_Z   2
loop_
 _symmetry_equiv_pos_site_id
 _symmetry_equiv_pos_as_xyz
  1  'x, y, z'
loop_
 _atom_site_type_symbol
 _atom_site_label
 _atom_site_symmetry_multiplicity
 _atom_site_fract_x
 _atom_site_fract_y
 _atom_site_fract_z
 _atom_site_occupancy
  La  La0  1  0.56927553  0.02811151  0.79401391  1
  La  La1  1  0.06927553  0.29401391  0.52811151  1
  La  La2  1  0.29401391  0.52811151  0.06927553  1
  La  La3  1  0.52811151  0.06927553  0.29401391  1
  La  La4  1  0.00158615  0.00158615  0.00158615  1
  La  La5  1  0.02811151  0.79401391  0.56927553  1
  La  La6  1  0.79401391  0.56927553  0.02811151  1
  La  La7  1  0.50158615  0.50158615  0.50158615  1
  Ge  Ge8  1  0.85996616  0.03415268  0.64689913  1
  Ge  Ge9  1  0.35996616  0.14689913  0.53415268  1
  Ge  Ge10  1  0.64689913  0.85996616  0.03415268  1
  Ge  Ge11  1  0.14689913  0.53415268  0.35996616  1
  Ge  Ge12  1  0.03415268  0.64689913  0.85996616  1
  Ge  Ge13  1  0.53415268  0.35996616  0.14689913  1
  S  S14  1  0.31161177  0.12683262  0.31480972  1
  S  S15  1  0.12683262  0.31480972  0.31161177  1
  S  S16  1  0.65317208  0.92110029  0.37859010  1
  S  S17  1  0.31480972  0.31161177  0.12683262  1
  S  S18  1  0.91575825  0.20245201  0.88607727  1
  S  S19  1  0.62683262  0.81161177  0.81480972  1
  S  S20  1  0.15317208  0.87859010  0.42110029  1
  S  S21  1  0.11281064  0.18413230  0.71734788  1
  S  S22  1  0.87859010  0.42110029  0.15317208  1
  S  S23  1  0.21734788  0.68413230  0.61281064  1
  S  S24  1  0.88607727  0.91575825  0.20245201  1
  S  S25  1  0.18413230  0.71734788  0.11281064  1
  S  S26  1  0.81161177  0.81480972  0.62683262  1
  S  S27  1  0.38607727  0.70245201  0.41575825  1
  S  S28  1  0.41575825  0.38607727  0.70245201  1
  S  S29  1  0.20245201  0.88607727  0.91575825  1
  S  S30  1  0.71734788  0.11281064  0.18413230  1
  S  S31  1  0.81480972  0.62683262  0.81161177  1
  S  S32  1  0.70245201  0.41575825  0.38607727  1
  S  S33  1  0.61281064  0.21734788  0.68413230  1
  S  S34  1  0.92110029  0.37859010  0.65317208  1
  S  S35  1  0.42110029  0.15317208  0.87859010  1
  S  S36  1  0.68413230  0.61281064  0.21734788  1
  S  S37  1  0.37859010  0.65317208  0.92110029  1
