# generated using pymatgen
data_RbInS2
_symmetry_space_group_name_H-M   'P 1'
_cell_length_a   7.90538319
_cell_length_b   7.90538319
_cell_length_c   15.71531163
_cell_angle_alpha   82.76793579
_cell_angle_beta   82.76793579
_cell_angle_gamma   89.98950399
_symmetry_Int_Tables_number   1
_chemical_formula_structural   RbInS2
_chemical_formula_sum   'Rb8 In8 S16'
_cell_volume   966.44257507
_cell_formula_units_Z   8
loop_
 _symmetry_equiv_pos_site_id
 _symmetry_equiv_pos_as_xyz
  1  'x, y, z'
loop_
 _atom_site_type_symbol
 _atom_site_label
 _atom_site_symmetry_multiplicity
 _atom_site_fract_x
 _atom_site_fract_y
 _atom_site_fract_z
 _atom_site_occupancy
  Rb  Rb0  1  0.72276464  0.34737504  0.11212979  1
  Rb  Rb1  1  0.27798168  0.15351279  0.88737851  1
  Rb  Rb2  1  0.72201832  0.84648721  0.11262149  1
  Rb  Rb3  1  0.15351279  0.27798168  0.38737851  1
  Rb  Rb4  1  0.65262496  0.27723536  0.38787021  1
  Rb  Rb5  1  0.84648721  0.72201832  0.61262149  1
  Rb  Rb6  1  0.34737504  0.72276464  0.61212979  1
  Rb  Rb7  1  0.27723536  0.65262496  0.88787021  1
  In  In8  1  0.41330125  0.79027352  0.33971612  1
  In  In9  1  0.20972648  0.58669875  0.16028388  1
  In  In10  1  0.79027352  0.41330125  0.83971612  1
  In  In11  1  0.20977623  0.08331846  0.15999935  1
  In  In12  1  0.79022377  0.91668154  0.84000065  1
  In  In13  1  0.58669875  0.20972648  0.66028388  1
  In  In14  1  0.91668154  0.79022377  0.34000065  1
  In  In15  1  0.08331846  0.20977623  0.65999935  1
  S  S16  1  0.44564901  0.07071724  0.24969562  1
  S  S17  1  0.92933160  0.07066840  0.25000000  1
  S  S18  1  0.92928276  0.55435099  0.25030438  1
  S  S19  1  0.85911603  0.23396094  0.56301565  1
  S  S20  1  0.64092774  0.76708207  0.43522055  1
  S  S21  1  0.76708207  0.64092774  0.93522055  1
  S  S22  1  0.14088397  0.76603906  0.43698435  1
  S  S23  1  0.07066840  0.92933160  0.75000000  1
  S  S24  1  0.07071724  0.44564901  0.74969562  1
  S  S25  1  0.55443054  0.44556946  0.75000000  1
  S  S26  1  0.23396094  0.85911603  0.06301565  1
  S  S27  1  0.44556946  0.55443054  0.25000000  1
  S  S28  1  0.55435099  0.92928276  0.75030438  1
  S  S29  1  0.76603906  0.14088397  0.93698435  1
  S  S30  1  0.35907226  0.23291793  0.56477945  1
  S  S31  1  0.23291793  0.35907226  0.06477945  1
