# generated using pymatgen
data_V2Zn2O7
_symmetry_space_group_name_H-M   'P 1'
_cell_length_a   4.97961704
_cell_length_b   5.33649860
_cell_length_c   5.33649834
_cell_angle_alpha   105.00656651
_cell_angle_beta   98.94138996
_cell_angle_gamma   98.94138658
_symmetry_Int_Tables_number   1
_chemical_formula_structural   V2Zn2O7
_chemical_formula_sum   'V2 Zn2 O7'
_cell_volume   132.43413359
_cell_formula_units_Z   1
loop_
 _symmetry_equiv_pos_site_id
 _symmetry_equiv_pos_as_xyz
  1  'x, y, z'
loop_
 _atom_site_type_symbol
 _atom_site_label
 _atom_site_symmetry_multiplicity
 _atom_site_fract_x
 _atom_site_fract_y
 _atom_site_fract_z
 _atom_site_occupancy
  V  V0  1  0.89882870  0.23896068  0.23896068  1
  V  V1  1  0.10117130  0.76103932  0.76103932  1
  Zn  Zn2  1  0.50000000  0.31441961  0.68558039  1
  Zn  Zn3  1  0.50000000  0.68558039  0.31441961  1
  O  O4  1  0.22398108  0.42557431  0.42557431  1
  O  O5  1  0.77601892  0.57442569  0.57442569  1
  O  O6  1  0.29139078  0.94522428  0.60804872  1
  O  O7  1  0.70860922  0.39195128  0.05477572  1
  O  O8  1  0.00000000  0.00000000  0.00000000  1
  O  O9  1  0.29139078  0.60804872  0.94522428  1
  O  O10  1  0.70860922  0.05477572  0.39195128  1
