# generated using pymatgen
data_In7Te10
_symmetry_space_group_name_H-M   'P 1'
_cell_length_a   10.88740227
_cell_length_b   10.88740287
_cell_length_c   10.88740241
_cell_angle_alpha   88.89140331
_cell_angle_beta   88.89140627
_cell_angle_gamma   88.89140072
_symmetry_Int_Tables_number   1
_chemical_formula_structural   In7Te10
_chemical_formula_sum   'In14 Te20'
_cell_volume   1289.82859203
_cell_formula_units_Z   2
loop_
 _symmetry_equiv_pos_site_id
 _symmetry_equiv_pos_as_xyz
  1  'x, y, z'
loop_
 _atom_site_type_symbol
 _atom_site_label
 _atom_site_symmetry_multiplicity
 _atom_site_fract_x
 _atom_site_fract_y
 _atom_site_fract_z
 _atom_site_occupancy
  In  In0  1  0.74833373  0.33449522  0.16992246  1
  In  In1  1  0.14743843  0.11700932  0.42410060  1
  In  In2  1  0.57589940  0.88299068  0.85256157  1
  In  In3  1  0.16992246  0.74833373  0.33449522  1
  In  In4  1  0.83007754  0.66550478  0.25166627  1
  In  In5  1  0.85256157  0.57589940  0.88299068  1
  In  In6  1  0.42410060  0.14743843  0.11700932  1
  In  In7  1  0.42700825  0.42700825  0.42700825  1
  In  In8  1  0.57299175  0.57299175  0.57299175  1
  In  In9  1  0.25166627  0.83007754  0.66550478  1
  In  In10  1  0.11700932  0.42410060  0.14743843  1
  In  In11  1  0.88299068  0.85256157  0.57589940  1
  In  In12  1  0.66550478  0.25166627  0.83007754  1
  In  In13  1  0.33449522  0.16992246  0.74833373  1
  Te  Te14  1  0.07305255  0.66953817  0.56946394  1
  Te  Te15  1  0.33046183  0.92694745  0.43053606  1
  Te  Te16  1  0.56946394  0.07305255  0.66953817  1
  Te  Te17  1  0.83198407  0.16801593  -0.00000000  1
  Te  Te18  1  0.56244844  0.22687164  0.32050894  1
  Te  Te19  1  0.77312836  0.43755156  0.67949106  1
  Te  Te20  1  0.16801593  -0.00000000  0.83198407  1
  Te  Te21  1  0.90641224  0.09358776  0.50000000  1
  Te  Te22  1  0.16617498  0.16617498  0.16617498  1
  Te  Te23  1  0.00000000  0.83198407  0.16801593  1
  Te  Te24  1  0.22687164  0.32050894  0.56244844  1
  Te  Te25  1  0.43053606  0.33046183  0.92694745  1
  Te  Te26  1  0.43755156  0.67949106  0.77312836  1
  Te  Te27  1  0.83382502  0.83382502  0.83382502  1
  Te  Te28  1  0.50000000  0.90641224  0.09358776  1
  Te  Te29  1  0.66953817  0.56946394  0.07305255  1
  Te  Te30  1  0.67949106  0.77312836  0.43755156  1
  Te  Te31  1  0.92694745  0.43053606  0.33046183  1
  Te  Te32  1  0.09358776  0.50000000  0.90641224  1
  Te  Te33  1  0.32050894  0.56244844  0.22687164  1
