# generated using pymatgen
data_SrLi2Ta2O7
_symmetry_space_group_name_H-M   'P 1'
_cell_length_a   3.94070066
_cell_length_b   3.94070016
_cell_length_c   9.44985323
_cell_angle_alpha   102.03481470
_cell_angle_beta   102.03481443
_cell_angle_gamma   89.99999278
_symmetry_Int_Tables_number   1
_chemical_formula_structural   SrLi2Ta2O7
_chemical_formula_sum   'Sr1 Li2 Ta2 O7'
_cell_volume   140.22301526
_cell_formula_units_Z   1
loop_
 _symmetry_equiv_pos_site_id
 _symmetry_equiv_pos_as_xyz
  1  'x, y, z'
loop_
 _atom_site_type_symbol
 _atom_site_label
 _atom_site_symmetry_multiplicity
 _atom_site_fract_x
 _atom_site_fract_y
 _atom_site_fract_z
 _atom_site_occupancy
  Sr  Sr0  1  0.00000000  0.00000000  -0.00000000  1
  Li  Li1  1  0.25000000  0.75000000  0.50000000  1
  Li  Li2  1  0.75000000  0.25000000  0.50000000  1
  Ta  Ta3  1  0.61606534  0.61606534  0.23213068  1
  Ta  Ta4  1  0.38393466  0.38393466  0.76786932  1
  O  O5  1  0.50000000  0.50000000  -0.00000000  1
  O  O6  1  0.60531981  0.10531981  0.21063963  1
  O  O7  1  0.10531981  0.60531981  0.21063963  1
  O  O8  1  0.39468019  0.89468019  0.78936037  1
  O  O9  1  0.89468019  0.39468019  0.78936037  1
  O  O10  1  0.28040780  0.28040780  0.56081560  1
  O  O11  1  0.71959220  0.71959220  0.43918440  1
