# generated using pymatgen
data_Rb2LiSn4
_symmetry_space_group_name_H-M   'P 1'
_cell_length_a   9.76477096
_cell_length_b   14.88674751
_cell_length_c   15.02158045
_cell_angle_alpha   97.35979076
_cell_angle_beta   103.60427404
_cell_angle_gamma   102.50147471
_symmetry_Int_Tables_number   1
_chemical_formula_structural   Rb2LiSn4
_chemical_formula_sum   'Rb16 Li8 Sn32'
_cell_volume   2034.83019624
_cell_formula_units_Z   8
loop_
 _symmetry_equiv_pos_site_id
 _symmetry_equiv_pos_as_xyz
  1  'x, y, z'
loop_
 _atom_site_type_symbol
 _atom_site_label
 _atom_site_symmetry_multiplicity
 _atom_site_fract_x
 _atom_site_fract_y
 _atom_site_fract_z
 _atom_site_occupancy
  Rb  Rb0  1  0.65993062  0.46566877  0.93728727  1
  Rb  Rb1  1  0.84054269  0.04138663  0.06586565  1
  Rb  Rb2  1  0.03215569  0.64953391  0.88430717  1
  Rb  Rb3  1  0.39444595  0.09116958  0.56560709  1
  Rb  Rb4  1  0.98694580  0.88417126  0.61410143  1
  Rb  Rb5  1  0.15945731  0.95861337  0.93413435  1
  Rb  Rb6  1  0.50680441  0.13259274  0.87150417  1
  Rb  Rb7  1  0.49319559  0.86740726  0.12849583  1
  Rb  Rb8  1  0.89626385  0.59406261  0.56276662  1
  Rb  Rb9  1  0.53709337  0.39710587  0.62689021  1
  Rb  Rb10  1  0.60555405  0.90883042  0.43439291  1
  Rb  Rb11  1  0.10373615  0.40593739  0.43723338  1
  Rb  Rb12  1  0.46290663  0.60289413  0.37310979  1
  Rb  Rb13  1  0.34006938  0.53433123  0.06271273  1
  Rb  Rb14  1  0.96784431  0.35046609  0.11569283  1
  Rb  Rb15  1  0.01305420  0.11582874  0.38589857  1
  Li  Li16  1  0.70378479  0.24750388  0.45508938  1
  Li  Li17  1  0.20264519  0.95210022  0.25099896  1
  Li  Li18  1  0.70902141  0.75414136  0.95299953  1
  Li  Li19  1  0.29621521  0.75249612  0.54491062  1
  Li  Li20  1  0.29097859  0.24585864  0.04700047  1
  Li  Li21  1  0.20905429  0.45618110  0.75122869  1
  Li  Li22  1  0.79094571  0.54381890  0.24877131  1
  Li  Li23  1  0.79735481  0.04789978  0.74900104  1
  Sn  Sn24  1  0.08108768  0.64894283  0.36069498  1
  Sn  Sn25  1  0.86882939  0.13970931  0.59938147  1
  Sn  Sn26  1  0.49527713  0.90303553  0.69392782  1
  Sn  Sn27  1  0.13117061  0.86029069  0.40061853  1
  Sn  Sn28  1  0.24013634  0.14761167  0.19685507  1
  Sn  Sn29  1  0.25772665  0.76606063  0.26008981  1
  Sn  Sn30  1  0.49361891  0.13324477  0.11401841  1
  Sn  Sn31  1  0.74915501  0.68878367  0.13844858  1
  Sn  Sn32  1  0.88913915  0.88488196  0.24204207  1
  Sn  Sn33  1  0.34958177  0.60148492  0.64499554  1
  Sn  Sn34  1  0.74227335  0.23393937  0.73991019  1
  Sn  Sn35  1  0.75263275  0.23847549  0.26938268  1
  Sn  Sn36  1  0.02297669  0.79953451  0.10136491  1
  Sn  Sn37  1  0.50638109  0.86675523  0.88598159  1
  Sn  Sn38  1  0.34422532  0.36067697  0.23198163  1
  Sn  Sn39  1  0.60259478  0.74200134  0.61146610  1
  Sn  Sn40  1  0.98789814  0.39215018  0.85319785  1
  Sn  Sn41  1  0.50472287  0.09696447  0.30607218  1
  Sn  Sn42  1  0.39740522  0.25799866  0.38853390  1
  Sn  Sn43  1  0.97702331  0.20046549  0.89863509  1
  Sn  Sn44  1  0.82593157  0.73601750  0.35181671  1
  Sn  Sn45  1  0.17406843  0.26398250  0.64818329  1
  Sn  Sn46  1  0.65577468  0.63932303  0.76801837  1
  Sn  Sn47  1  0.91891232  0.35105717  0.63930502  1
  Sn  Sn48  1  0.25084499  0.31121633  0.86155142  1
  Sn  Sn49  1  0.65041823  0.39851508  0.35500446  1
  Sn  Sn50  1  0.01210186  0.60784982  0.14680215  1
  Sn  Sn51  1  0.24736725  0.76152451  0.73061732  1
  Sn  Sn52  1  0.11086085  0.11511804  0.75795793  1
  Sn  Sn53  1  0.75986366  0.85238833  0.80314493  1
  Sn  Sn54  1  0.59081989  0.34743023  0.14570171  1
  Sn  Sn55  1  0.40918011  0.65256977  0.85429829  1
