# generated using pymatgen
data_KTiPO5
_symmetry_space_group_name_H-M   'P 1'
_cell_length_a   6.40239156
_cell_length_b   10.55570413
_cell_length_c   12.79900886
_cell_angle_alpha   90.00000000
_cell_angle_beta   90.00000000
_cell_angle_gamma   90.00000000
_symmetry_Int_Tables_number   1
_chemical_formula_structural   KTiPO5
_chemical_formula_sum   'K8 Ti8 P8 O40'
_cell_volume   864.97943023
_cell_formula_units_Z   8
loop_
 _symmetry_equiv_pos_site_id
 _symmetry_equiv_pos_as_xyz
  1  'x, y, z'
loop_
 _atom_site_type_symbol
 _atom_site_label
 _atom_site_symmetry_multiplicity
 _atom_site_fract_x
 _atom_site_fract_y
 _atom_site_fract_z
 _atom_site_occupancy
  K  K0  1  0.19773063  0.56340274  0.60694378  1
  K  K1  1  0.22135289  0.80941941  0.37548806  1
  K  K2  1  0.72135289  0.30941941  0.12451194  1
  K  K3  1  0.27864711  0.80941941  0.87548806  1
  K  K4  1  0.77864711  0.30941941  0.62451194  1
  K  K5  1  0.69773063  0.06340274  0.89305622  1
  K  K6  1  0.30226937  0.56340274  0.10694378  1
  K  K7  1  0.80226937  0.06340274  0.39305622  1
  Ti  Ti8  1  0.76041745  0.75679964  0.74595264  1
  Ti  Ti9  1  0.23958255  0.25679964  0.25404736  1
  Ti  Ti10  1  0.73958255  0.75679964  0.24595264  1
  Ti  Ti11  1  0.26041745  0.25679964  0.75404736  1
  Ti  Ti12  1  0.99910367  0.50712475  0.87211076  1
  Ti  Ti13  1  0.00089633  0.00712475  0.12788924  1
  Ti  Ti14  1  0.50089633  0.50712475  0.37211076  1
  Ti  Ti15  1  0.49910367  0.00712475  0.62788924  1
  P  P16  1  0.83841933  0.76204609  0.99844466  1
  P  P17  1  0.33841933  0.26204609  0.50155534  1
  P  P18  1  0.66158067  0.76204609  0.49844466  1
  P  P19  1  0.16158067  0.26204609  0.00155534  1
  P  P20  1  0.50297009  0.51284460  0.81970400  1
  P  P21  1  0.49702991  0.01284460  0.18029600  1
  P  P22  1  0.99702991  0.51284460  0.31970400  1
  P  P23  1  0.00297009  0.01284460  0.68029600  1
  O  O24  1  0.96355558  0.89916927  0.75231416  1
  O  O25  1  0.03644442  0.39916927  0.24768584  1
  O  O26  1  0.53644442  0.89916927  0.25231416  1
  O  O27  1  0.46355558  0.39916927  0.74768584  1
  O  O28  1  0.03768485  0.12813182  0.75229726  1
  O  O29  1  0.96231515  0.62813182  0.24770274  1
  O  O30  1  0.46231515  0.12813182  0.25229726  1
  O  O31  1  0.53768485  0.62813182  0.74770274  1
  O  O32  1  0.19357452  0.98726745  0.61184909  1
  O  O33  1  0.80642548  0.48726745  0.38815091  1
  O  O34  1  0.30642548  0.98726745  0.11184909  1
  O  O35  1  0.69357452  0.48726745  0.88815091  1
  O  O36  1  0.81358381  0.04066375  0.61121532  1
  O  O37  1  0.18641619  0.54066375  0.38878468  1
  O  O38  1  0.68641619  0.04066375  0.11121532  1
  O  O39  1  0.69684088  0.74095826  0.09421067  1
  O  O40  1  0.31358381  0.54066375  0.88878468  1
  O  O41  1  0.45231959  0.38830629  0.27570872  1
  O  O42  1  0.95231959  0.88830629  0.22429128  1
  O  O43  1  0.04768041  0.38830629  0.77570872  1
  O  O44  1  0.46597688  0.14213490  0.72329769  1
  O  O45  1  0.53402312  0.64213490  0.27670231  1
  O  O46  1  0.03402312  0.14213490  0.22329769  1
  O  O47  1  0.96597688  0.64213490  0.77670231  1
  O  O48  1  0.48802624  0.15092153  0.51373966  1
  O  O49  1  0.51197376  0.65092153  0.48626034  1
  O  O50  1  0.01197476  0.15092153  0.01373966  1
  O  O51  1  0.98802624  0.65092153  0.98626034  1
  O  O52  1  0.46658757  0.38457723  0.49004905  1
  O  O53  1  0.53341243  0.88457723  0.50995095  1
  O  O54  1  0.03341243  0.38457723  0.99004905  1
  O  O55  1  0.96658757  0.88457723  0.00995095  1
  O  O56  1  0.19930204  0.27997127  0.59852614  1
  O  O57  1  0.80069796  0.77997127  0.40147386  1
  O  O58  1  0.30069796  0.27997127  0.09852614  1
  O  O59  1  0.69930204  0.77997127  0.90147386  1
  O  O60  1  0.19684088  0.24095826  0.40578933  1
  O  O61  1  0.80315912  0.74095826  0.59421067  1
  O  O62  1  0.30315912  0.24095826  0.90578933  1
  O  O63  1  0.54768041  0.88830629  0.72429128  1
