# generated using pymatgen
data_Rb3Tm2Cu4Br13
_symmetry_space_group_name_H-M   'P 1'
_cell_length_a   11.00082105
_cell_length_b   11.00082105
_cell_length_c   11.00082105
_cell_angle_alpha   90.00000000
_cell_angle_beta   90.00000000
_cell_angle_gamma   90.00000000
_symmetry_Int_Tables_number   1
_chemical_formula_structural   Rb3Tm2Cu4Br13
_chemical_formula_sum   'Rb6 Tm4 Cu8 Br26'
_cell_volume   1331.29806340
_cell_formula_units_Z   2
loop_
 _symmetry_equiv_pos_site_id
 _symmetry_equiv_pos_as_xyz
  1  'x, y, z'
loop_
 _atom_site_type_symbol
 _atom_site_label
 _atom_site_symmetry_multiplicity
 _atom_site_fract_x
 _atom_site_fract_y
 _atom_site_fract_z
 _atom_site_occupancy
  Rb  Rb0  1  0.00000000  0.50000000  -0.00000000  1
  Rb  Rb1  1  0.00000000  0.00000000  0.50000000  1
  Rb  Rb2  1  0.00000000  0.50000000  0.50000000  1
  Rb  Rb3  1  0.50000000  0.00000000  0.50000000  1
  Rb  Rb4  1  0.50000000  0.50000000  -0.00000000  1
  Rb  Rb5  1  0.50000000  0.00000000  -0.00000000  1
  Tm  Tm6  1  0.25000000  0.75000000  0.25000000  1
  Tm  Tm7  1  0.75000000  0.25000000  0.25000000  1
  Tm  Tm8  1  0.25000000  0.25000000  0.75000000  1
  Tm  Tm9  1  0.75000000  0.75000000  0.75000000  1
  Cu  Cu10  1  0.12763887  0.12763887  0.12763887  1
  Cu  Cu11  1  0.37236113  0.62763887  0.62763887  1
  Cu  Cu12  1  0.87236113  0.12763887  0.87236113  1
  Cu  Cu13  1  0.62763887  0.37236113  0.62763887  1
  Cu  Cu14  1  0.12763887  0.87236113  0.87236113  1
  Cu  Cu15  1  0.37236113  0.37236113  0.37236113  1
  Cu  Cu16  1  0.62763887  0.62763887  0.37236113  1
  Cu  Cu17  1  0.87236113  0.87236113  0.12763887  1
  Br  Br18  1  0.22553240  0.73443710  0.49883019  1
  Br  Br19  1  0.99883019  0.27446760  0.23443710  1
  Br  Br20  1  0.50116981  0.22553240  0.26556290  1
  Br  Br21  1  0.23443710  0.99883019  0.27446760  1
  Br  Br22  1  0.23443710  0.00116981  0.72553240  1
  Br  Br23  1  0.76556290  0.99883019  0.72553240  1
  Br  Br24  1  0.00000000  0.00000000  -0.00000000  1
  Br  Br25  1  0.00116981  0.27446760  0.76556290  1
  Br  Br26  1  0.49883019  0.22553240  0.73443710  1
  Br  Br27  1  0.99883019  0.72553240  0.76556290  1
  Br  Br28  1  0.26556290  0.50116981  0.22553240  1
  Br  Br29  1  0.50116981  0.77446760  0.73443710  1
  Br  Br30  1  0.49883019  0.77446760  0.26556290  1
  Br  Br31  1  0.76556290  0.00116981  0.27446760  1
  Br  Br32  1  0.77446760  0.73443710  0.50116981  1
  Br  Br33  1  0.00116981  0.72553240  0.23443710  1
  Br  Br34  1  0.72553240  0.76556290  0.99883019  1
  Br  Br35  1  0.26556290  0.49883019  0.77446760  1
  Br  Br36  1  0.27446760  0.76556290  0.00116981  1
  Br  Br37  1  0.22553240  0.26556290  0.50116981  1
  Br  Br38  1  0.50000000  0.50000000  0.50000000  1
  Br  Br39  1  0.73443710  0.50116981  0.77446760  1
  Br  Br40  1  0.73443710  0.49883019  0.22553240  1
  Br  Br41  1  0.77446760  0.26556290  0.49883019  1
  Br  Br42  1  0.72553240  0.23443710  0.00116981  1
  Br  Br43  1  0.27446760  0.23443710  0.99883019  1
