# generated using pymatgen
data_Nd(HO)3
_symmetry_space_group_name_H-M   'P 1'
_cell_length_a   6.42369827
_cell_length_b   6.42578412
_cell_length_c   3.72548882
_cell_angle_alpha   90.00000000
_cell_angle_beta   90.00000000
_cell_angle_gamma   120.00053537
_symmetry_Int_Tables_number   1
_chemical_formula_structural   Nd(HO)3
_chemical_formula_sum   'Nd2 H6 O6'
_cell_volume   133.17503426
_cell_formula_units_Z   2
loop_
 _symmetry_equiv_pos_site_id
 _symmetry_equiv_pos_as_xyz
  1  'x, y, z'
loop_
 _atom_site_type_symbol
 _atom_site_label
 _atom_site_symmetry_multiplicity
 _atom_site_fract_x
 _atom_site_fract_y
 _atom_site_fract_z
 _atom_site_occupancy
  Nd  Nd0  1  0.33341280  0.66675047  0.25000000  1
  Nd  Nd1  1  0.66658720  0.33324953  0.75000000  1
  H  H2  1  0.86489300  0.72493652  0.25000000  1
  H  H3  1  0.86021744  0.13500504  0.25000000  1
  H  H4  1  0.27458459  0.13997198  0.25000000  1
  H  H5  1  0.13510700  0.27506348  0.75000000  1
  H  H6  1  0.13978256  0.86499496  0.75000000  1
  H  H7  1  0.72541541  0.86002802  0.75000000  1
  O  O8  1  0.91790616  0.60835705  0.25000000  1
  O  O9  1  0.69054736  0.08209268  0.25000000  1
  O  O10  1  0.39149627  0.30952296  0.25000000  1
  O  O11  1  0.08209384  0.39164295  0.75000000  1
  O  O12  1  0.30945264  0.91790732  0.75000000  1
  O  O13  1  0.60850373  0.69047704  0.75000000  1
