# generated using pymatgen
data_InTeI7
_symmetry_space_group_name_H-M   'P 1'
_cell_length_a   7.40076606
_cell_length_b   15.19057837
_cell_length_c   30.12347349
_cell_angle_alpha   90.00000000
_cell_angle_beta   90.00000000
_cell_angle_gamma   90.00000000
_symmetry_Int_Tables_number   1
_chemical_formula_structural   InTeI7
_chemical_formula_sum   'In8 Te8 I56'
_cell_volume   3386.53863140
_cell_formula_units_Z   8
loop_
 _symmetry_equiv_pos_site_id
 _symmetry_equiv_pos_as_xyz
  1  'x, y, z'
loop_
 _atom_site_type_symbol
 _atom_site_label
 _atom_site_symmetry_multiplicity
 _atom_site_fract_x
 _atom_site_fract_y
 _atom_site_fract_z
 _atom_site_occupancy
  In  In0  1  0.62710652  0.76248234  0.61666563  1
  In  In1  1  0.29443617  0.66408976  0.35713581  1
  In  In2  1  0.79443617  0.83591024  0.85713581  1
  In  In3  1  0.70556383  0.33591024  0.85713581  1
  In  In4  1  0.12710652  0.73751766  0.11666563  1
  In  In5  1  0.37289348  0.23751766  0.11666563  1
  In  In6  1  0.87289348  0.26248234  0.61666563  1
  In  In7  1  0.20556383  0.16408976  0.35713581  1
  Te  Te8  1  0.61365838  0.40279617  0.26516607  1
  Te  Te9  1  0.55322199  0.62462351  0.03520438  1
  Te  Te10  1  0.11365838  0.09720383  0.76516607  1
  Te  Te11  1  0.88634162  0.90279617  0.26516607  1
  Te  Te12  1  0.38634162  0.59720383  0.76516607  1
  Te  Te13  1  0.94677801  0.12462351  0.03520438  1
  Te  Te14  1  0.44677801  0.37537649  0.53520438  1
  Te  Te15  1  0.05322199  0.87537649  0.53520438  1
  I  I16  1  0.82423839  0.91315091  0.77472589  1
  I  I17  1  0.79539407  0.24649378  0.26008248  1
  I  I18  1  0.82537596  0.47569008  0.33172217  1
  I  I19  1  0.89711334  0.20447587  0.40248501  1
  I  I20  1  0.27589098  0.01078741  0.69527238  1
  I  I21  1  0.28475831  0.81015956  0.04210978  1
  I  I22  1  0.59629183  0.94327358  0.91233209  1
  I  I23  1  0.36542567  0.32789988  0.34792311  1
  I  I24  1  0.10288666  0.79552413  0.90248501  1
  I  I25  1  0.32537596  0.02430992  0.83172217  1
  I  I26  1  0.86542567  0.17210012  0.84792311  1
  I  I27  1  0.29539407  0.25350622  0.76008248  1
  I  I28  1  0.25345864  0.76226840  0.61793062  1
  I  I29  1  0.83558446  0.94443221  0.46993880  1
  I  I30  1  0.40370817  0.05672642  0.41233209  1
  I  I31  1  0.76104509  0.97300685  0.05519858  1
  I  I32  1  0.78475831  0.68984044  0.54210978  1
  I  I33  1  0.72410902  0.98921259  0.19527238  1
  I  I34  1  0.17462404  0.52430992  0.83172217  1
  I  I35  1  0.69668264  0.20265992  0.97932034  1
  I  I36  1  0.76882548  0.17181246  0.69063638  1
  I  I37  1  0.23117452  0.82818754  0.19063638  1
  I  I38  1  0.22410902  0.51078741  0.69527238  1
  I  I39  1  0.32423839  0.58684909  0.27472589  1
  I  I40  1  0.25351731  0.06715081  0.12013049  1
  I  I41  1  0.73117452  0.67181246  0.69063638  1
  I  I42  1  0.33558446  0.55556779  0.96993880  1
  I  I43  1  0.26882548  0.32818754  0.19063638  1
  I  I44  1  0.70460593  0.74649378  0.26008248  1
  I  I45  1  0.63457433  0.67210012  0.84792311  1
  I  I46  1  0.24654136  0.26226840  0.61793062  1
  I  I47  1  0.26104509  0.52699315  0.55519858  1
  I  I48  1  0.16441554  0.05556779  0.96993880  1
  I  I49  1  0.66441554  0.44443221  0.46993880  1
  I  I50  1  0.80331736  0.70265992  0.97932034  1
  I  I51  1  0.77589098  0.48921259  0.19527238  1
  I  I52  1  0.75345864  0.73773160  0.11793062  1
  I  I53  1  0.13457433  0.82789988  0.34792311  1
  I  I54  1  0.17576161  0.08684909  0.27472589  1
  I  I55  1  0.23895491  0.02699315  0.55519858  1
  I  I56  1  0.60288666  0.70447587  0.40248501  1
  I  I57  1  0.39711334  0.29552413  0.90248501  1
  I  I58  1  0.67576161  0.41315091  0.77472589  1
  I  I59  1  0.19668264  0.29734008  0.47932034  1
  I  I60  1  0.90370817  0.44327358  0.91233209  1
  I  I61  1  0.09629183  0.55672642  0.41233209  1
  I  I62  1  0.73895491  0.47300685  0.05519858  1
  I  I63  1  0.20460593  0.75350622  0.76008248  1
  I  I64  1  0.30331736  0.79734008  0.47932034  1
  I  I65  1  0.67462404  0.97569008  0.33172217  1
  I  I66  1  0.75351731  0.43284919  0.62013049  1
  I  I67  1  0.21524169  0.31015956  0.04210978  1
  I  I68  1  0.24648269  0.56715081  0.12013049  1
  I  I69  1  0.74648269  0.93284919  0.62013049  1
  I  I70  1  0.71524169  0.18984044  0.54210978  1
  I  I71  1  0.74654136  0.23773160  0.11793062  1
