# generated using pymatgen
data_In11(SbO8)3
_symmetry_space_group_name_H-M   'P 1'
_cell_length_a   8.06903356
_cell_length_b   8.10192266
_cell_length_c   8.15466886
_cell_angle_alpha   71.06682827
_cell_angle_beta   72.12099357
_cell_angle_gamma   72.24559463
_symmetry_Int_Tables_number   1
_chemical_formula_structural   In11(SbO8)3
_chemical_formula_sum   'In11 Sb3 O24'
_cell_volume   467.26421207
_cell_formula_units_Z   1
loop_
 _symmetry_equiv_pos_site_id
 _symmetry_equiv_pos_as_xyz
  1  'x, y, z'
loop_
 _atom_site_type_symbol
 _atom_site_label
 _atom_site_symmetry_multiplicity
 _atom_site_fract_x
 _atom_site_fract_y
 _atom_site_fract_z
 _atom_site_occupancy
  In  In0  1  0.39168424  0.91640613  0.21980544  1
  In  In1  1  0.71358191  0.88861751  0.42826376  1
  In  In2  1  0.42215027  0.71979123  0.89120357  1
  In  In3  1  0.07216544  0.79014351  0.60833470  1
  In  In4  1  0.88714890  0.41797272  0.71491683  1
  In  In5  1  0.78214117  0.61452455  0.07585908  1
  In  In6  1  0.10766912  0.58075853  0.29124304  1
  In  In7  1  0.92207716  0.21247785  0.39179069  1
  In  In8  1  0.58943646  0.28398724  0.10659097  1
  In  In9  1  0.28889731  0.10766847  0.56191044  1
  In  In10  1  0.60766625  0.08246675  0.77857962  1
  Sb  Sb11  1  0.00233073  0.99936562  0.00262313  1
  Sb  Sb12  1  0.49947039  0.49403134  0.49941071  1
  Sb  Sb13  1  0.20816001  0.39675627  0.93584677  1
  O  O14  1  0.13054639  0.92336226  0.77986558  1
  O  O15  1  0.58304749  0.71691473  0.37894910  1
  O  O16  1  0.50160481  0.91339287  0.66922952  1
  O  O17  1  0.22160068  0.86449718  0.08841318  1
  O  O18  1  0.82534552  0.99490381  0.58583420  1
  O  O19  1  0.91636024  0.67047758  0.51218383  1
  O  O20  1  0.58188376  0.83794918  0.99656404  1
  O  O21  1  0.67486551  0.51087707  0.91434936  1
  O  O22  1  0.28033270  0.63357526  0.41558587  1
  O  O23  1  0.01280326  0.58160164  0.83489853  1
  O  O24  1  0.63671304  0.41772544  0.27618394  1
  O  O25  1  0.91657326  0.77394606  0.13339945  1
  O  O26  1  0.09030981  0.23521031  0.88040591  1
  O  O27  1  0.36435665  0.55770197  0.73732879  1
  O  O28  1  0.01451419  0.40485529  0.16043835  1
  O  O29  1  0.71614723  0.36069477  0.58941666  1
  O  O30  1  0.31378510  0.49759681  0.07742510  1
  O  O31  1  0.40383397  0.19148870  0.99163342  1
  O  O32  1  0.07853230  0.32702163  0.49522971  1
  O  O33  1  0.17333576  0.00315828  0.41288588  1
  O  O34  1  0.78568513  0.14034108  0.90867554  1
  O  O35  1  0.49985751  0.08195313  0.31437936  1
  O  O36  1  0.41504650  0.27267086  0.62045389  1
  O  O37  1  0.86833884  0.08311537  0.21988904  1
