# generated using pymatgen
data_Rb2Sc(NO3)5
_symmetry_space_group_name_H-M   'P 1'
_cell_length_a   11.04862932
_cell_length_b   11.04862932
_cell_length_c   9.20164987
_cell_angle_alpha   90.00000000
_cell_angle_beta   90.00000000
_cell_angle_gamma   119.99999555
_symmetry_Int_Tables_number   1
_chemical_formula_structural   Rb2Sc(NO3)5
_chemical_formula_sum   'Rb6 Sc3 N15 O45'
_cell_volume   972.77670374
_cell_formula_units_Z   3
loop_
 _symmetry_equiv_pos_site_id
 _symmetry_equiv_pos_as_xyz
  1  'x, y, z'
loop_
 _atom_site_type_symbol
 _atom_site_label
 _atom_site_symmetry_multiplicity
 _atom_site_fract_x
 _atom_site_fract_y
 _atom_site_fract_z
 _atom_site_occupancy
  Rb  Rb0  1  0.46398086  0.00000000  0.33333300  1
  Rb  Rb1  1  0.72095739  0.72095739  0.50000000  1
  Rb  Rb2  1  1.00000000  0.27904261  0.16666700  1
  Rb  Rb3  1  0.27904261  1.00000000  0.83333300  1
  Rb  Rb4  1  0.53601914  0.53601914  0.00000000  1
  Rb  Rb5  1  0.00000000  0.46398086  0.66666700  1
  Sc  Sc6  1  1.00000000  0.67636432  0.16666700  1
  Sc  Sc7  1  0.32363568  0.32363568  0.50000000  1
  Sc  Sc8  1  0.67636432  1.00000000  0.83333300  1
  N  N9  1  0.25210564  0.67877648  0.10794111  1
  N  N10  1  0.67877648  0.25210564  0.89205889  1
  N  N11  1  0.74175907  0.09842277  0.55380578  1
  N  N12  1  0.91684774  1.00000000  0.83333300  1
  N  N13  1  0.25824093  0.35666370  0.77952722  1
  N  N14  1  0.90157723  0.64333630  0.88713878  1
  N  N15  1  0.09842277  0.74175907  0.44619422  1
  N  N16  1  0.74789436  0.42667084  0.22539189  1
  N  N17  1  0.32122352  0.57332916  0.44127411  1
  N  N18  1  0.64333630  0.90157723  0.11286122  1
  N  N19  1  0.35666370  0.25824093  0.22047278  1
  N  N20  1  0.57332916  0.32122352  0.55872589  1
  N  N21  1  0.08315226  0.08315226  0.50000000  1
  N  N22  1  0.42667084  0.74789436  0.77460811  1
  N  N23  1  1.00000000  0.91684774  0.16666700  1
  O  O24  1  0.62700385  0.98779007  0.58739958  1
  O  O25  1  0.33581258  0.17714024  0.32746055  1
  O  O26  1  0.55529655  0.42058854  0.51024637  1
  O  O27  1  0.91607522  0.81227334  0.24444497  1
  O  O28  1  0.74398284  0.53735516  0.24799875  1
  O  O29  1  0.57941146  0.13470801  0.84357937  1
  O  O30  1  0.37266072  0.23019003  0.09574353  1
  O  O31  1  0.46264484  0.20662768  0.58133175  1
  O  O32  1  0.00000000  0.02700912  0.16666700  1
  O  O33  1  0.08392478  0.89619812  0.08888803  1
  O  O34  1  0.15867134  0.82285976  0.33920645  1
  O  O35  1  0.63921378  0.01220993  0.07926742  1
  O  O36  1  0.30897762  0.64823684  0.75434630  1
  O  O37  1  0.86529199  0.44470345  0.17691237  1
  O  O38  1  0.81227334  0.91607522  0.75555503  1
  O  O39  1  0.44470345  0.86529199  0.82308763  1
  O  O40  1  0.14247069  0.76980997  0.57092247  1
  O  O41  1  0.01220993  0.63921378  0.92073258  1
  O  O42  1  0.64823684  0.30897762  0.24565370  1
  O  O43  1  0.23019003  0.37266072  0.90425647  1
  O  O44  1  0.53735516  0.74398284  0.75200125  1
  O  O45  1  0.89619812  0.08392478  0.91111197  1
  O  O46  1  0.17714024  0.33581258  0.67253945  1
  O  O47  1  0.42058854  0.55529655  0.48975363  1
  O  O48  1  0.35176316  0.66074078  0.08768030  1
  O  O49  1  0.13470801  0.57941146  0.15642063  1
  O  O50  1  0.20662768  0.46264484  0.41866825  1
  O  O51  1  0.69102238  0.33925922  0.57898670  1
  O  O52  1  0.37299615  0.36078622  0.74593442  1
  O  O53  1  0.36078622  0.37299615  0.25406558  1
  O  O54  1  0.82285976  0.15867134  0.66079355  1
  O  O55  1  0.66074078  0.35176316  0.91231970  1
  O  O56  1  0.85752931  0.62733928  0.76241053  1
  O  O57  1  0.79337232  0.25601716  0.91466475  1
  O  O58  1  0.66418742  0.84132866  0.00587345  1
  O  O59  1  0.76980997  0.14247069  0.42907753  1
  O  O60  1  0.33925922  0.69102238  0.42101330  1
  O  O61  1  0.10380188  0.18772666  0.42222203  1
  O  O62  1  0.84132866  0.66418742  0.99412655  1
  O  O63  1  0.97299088  0.97299088  0.50000000  1
  O  O64  1  0.62733928  0.85752931  0.23758947  1
  O  O65  1  0.98779007  0.62700385  0.41260042  1
  O  O66  1  0.02700912  0.00000000  0.83333300  1
  O  O67  1  0.18772666  0.10380188  0.57777797  1
  O  O68  1  0.25601716  0.79337232  0.08533525  1
