# generated using pymatgen
data_CsCdCl3
_symmetry_space_group_name_H-M   'P 1'
_cell_length_a   7.46646916
_cell_length_b   7.46641652
_cell_length_c   18.57527651
_cell_angle_alpha   90.00006120
_cell_angle_beta   89.99979472
_cell_angle_gamma   119.99985708
_symmetry_Int_Tables_number   1
_chemical_formula_structural   CsCdCl3
_chemical_formula_sum   'Cs6 Cd6 Cl18'
_cell_volume   896.79676696
_cell_formula_units_Z   6
loop_
 _symmetry_equiv_pos_site_id
 _symmetry_equiv_pos_as_xyz
  1  'x, y, z'
loop_
 _atom_site_type_symbol
 _atom_site_label
 _atom_site_symmetry_multiplicity
 _atom_site_fract_x
 _atom_site_fract_y
 _atom_site_fract_z
 _atom_site_occupancy
  Cs  Cs0  1  0.33333340  0.66666658  0.08793351  1
  Cs  Cs1  1  0.66666782  0.33333319  0.91206429  1
  Cs  Cs2  1  0.66666733  0.33333308  0.58793282  1
  Cs  Cs3  1  0.00000073  -0.00000006  0.24999971  1
  Cs  Cs4  1  0.33333361  0.66666667  0.41206573  1
  Cs  Cs5  1  0.00000071  0.00000050  0.74999927  1
  Cd  Cd6  1  0.66666679  0.33333322  0.33975237  1
  Cd  Cd7  1  0.33330749  0.66665658  0.66024816  1
  Cd  Cd8  1  0.66666666  0.33333321  0.16024402  1
  Cd  Cd9  1  0.00000268  0.00000276  0.49999870  1
  Cd  Cd10  1  0.33333348  0.66666430  0.83975563  1
  Cd  Cd11  1  0.00000017  -0.00000071  0.00000053  1
  Cl  Cl12  1  0.83439060  0.16560973  0.08186059  1
  Cl  Cl13  1  0.83439071  0.66878016  0.08186060  1
  Cl  Cl14  1  0.83439187  0.16560851  0.41813937  1
  Cl  Cl15  1  0.16561097  0.33122021  0.58186040  1
  Cl  Cl16  1  0.83439257  0.66878320  0.41813947  1
  Cl  Cl17  1  0.98690947  0.49345456  0.24999963  1
  Cl  Cl18  1  0.33122006  0.16560932  0.08186060  1
  Cl  Cl19  1  0.50654557  0.49345482  0.24999961  1
  Cl  Cl20  1  0.33121772  0.16560847  0.41813952  1
  Cl  Cl21  1  0.66878213  0.83439093  0.91813908  1
  Cl  Cl22  1  0.16561016  0.83439060  0.91813921  1
  Cl  Cl23  1  0.16560958  0.83439178  0.58185962  1
  Cl  Cl24  1  0.66878949  0.83439447  0.58185991  1
  Cl  Cl25  1  0.50654571  0.01309040  0.24999938  1
  Cl  Cl26  1  0.16560960  0.33121825  0.91813931  1
  Cl  Cl27  1  0.49345891  0.98691634  0.75000418  1
  Cl  Cl28  1  0.49345727  0.50654420  0.75000337  1
  Cl  Cl29  1  0.01308776  0.50654373  0.75000339  1
