# generated using pymatgen
data_KRb5Zn4Sn5S17
_symmetry_space_group_name_H-M   'P 1'
_cell_length_a   9.94050103
_cell_length_b   11.04187222
_cell_length_c   11.04651951
_cell_angle_alpha   78.74272466
_cell_angle_beta   116.49258311
_cell_angle_gamma   116.29497243
_symmetry_Int_Tables_number   1
_chemical_formula_structural   KRb5Zn4Sn5S17
_chemical_formula_sum   'K1 Rb5 Zn4 Sn5 S17'
_cell_volume   972.87328960
_cell_formula_units_Z   1
loop_
 _symmetry_equiv_pos_site_id
 _symmetry_equiv_pos_as_xyz
  1  'x, y, z'
loop_
 _atom_site_type_symbol
 _atom_site_label
 _atom_site_symmetry_multiplicity
 _atom_site_fract_x
 _atom_site_fract_y
 _atom_site_fract_z
 _atom_site_occupancy
  K  K0  1  0.24858416  0.49877013  0.49889330  1
  Rb  Rb1  1  0.49293707  0.01555880  0.48202104  1
  Rb  Rb2  1  0.50511378  0.49610575  0.01666231  1
  Rb  Rb3  1  0.99394960  0.49842793  0.98642113  1
  Rb  Rb4  1  0.99307225  0.98549947  0.48989834  1
  Rb  Rb5  1  0.88069644  0.96066290  0.86891661  1
  Zn  Zn6  1  0.88500366  0.63622598  0.36305683  1
  Zn  Zn7  1  0.88623488  0.36429533  0.63575370  1
  Zn  Zn8  1  0.47903123  0.36450981  0.36335669  1
  Zn  Zn9  1  0.74982059  0.63441207  0.63608132  1
  Sn  Sn10  1  0.49999398  0.00127592  0.00328601  1
  Sn  Sn11  1  0.19122047  0.72205935  0.72172587  1
  Sn  Sn12  1  0.52985397  0.27668176  0.72281442  1
  Sn  Sn13  1  0.53272180  0.72415766  0.27975788  1
  Sn  Sn14  1  0.74829820  0.27781429  0.27894540  1
  S  S15  1  0.48796430  0.85418057  0.85715445  1
  S  S16  1  0.15931665  0.49391347  0.77301165  1
  S  S17  1  0.15931277  0.77167089  0.49382640  1
  S  S18  1  0.75639226  0.22092183  0.77520151  1
  S  S19  1  0.75566490  0.77594058  0.22103521  1
  S  S20  1  0.75051814  0.49985352  0.49961587  1
  S  S21  1  0.01894245  0.77775554  0.77710487  1
  S  S22  1  0.33524592  0.22960509  0.49408293  1
  S  S23  1  0.33575166  0.49653298  0.23148702  1
  S  S24  1  0.61535396  0.50635315  0.77478743  1
  S  S25  1  0.61757550  0.77646266  0.51047004  1
  S  S26  1  0.36636354  0.85624582  0.14728100  1
  S  S27  1  0.36481940  0.14442793  0.85519256  1
  S  S28  1  0.77935491  0.14376550  0.14469876  1
  S  S29  1  0.89628078  0.50498379  0.22945019  1
  S  S30  1  0.89217756  0.22400564  0.50747947  1
  S  S31  1  0.46713119  0.22492288  0.22052979  1
