# generated using pymatgen
data_NaHO
_symmetry_space_group_name_H-M   'P 1'
_cell_length_a   3.12594678
_cell_length_b   5.86711262
_cell_length_c   6.10433792
_cell_angle_alpha   90.00000000
_cell_angle_beta   90.00000000
_cell_angle_gamma   90.00000000
_symmetry_Int_Tables_number   1
_chemical_formula_structural   NaHO
_chemical_formula_sum   'Na4 H4 O4'
_cell_volume   111.95527767
_cell_formula_units_Z   4
loop_
 _symmetry_equiv_pos_site_id
 _symmetry_equiv_pos_as_xyz
  1  'x, y, z'
loop_
 _atom_site_type_symbol
 _atom_site_label
 _atom_site_symmetry_multiplicity
 _atom_site_fract_x
 _atom_site_fract_y
 _atom_site_fract_z
 _atom_site_occupancy
  Na  Na0  1  0.84386747  0.25000000  -0.00000000  1
  Na  Na1  1  0.15613253  0.75000000  0.50000000  1
  Na  Na2  1  0.15613253  0.75000000  0.00000000  1
  Na  Na3  1  0.84386747  0.25000000  0.50000000  1
  H  H4  1  0.54992817  0.52166040  0.25000000  1
  H  H5  1  0.45007183  0.47833960  0.75000000  1
  H  H6  1  0.54992817  0.97833960  0.75000000  1
  H  H7  1  0.45007183  0.02166040  0.25000000  1
  O  O8  1  0.29362705  0.42874283  0.25000000  1
  O  O9  1  0.70637295  0.57125717  0.75000000  1
  O  O10  1  0.29362705  0.07125717  0.75000000  1
  O  O11  1  0.70637295  0.92874283  0.25000000  1
