# generated using pymatgen
data_K3H5Pt
_symmetry_space_group_name_H-M   'P 1'
_cell_length_a   7.36009709
_cell_length_b   7.36009709
_cell_length_c   5.71410507
_cell_angle_alpha   90.00000000
_cell_angle_beta   90.00000000
_cell_angle_gamma   90.00000000
_symmetry_Int_Tables_number   1
_chemical_formula_structural   K3H5Pt
_chemical_formula_sum   'K6 H10 Pt2'
_cell_volume   309.53895245
_cell_formula_units_Z   2
loop_
 _symmetry_equiv_pos_site_id
 _symmetry_equiv_pos_as_xyz
  1  'x, y, z'
loop_
 _atom_site_type_symbol
 _atom_site_label
 _atom_site_symmetry_multiplicity
 _atom_site_fract_x
 _atom_site_fract_y
 _atom_site_fract_z
 _atom_site_occupancy
  K  K0  1  0.50000000  0.50000000  0.00000000  1
  K  K1  1  -0.00000000  -0.00000000  -0.00000000  1
  K  K2  1  0.18379342  0.68379342  0.50000000  1
  K  K3  1  0.81620658  0.31620658  0.50000000  1
  K  K4  1  0.68379342  0.81620658  0.50000000  1
  K  K5  1  0.31620658  0.18379342  0.50000000  1
  H  H6  1  0.50000000  0.50000000  0.50000000  1
  H  H7  1  -0.00000000  -0.00000000  0.50000000  1
  H  H8  1  0.61313715  0.11313715  0.79857613  1
  H  H9  1  0.38686285  0.88686285  0.79857613  1
  H  H10  1  0.11313715  0.38686285  0.79857613  1
  H  H11  1  0.88686285  0.61313715  0.79857613  1
  H  H12  1  0.38686285  0.88686285  0.20142387  1
  H  H13  1  0.61313715  0.11313715  0.20142387  1
  H  H14  1  0.88686285  0.61313715  0.20142387  1
  H  H15  1  0.11313715  0.38686285  0.20142387  1
  Pt  Pt16  1  0.50000000  -0.00000000  -0.00000000  1
  Pt  Pt17  1  -0.00000000  0.50000000  -0.00000000  1
