# generated using pymatgen
data_K3GdSi2O7
_symmetry_space_group_name_H-M   'P 1'
_cell_length_a   10.02537745
_cell_length_b   10.02537762
_cell_length_c   14.57954556
_cell_angle_alpha   90.00000000
_cell_angle_beta   90.00000000
_cell_angle_gamma   119.99999942
_symmetry_Int_Tables_number   1
_chemical_formula_structural   K3GdSi2O7
_chemical_formula_sum   'K18 Gd6 Si12 O42'
_cell_volume   1269.04228720
_cell_formula_units_Z   6
loop_
 _symmetry_equiv_pos_site_id
 _symmetry_equiv_pos_as_xyz
  1  'x, y, z'
loop_
 _atom_site_type_symbol
 _atom_site_label
 _atom_site_symmetry_multiplicity
 _atom_site_fract_x
 _atom_site_fract_y
 _atom_site_fract_z
 _atom_site_occupancy
  K  K0  1  1.00000000  0.66827234  0.40923617  1
  K  K1  1  0.66827234  0.00000000  0.09076383  1
  K  K2  1  0.33333300  0.66666700  0.75000000  1
  K  K3  1  0.00000000  0.33172766  0.59076383  1
  K  K4  1  0.66827234  0.66827234  0.90923617  1
  K  K5  1  0.33172766  0.33172766  0.40923617  1
  K  K6  1  0.33172766  0.00000000  0.59076383  1
  K  K7  1  0.66666700  0.33333300  0.25000000  1
  K  K8  1  0.33172766  0.00000000  0.90923617  1
  K  K9  1  0.00000000  0.00000000  0.00000000  1
  K  K10  1  0.66827234  0.00000000  0.40923617  1
  K  K11  1  1.00000000  0.66827234  0.09076383  1
  K  K12  1  0.66666700  0.33333300  0.75000000  1
  K  K13  1  0.66827234  0.66827234  0.59076383  1
  K  K14  1  0.00000000  0.33172766  0.90923617  1
  K  K15  1  0.33333300  0.66666700  0.25000000  1
  K  K16  1  0.00000000  0.00000000  0.50000000  1
  K  K17  1  0.33172766  0.33172766  0.09076383  1
  Gd  Gd18  1  0.33333300  0.66666700  0.50000000  1
  Gd  Gd19  1  0.66666700  0.33333300  0.00000000  1
  Gd  Gd20  1  0.66666700  0.33333300  0.50000000  1
  Gd  Gd21  1  0.00000000  0.00000000  0.75000000  1
  Gd  Gd22  1  0.33333300  0.66666700  0.00000000  1
  Gd  Gd23  1  0.00000000  0.00000000  0.25000000  1
  Si  Si24  1  0.65948528  0.00000000  0.85687168  1
  Si  Si25  1  0.34051472  0.00000000  0.14312832  1
  Si  Si26  1  0.65948528  0.65948528  0.35687168  1
  Si  Si27  1  0.00000000  0.65948528  0.85687168  1
  Si  Si28  1  0.00000000  0.65948528  0.64312832  1
  Si  Si29  1  0.34051472  0.34051472  0.64312832  1
  Si  Si30  1  0.34051472  0.34051472  0.85687168  1
  Si  Si31  1  0.65948528  0.65948528  0.14312832  1
  Si  Si32  1  1.00000000  0.34051472  0.14312832  1
  Si  Si33  1  0.34051472  0.00000000  0.35687168  1
  Si  Si34  1  1.00000000  0.34051472  0.35687168  1
  Si  Si35  1  0.65948528  0.00000000  0.64312832  1
  O  O36  1  0.84543055  0.32171884  0.09277100  1
  O  O37  1  0.67828116  0.52371171  0.09277100  1
  O  O38  1  1.00000000  0.17735506  0.14628463  1
  O  O39  1  0.52371171  0.67828116  0.09277100  1
  O  O40  1  0.82264494  0.82264494  0.35371537  1
  O  O41  1  0.67828116  0.15456945  0.90722900  1
  O  O42  1  0.17735506  0.17735506  0.85371537  1
  O  O43  1  0.00000000  0.82264494  0.64628463  1
  O  O44  1  0.59472631  0.59472631  0.25000000  1
  O  O45  1  0.52371171  0.84543055  0.59277100  1
  O  O46  1  0.67828116  0.52371171  0.40722900  1
  O  O47  1  0.15456945  0.67828116  0.59277100  1
  O  O48  1  0.00000000  0.82264494  0.85371537  1
  O  O49  1  0.15456945  0.47628829  0.40722900  1
  O  O50  1  0.32171884  0.47628829  0.90722900  1
  O  O51  1  0.84543055  0.52371171  0.59277100  1
  O  O52  1  0.00000000  0.40527369  0.25000000  1
  O  O53  1  0.47628829  0.15456945  0.09277100  1
  O  O54  1  0.32171884  0.84543055  0.40722900  1
  O  O55  1  0.40527369  0.00000000  0.25000000  1
  O  O56  1  0.52371171  0.67828116  0.40722900  1
  O  O57  1  0.15456945  0.67828116  0.90722900  1
  O  O58  1  0.47628829  0.15456945  0.40722900  1
  O  O59  1  0.17735506  0.17735506  0.64628463  1
  O  O60  1  0.67828116  0.15456945  0.59277100  1
  O  O61  1  0.47628829  0.32171884  0.90722900  1
  O  O62  1  0.17735506  0.00000000  0.35371537  1
  O  O63  1  0.40527369  0.40527369  0.75000000  1
  O  O64  1  0.82264494  0.82264494  0.14628463  1
  O  O65  1  0.84543055  0.32171884  0.40722900  1
  O  O66  1  0.15456945  0.47628829  0.09277100  1
  O  O67  1  0.82264494  0.00000000  0.85371537  1
  O  O68  1  0.84543055  0.52371171  0.90722900  1
  O  O69  1  1.00000000  0.17735506  0.35371537  1
  O  O70  1  0.82264494  0.00000000  0.64628463  1
  O  O71  1  0.32171884  0.47628829  0.59277100  1
  O  O72  1  0.32171884  0.84543055  0.09277100  1
  O  O73  1  1.00000000  0.59472631  0.75000000  1
  O  O74  1  0.52371171  0.84543055  0.90722900  1
  O  O75  1  0.59472631  0.00000000  0.75000000  1
  O  O76  1  0.17735506  0.00000000  0.14628463  1
  O  O77  1  0.47628829  0.32171884  0.59277100  1
