# generated using pymatgen
data_Sr3GaO4F
_symmetry_space_group_name_H-M   'P 1'
_cell_length_a   7.44464140
_cell_length_b   7.44464140
_cell_length_c   7.44464140
_cell_angle_alpha   125.90440508
_cell_angle_beta   125.90440508
_cell_angle_gamma   80.04531359
_symmetry_Int_Tables_number   1
_chemical_formula_structural   Sr3GaO4F
_chemical_formula_sum   'Sr6 Ga2 O8 F2'
_cell_volume   261.34567182
_cell_formula_units_Z   2
loop_
 _symmetry_equiv_pos_site_id
 _symmetry_equiv_pos_as_xyz
  1  'x, y, z'
loop_
 _atom_site_type_symbol
 _atom_site_label
 _atom_site_symmetry_multiplicity
 _atom_site_fract_x
 _atom_site_fract_y
 _atom_site_fract_z
 _atom_site_occupancy
  Sr  Sr0  1  0.83377379  0.33377379  0.16754657  1
  Sr  Sr1  1  0.33377379  0.16622621  0.50000000  1
  Sr  Sr2  1  0.66622621  0.83377379  0.50000000  1
  Sr  Sr3  1  0.16622621  0.66622621  0.83245343  1
  Sr  Sr4  1  0.25000000  0.25000000  -0.00000000  1
  Sr  Sr5  1  0.75000000  0.75000000  -0.00000000  1
  Ga  Ga6  1  0.75000000  0.25000000  0.50000000  1
  Ga  Ga7  1  0.25000000  0.75000000  0.50000000  1
  O  O8  1  0.49649916  0.99649916  0.20394762  1
  O  O9  1  0.20744846  0.70744846  0.20394762  1
  O  O10  1  0.50350084  0.00350084  0.79605238  1
  O  O11  1  0.00350084  0.20744846  0.50000000  1
  O  O12  1  0.70744846  0.50350084  0.50000000  1
  O  O13  1  0.99649916  0.79255154  0.50000000  1
  O  O14  1  0.29255154  0.49649916  0.50000000  1
  O  O15  1  0.79255154  0.29255154  0.79605238  1
  F  F16  1  0.50000000  0.50000000  0.00000000  1
  F  F17  1  -0.00000000  0.00000000  0.00000000  1
