# generated using pymatgen
data_K2VAgSe4
_symmetry_space_group_name_H-M   'P 1'
_cell_length_a   13.61488819
_cell_length_b   12.16199942
_cell_length_c   7.45776735
_cell_angle_alpha   84.25223614
_cell_angle_beta   62.72230309
_cell_angle_gamma   33.02546078
_symmetry_Int_Tables_number   1
_chemical_formula_structural   K2VAgSe4
_chemical_formula_sum   'K4 V2 Ag2 Se8'
_cell_volume   484.49727489
_cell_formula_units_Z   2
loop_
 _symmetry_equiv_pos_site_id
 _symmetry_equiv_pos_as_xyz
  1  'x, y, z'
loop_
 _atom_site_type_symbol
 _atom_site_label
 _atom_site_symmetry_multiplicity
 _atom_site_fract_x
 _atom_site_fract_y
 _atom_site_fract_z
 _atom_site_occupancy
  K  K0  1  0.18760100  0.17377900  0.81572900  1
  K  K1  1  0.82568100  0.80969200  0.17390400  1
  K  K2  1  0.06062800  0.07511400  0.43298600  1
  K  K3  1  0.42307900  0.44075600  0.07549800  1
  V  V4  1  0.00184700  0.00198300  0.00101900  1
  V  V5  1  0.25537000  0.24284200  0.24273700  1
  Ag  Ag6  1  0.50220900  0.49907700  0.50458500  1
  Ag  Ag7  1  0.74745100  0.75196300  0.75824000  1
  Se  Se8  1  0.50717200  0.87789900  0.19428400  1
  Se  Se9  1  0.36438400  0.75478000  0.84284800  1
  Se  Se10  1  0.87345800  0.50727600  0.41933700  1
  Se  Se11  1  0.41440200  0.20470500  0.87536200  1
  Se  Se12  1  0.20159900  0.41651200  0.49614100  1
  Se  Se13  1  0.82945700  0.05466500  0.36928500  1
  Se  Se14  1  0.74848200  0.37226800  0.04757600  1
  Se  Se15  1  0.05411400  0.82754100  0.74294100  1
