# generated using pymatgen
data_BaMg2H8Os
_symmetry_space_group_name_H-M   'P 1'
_cell_length_a   4.96955429
_cell_length_b   4.96955429
_cell_length_c   10.83359267
_cell_angle_alpha   90.00000000
_cell_angle_beta   90.00000000
_cell_angle_gamma   90.00000000
_symmetry_Int_Tables_number   1
_chemical_formula_structural   BaMg2H8Os
_chemical_formula_sum   'Ba2 Mg4 H16 Os2'
_cell_volume   267.55149465
_cell_formula_units_Z   2
loop_
 _symmetry_equiv_pos_site_id
 _symmetry_equiv_pos_as_xyz
  1  'x, y, z'
loop_
 _atom_site_type_symbol
 _atom_site_label
 _atom_site_symmetry_multiplicity
 _atom_site_fract_x
 _atom_site_fract_y
 _atom_site_fract_z
 _atom_site_occupancy
  Ba  Ba0  1  0.50000000  -0.00000000  -0.00000000  1
  Ba  Ba1  1  0.00000000  0.50000000  0.50000000  1
  Mg  Mg2  1  0.50000000  -0.00000000  0.63913447  1
  Mg  Mg3  1  0.00000000  0.50000000  0.13913447  1
  Mg  Mg4  1  0.50000000  -0.00000000  0.36086553  1
  Mg  Mg5  1  0.00000000  0.50000000  0.86086553  1
  H  H6  1  0.24320981  0.24320981  0.75000000  1
  H  H7  1  0.75679019  0.75679019  0.75000000  1
  H  H8  1  0.75679019  0.24320981  0.25000000  1
  H  H9  1  0.24320981  0.75679019  0.25000000  1
  H  H10  1  0.75679019  0.75679019  0.25000000  1
  H  H11  1  0.24320981  0.24320981  0.25000000  1
  H  H12  1  0.24320981  0.75679019  0.75000000  1
  H  H13  1  0.75679019  0.24320981  0.75000000  1
  H  H14  1  0.50000000  0.24994379  0.50000000  1
  H  H15  1  0.50000000  0.75005621  0.50000000  1
  H  H16  1  0.75005621  0.50000000  0.00000000  1
  H  H17  1  0.24994379  0.50000000  -0.00000000  1
  H  H18  1  0.00000000  -0.00000000  0.59387406  1
  H  H19  1  0.00000000  -0.00000000  0.09387406  1
  H  H20  1  0.00000000  -0.00000000  0.40612594  1
  H  H21  1  0.00000000  -0.00000000  0.90612594  1
  Os  Os22  1  0.00000000  -0.00000000  0.75000000  1
  Os  Os23  1  0.00000000  -0.00000000  0.25000000  1
