# generated using pymatgen
data_Rh2O3
_symmetry_space_group_name_H-M   'P 1'
_cell_length_a   5.16383549
_cell_length_b   5.45186020
_cell_length_c   14.75820022
_cell_angle_alpha   89.99988639
_cell_angle_beta   90.00004483
_cell_angle_gamma   89.99997548
_symmetry_Int_Tables_number   1
_chemical_formula_structural   Rh2O3
_chemical_formula_sum   'Rh16 O24'
_cell_volume   415.48036728
_cell_formula_units_Z   8
loop_
 _symmetry_equiv_pos_site_id
 _symmetry_equiv_pos_as_xyz
  1  'x, y, z'
loop_
 _atom_site_type_symbol
 _atom_site_label
 _atom_site_symmetry_multiplicity
 _atom_site_fract_x
 _atom_site_fract_y
 _atom_site_fract_z
 _atom_site_occupancy
  Rh  Rh0  1  0.49920981  0.68124875  0.07562003  1
  Rh  Rh1  1  0.00079175  0.31875914  0.57561130  1
  Rh  Rh2  1  0.50069555  0.24781651  0.67839943  1
  Rh  Rh3  1  0.49930383  0.74782935  0.82158666  1
  Rh  Rh4  1  0.99931221  0.75216744  0.17841462  1
  Rh  Rh5  1  0.00069086  0.25218084  0.32159948  1
  Rh  Rh6  1  0.50069228  0.25218104  0.17841239  1
  Rh  Rh7  1  0.49931194  0.75216976  0.32159772  1
  Rh  Rh8  1  0.99920617  0.81875479  0.92438489  1
  Rh  Rh9  1  0.49920456  0.81875299  0.57561001  1
  Rh  Rh10  1  0.99920703  0.68125212  0.42438451  1
  Rh  Rh11  1  0.50078933  0.18124670  0.42438402  1
  Rh  Rh12  1  0.99930437  0.74782970  0.67840097  1
  Rh  Rh13  1  0.00069655  0.24781586  0.82158898  1
  Rh  Rh14  1  0.00078845  0.18124192  0.07562182  1
  Rh  Rh15  1  0.50078944  0.31876074  0.92438343  1
  O  O16  1  0.80085989  0.46901621  0.12442920  1
  O  O17  1  0.15073089  0.84234681  0.05219073  1
  O  O18  1  0.64269123  0.11342526  0.29724500  1
  O  O19  1  0.30085782  0.46901517  0.37557785  1
  O  O20  1  0.35731956  0.88659671  0.70275380  1
  O  O21  1  0.30085597  0.03098641  0.87556761  1
  O  O22  1  0.15073429  0.65764988  0.55218327  1
  O  O23  1  0.34925534  0.15763888  0.55218102  1
  O  O24  1  0.14268986  0.11342616  0.20276682  1
  O  O25  1  0.65073619  0.84234922  0.44781175  1
  O  O26  1  0.69914754  0.53099065  0.62442962  1
  O  O27  1  0.19914633  0.53098784  0.87556174  1
  O  O28  1  0.14268456  0.38657329  0.70275501  1
  O  O29  1  0.84926073  0.15763899  0.94781738  1
  O  O30  1  0.65072867  0.65764917  0.94781360  1
  O  O31  1  0.34925836  0.34236023  0.05218713  1
  O  O32  1  0.84925427  0.34235999  0.44781457  1
  O  O33  1  0.35732172  0.61340565  0.20276491  1
  O  O34  1  0.64268261  0.38656799  0.79723452  1
  O  O35  1  0.80085707  0.03099042  0.62442512  1
  O  O36  1  0.69914805  0.96901273  0.12443607  1
  O  O37  1  0.19914758  0.96901141  0.37557265  1
  O  O38  1  0.85732258  0.88659275  0.79723538  1
  O  O39  1  0.85731576  0.61340051  0.29724500  1
