# generated using pymatgen
data_Y4Zr3O12
_symmetry_space_group_name_H-M   'P 1'
_cell_length_a   6.36429201
_cell_length_b   6.43865177
_cell_length_c   12.76444748
_cell_angle_alpha   99.27120839
_cell_angle_beta   99.24485047
_cell_angle_gamma   99.34686552
_symmetry_Int_Tables_number   1
_chemical_formula_structural   Y4Zr3O12
_chemical_formula_sum   'Y8 Zr6 O24'
_cell_volume   499.90726848
_cell_formula_units_Z   2
loop_
 _symmetry_equiv_pos_site_id
 _symmetry_equiv_pos_as_xyz
  1  'x, y, z'
loop_
 _atom_site_type_symbol
 _atom_site_label
 _atom_site_symmetry_multiplicity
 _atom_site_fract_x
 _atom_site_fract_y
 _atom_site_fract_z
 _atom_site_occupancy
  Y  Y0  1  0.38736949  0.86582167  0.09847763  1
  Y  Y1  1  0.30905154  0.60994755  0.81822871  1
  Y  Y2  1  0.29672595  0.61006302  0.31879186  1
  Y  Y3  1  0.85842914  0.69477733  0.44789674  1
  Y  Y4  1  0.69094846  0.39005245  0.18177129  1
  Y  Y5  1  0.14157086  0.30522267  0.55210326  1
  Y  Y6  1  0.70327405  0.38993698  0.68120814  1
  Y  Y7  1  0.61263051  0.13417833  0.90152237  1
  Zr  Zr8  1  0.99139829  0.99341282  0.24696855  1
  Zr  Zr9  1  0.39209609  0.85697317  0.59465526  1
  Zr  Zr10  1  0.00860171  0.00658718  0.75303145  1
  Zr  Zr11  1  0.85343407  0.67425021  0.94711820  1
  Zr  Zr12  1  0.14656593  0.32574979  0.05288180  1
  Zr  Zr13  1  0.60790391  0.14302683  0.40534474  1
  O  O14  1  0.32004167  0.94372551  0.78376586  1
  O  O15  1  0.02911129  0.89031961  0.08908776  1
  O  O16  1  0.31581975  0.96481878  0.29541510  1
  O  O17  1  0.07703351  0.92433059  0.59440721  1
  O  O18  1  0.58985089  0.81890975  0.96156046  1
  O  O19  1  0.17254359  0.57649059  0.96641025  1
  O  O20  1  0.92639451  0.69625221  0.79313488  1
  O  O21  1  0.56512303  0.83212609  0.46214728  1
  O  O22  1  0.40646974  0.56639971  0.15781262  1
  O  O23  1  0.18552175  0.59575708  0.47104741  1
  O  O24  1  0.92732039  0.68322800  0.27839602  1
  O  O25  1  0.59353026  0.43360029  0.84218738  1
  O  O26  1  0.42836105  0.58515438  0.65776665  1
  O  O27  1  0.07360549  0.30374779  0.20686512  1
  O  O28  1  0.82745641  0.42350941  0.03358975  1
  O  O29  1  0.57163895  0.41484562  0.34223335  1
  O  O30  1  0.41014911  0.18109025  0.03843954  1
  O  O31  1  0.07267961  0.31677200  0.72160398  1
  O  O32  1  0.81447825  0.40424292  0.52895259  1
  O  O33  1  0.43487697  0.16787391  0.53785272  1
  O  O34  1  0.97088871  0.10968039  0.91091224  1
  O  O35  1  0.67995833  0.05627449  0.21623414  1
  O  O36  1  0.92296649  0.07566941  0.40559279  1
  O  O37  1  0.68418025  0.03518122  0.70458490  1
