# generated using pymatgen
data_Sr(PN2)2
_symmetry_space_group_name_H-M   'P 1'
_cell_length_a   17.11329649
_cell_length_b   17.11329648
_cell_length_c   8.11852073
_cell_angle_alpha   90.00000000
_cell_angle_beta   90.00000000
_cell_angle_gamma   119.99999909
_symmetry_Int_Tables_number   1
_chemical_formula_structural   Sr(PN2)2
_chemical_formula_sum   'Sr24 P48 N96'
_cell_volume   2059.08790981
_cell_formula_units_Z   24
loop_
 _symmetry_equiv_pos_site_id
 _symmetry_equiv_pos_as_xyz
  1  'x, y, z'
loop_
 _atom_site_type_symbol
 _atom_site_label
 _atom_site_symmetry_multiplicity
 _atom_site_fract_x
 _atom_site_fract_y
 _atom_site_fract_z
 _atom_site_occupancy
  Sr  Sr0  1  0.33239075  0.15237879  0.32015201  1
  Sr  Sr1  1  0.66666700  0.33333300  0.29679733  1
  Sr  Sr2  1  0.81998704  0.66760925  0.32015201  1
  Sr  Sr3  1  0.48083287  0.47695222  0.82724953  1
  Sr  Sr4  1  0.51916713  0.52304778  0.32724953  1
  Sr  Sr5  1  0.00000000  0.00000000  0.35055294  1
  Sr  Sr6  1  0.33333300  0.66666700  0.29634159  1
  Sr  Sr7  1  0.33333300  0.66666700  0.79679733  1
  Sr  Sr8  1  0.15237879  0.81998704  0.82015201  1
  Sr  Sr9  1  0.99611935  0.51916713  0.82724953  1
  Sr  Sr10  1  0.18001296  0.33239075  0.82015201  1
  Sr  Sr11  1  0.52304778  0.00388065  0.82724953  1
  Sr  Sr12  1  0.00000000  0.00000000  0.85055294  1
  Sr  Sr13  1  0.00388065  0.48083287  0.32724953  1
  Sr  Sr14  1  0.84762121  0.18001296  0.32015201  1
  Sr  Sr15  1  0.33223472  0.19316708  0.81802516  1
  Sr  Sr16  1  0.66776528  0.80683292  0.31802516  1
  Sr  Sr17  1  0.19316708  0.86093237  0.31802516  1
  Sr  Sr18  1  0.80683292  0.13906763  0.81802516  1
  Sr  Sr19  1  0.86093237  0.66776528  0.81802516  1
  Sr  Sr20  1  0.13906763  0.33223472  0.31802516  1
  Sr  Sr21  1  0.66760925  0.84762121  0.82015201  1
  Sr  Sr22  1  0.66666700  0.33333300  0.79634159  1
  Sr  Sr23  1  0.47695222  0.99611935  0.32724953  1
  P  P24  1  0.33023161  0.33007272  0.12752569  1
  P  P25  1  0.00801178  0.84182320  0.13337166  1
  P  P26  1  0.83406230  0.49485669  0.13176104  1
  P  P27  1  0.66992728  0.00015890  0.12752569  1
  P  P28  1  0.66430327  0.66394607  0.01230567  1
  P  P29  1  0.34347228  0.83468750  0.01230093  1
  P  P30  1  0.99964180  0.33569673  0.01230567  1
  P  P31  1  0.49960074  0.82675702  0.51268532  1
  P  P32  1  0.33920561  0.83406230  0.63176104  1
  P  P33  1  0.66394607  0.99964180  0.51230567  1
  P  P34  1  0.32328609  0.49606750  0.13220263  1
  P  P35  1  0.67284371  0.49960074  0.01268532  1
  P  P36  1  0.65652772  0.16531250  0.51230093  1
  P  P37  1  0.67671391  0.50393250  0.63220263  1
  P  P38  1  0.33605393  0.00035820  0.01230567  1
  P  P39  1  0.50393250  0.82721859  0.13220263  1
  P  P40  1  0.32715629  0.50039926  0.51268532  1
  P  P41  1  0.33569673  0.33605393  0.51230567  1
  P  P42  1  0.83047381  0.99196381  0.51410334  1
  P  P43  1  0.17278141  0.67671391  0.13220263  1
  P  P44  1  0.99198822  0.15817680  0.63337166  1
  P  P45  1  0.16148899  0.16952619  0.51410334  1
  P  P46  1  0.50039926  0.17324298  0.01268532  1
  P  P47  1  0.50514331  0.33920561  0.13176104  1
  P  P48  1  0.16952619  0.00803619  0.01410334  1
  P  P49  1  0.00803619  0.83851101  0.51410334  1
  P  P50  1  0.49121523  0.65652772  0.01230093  1
  P  P51  1  0.16593770  0.50514331  0.63176104  1
  P  P52  1  0.99196381  0.16148899  0.01410334  1
  P  P53  1  0.84182320  0.83381142  0.63337166  1
  P  P54  1  0.15817680  0.16618858  0.13337166  1
  P  P55  1  0.83851101  0.83047381  0.01410334  1
  P  P56  1  0.00015890  0.33023161  0.62752569  1
  P  P57  1  0.66079439  0.16593770  0.13176104  1
  P  P58  1  0.00035820  0.66430327  0.51230567  1
  P  P59  1  0.50878477  0.34347228  0.51230093  1
  P  P60  1  0.82721859  0.32328609  0.63220263  1
  P  P61  1  0.17324298  0.67284371  0.51268532  1
  P  P62  1  0.82675702  0.32715629  0.01268532  1
  P  P63  1  0.83468750  0.49121523  0.51230093  1
  P  P64  1  0.49485669  0.66079439  0.63176104  1
  P  P65  1  0.16531250  0.50878477  0.01230093  1
  P  P66  1  0.66976839  0.66992728  0.62752569  1
  P  P67  1  0.83381142  0.99198822  0.13337166  1
  P  P68  1  0.49606750  0.17278141  0.63220263  1
  P  P69  1  0.33007272  0.99984110  0.62752569  1
  P  P70  1  0.99984110  0.66976839  0.12752569  1
  P  P71  1  0.16618858  0.00801178  0.63337166  1
  N  N72  1  0.33339072  0.33200292  0.31978244  1
  N  N73  1  0.00138780  0.33339072  0.81978244  1
  N  N74  1  0.80786717  0.29078087  0.82388177  1
  N  N75  1  0.56066378  0.93201052  0.57437083  1
  N  N76  1  0.35795291  0.92925641  0.54909927  1
  N  N77  1  0.10155784  0.40512431  0.07836588  1
  N  N78  1  0.92925641  0.57130449  0.04909927  1
  N  N79  1  0.80330389  0.90239506  0.02205248  1
  N  N80  1  0.43933622  0.06798948  0.07437083  1
  N  N81  1  0.29078087  0.48291469  0.32388177  1
  N  N82  1  0.85918917  0.81748018  0.82367062  1
  N  N83  1  0.10023801  0.70224567  0.05221961  1
  N  N84  1  0.75969267  0.52715704  0.13005225  1
  N  N85  1  0.43085066  0.56632865  0.12189725  1
  N  N86  1  0.56632865  0.13547800  0.62189725  1
  N  N87  1  0.62865326  0.56066378  0.07437083  1
  N  N88  1  0.27090101  0.53851321  0.03353033  1
  N  N89  1  0.51708531  0.80786717  0.32388177  1
  N  N90  1  0.26761120  0.72909899  0.03353033  1
  N  N91  1  0.73812405  0.77314084  0.56763421  1
  N  N92  1  0.56914934  0.43367135  0.62189725  1
  N  N93  1  0.13547800  0.56914934  0.12189725  1
  N  N94  1  0.52575543  0.37548347  0.32096991  1
  N  N95  1  0.07074359  0.42869551  0.54909927  1
  N  N96  1  0.06798948  0.62865326  0.57437083  1
  N  N97  1  0.09909017  0.19669611  0.02205248  1
  N  N98  1  0.26718146  0.03057719  0.09329295  1
  N  N99  1  0.48291469  0.19213283  0.82388177  1
  N  N100  1  0.15027195  0.52575543  0.82096991  1
  N  N101  1  0.09760494  0.90090983  0.02205248  1
  N  N102  1  0.70224567  0.60200766  0.55221961  1
  N  N103  1  0.19669611  0.09760494  0.52205248  1
  N  N104  1  0.33200292  0.99861220  0.81978244  1
  N  N105  1  0.62451653  0.15027195  0.32096991  1
  N  N106  1  0.60671164  0.20427772  0.02707564  1
  N  N107  1  0.04170999  0.85918917  0.32367062  1
  N  N108  1  0.57130449  0.64204709  0.54909927  1
  N  N109  1  0.90090983  0.80330389  0.52205248  1
  N  N110  1  0.59487569  0.69643353  0.07836588  1
  N  N111  1  0.89976199  0.29775433  0.55221961  1
  N  N112  1  0.59756709  0.39328836  0.02707564  1
  N  N113  1  0.20427772  0.59756709  0.52707564  1
  N  N114  1  0.18251982  0.04170999  0.82367062  1
  N  N115  1  0.87198505  0.93974066  0.61602661  1
  N  N116  1  0.76746437  0.24030733  0.13005225  1
  N  N117  1  0.81748018  0.95829001  0.32367062  1
  N  N118  1  0.89844216  0.59487569  0.57836588  1
  N  N119  1  0.66799708  0.00138780  0.31978244  1
  N  N120  1  0.76339473  0.73281854  0.09329295  1
  N  N121  1  0.93201052  0.37134674  0.07437083  1
  N  N122  1  0.99861220  0.66660928  0.31978244  1
  N  N123  1  0.69643353  0.10155784  0.57836588  1
  N  N124  1  0.73238880  0.27090101  0.53353033  1
  N  N125  1  0.73281854  0.96942281  0.59329295  1
  N  N126  1  0.39799234  0.10023801  0.55221961  1
  N  N127  1  0.22685916  0.96498321  0.56763421  1
  N  N128  1  0.77314084  0.03501679  0.06763421  1
  N  N129  1  0.03501679  0.26187595  0.56763421  1
  N  N130  1  0.03057719  0.76339473  0.59329295  1
  N  N131  1  0.47284296  0.23253563  0.13005225  1
  N  N132  1  0.84972805  0.47424457  0.32096991  1
  N  N133  1  0.30356647  0.89844216  0.07836588  1
  N  N134  1  0.93224539  0.87198505  0.11602661  1
  N  N135  1  0.70921913  0.51708531  0.82388177  1
  N  N136  1  0.93974066  0.06775461  0.11602661  1
  N  N137  1  0.37548347  0.84972805  0.82096991  1
  N  N138  1  0.24030733  0.47284296  0.63005225  1
  N  N139  1  0.23660527  0.26718146  0.59329295  1
  N  N140  1  0.42869551  0.35795291  0.04909927  1
  N  N141  1  0.95829001  0.14081083  0.82367062  1
  N  N142  1  0.66660928  0.66799708  0.81978244  1
  N  N143  1  0.19213283  0.70921913  0.32388177  1
  N  N144  1  0.96498321  0.73812405  0.06763421  1
  N  N145  1  0.12801495  0.06025934  0.11602661  1
  N  N146  1  0.90239506  0.09909017  0.52205248  1
  N  N147  1  0.26187595  0.22685916  0.06763421  1
  N  N148  1  0.40243291  0.60671164  0.52707564  1
  N  N149  1  0.23253563  0.75969267  0.63005225  1
  N  N150  1  0.53851321  0.26761120  0.53353033  1
  N  N151  1  0.79572228  0.40243291  0.02707564  1
  N  N152  1  0.52715704  0.76746437  0.63005225  1
  N  N153  1  0.47424457  0.62451653  0.82096991  1
  N  N154  1  0.06025934  0.93224539  0.61602661  1
  N  N155  1  0.96942281  0.23660527  0.09329295  1
  N  N156  1  0.64204709  0.07074359  0.04909927  1
  N  N157  1  0.60200766  0.89976199  0.05221961  1
  N  N158  1  0.86452200  0.43085066  0.62189725  1
  N  N159  1  0.43367135  0.86452200  0.12189725  1
  N  N160  1  0.29775433  0.39799234  0.05221961  1
  N  N161  1  0.46148679  0.73238880  0.03353033  1
  N  N162  1  0.06775461  0.12801495  0.61602661  1
  N  N163  1  0.40512431  0.30356647  0.57836588  1
  N  N164  1  0.72909899  0.46148679  0.53353033  1
  N  N165  1  0.39328836  0.79572228  0.52707564  1
  N  N166  1  0.37134674  0.43933622  0.57437083  1
  N  N167  1  0.14081083  0.18251982  0.32367062  1
