# generated using pymatgen
data_Sc(HO)3
_symmetry_space_group_name_H-M   'P 1'
_cell_length_a   6.77590966
_cell_length_b   6.77590966
_cell_length_c   6.77590950
_cell_angle_alpha   109.31041878
_cell_angle_beta   109.31041887
_cell_angle_gamma   109.31043685
_symmetry_Int_Tables_number   1
_chemical_formula_structural   Sc(HO)3
_chemical_formula_sum   'Sc4 H12 O12'
_cell_volume   240.90162351
_cell_formula_units_Z   4
loop_
 _symmetry_equiv_pos_site_id
 _symmetry_equiv_pos_as_xyz
  1  'x, y, z'
loop_
 _atom_site_type_symbol
 _atom_site_label
 _atom_site_symmetry_multiplicity
 _atom_site_fract_x
 _atom_site_fract_y
 _atom_site_fract_z
 _atom_site_occupancy
  Sc  Sc0  1  0.00000000  -0.00000000  0.50000000  1
  Sc  Sc1  1  0.00000000  0.50000000  -0.00000000  1
  Sc  Sc2  1  0.50000000  0.50000000  0.50000000  1
  Sc  Sc3  1  0.50000000  -0.00000000  -0.00000000  1
  H  H4  1  0.73238566  0.69094639  0.04286874  1
  H  H5  1  0.26761434  0.30905361  0.95713126  1
  H  H6  1  0.37239131  0.54709928  0.82290607  1
  H  H7  1  0.62760869  0.45290072  0.17709393  1
  H  H8  1  0.54709928  0.82290607  0.37239131  1
  H  H9  1  0.45290072  0.17709393  0.62760869  1
  H  H10  1  0.69094639  0.04286874  0.73238566  1
  H  H11  1  0.30905361  0.95713126  0.26761434  1
  H  H12  1  0.17709393  0.62760869  0.45290072  1
  H  H13  1  0.82290607  0.37239131  0.54709928  1
  H  H14  1  0.95713126  0.26761434  0.30905361  1
  H  H15  1  0.04286874  0.73238566  0.69094639  1
  O  O16  1  0.85586245  0.68538060  0.16723557  1
  O  O17  1  0.14413755  0.31461940  0.83276443  1
  O  O18  1  0.50134458  0.67379173  0.82640824  1
  O  O19  1  0.49865542  0.32620827  0.17359176  1
  O  O20  1  0.67379173  0.82640824  0.50134458  1
  O  O21  1  0.32620827  0.17359176  0.49865542  1
  O  O22  1  0.68538060  0.16723557  0.85586245  1
  O  O23  1  0.31461940  0.83276443  0.14413755  1
  O  O24  1  0.17359176  0.49865542  0.32620827  1
  O  O25  1  0.82640824  0.50134458  0.67379173  1
  O  O26  1  0.83276443  0.14413755  0.31461940  1
  O  O27  1  0.16723557  0.85586245  0.68538060  1
