# generated using pymatgen
data_NaAlSi2H2O7
_symmetry_space_group_name_H-M   'P 1'
_cell_length_a   12.04845808
_cell_length_b   12.04845808
_cell_length_c   13.74727562
_cell_angle_alpha   55.14479775
_cell_angle_beta   55.14479775
_cell_angle_gamma   70.53640327
_symmetry_Int_Tables_number   1
_chemical_formula_structural   NaAlSi2H2O7
_chemical_formula_sum   'Na8 Al8 Si16 H16 O56'
_cell_volume   1343.75691768
_cell_formula_units_Z   8
loop_
 _symmetry_equiv_pos_site_id
 _symmetry_equiv_pos_as_xyz
  1  'x, y, z'
loop_
 _atom_site_type_symbol
 _atom_site_label
 _atom_site_symmetry_multiplicity
 _atom_site_fract_x
 _atom_site_fract_y
 _atom_site_fract_z
 _atom_site_occupancy
  Na  Na0  1  0.43284300  0.90984800  0.82943100  1
  Na  Na1  1  0.06766900  0.93233100  0.25000000  1
  Na  Na2  1  0.09015200  0.56715700  0.67056900  1
  Na  Na3  1  0.42614600  0.57385400  0.75000000  1
  Na  Na4  1  0.57385400  0.42614600  0.25000000  1
  Na  Na5  1  0.90984800  0.43284300  0.32943100  1
  Na  Na6  1  0.93233100  0.06766900  0.75000000  1
  Na  Na7  1  0.56715700  0.09015200  0.17056900  1
  Al  Al8  1  0.97625100  0.78343900  0.77461300  1
  Al  Al9  1  0.78343900  0.97625100  0.27461300  1
  Al  Al10  1  0.53893100  0.72614000  0.03442600  1
  Al  Al11  1  0.27386000  0.46106900  0.46557400  1
  Al  Al12  1  0.72614000  0.53893100  0.53442600  1
  Al  Al13  1  0.46106900  0.27386000  0.96557400  1
  Al  Al14  1  0.21656100  0.02374900  0.72538700  1
  Al  Al15  1  0.02374900  0.21656100  0.22538700  1
  Si  Si16  1  0.25365800  0.91560700  0.54267800  1
  Si  Si17  1  0.72750300  0.97383900  0.73585400  1
  Si  Si18  1  0.53425500  0.78721500  0.43303800  1
  Si  Si19  1  0.78721500  0.53425500  0.93303800  1
  Si  Si20  1  0.39879900  0.73758200  0.31539000  1
  Si  Si21  1  0.08439300  0.74634200  0.95732200  1
  Si  Si22  1  0.73758200  0.39879900  0.81539000  1
  Si  Si23  1  0.97383900  0.72750300  0.23585400  1
  Si  Si24  1  0.02616100  0.27249700  0.76414600  1
  Si  Si25  1  0.26241800  0.60120100  0.18461000  1
  Si  Si26  1  0.91560700  0.25365800  0.04267800  1
  Si  Si27  1  0.60120100  0.26241800  0.68461000  1
  Si  Si28  1  0.21278500  0.46574500  0.06696200  1
  Si  Si29  1  0.46574500  0.21278500  0.56696200  1
  Si  Si30  1  0.27249700  0.02616100  0.26414600  1
  Si  Si31  1  0.74634200  0.08439300  0.45732200  1
  H  H32  1  0.78405400  0.94927400  0.02322300  1
  H  H33  1  0.24698700  0.64723700  0.66774200  1
  H  H34  1  0.94927400  0.78405400  0.52322300  1
  H  H35  1  0.46520200  0.66797500  0.87138400  1
  H  H36  1  0.23701100  0.89281300  0.05594200  1
  H  H37  1  0.33202500  0.53479800  0.62861600  1
  H  H38  1  0.35276300  0.75301300  0.83225800  1
  H  H39  1  0.10718700  0.76298900  0.44405800  1
  H  H40  1  0.89281300  0.23701100  0.55594200  1
  H  H41  1  0.64723700  0.24698700  0.16774200  1
  H  H42  1  0.66797500  0.46520200  0.37138400  1
  H  H43  1  0.76298900  0.10718700  0.94405800  1
  H  H44  1  0.53479800  0.33202500  0.12861600  1
  H  H45  1  0.05072600  0.21594600  0.47677700  1
  H  H46  1  0.75301300  0.35276300  0.33225800  1
  H  H47  1  0.21594600  0.05072600  0.97677700  1
  O  O48  1  0.99154600  0.78991100  0.89045900  1
  O  O49  1  0.87515400  0.92489700  0.72355600  1
  O  O50  1  0.63793900  0.91353200  0.32354500  1
  O  O51  1  0.60474600  0.87620500  0.87758400  1
  O  O52  1  0.39352200  0.82987400  0.53954000  1
  O  O53  1  0.13953200  0.80109700  0.63164400  1
  O  O54  1  0.72039000  0.98352900  0.61476600  1
  O  O55  1  0.73684300  0.01833400  0.97432400  1
  O  O56  1  0.19890300  0.86046800  0.86835600  1
  O  O57  1  0.29302500  0.86875400  0.29023400  1
  O  O58  1  0.78991100  0.99154600  0.39045900  1
  O  O59  1  0.91353200  0.63793900  0.82354500  1
  O  O60  1  0.49488000  0.76499000  0.34907000  1
  O  O61  1  0.44890900  0.72439000  0.79448300  1
  O  O62  1  0.27561000  0.55109100  0.70551700  1
  O  O63  1  0.01833400  0.73684300  0.47432400  1
  O  O64  1  0.49328800  0.71853300  0.18352800  1
  O  O65  1  0.76499000  0.49488000  0.84907000  1
  O  O66  1  0.30061500  0.60808600  0.45012800  1
  O  O67  1  0.92489700  0.87515400  0.22355600  1
  O  O68  1  0.17012600  0.60647800  0.96046000  1
  O  O69  1  0.59019500  0.65032200  0.52414500  1
  O  O70  1  0.01647100  0.27961000  0.88523400  1
  O  O71  1  0.12379500  0.39525400  0.62241600  1
  O  O72  1  0.71853300  0.49328800  0.68352800  1
  O  O73  1  0.13124600  0.70697500  0.20976600  1
  O  O74  1  0.39191400  0.69938500  0.04987200  1
  O  O75  1  0.65032200  0.59019500  0.02414500  1
  O  O76  1  0.34967800  0.40980500  0.97585500  1
  O  O77  1  0.60808600  0.30061500  0.95012800  1
  O  O78  1  0.86875400  0.29302500  0.79023400  1
  O  O79  1  0.28146700  0.50671200  0.31647200  1
  O  O80  1  0.87620500  0.60474600  0.37758400  1
  O  O81  1  0.98352900  0.72039000  0.11476600  1
  O  O82  1  0.40980500  0.34967800  0.47585500  1
  O  O83  1  0.82987400  0.39352200  0.03954000  1
  O  O84  1  0.07510300  0.12484600  0.77644400  1
  O  O85  1  0.69938500  0.39191400  0.54987200  1
  O  O86  1  0.23501000  0.50512000  0.15093000  1
  O  O87  1  0.50671200  0.28146700  0.81647200  1
  O  O88  1  0.98166600  0.26315700  0.52567600  1
  O  O89  1  0.72439000  0.44890900  0.29448300  1
  O  O90  1  0.55109100  0.27561000  0.20551700  1
  O  O91  1  0.50512000  0.23501000  0.65093000  1
  O  O92  1  0.08646800  0.36206100  0.17645500  1
  O  O93  1  0.21008900  0.00845400  0.60954100  1
  O  O94  1  0.70697500  0.13124600  0.70976600  1
  O  O95  1  0.80109700  0.13953200  0.13164400  1
  O  O96  1  0.26315700  0.98166600  0.02567600  1
  O  O97  1  0.27961000  0.01647100  0.38523400  1
  O  O98  1  0.86046800  0.19890300  0.36835600  1
  O  O99  1  0.60647800  0.17012600  0.46046000  1
  O  O100  1  0.39525400  0.12379500  0.12241600  1
  O  O101  1  0.36206100  0.08646800  0.67645500  1
  O  O102  1  0.12484600  0.07510300  0.27644400  1
  O  O103  1  0.00845400  0.21008900  0.10954100  1
