# generated using pymatgen
data_KBaPO4
_symmetry_space_group_name_H-M   'P 1'
_cell_length_a   5.67190848
_cell_length_b   7.72744597
_cell_length_c   10.02796935
_cell_angle_alpha   90.00000000
_cell_angle_beta   90.00000000
_cell_angle_gamma   90.00000000
_symmetry_Int_Tables_number   1
_chemical_formula_structural   KBaPO4
_chemical_formula_sum   'K4 Ba4 P4 O16'
_cell_volume   439.51954215
_cell_formula_units_Z   4
loop_
 _symmetry_equiv_pos_site_id
 _symmetry_equiv_pos_as_xyz
  1  'x, y, z'
loop_
 _atom_site_type_symbol
 _atom_site_label
 _atom_site_symmetry_multiplicity
 _atom_site_fract_x
 _atom_site_fract_y
 _atom_site_fract_z
 _atom_site_occupancy
  K  K0  1  0.25000000  0.16082176  0.41597766  1
  K  K1  1  0.25000000  0.66082176  0.08402234  1
  K  K2  1  0.75000000  0.83917824  0.58402234  1
  K  K3  1  0.75000000  0.33917824  0.91597766  1
  Ba  Ba4  1  0.25000000  0.99104265  0.80611322  1
  Ba  Ba5  1  0.75000000  0.00895735  0.19388678  1
  Ba  Ba6  1  0.25000000  0.49104265  0.69388678  1
  Ba  Ba7  1  0.75000000  0.50895735  0.30611322  1
  P  P8  1  0.25000000  0.73607268  0.41707932  1
  P  P9  1  0.75000000  0.26392732  0.58292068  1
  P  P10  1  0.75000000  0.76392732  0.91707932  1
  P  P11  1  0.25000000  0.23607268  0.08292068  1
  O  O12  1  0.25000000  0.30291105  0.93731227  1
  O  O13  1  0.75000000  0.69708895  0.06268773  1
  O  O14  1  0.25000000  0.80291105  0.56268773  1
  O  O15  1  0.75000000  0.19708895  0.43731227  1
  O  O16  1  0.25000000  0.03587087  0.08443470  1
  O  O17  1  0.75000000  0.96412913  0.91556530  1
  O  O18  1  0.25000000  0.53587087  0.41556530  1
  O  O19  1  0.75000000  0.46412913  0.58443470  1
  O  O20  1  0.47306182  0.80232514  0.34582259  1
  O  O21  1  0.97306182  0.19767486  0.65417741  1
  O  O22  1  0.02693818  0.30232514  0.15417741  1
  O  O23  1  0.52693818  0.69767486  0.84582259  1
  O  O24  1  0.47306182  0.30232514  0.15417741  1
  O  O25  1  0.97306182  0.69767486  0.84582259  1
  O  O26  1  0.02693818  0.80232514  0.34582259  1
  O  O27  1  0.52693818  0.19767486  0.65417741  1
