# generated using pymatgen
data_K4Hf3Mn(PO4)6
_symmetry_space_group_name_H-M   'P 1'
_cell_length_a   10.13326227
_cell_length_b   10.16632623
_cell_length_c   10.18081186
_cell_angle_alpha   90.03586557
_cell_angle_beta   90.00000000
_cell_angle_gamma   90.00000000
_symmetry_Int_Tables_number   1
_chemical_formula_structural   K4Hf3Mn(PO4)6
_chemical_formula_sum   'K8 Hf6 Mn2 P12 O48'
_cell_volume   1048.80718002
_cell_formula_units_Z   2
loop_
 _symmetry_equiv_pos_site_id
 _symmetry_equiv_pos_as_xyz
  1  'x, y, z'
loop_
 _atom_site_type_symbol
 _atom_site_label
 _atom_site_symmetry_multiplicity
 _atom_site_fract_x
 _atom_site_fract_y
 _atom_site_fract_z
 _atom_site_occupancy
  K  K0  1  0.56886568  0.17337936  0.42745215  1
  K  K1  1  0.29964045  0.04045763  0.81527997  1
  K  K2  1  0.79964045  0.95954237  0.18472003  1
  K  K3  1  0.06886568  0.82662064  0.57254785  1
  K  K4  1  0.43691409  0.69872078  0.05693510  1
  K  K5  1  0.69642241  0.56347677  0.71966793  1
  K  K6  1  0.19642241  0.43652323  0.28033207  1
  K  K7  1  0.93691409  0.30127922  0.94306490  1
  Hf  Hf8  1  0.91195280  0.16027113  0.58705781  1
  Hf  Hf9  1  0.41195280  0.83972887  0.41294219  1
  Hf  Hf10  1  0.08439468  0.66745156  0.91385167  1
  Hf  Hf11  1  0.85751023  0.60645193  0.35568414  1
  Hf  Hf12  1  0.35751023  0.39354807  0.64431586  1
  Hf  Hf13  1  0.58439468  0.33254844  0.08614833  1
  Mn  Mn14  1  0.14885022  0.10031394  0.14493321  1
  Mn  Mn15  1  0.64885022  0.89968606  0.85506679  1
  P  P16  1  0.62313830  0.21035451  0.76980433  1
  P  P17  1  0.23167903  0.12709035  0.46009797  1
  P  P18  1  0.46205473  0.01748228  0.12630906  1
  P  P19  1  0.96205473  0.98251772  0.87369094  1
  P  P20  1  0.73167903  0.87290965  0.53990203  1
  P  P21  1  0.12313830  0.78964549  0.23019567  1
  P  P22  1  0.37038023  0.71462685  0.72709369  1
  P  P23  1  0.77345039  0.61942676  0.03953345  1
  P  P24  1  0.53688076  0.52336900  0.37170600  1
  P  P25  1  0.03688076  0.47663100  0.62829400  1
  P  P26  1  0.27345039  0.38057324  0.96046655  1
  P  P27  1  0.87038023  0.28537315  0.27290631  1
  O  O28  1  0.84946780  0.24853175  0.41787186  1
  O  O29  1  0.75655988  0.22353263  0.69860303  1
  O  O30  1  0.30123389  0.22295044  0.55642261  1
  O  O31  1  0.97086017  0.20243117  0.20380635  1
  O  O32  1  0.24534605  0.17678827  0.32198082  1
  O  O33  1  0.49643214  0.16533768  0.14286682  1
  O  O34  1  0.08714760  0.11078597  0.50181178  1
  O  O35  1  0.56522314  0.07485565  0.75936479  1
  O  O36  1  0.97832179  0.04235622  0.73340347  1
  O  O37  1  0.06163035  0.05098089  0.96029978  1
  O  O38  1  0.32201601  0.00126877  0.07802115  1
  O  O39  1  0.79967920  0.00681004  0.51707735  1
  O  O40  1  0.29967920  0.99318996  0.48292265  1
  O  O41  1  0.82201601  0.99873123  0.92197885  1
  O  O42  1  0.56163035  0.94901911  0.03970022  1
  O  O43  1  0.47832179  0.95764378  0.26659653  1
  O  O44  1  0.06522314  0.92514435  0.24063521  1
  O  O45  1  0.58714760  0.88921403  0.49818822  1
  O  O46  1  0.99643214  0.83466232  0.85713318  1
  O  O47  1  0.74534605  0.82321173  0.67801918  1
  O  O48  1  0.47086017  0.79756883  0.79619365  1
  O  O49  1  0.80123389  0.77704956  0.44357739  1
  O  O50  1  0.25655988  0.77646737  0.30139697  1
  O  O51  1  0.34946780  0.75146825  0.58212814  1
  O  O52  1  0.14543597  0.74575689  0.08746341  1
  O  O53  1  0.23559122  0.73334052  0.79510681  1
  O  O54  1  0.70407799  0.71458910  0.95096389  1
  O  O55  1  0.03193720  0.68735406  0.29821505  1
  O  O56  1  0.77099587  0.66664454  0.18406855  1
  O  O57  1  0.49327027  0.66488957  0.34775567  1
  O  O58  1  0.91829793  0.59571127  0.00041630  1
  O  O59  1  0.41031282  0.56796694  0.73158117  1
  O  O60  1  0.02028355  0.55422621  0.75570505  1
  O  O61  1  0.94884545  0.54356596  0.52563430  1
  O  O62  1  0.68040327  0.52123981  0.41947525  1
  O  O63  1  0.20449544  0.51507537  0.97003660  1
  O  O64  1  0.70449544  0.48492463  0.02996340  1
  O  O65  1  0.18040327  0.47876019  0.58052475  1
  O  O66  1  0.44884545  0.45643404  0.47436570  1
  O  O67  1  0.52028355  0.44577379  0.24429495  1
  O  O68  1  0.91031282  0.43203306  0.26841883  1
  O  O69  1  0.41829793  0.40428873  -0.00041630  1
  O  O70  1  0.99327027  0.33511043  0.65224433  1
  O  O71  1  0.27099587  0.33335546  0.81593145  1
  O  O72  1  0.53193720  0.31264594  0.70178495  1
  O  O73  1  0.20407799  0.28541090  0.04903611  1
  O  O74  1  0.73559122  0.26665948  0.20489319  1
  O  O75  1  0.64543597  0.25424311  0.91253659  1
