# generated using pymatgen
data_NaTiFeO4
_symmetry_space_group_name_H-M   'P 1'
_cell_length_a   2.97230721
_cell_length_b   9.13530430
_cell_length_c   11.32801069
_cell_angle_alpha   90.00000000
_cell_angle_beta   90.00000000
_cell_angle_gamma   90.00000000
_symmetry_Int_Tables_number   1
_chemical_formula_structural   NaTiFeO4
_chemical_formula_sum   'Na4 Ti4 Fe4 O16'
_cell_volume   307.58869078
_cell_formula_units_Z   4
loop_
 _symmetry_equiv_pos_site_id
 _symmetry_equiv_pos_as_xyz
  1  'x, y, z'
loop_
 _atom_site_type_symbol
 _atom_site_label
 _atom_site_symmetry_multiplicity
 _atom_site_fract_x
 _atom_site_fract_y
 _atom_site_fract_z
 _atom_site_occupancy
  Na  Na0  1  0.75000000  0.38889018  0.89029394  1
  Na  Na1  1  0.25000000  0.11110982  0.39029394  1
  Na  Na2  1  0.25000000  0.61110982  0.10970606  1
  Na  Na3  1  0.75000000  0.88889018  0.60970606  1
  Ti  Ti4  1  0.75000000  0.72491588  0.83981663  1
  Ti  Ti5  1  0.25000000  0.77508412  0.33981663  1
  Ti  Ti6  1  0.25000000  0.27508412  0.16018337  1
  Ti  Ti7  1  0.75000000  0.22491588  0.66018337  1
  Fe  Fe8  1  0.75000000  0.98335371  0.11796282  1
  Fe  Fe9  1  0.25000000  0.51664629  0.61796282  1
  Fe  Fe10  1  0.75000000  0.48335371  0.38203718  1
  Fe  Fe11  1  0.25000000  0.01664629  0.88203718  1
  O  O12  1  0.75000000  0.12469688  0.81036991  1
  O  O13  1  0.75000000  0.88288597  0.40612840  1
  O  O14  1  0.25000000  0.11488677  0.04031132  1
  O  O15  1  0.25000000  0.61711403  0.90612840  1
  O  O16  1  0.25000000  0.84993233  0.76983771  1
  O  O17  1  0.75000000  0.15006767  0.23016229  1
  O  O18  1  0.75000000  0.62469688  0.68963009  1
  O  O19  1  0.25000000  0.37530312  0.31036991  1
  O  O20  1  0.75000000  0.38511323  0.54031132  1
  O  O21  1  0.25000000  0.87530312  0.18963009  1
  O  O22  1  0.25000000  0.61488677  0.45968868  1
  O  O23  1  0.25000000  0.11711403  0.59387160  1
  O  O24  1  0.75000000  0.88511323  0.95968868  1
  O  O25  1  0.25000000  0.34993233  0.73016229  1
  O  O26  1  0.75000000  0.38288597  0.09387160  1
  O  O27  1  0.75000000  0.65006767  0.26983771  1
