# generated using pymatgen
data_K2In3AgSe6
_symmetry_space_group_name_H-M   'P 1'
_cell_length_a   8.29332886
_cell_length_b   8.29333008
_cell_length_c   21.38261478
_cell_angle_alpha   84.22273153
_cell_angle_beta   84.22272980
_cell_angle_gamma   90.15295330
_symmetry_Int_Tables_number   1
_chemical_formula_structural   K2In3AgSe6
_chemical_formula_sum   'K8 In12 Ag4 Se24'
_cell_volume   1455.65775021
_cell_formula_units_Z   4
loop_
 _symmetry_equiv_pos_site_id
 _symmetry_equiv_pos_as_xyz
  1  'x, y, z'
loop_
 _atom_site_type_symbol
 _atom_site_label
 _atom_site_symmetry_multiplicity
 _atom_site_fract_x
 _atom_site_fract_y
 _atom_site_fract_z
 _atom_site_occupancy
  K  K0  1  0.20246690  0.60747847  0.58306316  1
  K  K1  1  0.39252153  0.79753310  0.91693684  1
  K  K2  1  0.74349422  0.89512645  0.41696714  1
  K  K3  1  0.89512645  0.74349422  0.91696714  1
  K  K4  1  0.79753310  0.39252153  0.41693684  1
  K  K5  1  0.25650578  0.10487355  0.58303286  1
  K  K6  1  0.60747847  0.20246690  0.08306316  1
  K  K7  1  0.10487355  0.25650578  0.08303286  1
  In  In8  1  0.15143278  0.27842924  0.88815984  1
  In  In9  1  0.84856722  0.72157076  0.11184016  1
  In  In10  1  0.06599377  0.93400623  0.25000000  1
  In  In11  1  0.44056414  0.55943586  0.75000000  1
  In  In12  1  0.27702824  0.65128169  0.38857659  1
  In  In13  1  0.93400623  0.06599377  0.75000000  1
  In  In14  1  0.72297176  0.34871831  0.61142341  1
  In  In15  1  0.27842924  0.15143278  0.38815984  1
  In  In16  1  0.72157076  0.84856722  0.61184016  1
  In  In17  1  0.34871831  0.72297176  0.11142341  1
  In  In18  1  0.55943586  0.44056414  0.25000000  1
  In  In19  1  0.65128169  0.27702824  0.88857659  1
  Ag  Ag20  1  0.06412102  0.43902989  0.24994406  1
  Ag  Ag21  1  0.56097011  0.93587898  0.25005594  1
  Ag  Ag22  1  0.43902989  0.06412102  0.74994406  1
  Ag  Ag23  1  0.93587898  0.56097011  0.75005594  1
  Se  Se24  1  0.33723905  0.43834144  0.17428356  1
  Se  Se25  1  0.43820299  0.82447669  0.67482872  1
  Se  Se26  1  0.67209893  0.02518252  0.82577571  1
  Se  Se27  1  0.84044508  0.97294001  0.17460525  1
  Se  Se28  1  0.02705999  0.15955492  0.32539475  1
  Se  Se29  1  0.30626887  0.88209790  0.46065308  1
  Se  Se30  1  0.69373113  0.11790210  0.53934692  1
  Se  Se31  1  0.17552331  0.56179701  0.82517128  1
  Se  Se32  1  0.11790210  0.69373113  0.03934692  1
  Se  Se33  1  0.56179701  0.17552331  0.32517128  1
  Se  Se34  1  0.43834144  0.33723905  0.67428356  1
  Se  Se35  1  0.97294001  0.84044508  0.67460525  1
  Se  Se36  1  0.15955492  0.02705999  0.82539475  1
  Se  Se37  1  0.61818351  0.78758846  0.03921217  1
  Se  Se38  1  0.97481748  0.32790107  0.67422429  1
  Se  Se39  1  0.82447669  0.43820299  0.17482872  1
  Se  Se40  1  0.32790107  0.97481748  0.17422429  1
  Se  Se41  1  0.78758846  0.61818351  0.53921217  1
  Se  Se42  1  0.21241154  0.38181649  0.46078783  1
  Se  Se43  1  0.38181649  0.21241154  0.96078783  1
  Se  Se44  1  0.02518252  0.67209893  0.32577571  1
  Se  Se45  1  0.56165856  0.66276095  0.32571644  1
  Se  Se46  1  0.88209790  0.30626887  0.96065308  1
  Se  Se47  1  0.66276095  0.56165856  0.82571644  1
