# generated using pymatgen
data_TeS7Cl2
_symmetry_space_group_name_H-M   'P 1'
_cell_length_a   9.02065121
_cell_length_b   9.29841445
_cell_length_c   13.54777545
_cell_angle_alpha   90.00000000
_cell_angle_beta   90.00000000
_cell_angle_gamma   90.00000000
_symmetry_Int_Tables_number   1
_chemical_formula_structural   TeS7Cl2
_chemical_formula_sum   'Te4 S28 Cl8'
_cell_volume   1136.35697047
_cell_formula_units_Z   4
loop_
 _symmetry_equiv_pos_site_id
 _symmetry_equiv_pos_as_xyz
  1  'x, y, z'
loop_
 _atom_site_type_symbol
 _atom_site_label
 _atom_site_symmetry_multiplicity
 _atom_site_fract_x
 _atom_site_fract_y
 _atom_site_fract_z
 _atom_site_occupancy
  Te  Te0  1  0.75000000  0.31693145  0.59829902  1
  Te  Te1  1  0.25000000  0.18306855  0.09829902  1
  Te  Te2  1  0.25000000  0.68306855  0.40170098  1
  Te  Te3  1  0.75000000  0.81693145  0.90170098  1
  S  S4  1  0.93217293  0.63814798  0.21031405  1
  S  S5  1  0.93217293  0.13814798  0.28968595  1
  S  S6  1  0.46218191  0.82331511  0.46924750  1
  S  S7  1  0.75000000  0.24344409  0.23623372  1
  S  S8  1  0.52906424  0.74204011  0.59852570  1
  S  S9  1  0.43217293  0.36185202  0.78968595  1
  S  S10  1  0.96218191  0.17668489  0.53075250  1
  S  S11  1  0.52906424  0.24204011  0.90147430  1
  S  S12  1  0.25000000  0.25655591  0.73623372  1
  S  S13  1  0.97093576  0.74204011  0.59852570  1
  S  S14  1  0.02906424  0.75795989  0.09852570  1
  S  S15  1  0.47093576  0.75795989  0.09852570  1
  S  S16  1  0.02906424  0.25795989  0.40147430  1
  S  S17  1  0.97093576  0.24204011  0.90147430  1
  S  S18  1  0.03781809  0.32331511  0.03075250  1
  S  S19  1  0.06782707  0.36185202  0.78968595  1
  S  S20  1  0.43217293  0.86185202  0.71031405  1
  S  S21  1  0.56782707  0.13814798  0.28968595  1
  S  S22  1  0.25000000  0.75655591  0.76376628  1
  S  S23  1  0.56782707  0.63814798  0.21031405  1
  S  S24  1  0.06782707  0.86185202  0.71031405  1
  S  S25  1  0.53781809  0.17668489  0.53075250  1
  S  S26  1  0.75000000  0.74344409  0.26376628  1
  S  S27  1  0.46218191  0.32331511  0.03075250  1
  S  S28  1  0.47093576  0.25795989  0.40147430  1
  S  S29  1  0.03781809  0.82331511  0.46924750  1
  S  S30  1  0.96218191  0.67668489  0.96924750  1
  S  S31  1  0.53781809  0.67668489  0.96924750  1
  Cl  Cl32  1  0.25000000  0.90000353  0.28807207  1
  Cl  Cl33  1  0.75000000  0.98549324  0.03845747  1
  Cl  Cl34  1  0.25000000  0.01450676  0.96154253  1
  Cl  Cl35  1  0.75000000  0.09999647  0.71192793  1
  Cl  Cl36  1  0.75000000  0.48549324  0.46154253  1
  Cl  Cl37  1  0.25000000  0.51450676  0.53845747  1
  Cl  Cl38  1  0.75000000  0.59999647  0.78807207  1
  Cl  Cl39  1  0.25000000  0.40000353  0.21192793  1
