# generated using pymatgen
data_ReHgO4
_symmetry_space_group_name_H-M   'P 1'
_cell_length_a   5.07751437
_cell_length_b   5.69014119
_cell_length_c   15.15468427
_cell_angle_alpha   70.68148950
_cell_angle_beta   90.00000000
_cell_angle_gamma   90.00000000
_symmetry_Int_Tables_number   1
_chemical_formula_structural   ReHgO4
_chemical_formula_sum   'Re4 Hg4 O16'
_cell_volume   413.19242178
_cell_formula_units_Z   4
loop_
 _symmetry_equiv_pos_site_id
 _symmetry_equiv_pos_as_xyz
  1  'x, y, z'
loop_
 _atom_site_type_symbol
 _atom_site_label
 _atom_site_symmetry_multiplicity
 _atom_site_fract_x
 _atom_site_fract_y
 _atom_site_fract_z
 _atom_site_occupancy
  Re  Re0  1  0.64417043  0.14320836  0.34425640  1
  Re  Re1  1  0.35582957  0.85679164  0.65574360  1
  Re  Re2  1  0.14417043  0.85679164  0.15574360  1
  Re  Re3  1  0.85582957  0.14320836  0.84425640  1
  Hg  Hg4  1  0.32746697  0.61002898  0.93899426  1
  Hg  Hg5  1  0.17253303  0.61002898  0.43899426  1
  Hg  Hg6  1  0.82746697  0.38997102  0.56100574  1
  Hg  Hg7  1  0.67253303  0.38997102  0.06100574  1
  O  O8  1  0.51120395  0.84407389  0.36414092  1
  O  O9  1  0.48879605  0.15592611  0.63585908  1
  O  O10  1  0.07393549  0.66851213  0.26933951  1
  O  O11  1  0.01120395  0.15592611  0.13585908  1
  O  O12  1  0.51814876  0.27747182  0.42328326  1
  O  O13  1  0.51858320  0.10896497  0.86128732  1
  O  O14  1  0.98185124  0.27747182  0.92328326  1
  O  O15  1  0.57393549  0.33148787  0.23066049  1
  O  O16  1  0.98879605  0.84407389  0.86414092  1
  O  O17  1  0.98141680  0.10896497  0.36128732  1
  O  O18  1  0.48141680  0.89103503  0.13871268  1
  O  O19  1  0.92606451  0.33148787  0.73066049  1
  O  O20  1  0.01858320  0.89103503  0.63871268  1
  O  O21  1  0.42606451  0.66851213  0.76933951  1
  O  O22  1  0.01814876  0.72252818  0.07671674  1
  O  O23  1  0.48185124  0.72252818  0.57671674  1
