# generated using pymatgen
data_BaAl2(SiO4)2
_symmetry_space_group_name_H-M   'P 1'
_cell_length_a   8.58111292
_cell_length_b   9.07034756
_cell_length_c   9.59874661
_cell_angle_alpha   90.00000000
_cell_angle_beta   90.00000000
_cell_angle_gamma   90.19073053
_symmetry_Int_Tables_number   1
_chemical_formula_structural   BaAl2(SiO4)2
_chemical_formula_sum   'Ba4 Al8 Si8 O32'
_cell_volume   747.10160007
_cell_formula_units_Z   4
loop_
 _symmetry_equiv_pos_site_id
 _symmetry_equiv_pos_as_xyz
  1  'x, y, z'
loop_
 _atom_site_type_symbol
 _atom_site_label
 _atom_site_symmetry_multiplicity
 _atom_site_fract_x
 _atom_site_fract_y
 _atom_site_fract_z
 _atom_site_occupancy
  Ba  Ba0  1  0.25095718  0.39816730  0.08851989  1
  Ba  Ba1  1  0.74904282  0.10183270  0.58851989  1
  Ba  Ba2  1  0.74904282  0.60183270  0.91148011  1
  Ba  Ba3  1  0.25095718  0.89816730  0.41148011  1
  Al  Al4  1  0.93086863  0.72474518  0.57826184  1
  Al  Al5  1  0.06913137  0.77525482  0.07826184  1
  Al  Al6  1  0.06913137  0.27525482  0.42173816  1
  Al  Al7  1  0.93086863  0.22474518  0.92173816  1
  Al  Al8  1  0.57194532  0.56395926  0.30689756  1
  Al  Al9  1  0.42805468  0.93604074  0.80689756  1
  Al  Al10  1  0.42805468  0.43604074  0.69310244  1
  Al  Al11  1  0.57194532  0.06395926  0.19310244  1
  Si  Si12  1  0.56287468  0.73197840  0.58326689  1
  Si  Si13  1  0.43712532  0.76802160  0.08326689  1
  Si  Si14  1  0.43712532  0.26802160  0.41673311  1
  Si  Si15  1  0.56287468  0.23197840  0.91673311  1
  Si  Si16  1  0.94075955  0.56856129  0.30142391  1
  Si  Si17  1  0.05924045  0.93143871  0.80142391  1
  Si  Si18  1  0.05924045  0.43143871  0.69857609  1
  Si  Si19  1  0.94075955  0.06856129  0.19857609  1
  O  O20  1  0.74108991  0.79311665  0.58774777  1
  O  O21  1  0.25891009  0.70688335  0.08774777  1
  O  O22  1  0.25891009  0.20688335  0.41225223  1
  O  O23  1  0.74108991  0.29311665  0.91225223  1
  O  O24  1  0.76460912  0.52104344  0.33534516  1
  O  O25  1  0.23539088  0.97895656  0.83534516  1
  O  O26  1  0.23539088  0.47895656  0.66465484  1
  O  O27  1  0.76460912  0.02104344  0.16465484  1
  O  O28  1  0.45036598  0.40932222  0.31526158  1
  O  O29  1  0.54963402  0.09067778  0.81526158  1
  O  O30  1  0.54963402  0.59067778  0.68473842  1
  O  O31  1  0.45036598  0.90932222  0.18473842  1
  O  O32  1  0.05865583  0.42983745  0.31609051  1
  O  O33  1  0.94134417  0.07016255  0.81609051  1
  O  O34  1  0.94134417  0.57016255  0.68390949  1
  O  O35  1  0.05865583  0.92983745  0.18390949  1
  O  O36  1  0.54451975  0.63149224  0.13695070  1
  O  O37  1  0.45548025  0.86850776  0.63695070  1
  O  O38  1  0.45548025  0.36850776  0.86304930  1
  O  O39  1  0.54451975  0.13149224  0.36304930  1
  O  O40  1  -0.00043781  0.19643387  0.09035435  1
  O  O41  1  0.00043781  0.30356613  0.59035435  1
  O  O42  1  0.00043781  0.80356613  0.90964565  1
  O  O43  1  -0.00043781  0.69643387  0.40964565  1
  O  O44  1  0.50353082  0.19419967  0.07258020  1
  O  O45  1  0.49646918  0.30580033  0.57258020  1
  O  O46  1  0.49646918  0.80580033  0.92741980  1
  O  O47  1  0.50353082  0.69419967  0.42741980  1
  O  O48  1  0.95648139  0.12763698  0.35893526  1
  O  O49  1  0.04351861  0.37236302  0.85893526  1
  O  O50  1  0.04351861  0.87236302  0.64106474  1
  O  O51  1  0.95648139  0.62763698  0.14106474  1
