# generated using pymatgen
data_Gd3S3N
_symmetry_space_group_name_H-M   'P 1'
_cell_length_a   3.89369649
_cell_length_b   12.06890675
_cell_length_c   12.85120442
_cell_angle_alpha   90.00000000
_cell_angle_beta   90.00000000
_cell_angle_gamma   90.00000000
_symmetry_Int_Tables_number   1
_chemical_formula_structural   Gd3S3N
_chemical_formula_sum   'Gd12 S12 N4'
_cell_volume   603.91227798
_cell_formula_units_Z   4
loop_
 _symmetry_equiv_pos_site_id
 _symmetry_equiv_pos_as_xyz
  1  'x, y, z'
loop_
 _atom_site_type_symbol
 _atom_site_label
 _atom_site_symmetry_multiplicity
 _atom_site_fract_x
 _atom_site_fract_y
 _atom_site_fract_z
 _atom_site_occupancy
  Gd  Gd0  1  0.75000000  0.21330651  0.63890439  1
  Gd  Gd1  1  0.25000000  0.95359642  0.64606632  1
  Gd  Gd2  1  0.25000000  0.45359642  0.85393368  1
  Gd  Gd3  1  0.75000000  0.57148881  0.62898024  1
  Gd  Gd4  1  0.25000000  0.78669349  0.36109561  1
  Gd  Gd5  1  0.25000000  0.28669349  0.13890439  1
  Gd  Gd6  1  0.75000000  0.04640358  0.35393368  1
  Gd  Gd7  1  0.75000000  0.71330651  0.86109561  1
  Gd  Gd8  1  0.75000000  0.54640358  0.14606632  1
  Gd  Gd9  1  0.25000000  0.92851119  0.12898024  1
  Gd  Gd10  1  0.75000000  0.07148881  0.87101976  1
  Gd  Gd11  1  0.25000000  0.42851119  0.37101976  1
  S  S12  1  0.25000000  0.63334810  0.99185308  1
  S  S13  1  0.25000000  0.72480912  0.69227965  1
  S  S14  1  0.75000000  0.86665190  0.49185308  1
  S  S15  1  0.25000000  0.22480912  0.80772035  1
  S  S16  1  0.25000000  0.91035025  0.89679374  1
  S  S17  1  0.75000000  0.77519088  0.19227965  1
  S  S18  1  0.25000000  0.13334810  0.50814692  1
  S  S19  1  0.75000000  0.27519088  0.30772035  1
  S  S20  1  0.75000000  0.36665190  0.00814692  1
  S  S21  1  0.75000000  0.58964975  0.39679374  1
  S  S22  1  0.75000000  0.08964975  0.10320626  1
  S  S23  1  0.25000000  0.41035025  0.60320626  1
  N  N24  1  0.25000000  0.46130281  0.20234767  1
  N  N25  1  0.25000000  0.96130281  0.29765233  1
  N  N26  1  0.75000000  0.53869719  0.79765233  1
  N  N27  1  0.75000000  0.03869719  0.70234767  1
