# generated using pymatgen
data_CdI2
_symmetry_space_group_name_H-M   'P 1'
_cell_length_a   4.28435640
_cell_length_b   4.28435602
_cell_length_c   78.96352772
_cell_angle_alpha   90.00000000
_cell_angle_beta   90.00000000
_cell_angle_gamma   119.99999490
_symmetry_Int_Tables_number   1
_chemical_formula_structural   CdI2
_chemical_formula_sum   'Cd11 I22'
_cell_volume   1255.24453763
_cell_formula_units_Z   11
loop_
 _symmetry_equiv_pos_site_id
 _symmetry_equiv_pos_as_xyz
  1  'x, y, z'
loop_
 _atom_site_type_symbol
 _atom_site_label
 _atom_site_symmetry_multiplicity
 _atom_site_fract_x
 _atom_site_fract_y
 _atom_site_fract_z
 _atom_site_occupancy
  Cd  Cd0  1  0.66666700  0.33333300  0.20456926  1
  Cd  Cd1  1  0.66666700  0.33333300  0.93198522  1
  Cd  Cd2  1  0.66666700  0.33333300  0.02278872  1
  Cd  Cd3  1  0.66666700  0.33333300  0.65889135  1
  Cd  Cd4  1  0.66666700  0.33333300  0.38640577  1
  Cd  Cd5  1  0.66666700  0.33333300  0.74979692  1
  Cd  Cd6  1  0.66666700  0.33333300  0.84074415  1
  Cd  Cd7  1  0.00000000  -0.00000000  0.56834233  1
  Cd  Cd8  1  -0.00000000  -0.00000000  0.11355725  1
  Cd  Cd9  1  0.66666700  0.33333300  0.47718196  1
  Cd  Cd10  1  -0.00000000  -0.00000000  0.29561536  1
  I  I11  1  0.33333300  0.66666700  0.59013680  1
  I  I12  1  -0.00000000  -0.00000000  0.45535963  1
  I  I13  1  0.33333300  0.66666700  0.40819574  1
  I  I14  1  -0.00000000  -0.00000000  0.18271848  1
  I  I15  1  0.00000000  -0.00000000  0.63712217  1
  I  I16  1  0.33333300  0.66666700  0.86263265  1
  I  I17  1  0.33333300  0.66666700  0.95381423  1
  I  I18  1  -0.00000000  -0.00000000  0.72805043  1
  I  I19  1  0.66666700  0.33333300  0.27380382  1
  I  I20  1  0.33333300  0.66666700  0.77157126  1
  I  I21  1  0.00000000  -0.00000000  0.81891399  1
  I  I22  1  0.33333300  0.66666700  0.04462660  1
  I  I23  1  0.33333300  0.66666700  0.22649545  1
  I  I24  1  0.66666700  0.33333300  0.09180595  1
  I  I25  1  0.00000000  -0.00000000  0.91025362  1
  I  I26  1  -0.00000000  -0.00000000  0.00102723  1
  I  I27  1  0.33333300  0.66666700  0.31742251  1
  I  I28  1  0.66666700  0.33333300  0.54658822  1
  I  I29  1  -0.00000000  -0.00000000  0.36457614  1
  I  I30  1  0.33333300  0.66666700  0.68063869  1
  I  I31  1  0.33333300  0.66666700  0.13539933  1
  I  I32  1  0.33333300  0.66666700  0.49896777  1
