# generated using pymatgen
data_Cu2SO4
_symmetry_space_group_name_H-M   'P 1'
_cell_length_a   9.26802219
_cell_length_b   7.85210969
_cell_length_c   5.90323555
_cell_angle_alpha   83.42970647
_cell_angle_beta   57.31600332
_cell_angle_gamma   39.25429021
_symmetry_Int_Tables_number   1
_chemical_formula_structural   Cu2SO4
_chemical_formula_sum   'Cu4 S2 O8'
_cell_volume   187.93808495
_cell_formula_units_Z   2
loop_
 _symmetry_equiv_pos_site_id
 _symmetry_equiv_pos_as_xyz
  1  'x, y, z'
loop_
 _atom_site_type_symbol
 _atom_site_label
 _atom_site_symmetry_multiplicity
 _atom_site_fract_x
 _atom_site_fract_y
 _atom_site_fract_z
 _atom_site_occupancy
  Cu  Cu0  1  0.94219700  0.94858800  0.55333000  1
  Cu  Cu1  1  0.54842500  0.55461300  0.94247500  1
  Cu  Cu2  1  0.31085900  0.29734600  0.69454700  1
  Cu  Cu3  1  0.69157800  0.70506600  0.29942200  1
  S  S4  1  0.25059700  0.24574500  0.24328100  1
  S  S5  1  0.98801400  0.00889200  0.00872000  1
  O  O6  1  0.41720100  0.19677200  0.92137600  1
  O  O7  1  0.45073900  0.92442400  0.20530600  1
  O  O8  1  0.92845700  0.44816200  0.41119500  1
  O  O9  1  0.20669400  0.40623400  0.45005400  1
  O  O10  1  0.82753500  0.05855100  0.32698600  1
  O  O11  1  0.80672300  0.31599800  0.04064200  1
  O  O12  1  0.04513600  0.83235700  0.79182300  1
  O  O13  1  0.31502100  0.80592700  0.83425300  1
