# generated using pymatgen
data_Ga2FeO4
_symmetry_space_group_name_H-M   'P 1'
_cell_length_a   5.77627727
_cell_length_b   8.42788694
_cell_length_c   5.99521973
_cell_angle_alpha   90.00013386
_cell_angle_beta   90.00333220
_cell_angle_gamma   90.00049438
_symmetry_Int_Tables_number   1
_chemical_formula_structural   Ga2FeO4
_chemical_formula_sum   'Ga8 Fe4 O16'
_cell_volume   291.85815816
_cell_formula_units_Z   4
loop_
 _symmetry_equiv_pos_site_id
 _symmetry_equiv_pos_as_xyz
  1  'x, y, z'
loop_
 _atom_site_type_symbol
 _atom_site_label
 _atom_site_symmetry_multiplicity
 _atom_site_fract_x
 _atom_site_fract_y
 _atom_site_fract_z
 _atom_site_occupancy
  Ga  Ga0  1  0.00000792  0.00962748  0.99999818  1
  Ga  Ga1  1  0.49999673  0.50964560  0.50000191  1
  Ga  Ga2  1  0.49999192  0.24037369  0.00000230  1
  Ga  Ga3  1  0.00000321  0.74035516  0.49999783  1
  Ga  Ga4  1  -0.00000357  0.37500306  0.24997694  1
  Ga  Ga5  1  0.50000347  0.87499756  0.75002318  1
  Ga  Ga6  1  0.99999439  0.37500352  0.75001415  1
  Ga  Ga7  1  0.50000565  0.87499696  0.24998519  1
  Fe  Fe8  1  0.24999953  0.12500036  0.49999982  1
  Fe  Fe9  1  0.25000138  0.62500032  -0.00000049  1
  Fe  Fe10  1  0.74999980  0.62500022  -0.00000070  1
  Fe  Fe11  1  0.75000058  0.12500027  0.49999969  1
  O  O12  1  0.76493189  0.37316659  0.99997984  1
  O  O13  1  0.26494945  0.87316326  0.49998562  1
  O  O14  1  0.23504956  0.37316195  0.00001078  1
  O  O15  1  0.73506721  0.87316313  0.50003084  1
  O  O16  1  0.26495023  0.87683805  0.99998888  1
  O  O17  1  0.76493274  0.37683673  0.49996913  1
  O  O18  1  0.73506797  0.87683335  0.00002002  1
  O  O19  1  0.23505040  0.37683648  0.50001376  1
  O  O20  1  0.99999621  0.61026688  0.24760482  1
  O  O21  1  0.49996640  0.11027341  0.74762496  1
  O  O22  1  0.00000001  0.61026040  0.75238122  1
  O  O23  1  0.50000934  0.11027646  0.25238753  1
  O  O24  1  0.50000094  0.63973934  0.24761940  1
  O  O25  1  0.99999051  0.13972345  0.74761334  1
  O  O26  1  0.50000447  0.63973233  0.75239499  1
  O  O27  1  0.00003364  0.13972600  0.25237587  1
