# generated using pymatgen
data_K3ZnH5
_symmetry_space_group_name_H-M   'P 1'
_cell_length_a   7.66491736
_cell_length_b   7.66491736
_cell_length_c   7.66491736
_cell_angle_alpha   121.69723690
_cell_angle_beta   121.69723690
_cell_angle_gamma   87.08460774
_symmetry_Int_Tables_number   1
_chemical_formula_structural   K3ZnH5
_chemical_formula_sum   'K6 Zn2 H10'
_cell_volume   309.82027065
_cell_formula_units_Z   2
loop_
 _symmetry_equiv_pos_site_id
 _symmetry_equiv_pos_as_xyz
  1  'x, y, z'
loop_
 _atom_site_type_symbol
 _atom_site_label
 _atom_site_symmetry_multiplicity
 _atom_site_fract_x
 _atom_site_fract_y
 _atom_site_fract_z
 _atom_site_occupancy
  K  K0  1  0.17971025  0.67971025  0.85942151  1
  K  K1  1  0.82028975  0.32028975  0.14057849  1
  K  K2  1  0.67971025  0.82028975  0.50000000  1
  K  K3  1  0.32028975  0.17971025  0.50000000  1
  K  K4  1  0.25000000  0.25000000  -0.00000000  1
  K  K5  1  0.75000000  0.75000000  -0.00000000  1
  Zn  Zn6  1  0.25000000  0.75000000  0.50000000  1
  Zn  Zn7  1  0.75000000  0.25000000  0.50000000  1
  H  H8  1  0.46309019  0.96309019  0.74981643  1
  H  H9  1  0.21327275  0.71327275  0.25018357  1
  H  H10  1  0.96309019  0.21327275  0.50000000  1
  H  H11  1  0.71327275  0.46309019  0.50000000  1
  H  H12  1  0.53690981  0.03690981  0.25018357  1
  H  H13  1  0.78672725  0.28672725  0.74981643  1
  H  H14  1  0.03690981  0.78672725  0.50000000  1
  H  H15  1  0.28672725  0.53690981  0.50000000  1
  H  H16  1  0.50000000  0.50000000  -0.00000000  1
  H  H17  1  0.00000000  0.00000000  -0.00000000  1
