# generated using pymatgen
data_Tl3PbCl5
_symmetry_space_group_name_H-M   'P 1'
_cell_length_a   8.26255348
_cell_length_b   8.67363456
_cell_length_c   14.91573589
_cell_angle_alpha   90.00000000
_cell_angle_beta   90.00000000
_cell_angle_gamma   90.00000000
_symmetry_Int_Tables_number   1
_chemical_formula_structural   Tl3PbCl5
_chemical_formula_sum   'Tl12 Pb4 Cl20'
_cell_volume   1068.95663843
_cell_formula_units_Z   4
loop_
 _symmetry_equiv_pos_site_id
 _symmetry_equiv_pos_as_xyz
  1  'x, y, z'
loop_
 _atom_site_type_symbol
 _atom_site_label
 _atom_site_symmetry_multiplicity
 _atom_site_fract_x
 _atom_site_fract_y
 _atom_site_fract_z
 _atom_site_occupancy
  Tl  Tl0  1  0.06386340  0.59266492  0.71410589  1
  Tl  Tl1  1  0.09452701  0.66785950  0.02086760  1
  Tl  Tl2  1  0.77206646  0.70387774  0.55101719  1
  Tl  Tl3  1  0.27206646  0.79612226  0.44898281  1
  Tl  Tl4  1  0.59452701  0.83214050  0.97913240  1
  Tl  Tl5  1  0.56386340  0.90733508  0.28589411  1
  Tl  Tl6  1  0.93613660  0.09266492  0.78589411  1
  Tl  Tl7  1  0.90547299  0.16785950  0.47913240  1
  Tl  Tl8  1  0.22793354  0.20387774  0.94898281  1
  Tl  Tl9  1  0.72793354  0.29612226  0.05101719  1
  Tl  Tl10  1  0.40547299  0.33214050  0.52086760  1
  Tl  Tl11  1  0.43613660  0.40733508  0.21410589  1
  Pb  Pb12  1  0.92636649  0.53900906  0.29506300  1
  Pb  Pb13  1  0.42636649  0.96099094  0.70493700  1
  Pb  Pb14  1  0.07363351  0.03900906  0.20493700  1
  Pb  Pb15  1  0.57363351  0.46099094  0.79506300  1
  Cl  Cl16  1  0.07313220  0.49819799  0.47860636  1
  Cl  Cl17  1  0.60983131  0.54880702  0.38830912  1
  Cl  Cl18  1  0.74491028  0.65778637  0.15353919  1
  Cl  Cl19  1  0.41543171  0.65208773  0.63478766  1
  Cl  Cl20  1  0.22107092  0.70597447  0.22880573  1
  Cl  Cl21  1  0.72107092  0.79402553  0.77119427  1
  Cl  Cl22  1  0.91543171  0.84791227  0.36521234  1
  Cl  Cl23  1  0.24491028  0.84221363  0.84646081  1
  Cl  Cl24  1  0.10983131  0.95119298  0.61169088  1
  Cl  Cl25  1  0.57313220  0.00180201  0.52139364  1
  Cl  Cl26  1  0.92686780  0.99819799  0.02139364  1
  Cl  Cl27  1  0.39016869  0.04880702  0.11169088  1
  Cl  Cl28  1  0.25508972  0.15778637  0.34646081  1
  Cl  Cl29  1  0.58456829  0.15208773  0.86521234  1
  Cl  Cl30  1  0.77892908  0.20597447  0.27119427  1
  Cl  Cl31  1  0.27892908  0.29402553  0.72880573  1
  Cl  Cl32  1  0.08456829  0.34791227  0.13478766  1
  Cl  Cl33  1  0.75508972  0.34221363  0.65353919  1
  Cl  Cl34  1  0.89016869  0.45119298  0.88830912  1
  Cl  Cl35  1  0.42686780  0.50180201  0.97860636  1
