# generated using pymatgen
data_Na3In(PO4)2
_symmetry_space_group_name_H-M   'P 1'
_cell_length_a   5.44753408
_cell_length_b   6.96739636
_cell_length_c   8.60217778
_cell_angle_alpha   90.16810933
_cell_angle_beta   90.00000000
_cell_angle_gamma   90.00000000
_symmetry_Int_Tables_number   1
_chemical_formula_structural   Na3In(PO4)2
_chemical_formula_sum   'Na6 In2 P4 O16'
_cell_volume   326.49536340
_cell_formula_units_Z   2
loop_
 _symmetry_equiv_pos_site_id
 _symmetry_equiv_pos_as_xyz
  1  'x, y, z'
loop_
 _atom_site_type_symbol
 _atom_site_label
 _atom_site_symmetry_multiplicity
 _atom_site_fract_x
 _atom_site_fract_y
 _atom_site_fract_z
 _atom_site_occupancy
  Na  Na0  1  0.75000000  0.71572401  0.43847117  1
  Na  Na1  1  0.25000000  0.49990848  0.25060722  1
  Na  Na2  1  0.75000000  0.50009152  0.74939278  1
  Na  Na3  1  0.25000000  0.28427599  0.56152883  1
  Na  Na4  1  0.25000000  0.71435679  0.93816299  1
  Na  Na5  1  0.75000000  0.28564321  0.06183701  1
  In  In6  1  0.75000000  0.00010478  0.75030300  1
  In  In7  1  0.25000000  0.99989522  0.24969700  1
  P  P8  1  0.25000000  0.22363365  0.90338372  1
  P  P9  1  0.25000000  0.77625976  0.59672746  1
  P  P10  1  0.75000000  0.22374024  0.40327254  1
  P  P11  1  0.75000000  0.77636635  0.09661628  1
  O  O12  1  0.75000000  0.59788958  -0.00180023  1
  O  O13  1  0.25000000  0.40211042  0.00180023  1
  O  O14  1  0.97970650  0.77715588  0.20471822  1
  O  O15  1  0.47970650  0.22284412  0.79528178  1
  O  O16  1  0.02029350  0.22284412  0.79528178  1
  O  O17  1  0.52029350  0.77715588  0.20471822  1
  O  O18  1  0.75000000  0.95756568  0.99606741  1
  O  O19  1  0.25000000  0.04243432  0.00393259  1
  O  O20  1  0.97975895  0.22250997  0.29521508  1
  O  O21  1  0.47975895  0.77749003  0.70478492  1
  O  O22  1  0.02024105  0.77749003  0.70478492  1
  O  O23  1  0.52024105  0.22250997  0.29521508  1
  O  O24  1  0.25000000  0.95694781  0.49559682  1
  O  O25  1  0.75000000  0.04305219  0.50440318  1
  O  O26  1  0.25000000  0.59724811  0.49898346  1
  O  O27  1  0.75000000  0.40275189  0.50101654  1
