# generated using pymatgen
data_SnH8(NCl3)2
_symmetry_space_group_name_H-M   'P 1'
_cell_length_a   7.16782709
_cell_length_b   7.16782709
_cell_length_c   7.16782709
_cell_angle_alpha   60.00000000
_cell_angle_beta   60.00000000
_cell_angle_gamma   60.00000000
_symmetry_Int_Tables_number   1
_chemical_formula_structural   SnH8(NCl3)2
_chemical_formula_sum   'Sn1 H8 N2 Cl6'
_cell_volume   260.40394693
_cell_formula_units_Z   1
loop_
 _symmetry_equiv_pos_site_id
 _symmetry_equiv_pos_as_xyz
  1  'x, y, z'
loop_
 _atom_site_type_symbol
 _atom_site_label
 _atom_site_symmetry_multiplicity
 _atom_site_fract_x
 _atom_site_fract_y
 _atom_site_fract_z
 _atom_site_occupancy
  Sn  Sn0  1  -0.00000000  -0.00000000  0.00000000  1
  H  H1  1  0.57503035  0.80832255  0.80832255  1
  H  H2  1  0.80832255  0.80832255  0.57503035  1
  H  H3  1  0.80832255  0.57503035  0.80832255  1
  H  H4  1  0.80832255  0.80832255  0.80832255  1
  H  H5  1  0.42496965  0.19167745  0.19167745  1
  H  H6  1  0.19167745  0.19167745  0.42496965  1
  H  H7  1  0.19167745  0.42496965  0.19167745  1
  H  H8  1  0.19167745  0.19167745  0.19167745  1
  N  N9  1  0.75000000  0.75000000  0.75000000  1
  N  N10  1  0.25000000  0.25000000  0.25000000  1
  Cl  Cl11  1  0.24070752  0.75929248  0.75929248  1
  Cl  Cl12  1  0.24070752  0.24070752  0.75929248  1
  Cl  Cl13  1  0.24070752  0.75929248  0.24070752  1
  Cl  Cl14  1  0.75929248  0.24070752  0.24070752  1
  Cl  Cl15  1  0.75929248  0.75929248  0.24070752  1
  Cl  Cl16  1  0.75929248  0.24070752  0.75929248  1
