# generated using pymatgen
data_RbMo3Br7
_symmetry_space_group_name_H-M   'P 1'
_cell_length_a   12.97590264
_cell_length_b   12.97590264
_cell_length_c   9.87035300
_cell_angle_alpha   69.71013102
_cell_angle_beta   69.71013102
_cell_angle_gamma   74.87520272
_symmetry_Int_Tables_number   1
_chemical_formula_structural   RbMo3Br7
_chemical_formula_sum   'Rb4 Mo12 Br28'
_cell_volume   1443.25528382
_cell_formula_units_Z   4
loop_
 _symmetry_equiv_pos_site_id
 _symmetry_equiv_pos_as_xyz
  1  'x, y, z'
loop_
 _atom_site_type_symbol
 _atom_site_label
 _atom_site_symmetry_multiplicity
 _atom_site_fract_x
 _atom_site_fract_y
 _atom_site_fract_z
 _atom_site_occupancy
  Rb  Rb0  1  0.56635443  0.43392838  0.24929378  1
  Rb  Rb1  1  0.95829306  0.04373009  0.49180374  1
  Rb  Rb2  1  0.43392838  0.56635443  0.74929378  1
  Rb  Rb3  1  0.04373009  0.95829306  0.99180374  1
  Mo  Mo4  1  0.34704508  0.04512362  0.05501017  1
  Mo  Mo5  1  0.51281125  0.06701620  0.13198860  1
  Mo  Mo6  1  0.13285628  0.51591854  0.34687505  1
  Mo  Mo7  1  0.48373793  0.86802833  0.15409769  1
  Mo  Mo8  1  0.04512362  0.34704508  0.55501017  1
  Mo  Mo9  1  0.06701620  0.51281125  0.63198860  1
  Mo  Mo10  1  0.93369601  0.48646841  0.36901712  1
  Mo  Mo11  1  0.95580743  0.65243111  0.44568104  1
  Mo  Mo12  1  0.51591854  0.13285628  0.84687505  1
  Mo  Mo13  1  0.86802833  0.48373793  0.65409769  1
  Mo  Mo14  1  0.48646841  0.93369601  0.86901712  1
  Mo  Mo15  1  0.65243111  0.95580743  0.94568104  1
  Br  Br16  1  0.12880596  0.11036176  0.13293913  1
  Br  Br17  1  0.37665550  0.24390612  0.03172276  1
  Br  Br18  1  0.02237314  0.65501311  0.15985720  1
  Br  Br19  1  0.32207216  0.53762862  0.13136484  1
  Br  Br20  1  0.11072935  0.35077405  0.27076469  1
  Br  Br21  1  0.31700857  0.84657697  0.07626509  1
  Br  Br22  1  0.53069225  0.16069595  0.31500350  1
  Br  Br23  1  0.84025471  0.46746207  0.18625028  1
  Br  Br24  1  0.11036176  0.12880596  0.63293913  1
  Br  Br25  1  0.15318180  0.68250334  0.42500972  1
  Br  Br26  1  0.24390612  0.37665550  0.53172276  1
  Br  Br27  1  0.64877516  0.89017867  0.22944093  1
  Br  Br28  1  0.46192307  0.67845891  0.36813243  1
  Br  Br29  1  0.34374958  0.97865970  0.33948179  1
  Br  Br30  1  0.65501311  0.02237314  0.65985720  1
  Br  Br31  1  0.53762862  0.32207216  0.63136484  1
  Br  Br32  1  0.35077405  0.11072935  0.77076469  1
  Br  Br33  1  0.75695537  0.62291403  0.46869860  1
  Br  Br34  1  0.84657697  0.31700857  0.57626509  1
  Br  Br35  1  0.89189122  0.87062970  0.36300086  1
  Br  Br36  1  0.16069595  0.53069225  0.81500350  1
  Br  Br37  1  0.46746207  0.84025471  0.68625028  1
  Br  Br38  1  0.68250334  0.15318180  0.92500972  1
  Br  Br39  1  0.89017867  0.64877516  0.72944093  1
  Br  Br40  1  0.67845891  0.46192307  0.86813243  1
  Br  Br41  1  0.97865970  0.34374958  0.83948179  1
  Br  Br42  1  0.62291403  0.75695537  0.96869860  1
  Br  Br43  1  0.87062970  0.89189122  0.86300086  1
