# generated using pymatgen
data_La5C2Cl9
_symmetry_space_group_name_H-M   'P 1'
_cell_length_a   8.68967079
_cell_length_b   8.73424867
_cell_length_c   12.00864818
_cell_angle_alpha   84.85177325
_cell_angle_beta   85.60690272
_cell_angle_gamma   61.32490772
_symmetry_Int_Tables_number   1
_chemical_formula_structural   La5C2Cl9
_chemical_formula_sum   'La10 C4 Cl18'
_cell_volume   795.83412465
_cell_formula_units_Z   2
loop_
 _symmetry_equiv_pos_site_id
 _symmetry_equiv_pos_as_xyz
  1  'x, y, z'
loop_
 _atom_site_type_symbol
 _atom_site_label
 _atom_site_symmetry_multiplicity
 _atom_site_fract_x
 _atom_site_fract_y
 _atom_site_fract_z
 _atom_site_occupancy
  La  La0  1  0.87274498  0.73197288  0.72929683  1
  La  La1  1  0.12725502  0.26802712  0.27070317  1
  La  La2  1  0.20583559  0.68143382  0.49281446  1
  La  La3  1  0.39050413  0.40051231  0.78283023  1
  La  La4  1  0.79416441  0.31856618  0.50718554  1
  La  La5  1  0.89605862  0.29737267  0.99298483  1
  La  La6  1  0.60949587  0.59948769  0.21716977  1
  La  La7  1  0.76654979  0.08049387  0.25763737  1
  La  La8  1  0.23345021  0.91950613  0.74236263  1
  La  La9  1  0.10394138  0.70262733  0.00701517  1
  C  C10  1  0.85569508  0.30507325  0.18822115  1
  C  C11  1  0.82647540  0.31472710  0.31055386  1
  C  C12  1  0.17352460  0.68527290  0.68944614  1
  C  C13  1  0.14430492  0.69492675  0.81177885  1
  Cl  Cl14  1  0.48715473  0.98705281  0.23069344  1
  Cl  Cl15  1  0.51284527  0.01294719  0.76930656  1
  Cl  Cl16  1  0.78033836  0.03964165  0.02164087  1
  Cl  Cl17  1  0.54115965  0.67625446  0.44890475  1
  Cl  Cl18  1  0.45884035  0.32374554  0.55109525  1
  Cl  Cl19  1  0.21966164  0.96035835  0.97835913  1
  Cl  Cl20  1  0.39173341  0.41682414  0.27587727  1
  Cl  Cl21  1  0.08115261  0.33738288  0.76938404  1
  Cl  Cl22  1  0.17367557  0.05189466  0.50550929  1
  Cl  Cl23  1  0.50000000  0.50000000  -0.00000000  1
  Cl  Cl24  1  0.84178012  0.12700793  0.74269351  1
  Cl  Cl25  1  0.15821988  0.87299207  0.25730649  1
  Cl  Cl26  1  0.82632443  0.94810534  0.49449071  1
  Cl  Cl27  1  0.60826659  0.58317586  0.72412273  1
  Cl  Cl28  1  0.78490928  0.66937797  0.96802418  1
  Cl  Cl29  1  0.00000000  0.50000000  0.50000000  1
  Cl  Cl30  1  0.91884739  0.66261712  0.23061596  1
  Cl  Cl31  1  0.21509072  0.33062203  0.03197582  1
