# generated using pymatgen
data_Co7(SbO6)2
_symmetry_space_group_name_H-M   'P 1'
_cell_length_a   6.07879165
_cell_length_b   6.07879165
_cell_length_c   13.30797806
_cell_angle_alpha   78.19000451
_cell_angle_beta   78.19000451
_cell_angle_gamma   90.38679557
_symmetry_Int_Tables_number   1
_chemical_formula_structural   Co7(SbO6)2
_chemical_formula_sum   'Co14 Sb4 O24'
_cell_volume   470.54622728
_cell_formula_units_Z   2
loop_
 _symmetry_equiv_pos_site_id
 _symmetry_equiv_pos_as_xyz
  1  'x, y, z'
loop_
 _atom_site_type_symbol
 _atom_site_label
 _atom_site_symmetry_multiplicity
 _atom_site_fract_x
 _atom_site_fract_y
 _atom_site_fract_z
 _atom_site_occupancy
  Co  Co0  1  0.29504328  0.01928648  0.92095295  1
  Co  Co1  1  0.98071352  0.70495672  0.57904705  1
  Co  Co2  1  0.01928648  0.29504328  0.42095295  1
  Co  Co3  1  0.64223255  0.35776745  0.25000000  1
  Co  Co4  1  0.66069623  0.18482452  0.66034205  1
  Co  Co5  1  0.70495672  0.98071352  0.07904705  1
  Co  Co6  1  0.33930377  0.81517548  0.33965795  1
  Co  Co7  1  0.18482452  0.66069623  0.16034205  1
  Co  Co8  1  0.50000000  0.50000000  0.00000000  1
  Co  Co9  1  0.35776745  0.64223255  0.75000000  1
  Co  Co10  1  0.00000000  0.50000000  0.00000000  1
  Co  Co11  1  0.81517548  0.33930377  0.83965795  1
  Co  Co12  1  0.50000000  0.50000000  0.50000000  1
  Co  Co13  1  0.50000000  0.00000000  0.50000000  1
  Sb  Sb14  1  0.18056420  0.16394576  0.16437844  1
  Sb  Sb15  1  0.81943580  0.83605424  0.83562156  1
  Sb  Sb16  1  0.16394576  0.18056420  0.66437844  1
  Sb  Sb17  1  0.83605424  0.81943580  0.33562156  1
  O  O18  1  0.71826617  0.25089703  0.50483767  1
  O  O19  1  0.08172931  0.06322410  0.32575704  1
  O  O20  1  0.39599141  0.92160832  0.17326033  1
  O  O21  1  0.75518798  0.75575659  0.48995312  1
  O  O22  1  0.07839168  0.60400859  0.32673967  1
  O  O23  1  0.25089703  0.71826617  0.00483767  1
  O  O24  1  0.75575659  0.75518798  0.98995312  1
  O  O25  1  0.04545224  0.60382231  0.83533274  1
  O  O26  1  0.59662933  0.60316476  0.83135810  1
  O  O27  1  0.40337067  0.39683524  0.16864190  1
  O  O28  1  0.24424341  0.24481202  0.01004688  1
  O  O29  1  0.74910297  0.28173383  0.99516233  1
  O  O30  1  0.92160832  0.39599141  0.67326033  1
  O  O31  1  0.39683524  0.40337067  0.66864190  1
  O  O32  1  0.24481202  0.24424341  0.51004688  1
  O  O33  1  0.60400859  0.07839168  0.82673967  1
  O  O34  1  0.06322410  0.08172931  0.82575704  1
  O  O35  1  0.91827069  0.93677590  0.67424296  1
  O  O36  1  0.39617769  0.95454776  0.66466726  1
  O  O37  1  0.60382231  0.04545224  0.33533274  1
  O  O38  1  0.93677590  0.91827069  0.17424296  1
  O  O39  1  0.28173383  0.74910297  0.49516233  1
  O  O40  1  0.60316476  0.59662933  0.33135810  1
  O  O41  1  0.95454776  0.39617769  0.16466726  1
