# generated using pymatgen
data_YSeF
_symmetry_space_group_name_H-M   'P 1'
_cell_length_a   4.09429256
_cell_length_b   9.98036654
_cell_length_c   13.06861731
_cell_angle_alpha   74.93515613
_cell_angle_beta   90.00000000
_cell_angle_gamma   90.00000000
_symmetry_Int_Tables_number   1
_chemical_formula_structural   YSeF
_chemical_formula_sum   'Y8 Se8 F8'
_cell_volume   515.66396668
_cell_formula_units_Z   8
loop_
 _symmetry_equiv_pos_site_id
 _symmetry_equiv_pos_as_xyz
  1  'x, y, z'
loop_
 _atom_site_type_symbol
 _atom_site_label
 _atom_site_symmetry_multiplicity
 _atom_site_fract_x
 _atom_site_fract_y
 _atom_site_fract_z
 _atom_site_occupancy
  Y  Y0  1  0.25000000  0.54449973  0.12685338  1
  Y  Y1  1  0.75000000  0.45550027  0.87314662  1
  Y  Y2  1  0.25000000  0.03945250  0.12084718  1
  Y  Y3  1  0.75000000  0.96054750  0.87915282  1
  Y  Y4  1  0.25000000  0.88172671  0.63825130  1
  Y  Y5  1  0.75000000  0.11827329  0.36174870  1
  Y  Y6  1  0.25000000  0.37650358  0.61403021  1
  Y  Y7  1  0.75000000  0.62349642  0.38596979  1
  Se  Se8  1  0.25000000  0.75754016  0.23460005  1
  Se  Se9  1  0.75000000  0.24245984  0.76539995  1
  Se  Se10  1  0.25000000  0.32850325  0.01856807  1
  Se  Se11  1  0.75000000  0.67149675  0.98143193  1
  Se  Se12  1  0.25000000  0.58528530  0.72990838  1
  Se  Se13  1  0.75000000  0.41471470  0.27009162  1
  Se  Se14  1  0.25000000  0.16033639  0.51221512  1
  Se  Se15  1  0.75000000  0.83966361  0.48778488  1
  F  F16  1  0.25000000  0.10016655  0.29090212  1
  F  F17  1  0.75000000  0.89983345  0.70909788  1
  F  F18  1  0.25000000  0.55178064  0.45623461  1
  F  F19  1  0.75000000  0.44821936  0.54376539  1
  F  F20  1  0.25000000  0.93205170  0.79671357  1
  F  F21  1  0.75000000  0.06794830  0.20328643  1
  F  F22  1  0.25000000  0.98481494  0.96072247  1
  F  F23  1  0.75000000  0.01518506  0.03927753  1
