# generated using pymatgen
data_Al(SeCl)4
_symmetry_space_group_name_H-M   'P 1'
_cell_length_a   10.66168398
_cell_length_b   13.67826950
_cell_length_c   14.81342803
_cell_angle_alpha   90.00000000
_cell_angle_beta   90.00000000
_cell_angle_gamma   90.00000000
_symmetry_Int_Tables_number   1
_chemical_formula_structural   Al(SeCl)4
_chemical_formula_sum   'Al8 Se32 Cl32'
_cell_volume   2160.29237977
_cell_formula_units_Z   8
loop_
 _symmetry_equiv_pos_site_id
 _symmetry_equiv_pos_as_xyz
  1  'x, y, z'
loop_
 _atom_site_type_symbol
 _atom_site_label
 _atom_site_symmetry_multiplicity
 _atom_site_fract_x
 _atom_site_fract_y
 _atom_site_fract_z
 _atom_site_occupancy
  Al  Al0  1  0.26674544  0.81980551  0.11249766  1
  Al  Al1  1  0.23910862  0.01040986  0.73463007  1
  Al  Al2  1  0.76089138  0.01040986  0.23463007  1
  Al  Al3  1  0.76089138  0.51040986  0.26536993  1
  Al  Al4  1  0.23910862  0.51040986  0.76536993  1
  Al  Al5  1  0.73325456  0.31980551  0.88750234  1
  Al  Al6  1  0.26674544  0.31980551  0.38750234  1
  Al  Al7  1  0.73325456  0.81980551  0.61249766  1
  Se  Se8  1  0.27230509  0.13054584  0.99729725  1
  Se  Se9  1  0.46221271  0.22742740  0.60059540  1
  Se  Se10  1  0.91422879  0.87519727  0.95832871  1
  Se  Se11  1  0.27230509  0.63054584  0.50270275  1
  Se  Se12  1  0.39844941  0.35474324  0.13085469  1
  Se  Se13  1  0.93824719  0.13030396  0.54371595  1
  Se  Se14  1  0.08577121  0.87519727  0.45832871  1
  Se  Se15  1  0.91422879  0.37519727  0.54167129  1
  Se  Se16  1  0.72769491  0.13054584  0.49729725  1
  Se  Se17  1  0.07022886  0.75355885  0.34836176  1
  Se  Se18  1  0.37928322  0.61311780  0.36648129  1
  Se  Se19  1  0.39844941  0.85474324  0.36914531  1
  Se  Se20  1  0.72769491  0.63054584  0.00270275  1
  Se  Se21  1  0.46221271  0.72742740  0.89940460  1
  Se  Se22  1  0.60155059  0.85474324  0.86914531  1
  Se  Se23  1  0.07022886  0.25355885  0.15163824  1
  Se  Se24  1  0.92977114  0.25355885  0.65163824  1
  Se  Se25  1  0.70729654  0.34860654  0.49381671  1
  Se  Se26  1  0.06175281  0.63030396  0.45628405  1
  Se  Se27  1  0.92977114  0.75355885  0.84836176  1
  Se  Se28  1  0.53778729  0.72742740  0.39940460  1
  Se  Se29  1  0.60155059  0.35474324  0.63085469  1
  Se  Se30  1  0.93824719  0.63030396  0.95628405  1
  Se  Se31  1  0.62071678  0.11311780  0.63351871  1
  Se  Se32  1  0.62071678  0.61311780  0.86648129  1
  Se  Se33  1  0.29270346  0.84860654  0.50618329  1
  Se  Se34  1  0.70729654  0.84860654  0.00618329  1
  Se  Se35  1  0.37928322  0.11311780  0.13351871  1
  Se  Se36  1  0.06175281  0.13030396  0.04371595  1
  Se  Se37  1  0.29270346  0.34860654  0.99381671  1
  Se  Se38  1  0.53778729  0.22742740  0.10059540  1
  Se  Se39  1  0.08577121  0.37519727  0.04167129  1
  Cl  Cl40  1  0.75974926  0.36408564  0.02637632  1
  Cl  Cl41  1  0.78754669  0.85638122  0.22107453  1
  Cl  Cl42  1  0.58281445  0.54756300  0.20642935  1
  Cl  Cl43  1  0.21214310  0.17192893  0.36769100  1
  Cl  Cl44  1  0.76760801  0.57387840  0.39952824  1
  Cl  Cl45  1  0.24025074  0.36408564  0.52637632  1
  Cl  Cl46  1  0.46135570  0.33701307  0.35297854  1
  Cl  Cl47  1  0.78785690  0.67192893  0.63230900  1
  Cl  Cl48  1  0.53864430  0.83701307  0.64702146  1
  Cl  Cl49  1  0.21214310  0.67192893  0.13230900  1
  Cl  Cl50  1  0.84120535  0.91839066  0.69481210  1
  Cl  Cl51  1  0.09300561  0.57334082  0.68503585  1
  Cl  Cl52  1  0.84120535  0.41839066  0.80518790  1
  Cl  Cl53  1  0.78754669  0.35638122  0.27892547  1
  Cl  Cl54  1  0.21245331  0.35638122  0.77892547  1
  Cl  Cl55  1  0.41718555  0.04756300  0.79357065  1
  Cl  Cl56  1  0.09300561  0.07334082  0.81496415  1
  Cl  Cl57  1  0.23239199  0.57387840  0.89952824  1
  Cl  Cl58  1  0.78785690  0.17192893  0.86769100  1
  Cl  Cl59  1  0.15879465  0.41839066  0.30518790  1
  Cl  Cl60  1  0.90699439  0.57334082  0.18503585  1
  Cl  Cl61  1  0.46135570  0.83701307  0.14702146  1
  Cl  Cl62  1  0.90699439  0.07334082  0.31496415  1
  Cl  Cl63  1  0.23239199  0.07387840  0.60047176  1
  Cl  Cl64  1  0.24025074  0.86408564  0.97362368  1
  Cl  Cl65  1  0.41718555  0.54756300  0.70642935  1
  Cl  Cl66  1  0.76760801  0.07387840  0.10047176  1
  Cl  Cl67  1  0.58281445  0.04756300  0.29357065  1
  Cl  Cl68  1  0.15879465  0.91839066  0.19481210  1
  Cl  Cl69  1  0.53864430  0.33701307  0.85297854  1
  Cl  Cl70  1  0.75974926  0.86408564  0.47362368  1
  Cl  Cl71  1  0.21245331  0.85638122  0.72107453  1
