# generated using pymatgen
data_Mg2NiH4
_symmetry_space_group_name_H-M   'P 1'
_cell_length_a   7.78707425
_cell_length_b   7.78707425
_cell_length_c   6.41968976
_cell_angle_alpha   68.79285789
_cell_angle_beta   68.79285789
_cell_angle_gamma   48.06938872
_symmetry_Int_Tables_number   1
_chemical_formula_structural   Mg2NiH4
_chemical_formula_sum   'Mg8 Ni4 H16'
_cell_volume   265.92164712
_cell_formula_units_Z   4
loop_
 _symmetry_equiv_pos_site_id
 _symmetry_equiv_pos_as_xyz
  1  'x, y, z'
loop_
 _atom_site_type_symbol
 _atom_site_label
 _atom_site_symmetry_multiplicity
 _atom_site_fract_x
 _atom_site_fract_y
 _atom_site_fract_z
 _atom_site_occupancy
  Mg  Mg0  1  0.22394276  0.24798060  0.08044942  1
  Mg  Mg1  1  0.75201940  0.77605724  0.41955058  1
  Mg  Mg2  1  0.77605724  0.75201940  0.91955058  1
  Mg  Mg3  1  0.24798060  0.22394276  0.58044942  1
  Mg  Mg4  1  0.02305611  0.97694389  0.25000000  1
  Mg  Mg5  1  0.97694389  0.02305611  0.75000000  1
  Mg  Mg6  1  0.52557052  0.47442948  0.25000000  1
  Mg  Mg7  1  0.47442948  0.52557052  0.75000000  1
  Ni  Ni8  1  0.11031167  0.64989840  0.08192445  1
  Ni  Ni9  1  0.35010160  0.88968833  0.41807555  1
  Ni  Ni10  1  0.88968833  0.35010160  0.91807555  1
  Ni  Ni11  1  0.64989840  0.11031167  0.58192445  1
  H  H12  1  0.09940378  0.48470430  0.30320256  1
  H  H13  1  0.51529570  0.90059622  0.19679744  1
  H  H14  1  0.90059622  0.51529570  0.69679744  1
  H  H15  1  0.48470430  0.09940378  0.80320256  1
  H  H16  1  0.17679964  0.54574718  0.87777267  1
  H  H17  1  0.45425282  0.82320036  0.62222733  1
  H  H18  1  0.82320036  0.45425282  0.12222733  1
  H  H19  1  0.54574718  0.17679964  0.37777267  1
  H  H20  1  0.27978934  0.69965652  0.05250394  1
  H  H21  1  0.30034348  0.72021066  0.44749606  1
  H  H22  1  0.72021066  0.30034348  0.94749606  1
  H  H23  1  0.69965652  0.27978934  0.55250394  1
  H  H24  1  0.86494781  0.88672268  0.07756646  1
  H  H25  1  0.11327732  0.13505219  0.42243354  1
  H  H26  1  0.13505219  0.11327732  0.92243354  1
  H  H27  1  0.88672268  0.86494781  0.57756646  1
