# generated using pymatgen
data_Cs5Sb8
_symmetry_space_group_name_H-M   'P 1'
_cell_length_a   7.39243826
_cell_length_b   11.56485139
_cell_length_c   28.13454582
_cell_angle_alpha   90.00000000
_cell_angle_beta   96.97923645
_cell_angle_gamma   90.00000000
_symmetry_Int_Tables_number   1
_chemical_formula_structural   Cs5Sb8
_chemical_formula_sum   'Cs20 Sb32'
_cell_volume   2387.46864521
_cell_formula_units_Z   4
loop_
 _symmetry_equiv_pos_site_id
 _symmetry_equiv_pos_as_xyz
  1  'x, y, z'
loop_
 _atom_site_type_symbol
 _atom_site_label
 _atom_site_symmetry_multiplicity
 _atom_site_fract_x
 _atom_site_fract_y
 _atom_site_fract_z
 _atom_site_occupancy
  Cs  Cs0  1  0.52404819  0.43046168  0.42602812  1
  Cs  Cs1  1  0.25921005  0.60341482  0.97890002  1
  Cs  Cs2  1  0.76444761  0.19301690  0.68910252  1
  Cs  Cs3  1  0.74078995  0.39658518  0.02109998  1
  Cs  Cs4  1  0.28874489  0.46335060  0.25761092  1
  Cs  Cs5  1  0.23555239  0.80698310  0.31089748  1
  Cs  Cs6  1  0.02588792  0.18475466  0.37748129  1
  Cs  Cs7  1  0.28874489  0.03664940  0.75761092  1
  Cs  Cs8  1  0.02588792  0.31524534  0.87748229  1
  Cs  Cs9  1  0.76444761  0.30698310  0.18910252  1
  Cs  Cs10  1  0.97411208  0.81524534  0.62251771  1
  Cs  Cs11  1  0.97411208  0.68475466  0.12251771  1
  Cs  Cs12  1  0.71125511  0.53664940  0.74238908  1
  Cs  Cs13  1  0.23555239  0.69301690  0.81089748  1
  Cs  Cs14  1  0.52404819  0.06953832  0.92602812  1
  Cs  Cs15  1  0.25921005  0.89658518  0.47890002  1
  Cs  Cs16  1  0.47595181  0.56953832  0.57397188  1
  Cs  Cs17  1  0.74078995  0.10341482  0.52109998  1
  Cs  Cs18  1  0.47595181  0.93046168  0.07397188  1
  Cs  Cs19  1  0.71125511  0.96335060  0.24238908  1
  Sb  Sb20  1  0.51321678  0.30006738  0.81656705  1
  Sb  Sb21  1  0.23834564  0.24777371  0.52432215  1
  Sb  Sb22  1  0.69603350  0.85782543  0.83643324  1
  Sb  Sb23  1  0.80680532  0.87146139  0.74394852  1
  Sb  Sb24  1  0.19190414  0.36096902  0.11292311  1
  Sb  Sb25  1  0.98769921  0.47631698  0.62520517  1
  Sb  Sb26  1  0.30396650  0.35782543  0.66356676  1
  Sb  Sb27  1  0.93947781  0.40341729  0.52780263  1
  Sb  Sb28  1  0.48678322  0.80006738  0.68343295  1
  Sb  Sb29  1  0.98769921  0.02368302  0.12520517  1
  Sb  Sb30  1  0.80809586  0.86096902  0.38707689  1
  Sb  Sb31  1  0.51321678  0.19993262  0.31656705  1
  Sb  Sb32  1  0.80680532  0.62853861  0.24394852  1
  Sb  Sb33  1  0.48678322  0.69993262  0.18343295  1
  Sb  Sb34  1  0.01230079  0.52368302  0.37479483  1
  Sb  Sb35  1  0.46835675  0.96102172  0.60895354  1
  Sb  Sb36  1  0.76165436  0.74777371  0.97567785  1
  Sb  Sb37  1  0.76165436  0.75222629  0.47567785  1
  Sb  Sb38  1  0.19190414  0.13903098  0.61292311  1
  Sb  Sb39  1  0.30396650  0.14217457  0.16356676  1
  Sb  Sb40  1  0.19319468  0.37146139  0.75605148  1
  Sb  Sb41  1  0.19319468  0.12853861  0.25605148  1
  Sb  Sb42  1  0.06052219  0.59658271  0.47219737  1
  Sb  Sb43  1  0.46835675  0.53897828  0.10895354  1
  Sb  Sb44  1  0.93947781  0.09658271  0.02780263  1
  Sb  Sb45  1  0.53164325  0.46102172  0.89104646  1
  Sb  Sb46  1  0.01230079  0.97631698  0.87479483  1
  Sb  Sb47  1  0.06052219  0.90341729  0.97219737  1
  Sb  Sb48  1  0.80809586  0.63903098  0.88707689  1
  Sb  Sb49  1  0.53164325  0.03897828  0.39104646  1
  Sb  Sb50  1  0.23834564  0.25222629  0.02432215  1
  Sb  Sb51  1  0.69603350  0.64217457  0.33643324  1
