# generated using pymatgen
data_UF6
_symmetry_space_group_name_H-M   'P 1'
_cell_length_a   4.95083552
_cell_length_b   8.74693997
_cell_length_c   10.00469879
_cell_angle_alpha   89.99995981
_cell_angle_beta   89.98430169
_cell_angle_gamma   90.03049324
_symmetry_Int_Tables_number   1
_chemical_formula_structural   UF6
_chemical_formula_sum   'U4 F24'
_cell_volume   433.25001318
_cell_formula_units_Z   4
loop_
 _symmetry_equiv_pos_site_id
 _symmetry_equiv_pos_as_xyz
  1  'x, y, z'
loop_
 _atom_site_type_symbol
 _atom_site_label
 _atom_site_symmetry_multiplicity
 _atom_site_fract_x
 _atom_site_fract_y
 _atom_site_fract_z
 _atom_site_occupancy
  U  U0  1  0.00537297  0.75000447  0.12806059  1
  U  U1  1  0.49457549  0.75007074  0.62802756  1
  U  U2  1  0.50583188  0.24998189  0.37195279  1
  U  U3  1  0.99419013  0.24994480  0.87193757  1
  F  F4  1  0.75587004  0.41165114  0.79168875  1
  F  F5  1  0.74411750  0.08826911  0.29165368  1
  F  F6  1  0.25741890  0.74993152  0.46495135  1
  F  F7  1  0.74303422  0.25009856  0.53502414  1
  F  F8  1  0.25607977  0.58830995  0.70846772  1
  F  F9  1  0.25620023  0.91176249  0.70833596  1
  F  F10  1  0.75570799  0.08815620  0.79153038  1
  F  F11  1  0.24374094  0.58835761  0.20835947  1
  F  F12  1  0.76920350  0.58837883  0.04576400  1
  F  F13  1  0.74430335  0.41178534  0.29153973  1
  F  F14  1  0.24273074  0.75012150  0.96498859  1
  F  F15  1  0.23040627  0.41155566  0.95422443  1
  F  F16  1  0.73607657  0.75013670  0.78955501  1
  F  F17  1  0.75697050  0.24981638  0.03503700  1
  F  F18  1  0.76383372  0.74989961  0.28960459  1
  F  F19  1  0.76921055  0.91151282  0.04587828  1
  F  F20  1  0.73090034  0.91163920  0.54570850  1
  F  F21  1  0.23575784  0.25008211  0.71040598  1
  F  F22  1  0.23037083  0.08843272  0.95407034  1
  F  F23  1  0.26970612  0.41152539  0.45411898  1
  F  F24  1  0.26432001  0.24990184  0.21045389  1
  F  F25  1  0.73071970  0.58850367  0.54588364  1
  F  F26  1  0.24373388  0.91181281  0.20847682  1
  F  F27  1  0.26961701  0.08835893  0.45430024  1
