# generated using pymatgen
data_TlV3(SeO6)2
_symmetry_space_group_name_H-M   'P 1'
_cell_length_a   7.09516912
_cell_length_b   7.09516912
_cell_length_c   11.55669746
_cell_angle_alpha   90.00000000
_cell_angle_beta   90.00000000
_cell_angle_gamma   119.99999767
_symmetry_Int_Tables_number   1
_chemical_formula_structural   TlV3(SeO6)2
_chemical_formula_sum   'Tl2 V6 Se4 O24'
_cell_volume   503.83680525
_cell_formula_units_Z   2
loop_
 _symmetry_equiv_pos_site_id
 _symmetry_equiv_pos_as_xyz
  1  'x, y, z'
loop_
 _atom_site_type_symbol
 _atom_site_label
 _atom_site_symmetry_multiplicity
 _atom_site_fract_x
 _atom_site_fract_y
 _atom_site_fract_z
 _atom_site_occupancy
  Tl  Tl0  1  0.66666700  0.33333300  0.46734329  1
  Tl  Tl1  1  0.33333300  0.66666700  0.96734329  1
  V  V2  1  0.79157288  0.66602785  0.10588760  1
  V  V3  1  0.66602785  0.87445397  0.60588760  1
  V  V4  1  0.33397215  0.12554603  0.10588760  1
  V  V5  1  0.87445397  0.20842712  0.10588760  1
  V  V6  1  0.12554603  0.79157288  0.60588760  1
  V  V7  1  0.20842712  0.33397215  0.60588760  1
  Se  Se8  1  -0.00000000  0.00000000  0.32690026  1
  Se  Se9  1  0.33333300  0.66666700  0.38031422  1
  Se  Se10  1  -0.00000000  0.00000000  0.82690026  1
  Se  Se11  1  0.66666700  0.33333300  0.88031422  1
  O  O12  1  0.41508744  0.21708167  0.94353229  1
  O  O13  1  0.08023380  0.54044040  0.63051246  1
  O  O14  1  0.12360970  0.25196657  0.07306947  1
  O  O15  1  0.87164313  0.12360970  0.57306947  1
  O  O16  1  0.87639030  0.74803343  0.57306947  1
  O  O17  1  0.74838146  0.86575080  0.76194927  1
  O  O18  1  0.78291833  0.19800477  0.94353229  1
  O  O19  1  0.25161854  0.13424920  0.26194927  1
  O  O20  1  0.58491256  0.78291833  0.44353229  1
  O  O21  1  0.11737034  0.25161854  0.76194927  1
  O  O22  1  0.53979440  0.08023380  0.13051246  1
  O  O23  1  0.25196657  0.12835687  0.57306947  1
  O  O24  1  0.80199523  0.58491256  0.94353229  1
  O  O25  1  0.45955960  0.53979440  0.63051246  1
  O  O26  1  0.21708167  0.80199523  0.44353229  1
  O  O27  1  0.86575080  0.11737034  0.26194927  1
  O  O28  1  0.88262966  0.74838146  0.26194927  1
  O  O29  1  0.91976620  0.45955960  0.13051246  1
  O  O30  1  0.19800477  0.41508744  0.44353229  1
  O  O31  1  0.74803343  0.87164313  0.07306947  1
  O  O32  1  0.12835687  0.87639030  0.07306947  1
  O  O33  1  0.13424920  0.88262966  0.76194927  1
  O  O34  1  0.46020560  0.91976620  0.63051246  1
  O  O35  1  0.54044040  0.46020560  0.13051246  1
