# generated using pymatgen
data_Pb3O4
_symmetry_space_group_name_H-M   'P 1'
_cell_length_a   3.45373082
_cell_length_b   6.89814249
_cell_length_c   9.95398759
_cell_angle_alpha   89.99769642
_cell_angle_beta   90.03602483
_cell_angle_gamma   89.99992996
_symmetry_Int_Tables_number   1
_chemical_formula_structural   Pb3O4
_chemical_formula_sum   'Pb6 O8'
_cell_volume   237.14701166
_cell_formula_units_Z   2
loop_
 _symmetry_equiv_pos_site_id
 _symmetry_equiv_pos_as_xyz
  1  'x, y, z'
loop_
 _atom_site_type_symbol
 _atom_site_label
 _atom_site_symmetry_multiplicity
 _atom_site_fract_x
 _atom_site_fract_y
 _atom_site_fract_z
 _atom_site_occupancy
  Pb  Pb0  1  0.50064773  0.50013773  0.31058367  1
  Pb  Pb1  1  0.50046738  -0.00023485  0.81072111  1
  Pb  Pb2  1  0.00006802  0.50002617  -0.00005732  1
  Pb  Pb3  1  0.49932318  0.00011921  0.18942106  1
  Pb  Pb4  1  0.49951570  0.49978439  0.68929171  1
  Pb  Pb5  1  -0.00005156  0.00002349  0.50002887  1
  O  O6  1  0.50011850  0.34083231  0.09083693  1
  O  O7  1  0.50003362  0.65923906  0.90905335  1
  O  O8  1  0.49999728  0.15919195  0.59094944  1
  O  O9  1  0.49988713  0.84079035  0.40917040  1
  O  O10  1  -0.00018036  0.35145581  0.80815207  1
  O  O11  1  -0.00037569  0.14859736  0.30825387  1
  O  O12  1  0.00021596  0.85141357  0.69185492  1
  O  O13  1  0.00033511  0.64862747  0.19173994  1
