# generated using pymatgen
data_Cs7NbIn3As5
_symmetry_space_group_name_H-M   'P 1'
_cell_length_a   8.93709972
_cell_length_b   9.77114078
_cell_length_c   14.99522897
_cell_angle_alpha   85.36730900
_cell_angle_beta   85.50605339
_cell_angle_gamma   85.99175692
_symmetry_Int_Tables_number   1
_chemical_formula_structural   Cs7NbIn3As5
_chemical_formula_sum   'Cs14 Nb2 In6 As10'
_cell_volume   1298.51192319
_cell_formula_units_Z   2
loop_
 _symmetry_equiv_pos_site_id
 _symmetry_equiv_pos_as_xyz
  1  'x, y, z'
loop_
 _atom_site_type_symbol
 _atom_site_label
 _atom_site_symmetry_multiplicity
 _atom_site_fract_x
 _atom_site_fract_y
 _atom_site_fract_z
 _atom_site_occupancy
  Cs  Cs0  1  0.83017996  0.36578180  0.64356583  1
  Cs  Cs1  1  0.81217532  0.81457575  0.13102580  1
  Cs  Cs2  1  0.23907335  0.00940544  0.46821577  1
  Cs  Cs3  1  0.27012225  0.25230593  0.25321765  1
  Cs  Cs4  1  0.74484481  0.50444754  0.97480833  1
  Cs  Cs5  1  0.25515519  0.49555246  0.02519167  1
  Cs  Cs6  1  0.68824687  0.07902478  0.88763331  1
  Cs  Cs7  1  0.76092665  0.99059456  0.53178423  1
  Cs  Cs8  1  0.72987775  0.74769407  0.74678235  1
  Cs  Cs9  1  0.31677346  0.33855124  0.60004572  1
  Cs  Cs10  1  0.16982004  0.63421820  0.35643417  1
  Cs  Cs11  1  0.18782468  0.18542425  0.86897420  1
  Cs  Cs12  1  0.31175313  0.92097522  0.11236669  1
  Cs  Cs13  1  0.68322654  0.66144876  0.39995428  1
  Nb  Nb14  1  0.35377064  0.60640353  0.77196904  1
  Nb  Nb15  1  0.64622936  0.39359647  0.22803096  1
  In  In16  1  0.06489925  0.81122048  0.86650833  1
  In  In17  1  0.93510075  0.18877952  0.13349167  1
  In  In18  1  0.36422566  0.94900484  0.70330357  1
  In  In19  1  0.09334141  0.72169520  0.62489124  1
  In  In20  1  0.90665859  0.27830480  0.37510876  1
  In  In21  1  0.63577434  0.05099516  0.29669643  1
  As  As22  1  0.91636878  0.44962128  0.21244766  1
  As  As23  1  0.62108848  0.20076629  0.12705530  1
  As  As24  1  0.08363122  0.55037872  0.78755234  1
  As  As25  1  0.59102193  0.29586067  0.38846536  1
  As  As26  1  0.40897807  0.70413933  0.61153464  1
  As  As27  1  0.04213648  0.98753930  0.70198458  1
  As  As28  1  0.51335678  0.40304347  0.80829133  1
  As  As29  1  0.48664322  0.59695653  0.19170867  1
  As  As30  1  0.37891152  0.79923371  0.87294470  1
  As  As31  1  0.95786352  0.01246070  0.29801542  1
