# generated using pymatgen
data_SrN6
_symmetry_space_group_name_H-M   'P 1'
_cell_length_a   8.39875769
_cell_length_b   6.79606085
_cell_length_c   6.59359036
_cell_angle_alpha   77.67986220
_cell_angle_beta   52.23598188
_cell_angle_gamma   50.08415592
_symmetry_Int_Tables_number   1
_chemical_formula_structural   SrN6
_chemical_formula_sum   'Sr2 N12'
_cell_volume   217.95621428
_cell_formula_units_Z   2
loop_
 _symmetry_equiv_pos_site_id
 _symmetry_equiv_pos_as_xyz
  1  'x, y, z'
loop_
 _atom_site_type_symbol
 _atom_site_label
 _atom_site_symmetry_multiplicity
 _atom_site_fract_x
 _atom_site_fract_y
 _atom_site_fract_z
 _atom_site_occupancy
  Sr  Sr0  1  0.49528200  0.49657400  0.50559000  1
  Sr  Sr1  1  0.75734800  0.74874700  0.74086700  1
  N  N2  1  0.34224800  0.90583200  0.29337200  1
  N  N3  1  0.46513900  0.28935000  0.90250700  1
  N  N4  1  0.36790200  0.38575400  0.12890500  1
  N  N5  1  0.12748500  0.12800900  0.36922700  1
  N  N6  1  0.88260200  0.87188800  0.12126000  1
  N  N7  1  0.13386800  0.11618700  0.86920300  1
  N  N8  1  0.33981400  0.91358900  0.78076300  1
  N  N9  1  0.95805100  0.78778300  0.90787900  1
  N  N10  1  0.78871200  0.96554400  0.34336000  1
  N  N11  1  0.91768800  0.33953600  0.95240300  1
  N  N12  1  0.91115700  0.34321300  0.46591200  1
  N  N13  1  0.28762200  0.45448800  0.33927100  1
