# generated using pymatgen
data_Tb2S3
_symmetry_space_group_name_H-M   'P 1'
_cell_length_a   21.66918828
_cell_length_b   8.35067565
_cell_length_c   8.35067066
_cell_angle_alpha   89.99945809
_cell_angle_beta   54.68613951
_cell_angle_gamma   54.68627775
_symmetry_Int_Tables_number   1
_chemical_formula_structural   Tb2S3
_chemical_formula_sum   'Tb16 S24'
_cell_volume   870.29618858
_cell_formula_units_Z   8
loop_
 _symmetry_equiv_pos_site_id
 _symmetry_equiv_pos_as_xyz
  1  'x, y, z'
loop_
 _atom_site_type_symbol
 _atom_site_label
 _atom_site_symmetry_multiplicity
 _atom_site_fract_x
 _atom_site_fract_y
 _atom_site_fract_z
 _atom_site_occupancy
  Tb  Tb0  1  0.99333839  0.40083143  0.24921979  1
  Tb  Tb1  1  0.99332769  0.11918241  0.77077046  1
  Tb  Tb2  1  0.08784507  0.61822405  0.36821198  1
  Tb  Tb3  1  0.16671329  0.24991074  0.63158740  1
  Tb  Tb4  1  0.34001142  0.38078812  0.25079088  1
  Tb  Tb5  1  0.24555754  0.88166723  0.13168356  1
  Tb  Tb6  1  0.34003524  0.09911658  0.72918840  1
  Tb  Tb7  1  0.16669355  0.74999151  0.86831931  1
  Tb  Tb8  1  0.49329655  0.27082115  0.61923144  1
  Tb  Tb9  1  0.66662649  0.36841574  0.25008612  1
  Tb  Tb10  1  0.58778820  0.86829738  0.11830796  1
  Tb  Tb11  1  0.66664494  0.13169660  0.75002042  1
  Tb  Tb12  1  0.49330878  0.74926419  0.90087462  1
  Tb  Tb13  1  0.74550060  0.63176901  0.38174856  1
  Tb  Tb14  1  0.84000776  0.22923326  0.59916214  1
  Tb  Tb15  1  0.83998043  0.75083258  0.88082837  1
  S  S16  1  0.04771580  0.99710839  0.36355562  1
  S  S17  1  0.12993008  0.48536966  0.98946746  1
  S  S18  1  0.04767126  0.35987398  0.49333921  1
  S  S19  1  0.28567508  0.14007637  0.13631232  1
  S  S20  1  0.28570834  0.50275276  0.00660752  1
  S  S21  1  0.20345710  0.01455841  0.87928038  1
  S  S22  1  0.12990812  0.62484571  0.62069649  1
  S  S23  1  0.38186346  0.00228088  0.34893548  1
  S  S24  1  0.20348374  0.87503733  0.51038028  1
  S  S25  1  0.45146424  0.49454323  0.99774387  1
  S  S26  1  0.38186867  0.35209980  0.50546942  1
  S  S27  1  0.62984644  0.12078737  0.12493624  1
  S  S28  1  0.62986968  0.48955859  0.98546304  1
  S  S29  1  0.54762866  0.99339674  0.85994169  1
  S  S30  1  0.45148177  0.65103085  0.64789736  1
  S  S31  1  0.70341370  0.01048116  0.37514071  1
  S  S32  1  0.54767156  0.86362876  0.49717434  1
  S  S33  1  0.78565943  0.50667130  0.00283062  1
  S  S34  1  0.70338189  0.37940034  0.51467550  1
  S  S35  1  0.95149230  0.14787605  0.15101378  1
  S  S36  1  0.95147263  0.49772602  0.99452429  1
  S  S37  1  0.78562787  0.63638677  0.64014156  1
  S  S38  1  0.88185190  0.00549527  0.85212753  1
  S  S39  1  0.88184335  0.84896727  0.50231389  1
