# generated using pymatgen
data_Ba2H6Pt
_symmetry_space_group_name_H-M   'P 1'
_cell_length_a   7.89357255
_cell_length_b   7.89357255
_cell_length_c   6.02245143
_cell_angle_alpha   90.00000000
_cell_angle_beta   90.00000000
_cell_angle_gamma   135.14156626
_symmetry_Int_Tables_number   1
_chemical_formula_structural   Ba2H6Pt
_chemical_formula_sum   'Ba4 H12 Pt2'
_cell_volume   264.68529190
_cell_formula_units_Z   2
loop_
 _symmetry_equiv_pos_site_id
 _symmetry_equiv_pos_as_xyz
  1  'x, y, z'
loop_
 _atom_site_type_symbol
 _atom_site_label
 _atom_site_symmetry_multiplicity
 _atom_site_fract_x
 _atom_site_fract_y
 _atom_site_fract_z
 _atom_site_occupancy
  Ba  Ba0  1  0.14145944  0.85854056  0.50000000  1
  Ba  Ba1  1  0.64145944  0.35854056  -0.00000000  1
  Ba  Ba2  1  0.85854056  0.14145944  0.50000000  1
  Ba  Ba3  1  0.35854056  0.64145944  0.00000000  1
  H  H4  1  0.00054805  0.50054805  0.75000000  1
  H  H5  1  0.49945195  0.99945195  0.25000000  1
  H  H6  1  0.99945195  0.49945195  0.25000000  1
  H  H7  1  0.50054805  0.00054805  0.75000000  1
  H  H8  1  0.38654310  0.61345690  0.50000000  1
  H  H9  1  0.88654310  0.11345690  0.00000000  1
  H  H10  1  0.61345690  0.38654310  0.50000000  1
  H  H11  1  0.11345690  0.88654310  -0.00000000  1
  H  H12  1  0.30349149  0.30349149  0.69437429  1
  H  H13  1  0.69650851  0.69650851  0.30562571  1
  H  H14  1  0.19650851  0.19650851  0.19437429  1
  H  H15  1  0.80349149  0.80349149  0.80562571  1
  Pt  Pt16  1  0.50000000  0.50000000  0.50000000  1
  Pt  Pt17  1  0.00000000  0.00000000  -0.00000000  1
