# generated using pymatgen
data_Eu5Si(Cl3O2)2
_symmetry_space_group_name_H-M   'P 1'
_cell_length_a   8.27256355
_cell_length_b   8.27256355
_cell_length_c   11.10086885
_cell_angle_alpha   82.82056271
_cell_angle_beta   82.82056271
_cell_angle_gamma   114.75576624
_symmetry_Int_Tables_number   1
_chemical_formula_structural   Eu5Si(Cl3O2)2
_chemical_formula_sum   'Eu10 Si2 Cl12 O8'
_cell_volume   671.08218743
_cell_formula_units_Z   2
loop_
 _symmetry_equiv_pos_site_id
 _symmetry_equiv_pos_as_xyz
  1  'x, y, z'
loop_
 _atom_site_type_symbol
 _atom_site_label
 _atom_site_symmetry_multiplicity
 _atom_site_fract_x
 _atom_site_fract_y
 _atom_site_fract_z
 _atom_site_occupancy
  Eu  Eu0  1  0.26944936  0.42735463  0.63157659  1
  Eu  Eu1  1  0.73055064  0.57264537  0.36842341  1
  Eu  Eu2  1  0.57264537  0.73055064  0.86842341  1
  Eu  Eu3  1  0.42735463  0.26944936  0.13157659  1
  Eu  Eu4  1  0.70017755  0.29982245  0.75000000  1
  Eu  Eu5  1  0.81675789  0.07535650  0.48110998  1
  Eu  Eu6  1  0.92464350  0.18324211  0.01889002  1
  Eu  Eu7  1  0.07535650  0.81675789  0.98110998  1
  Eu  Eu8  1  0.18324211  0.92464350  0.51889002  1
  Eu  Eu9  1  0.29982245  0.70017755  0.25000000  1
  Si  Si10  1  0.92224447  0.07775553  0.75000000  1
  Si  Si11  1  0.07775553  0.92224447  0.25000000  1
  Cl  Cl12  1  0.51858751  0.21948132  0.54772705  1
  Cl  Cl13  1  0.48141249  0.78051868  0.45227295  1
  Cl  Cl14  1  0.74570443  0.25429557  0.25000000  1
  Cl  Cl15  1  0.70592178  0.64506169  0.63957987  1
  Cl  Cl16  1  0.25429557  0.74570443  0.75000000  1
  Cl  Cl17  1  0.64506169  0.70592178  0.13957987  1
  Cl  Cl18  1  0.78051868  0.48141249  0.95227295  1
  Cl  Cl19  1  0.21948132  0.51858751  0.04772705  1
  Cl  Cl20  1  0.50000000  0.00000000  -0.00000000  1
  Cl  Cl21  1  0.35493831  0.29407822  0.86042013  1
  Cl  Cl22  1  0.29407822  0.35493831  0.36042013  1
  Cl  Cl23  1  0.00000000  0.50000000  0.50000000  1
  O  O24  1  0.06300266  0.10058339  0.62541187  1
  O  O25  1  0.10058339  0.06300266  0.12541187  1
  O  O26  1  0.98080819  0.27772074  0.78744998  1
  O  O27  1  0.89941661  0.93699734  0.87458813  1
  O  O28  1  0.01919181  0.72227926  0.21255002  1
  O  O29  1  0.72227926  0.01919181  0.71255002  1
  O  O30  1  0.27772074  0.98080819  0.28744998  1
  O  O31  1  0.93699734  0.89941661  0.37458813  1
