# generated using pymatgen
data_Re3S4Cl
_symmetry_space_group_name_H-M   'P 1'
_cell_length_a   11.45313996
_cell_length_b   6.41860523
_cell_length_c   11.10372945
_cell_angle_alpha   66.67195289
_cell_angle_beta   90.00000000
_cell_angle_gamma   90.00000000
_symmetry_Int_Tables_number   1
_chemical_formula_structural   Re3S4Cl
_chemical_formula_sum   'Re12 S16 Cl4'
_cell_volume   749.54255220
_cell_formula_units_Z   4
loop_
 _symmetry_equiv_pos_site_id
 _symmetry_equiv_pos_as_xyz
  1  'x, y, z'
loop_
 _atom_site_type_symbol
 _atom_site_label
 _atom_site_symmetry_multiplicity
 _atom_site_fract_x
 _atom_site_fract_y
 _atom_site_fract_z
 _atom_site_occupancy
  Re  Re0  1  0.97927545  0.30740646  0.93648475  1
  Re  Re1  1  0.02072455  0.69259354  0.06351525  1
  Re  Re2  1  0.35544030  0.03092413  0.56456791  1
  Re  Re3  1  0.07015878  0.02970002  0.84464716  1
  Re  Re4  1  0.57015878  0.97029998  0.65535284  1
  Re  Re5  1  0.14455970  0.03092413  0.06456791  1
  Re  Re6  1  0.64455970  0.96907587  0.43543209  1
  Re  Re7  1  0.42984122  0.02970002  0.34464716  1
  Re  Re8  1  0.92984122  0.97029998  0.15535284  1
  Re  Re9  1  0.85544030  0.96907587  0.93543209  1
  Re  Re10  1  0.52072455  0.30740646  0.43648475  1
  Re  Re11  1  0.47927545  0.69259354  0.56351525  1
  S  S12  1  0.82376102  0.65896540  0.14370945  1
  S  S13  1  0.41272354  0.71539220  0.76164883  1
  S  S14  1  0.55390470  0.72613537  0.34275162  1
  S  S15  1  0.08727646  0.71539220  0.26164883  1
  S  S16  1  0.32376102  0.34103460  0.35629055  1
  S  S17  1  0.91272354  0.28460780  0.73835117  1
  S  S18  1  0.71556438  0.23001816  0.52291129  1
  S  S19  1  0.67623898  0.65896540  0.64370945  1
  S  S20  1  0.78443562  0.23001816  0.02291129  1
  S  S21  1  0.28443562  0.76998184  0.47708871  1
  S  S22  1  0.58727646  0.28460780  0.23835117  1
  S  S23  1  0.94609530  0.72613537  0.84275162  1
  S  S24  1  0.17623898  0.34103460  0.85629055  1
  S  S25  1  0.05390470  0.27386463  0.15724838  1
  S  S26  1  0.44609530  0.27386463  0.65724838  1
  S  S27  1  0.21556438  0.76998184  0.97708871  1
  Cl  Cl28  1  0.84701787  0.91495331  0.37206370  1
  Cl  Cl29  1  0.15298213  0.08504669  0.62793630  1
  Cl  Cl30  1  0.34701787  0.08504669  0.12793630  1
  Cl  Cl31  1  0.65298213  0.91495331  0.87206370  1
