# generated using pymatgen
data_LuHO2
_symmetry_space_group_name_H-M   'P 1'
_cell_length_a   5.76908513
_cell_length_b   3.50643708
_cell_length_c   4.20080915
_cell_angle_alpha   90.00000000
_cell_angle_beta   109.32322858
_cell_angle_gamma   90.00000000
_symmetry_Int_Tables_number   1
_chemical_formula_structural   LuHO2
_chemical_formula_sum   'Lu2 H2 O4'
_cell_volume   80.19082133
_cell_formula_units_Z   2
loop_
 _symmetry_equiv_pos_site_id
 _symmetry_equiv_pos_as_xyz
  1  'x, y, z'
loop_
 _atom_site_type_symbol
 _atom_site_label
 _atom_site_symmetry_multiplicity
 _atom_site_fract_x
 _atom_site_fract_y
 _atom_site_fract_z
 _atom_site_occupancy
  Lu  Lu0  1  0.18811390  0.77252795  0.33263946  1
  Lu  Lu1  1  0.81188610  0.27252795  0.66736054  1
  H  H2  1  0.57795771  0.81484967  0.98344638  1
  H  H3  1  0.42204229  0.31484967  0.01655362  1
  O  O4  1  0.05328115  0.77056358  0.76737296  1
  O  O5  1  0.94671885  0.27056358  0.23262704  1
  O  O6  1  0.56076336  0.76721980  0.75033589  1
  O  O7  1  0.43923664  0.26721980  0.24966411  1
