# generated using pymatgen
data_Re3S4Br
_symmetry_space_group_name_H-M   'P 1'
_cell_length_a   11.59746925
_cell_length_b   6.41717382
_cell_length_c   11.24304214
_cell_angle_alpha   66.25458431
_cell_angle_beta   90.00000000
_cell_angle_gamma   90.00000000
_symmetry_Int_Tables_number   1
_chemical_formula_structural   Re3S4Br
_chemical_formula_sum   'Re12 S16 Br4'
_cell_volume   765.90528873
_cell_formula_units_Z   4
loop_
 _symmetry_equiv_pos_site_id
 _symmetry_equiv_pos_as_xyz
  1  'x, y, z'
loop_
 _atom_site_type_symbol
 _atom_site_label
 _atom_site_symmetry_multiplicity
 _atom_site_fract_x
 _atom_site_fract_y
 _atom_site_fract_z
 _atom_site_occupancy
  Re  Re0  1  0.52271778  0.30782815  0.43811091  1
  Re  Re1  1  0.43674834  0.03395829  0.34276705  1
  Re  Re2  1  0.35480778  0.03475492  0.55694519  1
  Re  Re3  1  0.47728222  0.69217185  0.56188909  1
  Re  Re4  1  0.02271778  0.69217185  0.06188909  1
  Re  Re5  1  0.97728222  0.30782815  0.93811091  1
  Re  Re6  1  0.56325166  0.96604171  0.65723295  1
  Re  Re7  1  0.06325166  0.03395829  0.84276705  1
  Re  Re8  1  0.64519222  0.96524508  0.44305481  1
  Re  Re9  1  0.93674834  0.96604171  0.15723295  1
  Re  Re10  1  0.85480778  0.96524508  0.94305481  1
  Re  Re11  1  0.14519222  0.03475492  0.05694519  1
  S  S12  1  0.66864003  0.65168650  0.65070842  1
  S  S13  1  0.55939910  0.72653021  0.34687246  1
  S  S14  1  0.94060090  0.72653021  0.84687246  1
  S  S15  1  0.28839799  0.77724345  0.46679279  1
  S  S16  1  0.78839799  0.22275655  0.03320721  1
  S  S17  1  0.90402028  0.28528329  0.74530707  1
  S  S18  1  0.09597972  0.71471671  0.25469293  1
  S  S19  1  0.71160201  0.22275655  0.53320721  1
  S  S20  1  0.05939910  0.27346979  0.15312754  1
  S  S21  1  0.44060090  0.27346979  0.65312754  1
  S  S22  1  0.40402028  0.71471671  0.75469293  1
  S  S23  1  0.33135997  0.34831350  0.34929158  1
  S  S24  1  0.16864003  0.34831350  0.84929158  1
  S  S25  1  0.59597972  0.28528329  0.24530707  1
  S  S26  1  0.83135997  0.65168650  0.15070842  1
  S  S27  1  0.21160201  0.77724345  0.96679279  1
  Br  Br28  1  0.64043650  0.90016013  0.88886315  1
  Br  Br29  1  0.85956350  0.90016013  0.38886315  1
  Br  Br30  1  0.35956350  0.09983987  0.11113685  1
  Br  Br31  1  0.14043650  0.09983987  0.61113685  1
