# generated using pymatgen
data_ScCuSe2
_symmetry_space_group_name_H-M   'P 1'
_cell_length_a   7.77918544
_cell_length_b   9.23270879
_cell_length_c   12.68423731
_cell_angle_alpha   46.98256795
_cell_angle_beta   90.00000000
_cell_angle_gamma   90.00000000
_symmetry_Int_Tables_number   1
_chemical_formula_structural   ScCuSe2
_chemical_formula_sum   'Sc8 Cu8 Se16'
_cell_volume   666.08833950
_cell_formula_units_Z   8
loop_
 _symmetry_equiv_pos_site_id
 _symmetry_equiv_pos_as_xyz
  1  'x, y, z'
loop_
 _atom_site_type_symbol
 _atom_site_label
 _atom_site_symmetry_multiplicity
 _atom_site_fract_x
 _atom_site_fract_y
 _atom_site_fract_z
 _atom_site_occupancy
  Sc  Sc0  1  0.49945134  0.99603892  0.75963141  1
  Sc  Sc1  1  0.74382610  0.49922727  0.00517788  1
  Sc  Sc2  1  0.75617390  0.49922727  0.50517788  1
  Sc  Sc3  1  -0.00054866  0.00396108  0.74036859  1
  Sc  Sc4  1  0.00054866  0.99603892  0.25963141  1
  Sc  Sc5  1  0.24382610  0.50077273  0.49482212  1
  Sc  Sc6  1  0.25617390  0.50077273  0.99482212  1
  Sc  Sc7  1  0.50054866  0.00396108  0.24036859  1
  Cu  Cu8  1  0.49937105  0.66744512  0.10531151  1
  Cu  Cu9  1  0.75020615  0.17125540  0.35437060  1
  Cu  Cu10  1  0.99937105  0.33255488  0.39468849  1
  Cu  Cu11  1  0.25020615  0.82874460  0.14562940  1
  Cu  Cu12  1  0.74979385  0.17125540  0.85437060  1
  Cu  Cu13  1  0.00062895  0.66744512  0.60531151  1
  Cu  Cu14  1  0.24979385  0.82874460  0.64562940  1
  Cu  Cu15  1  0.50062895  0.33255488  0.89468849  1
  Se  Se16  1  0.49473060  0.33041698  0.20782197  1
  Se  Se17  1  0.75373741  0.83427027  0.95757064  1
  Se  Se18  1  0.25373741  0.16572973  0.54242936  1
  Se  Se19  1  0.00375759  0.33854923  0.20080444  1
  Se  Se20  1  0.50375759  0.66145077  0.29919556  1
  Se  Se21  1  0.24252589  0.83280934  0.95234605  1
  Se  Se22  1  0.74252589  0.16719066  0.54765395  1
  Se  Se23  1  0.99473060  0.66958302  0.29217803  1
  Se  Se24  1  0.00526940  0.33041698  0.70782197  1
  Se  Se25  1  0.25747411  0.83280934  0.45234605  1
  Se  Se26  1  0.75747411  0.16719066  0.04765395  1
  Se  Se27  1  0.49624241  0.33854923  0.70080444  1
  Se  Se28  1  0.99624241  0.66145077  0.79919556  1
  Se  Se29  1  0.74626259  0.83427027  0.45757064  1
  Se  Se30  1  0.24626259  0.16572973  0.04242936  1
  Se  Se31  1  0.50526940  0.66958302  0.79217803  1
