# generated using pymatgen
data_Cs2TeO4
_symmetry_space_group_name_H-M   'P 1'
_cell_length_a   6.68130613
_cell_length_b   8.53800106
_cell_length_c   11.70049720
_cell_angle_alpha   90.00000000
_cell_angle_beta   90.00000000
_cell_angle_gamma   90.00000000
_symmetry_Int_Tables_number   1
_chemical_formula_structural   Cs2TeO4
_chemical_formula_sum   'Cs8 Te4 O16'
_cell_volume   667.45484897
_cell_formula_units_Z   4
loop_
 _symmetry_equiv_pos_site_id
 _symmetry_equiv_pos_as_xyz
  1  'x, y, z'
loop_
 _atom_site_type_symbol
 _atom_site_label
 _atom_site_symmetry_multiplicity
 _atom_site_fract_x
 _atom_site_fract_y
 _atom_site_fract_z
 _atom_site_occupancy
  Cs  Cs0  1  0.75000000  0.66740708  0.41686182  1
  Cs  Cs1  1  0.25000000  0.00149153  0.28767696  1
  Cs  Cs2  1  0.75000000  0.99850847  0.71232304  1
  Cs  Cs3  1  0.25000000  0.33259292  0.58313818  1
  Cs  Cs4  1  0.25000000  0.50149153  0.21232304  1
  Cs  Cs5  1  0.25000000  0.83259292  0.91686182  1
  Cs  Cs6  1  0.75000000  0.16740708  0.08313818  1
  Cs  Cs7  1  0.75000000  0.49850847  0.78767696  1
  Te  Te8  1  0.75000000  0.71941726  0.07899461  1
  Te  Te9  1  0.75000000  0.21941726  0.42100539  1
  Te  Te10  1  0.25000000  0.28058274  0.92100539  1
  Te  Te11  1  0.25000000  0.78058274  0.57899461  1
  O  O12  1  0.75000000  0.30713960  0.56372988  1
  O  O13  1  0.52724726  0.78848172  0.15412581  1
  O  O14  1  0.25000000  0.49359620  0.92888813  1
  O  O15  1  0.25000000  0.99359620  0.57111187  1
  O  O16  1  0.47275274  0.21151828  0.84587419  1
  O  O17  1  0.75000000  0.80713960  0.93627012  1
  O  O18  1  0.25000000  0.19286040  0.06372988  1
  O  O19  1  0.47275274  0.71151828  0.65412581  1
  O  O20  1  0.02724726  0.21151828  0.84587419  1
  O  O21  1  0.97275274  0.78848172  0.15412581  1
  O  O22  1  0.97275274  0.28848172  0.34587419  1
  O  O23  1  0.75000000  0.50640380  0.07111187  1
  O  O24  1  0.52724726  0.28848172  0.34587419  1
  O  O25  1  0.02724726  0.71151828  0.65412581  1
  O  O26  1  0.25000000  0.69286040  0.43627012  1
  O  O27  1  0.75000000  0.00640380  0.42888813  1
