# generated using pymatgen
data_Ba8Mn8O21
_symmetry_space_group_name_H-M   'P 1'
_cell_length_a   9.42720017
_cell_length_b   5.70588476
_cell_length_c   9.91350635
_cell_angle_alpha   89.60889369
_cell_angle_beta   90.00000000
_cell_angle_gamma   90.00000000
_symmetry_Int_Tables_number   1
_chemical_formula_structural   Ba8Mn8O21
_chemical_formula_sum   'Ba8 Mn8 O21'
_cell_volume   533.24021623
_cell_formula_units_Z   1
loop_
 _symmetry_equiv_pos_site_id
 _symmetry_equiv_pos_as_xyz
  1  'x, y, z'
loop_
 _atom_site_type_symbol
 _atom_site_label
 _atom_site_symmetry_multiplicity
 _atom_site_fract_x
 _atom_site_fract_y
 _atom_site_fract_z
 _atom_site_occupancy
  Ba  Ba0  1  0.76273339  0.99220246  -0.00090440  1
  Ba  Ba1  1  0.50000000  0.50869129  0.16587955  1
  Ba  Ba2  1  0.28015005  0.49269347  0.50451015  1
  Ba  Ba3  1  0.00000000  0.00418017  0.33446919  1
  Ba  Ba4  1  0.50000000  0.99323853  0.66593259  1
  Ba  Ba5  1  0.23726661  0.99220246  -0.00090440  1
  Ba  Ba6  1  0.71984995  0.49269347  0.50451015  1
  Ba  Ba7  1  0.00000000  0.49217452  0.83509035  1
  Mn  Mn8  1  0.14606112  0.49658977  0.16622441  1
  Mn  Mn9  1  0.85393888  0.49658977  0.16622441  1
  Mn  Mn10  1  0.63735473  0.99788618  0.33248828  1
  Mn  Mn11  1  0.14341583  0.01685113  0.66448132  1
  Mn  Mn12  1  0.36264527  0.99788618  0.33248828  1
  Mn  Mn13  1  0.85658417  0.01685113  0.66448132  1
  Mn  Mn14  1  0.64191106  0.51527208  0.83049585  1
  Mn  Mn15  1  0.35808894  0.51527208  0.83049585  1
  O  O16  1  0.24937207  0.24834098  0.25638845  1
  O  O17  1  0.00000000  0.27911663  0.11663550  1
  O  O18  1  0.74281866  0.49211480  0.99549833  1
  O  O19  1  0.00000000  0.71321350  0.11453861  1
  O  O20  1  0.75159105  0.74727079  0.25661692  1
  O  O21  1  0.23800472  0.75734841  0.73705777  1
  O  O22  1  0.76199528  0.75734841  0.73705777  1
  O  O23  1  0.24840895  0.74727079  0.25661692  1
  O  O24  1  0.50000000  0.77883610  0.40413527  1
  O  O25  1  0.50000000  0.00344155  0.18664041  1
  O  O26  1  0.74998829  0.99331017  0.49353659  1
  O  O27  1  0.25001171  0.99331017  0.49353659  1
  O  O28  1  0.00000000  0.98433439  0.80279083  1
  O  O29  1  0.50000000  0.21303246  0.40624237  1
  O  O30  1  0.00000000  0.22854842  0.58202250  1
  O  O31  1  0.75062793  0.24834098  0.25638845  1
  O  O32  1  0.73793256  0.25455881  0.75971899  1
  O  O33  1  0.26206744  0.25455881  0.75971899  1
  O  O34  1  0.50000000  0.48914567  0.68900797  1
  O  O35  1  0.25718134  0.49211480  0.99549833  1
  O  O36  1  0.50000000  0.72333263  0.90941655  1
