# generated using pymatgen
data_ZnBr2
_symmetry_space_group_name_H-M   'P 1'
_cell_length_a   11.91613818
_cell_length_b   11.88797159
_cell_length_c   13.59463648
_cell_angle_alpha   115.99163341
_cell_angle_beta   115.99330818
_cell_angle_gamma   90.00000251
_symmetry_Int_Tables_number   1
_chemical_formula_structural   ZnBr2
_chemical_formula_sum   'Zn16 Br32'
_cell_volume   1511.31467250
_cell_formula_units_Z   16
loop_
 _symmetry_equiv_pos_site_id
 _symmetry_equiv_pos_as_xyz
  1  'x, y, z'
loop_
 _atom_site_type_symbol
 _atom_site_label
 _atom_site_symmetry_multiplicity
 _atom_site_fract_x
 _atom_site_fract_y
 _atom_site_fract_z
 _atom_site_occupancy
  Zn  Zn0  1  0.81305219  0.08731981  0.87767691  1
  Zn  Zn1  1  0.79011872  0.56357324  0.37737798  1
  Zn  Zn2  1  0.31580636  0.79210805  0.87859896  1
  Zn  Zn3  1  0.08725926  0.06357324  0.37737798  1
  Zn  Zn4  1  0.43537528  0.41268019  0.12232309  1
  Zn  Zn5  1  0.20988128  0.43642676  0.62262202  1
  Zn  Zn6  1  0.68419364  0.20789195  0.12140104  1
  Zn  Zn7  1  0.41254279  0.68633765  0.62219737  1
  Zn  Zn8  1  0.06279361  0.29210805  0.87859896  1
  Zn  Zn9  1  0.58745721  0.31366235  0.37780263  1
  Zn  Zn10  1  0.18694781  0.91268019  0.12232309  1
  Zn  Zn11  1  0.70965558  0.18633765  0.62219737  1
  Zn  Zn12  1  0.91274074  0.93642676  0.62262202  1
  Zn  Zn13  1  0.93720639  0.70789195  0.12140104  1
  Zn  Zn14  1  0.29034442  0.81366235  0.37780263  1
  Zn  Zn15  1  0.56462472  0.58731981  0.87767691  1
  Br  Br16  1  0.25132177  0.96997168  0.00091525  1
  Br  Br17  1  0.39816190  0.38924550  0.75094442  1
  Br  Br18  1  0.36216660  0.85315037  0.25141238  1
  Br  Br19  1  0.50928520  0.75833653  0.01616334  1
  Br  Br20  1  0.35413571  0.86301312  0.75122333  1
  Br  Br21  1  0.60183810  0.61075450  0.24905558  1
  Br  Br22  1  0.61075421  0.64684963  0.74858762  1
  Br  Br23  1  0.00687713  0.25833653  0.01616334  1
  Br  Br24  1  0.63783340  0.14684963  0.74858762  1
  Br  Br25  1  0.86007251  0.39641924  0.25020040  1
  Br  Br26  1  0.49071480  0.24166347  0.98383666  1
  Br  Br27  1  0.53081737  0.25000000  0.50000000  1
  Br  Br28  1  0.85278152  0.88924550  0.75094442  1
  Br  Br29  1  0.24959348  0.46997168  0.00091525  1
  Br  Br30  1  0.99312287  0.74166347  0.98383666  1
  Br  Br31  1  0.96879677  0.75000000  0.50000000  1
  Br  Br32  1  0.46918263  0.75000000  0.50000000  1
  Br  Br33  1  0.74867823  0.03002832  0.99908475  1
  Br  Br34  1  0.13992749  0.60358076  0.74979960  1
  Br  Br35  1  0.89708862  0.36301312  0.75122333  1
  Br  Br36  1  0.75828850  0.50755617  0.51591660  1
  Br  Br37  1  0.89012689  0.89641924  0.25020040  1
  Br  Br38  1  0.14721848  0.11075450  0.24905558  1
  Br  Br39  1  0.10291138  0.63698688  0.24877667  1
  Br  Br40  1  0.25762710  0.00755617  0.51591660  1
  Br  Br41  1  0.38924579  0.35315037  0.25141238  1
  Br  Br42  1  0.75040652  0.53002832  0.99908475  1
  Br  Br43  1  0.74237290  0.99244383  0.48408340  1
  Br  Br44  1  0.64586429  0.13698688  0.24877667  1
  Br  Br45  1  0.03120323  0.25000000  0.50000000  1
  Br  Br46  1  0.24171150  0.49244383  0.48408340  1
  Br  Br47  1  0.10987311  0.10358076  0.74979960  1
