# generated using pymatgen
data_Cs3Nb2S11
_symmetry_space_group_name_H-M   'P 1'
_cell_length_a   8.28360336
_cell_length_b   12.22276814
_cell_length_c   19.91874016
_cell_angle_alpha   77.13485565
_cell_angle_beta   90.00000000
_cell_angle_gamma   90.00000000
_symmetry_Int_Tables_number   1
_chemical_formula_structural   Cs3Nb2S11
_chemical_formula_sum   'Cs12 Nb8 S44'
_cell_volume   1966.11715351
_cell_formula_units_Z   4
loop_
 _symmetry_equiv_pos_site_id
 _symmetry_equiv_pos_as_xyz
  1  'x, y, z'
loop_
 _atom_site_type_symbol
 _atom_site_label
 _atom_site_symmetry_multiplicity
 _atom_site_fract_x
 _atom_site_fract_y
 _atom_site_fract_z
 _atom_site_occupancy
  Cs  Cs0  1  0.31967875  0.99467594  0.83770504  1
  Cs  Cs1  1  0.68032125  0.00532406  0.16229496  1
  Cs  Cs2  1  0.65861310  0.46112688  0.14125661  1
  Cs  Cs3  1  0.18623220  0.77125893  0.11669733  1
  Cs  Cs4  1  0.15861310  0.53887312  0.35874339  1
  Cs  Cs5  1  0.81967875  0.00532406  0.66229496  1
  Cs  Cs6  1  0.81376780  0.22874107  0.88330267  1
  Cs  Cs7  1  0.68623220  0.22874107  0.38330267  1
  Cs  Cs8  1  0.34138690  0.53887312  0.85874339  1
  Cs  Cs9  1  0.18032125  0.99467594  0.33770504  1
  Cs  Cs10  1  0.31376780  0.77125893  0.61669733  1
  Cs  Cs11  1  0.84138690  0.46112688  0.64125661  1
  Nb  Nb12  1  0.85788630  0.71022457  0.84155327  1
  Nb  Nb13  1  0.35788630  0.28977543  0.65844673  1
  Nb  Nb14  1  0.72424925  0.80595093  0.99479288  1
  Nb  Nb15  1  0.27575075  0.19404907  0.00520712  1
  Nb  Nb16  1  0.64211370  0.71022457  0.34155327  1
  Nb  Nb17  1  0.14211370  0.28977543  0.15844673  1
  Nb  Nb18  1  0.22424925  0.19404907  0.50520712  1
  Nb  Nb19  1  0.77575075  0.80595093  0.49479288  1
  S  S20  1  0.52443380  0.91530930  0.45550675  1
  S  S21  1  0.37336027  0.36356571  0.03931784  1
  S  S22  1  0.12663973  0.36356571  0.53931784  1
  S  S23  1  0.62133481  0.00143386  0.98675021  1
  S  S24  1  0.98999436  0.74795190  0.95162920  1
  S  S25  1  0.88968360  0.79334815  0.28354397  1
  S  S26  1  0.27988656  0.47434036  0.67967841  1
  S  S27  1  0.77539194  0.88975246  0.34268868  1
  S  S28  1  0.44838136  0.75132642  0.97000978  1
  S  S29  1  0.43474906  0.76513206  0.27043152  1
  S  S30  1  0.57712868  0.51853547  0.40639408  1
  S  S31  1  0.56525094  0.23486794  0.72956848  1
  S  S32  1  0.37866519  0.99856614  0.01324979  1
  S  S33  1  0.55161864  0.24867358  0.02999022  1
  S  S34  1  0.92287132  0.51853547  0.90639408  1
  S  S35  1  0.51000564  0.74795190  0.45162920  1
  S  S36  1  0.42287132  0.48146453  0.59360592  1
  S  S37  1  0.24352486  0.25077396  0.89172123  1
  S  S38  1  0.02443380  0.08469070  0.04449325  1
  S  S39  1  0.07712868  0.48146453  0.09360592  1
  S  S40  1  0.01000564  0.25204810  0.04837080  1
  S  S41  1  0.77988656  0.52565964  0.82032159  1
  S  S42  1  0.47556620  0.08469070  0.54449325  1
  S  S43  1  0.72011344  0.52565964  0.32032159  1
  S  S44  1  0.87866519  0.00143386  0.48675021  1
  S  S45  1  0.11031640  0.20665185  0.71645603  1
  S  S46  1  0.72460806  0.88975246  0.84268868  1
  S  S47  1  0.62663973  0.63643429  0.96068216  1
  S  S48  1  0.61031640  0.79334815  0.78354397  1
  S  S49  1  0.38968360  0.20665185  0.21645603  1
  S  S50  1  0.27539194  0.11024754  0.15731132  1
  S  S51  1  0.87336027  0.63643429  0.46068216  1
  S  S52  1  0.06525094  0.76513206  0.77043152  1
  S  S53  1  0.74352486  0.74922604  0.60827877  1
  S  S54  1  0.05161864  0.75132642  0.47000978  1
  S  S55  1  0.48999436  0.25204810  0.54837080  1
  S  S56  1  0.12133481  0.99856614  0.51324979  1
  S  S57  1  0.22460806  0.11024754  0.65731132  1
  S  S58  1  0.97556620  0.91530930  0.95550675  1
  S  S59  1  0.94838136  0.24867358  0.52999022  1
  S  S60  1  0.75647514  0.74922604  0.10827877  1
  S  S61  1  0.93474906  0.23486794  0.22956848  1
  S  S62  1  0.25647514  0.25077396  0.39172123  1
  S  S63  1  0.22011344  0.47434036  0.17967841  1
