# generated using pymatgen
data_K2ZnCl4
_symmetry_space_group_name_H-M   'P 1'
_cell_length_a   7.11944295
_cell_length_b   8.88776142
_cell_length_c   12.66455914
_cell_angle_alpha   90.00000000
_cell_angle_beta   90.00000000
_cell_angle_gamma   90.00000000
_symmetry_Int_Tables_number   1
_chemical_formula_structural   K2ZnCl4
_chemical_formula_sum   'K8 Zn4 Cl16'
_cell_volume   801.36150918
_cell_formula_units_Z   4
loop_
 _symmetry_equiv_pos_site_id
 _symmetry_equiv_pos_as_xyz
  1  'x, y, z'
loop_
 _atom_site_type_symbol
 _atom_site_label
 _atom_site_symmetry_multiplicity
 _atom_site_fract_x
 _atom_site_fract_y
 _atom_site_fract_z
 _atom_site_occupancy
  K  K0  1  0.25000000  0.61540545  0.56420679  1
  K  K1  1  0.75000000  0.01855489  0.68081630  1
  K  K2  1  0.75000000  0.88459455  0.06420679  1
  K  K3  1  0.75000000  0.38459455  0.43579321  1
  K  K4  1  0.25000000  0.11540545  0.93579321  1
  K  K5  1  0.25000000  0.98144511  0.31918370  1
  K  K6  1  0.75000000  0.51855489  0.81918370  1
  K  K7  1  0.25000000  0.48144511  0.18081630  1
  Zn  Zn8  1  0.25000000  0.21589160  0.57334216  1
  Zn  Zn9  1  0.25000000  0.71589160  0.92665784  1
  Zn  Zn10  1  0.75000000  0.78410840  0.42665784  1
  Zn  Zn11  1  0.75000000  0.28410840  0.07334216  1
  Cl  Cl12  1  0.49595402  0.67928760  0.34895592  1
  Cl  Cl13  1  0.50404598  0.32071240  0.65104408  1
  Cl  Cl14  1  0.25000000  0.31178761  0.40605207  1
  Cl  Cl15  1  0.99595402  0.32071240  0.65104408  1
  Cl  Cl16  1  0.75000000  0.53541037  0.07678580  1
  Cl  Cl17  1  0.00404598  0.67928760  0.34895592  1
  Cl  Cl18  1  0.25000000  0.46458963  0.92321420  1
  Cl  Cl19  1  0.99595402  0.82071240  0.84895592  1
  Cl  Cl20  1  0.00404598  0.17928760  0.15104408  1
  Cl  Cl21  1  0.75000000  0.18821239  0.90605207  1
  Cl  Cl22  1  0.75000000  0.68821239  0.59394793  1
  Cl  Cl23  1  0.75000000  0.03541037  0.42321420  1
  Cl  Cl24  1  0.50404598  0.82071240  0.84895592  1
  Cl  Cl25  1  0.25000000  0.81178761  0.09394793  1
  Cl  Cl26  1  0.25000000  0.96458963  0.57678580  1
  Cl  Cl27  1  0.49595402  0.17928760  0.15104408  1
