# generated using pymatgen
data_LiZnPO4
_symmetry_space_group_name_H-M   'P 1'
_cell_length_a   10.04042092
_cell_length_b   10.04042092
_cell_length_c   19.73844770
_cell_angle_alpha   60.14373068
_cell_angle_beta   60.14373068
_cell_angle_gamma   58.94510550
_symmetry_Int_Tables_number   1
_chemical_formula_structural   LiZnPO4
_chemical_formula_sum   'Li16 Zn16 P16 O64'
_cell_volume   1398.44345290
_cell_formula_units_Z   16
loop_
 _symmetry_equiv_pos_site_id
 _symmetry_equiv_pos_as_xyz
  1  'x, y, z'
loop_
 _atom_site_type_symbol
 _atom_site_label
 _atom_site_symmetry_multiplicity
 _atom_site_fract_x
 _atom_site_fract_y
 _atom_site_fract_z
 _atom_site_occupancy
  Li  Li0  1  0.98153100  0.60801500  0.41103000  1
  Li  Li1  1  0.48205800  0.54755900  0.41174500  1
  Li  Li2  1  0.48375400  0.62536000  0.16067100  1
  Li  Li3  1  0.10855200  0.99544100  0.91025200  1
  Li  Li4  1  0.98585500  0.62250700  0.16097200  1
  Li  Li5  1  0.62250700  0.98585500  0.66097200  1
  Li  Li6  1  0.48184100  0.05173200  0.41355300  1
  Li  Li7  1  0.54755900  0.48205800  0.91174500  1
  Li  Li8  1  0.12282400  0.54432700  0.66099100  1
  Li  Li9  1  0.12401800  0.04512800  0.66214800  1
  Li  Li10  1  0.62536000  0.48375400  0.66067100  1
  Li  Li11  1  0.04512800  0.12401800  0.16214800  1
  Li  Li12  1  0.99544100  0.10855200  0.41025200  1
  Li  Li13  1  0.60801500  0.98153100  0.91103000  1
  Li  Li14  1  0.54432700  0.12282400  0.16099100  1
  Li  Li15  1  0.05173200  0.48184100  0.91355300  1
  Zn  Zn16  1  0.36956400  0.29718400  0.78577800  1
  Zn  Zn17  1  0.79708700  0.36445500  0.28512900  1
  Zn  Zn18  1  0.80188200  0.72875600  0.03584700  1
  Zn  Zn19  1  0.86527500  0.22612100  0.03672100  1
  Zn  Zn20  1  0.30201800  0.72972400  0.03569700  1
  Zn  Zn21  1  0.72875600  0.80188200  0.53584700  1
  Zn  Zn22  1  0.23046700  0.36453400  0.53606800  1
  Zn  Zn23  1  0.72972400  0.30201800  0.53569700  1
  Zn  Zn24  1  0.86659600  0.24264600  0.78571200  1
  Zn  Zn25  1  0.29718400  0.36956400  0.28577800  1
  Zn  Zn26  1  0.22612100  0.86527500  0.53672100  1
  Zn  Zn27  1  0.86397300  0.74193100  0.78527500  1
  Zn  Zn28  1  0.36445500  0.79708700  0.78512900  1
  Zn  Zn29  1  0.36453400  0.23046700  0.03606800  1
  Zn  Zn30  1  0.74193100  0.86397300  0.28527500  1
  Zn  Zn31  1  0.24264600  0.86659600  0.28571200  1
  P  P32  1  0.11065700  0.23497100  0.47550200  1
  P  P33  1  0.74070600  0.11665000  0.72240800  1
  P  P34  1  0.23882300  0.17229400  0.72424300  1
  P  P35  1  0.11665000  0.74070600  0.22240800  1
  P  P36  1  0.17628300  0.61552400  0.97319400  1
  P  P37  1  0.67745700  0.61001700  0.97314000  1
  P  P38  1  0.61552400  0.17628300  0.47319400  1
  P  P39  1  0.73766100  0.61516900  0.72257200  1
  P  P40  1  0.17229400  0.23882300  0.22424300  1
  P  P41  1  0.23621700  0.67048300  0.72424300  1
  P  P42  1  0.23497100  0.11065700  0.97550200  1
  P  P43  1  0.67048300  0.23621700  0.22424300  1
  P  P44  1  0.61516900  0.73766100  0.22257200  1
  P  P45  1  0.11007600  0.73409100  0.47434200  1
  P  P46  1  0.61001700  0.67745700  0.47314000  1
  P  P47  1  0.73409100  0.11007600  0.97434200  1
  O  O48  1  0.51574600  0.39159000  0.23709700  1
  O  O49  1  0.14607100  0.64284600  0.05160400  1
  O  O50  1  0.26363900  0.82070900  0.71271200  1
  O  O51  1  0.07737800  0.88726700  0.48998300  1
  O  O52  1  0.20526800  0.77006800  0.89892000  1
  O  O53  1  0.95873600  0.75706800  0.46090900  1
  O  O54  1  0.14118000  0.58625700  0.30047500  1
  O  O55  1  0.64464100  0.64513900  0.04970600  1
  O  O56  1  0.26481300  0.20642100  0.39847500  1
  O  O57  1  0.88559900  0.59281800  0.73875000  1
  O  O58  1  0.52507300  0.58628800  0.98492700  1
  O  O59  1  0.38851400  0.07832200  0.99067500  1
  O  O60  1  0.01394000  0.39136400  0.23761800  1
  O  O61  1  0.76021100  0.71042600  0.39599700  1
  O  O62  1  0.64284600  0.14607100  0.55160400  1
  O  O63  1  0.26024100  0.96014200  0.96047500  1
  O  O64  1  0.77006800  0.20526800  0.39892000  1
  O  O65  1  0.83234800  0.45483500  0.96044000  1
  O  O66  1  0.77125200  0.69993100  0.14789700  1
  O  O67  1  0.58990400  0.02554200  0.48468800  1
  O  O68  1  0.07974900  0.14604900  0.05116000  1
  O  O69  1  0.02554200  0.58990400  0.98468800  1
  O  O70  1  0.45983000  0.77970800  0.20547600  1
  O  O71  1  0.09400000  0.88987900  0.23796800  1
  O  O72  1  0.15026000  0.57923900  0.54946100  1
  O  O73  1  0.14604900  0.07974900  0.55116000  1
  O  O74  1  0.59281800  0.88559900  0.23875000  1
  O  O75  1  0.96014200  0.26024100  0.46047500  1
  O  O76  1  0.57923900  0.15026000  0.04946100  1
  O  O77  1  0.77970800  0.45983000  0.70547600  1
  O  O78  1  0.77873400  0.96251200  0.70622600  1
  O  O79  1  0.58628800  0.52507300  0.48492700  1
  O  O80  1  0.63795400  0.58033700  0.29924100  1
  O  O81  1  0.88987900  0.09400000  0.73796800  1
  O  O82  1  0.58033700  0.63795400  0.79924100  1
  O  O83  1  0.64513900  0.64464100  0.54970600  1
  O  O84  1  0.64156700  0.08291500  0.30002000  1
  O  O85  1  0.71042600  0.76021100  0.89599700  1
  O  O86  1  0.08497500  0.14550400  0.80055700  1
  O  O87  1  0.70195300  0.20375500  0.14724700  1
  O  O88  1  0.20518700  0.20315000  0.14775900  1
  O  O89  1  0.69993100  0.77125200  0.64789700  1
  O  O90  1  0.31976000  0.27005200  0.21230700  1
  O  O91  1  0.75706800  0.95873600  0.96090900  1
  O  O92  1  0.45483500  0.83234800  0.46044000  1
  O  O93  1  0.20642100  0.26481300  0.89847500  1
  O  O94  1  0.26150700  0.70724900  0.39590200  1
  O  O95  1  0.45984700  0.33106300  0.45906200  1
  O  O96  1  0.88726700  0.07737800  0.98998300  1
  O  O97  1  0.33106300  0.45984700  0.95906200  1
  O  O98  1  0.08291500  0.64156700  0.80002000  1
  O  O99  1  0.96251200  0.77873400  0.20622600  1
  O  O100  1  0.82070900  0.26363900  0.21271200  1
  O  O101  1  0.27005200  0.31976000  0.71230700  1
  O  O102  1  0.07832200  0.38851400  0.49067500  1
  O  O103  1  0.58625700  0.14118000  0.80047500  1
  O  O104  1  0.70724900  0.26150700  0.89590200  1
  O  O105  1  0.27241000  0.70167200  0.14773700  1
  O  O106  1  0.20315000  0.20518700  0.64775900  1
  O  O107  1  0.14550400  0.08497500  0.30055700  1
  O  O108  1  0.70167200  0.27241000  0.64773700  1
  O  O109  1  0.39136400  0.01394000  0.73761800  1
  O  O110  1  0.39159000  0.51574600  0.73709700  1
  O  O111  1  0.20375500  0.70195300  0.64724700  1
