# generated using pymatgen
data_NaAg(NO2)2
_symmetry_space_group_name_H-M   'P 1'
_cell_length_a   7.75557366
_cell_length_b   6.95018417
_cell_length_c   6.76678897
_cell_angle_alpha   68.84517087
_cell_angle_beta   56.69510269
_cell_angle_gamma   54.45972645
_symmetry_Int_Tables_number   1
_chemical_formula_structural   NaAg(NO2)2
_chemical_formula_sum   'Na2 Ag2 N4 O8'
_cell_volume   247.58495199
_cell_formula_units_Z   2
loop_
 _symmetry_equiv_pos_site_id
 _symmetry_equiv_pos_as_xyz
  1  'x, y, z'
loop_
 _atom_site_type_symbol
 _atom_site_label
 _atom_site_symmetry_multiplicity
 _atom_site_fract_x
 _atom_site_fract_y
 _atom_site_fract_z
 _atom_site_occupancy
  Na  Na0  1  0.75085700  0.74964900  0.74223600  1
  Na  Na1  1  0.50088400  0.49624800  0.49420400  1
  Ag  Ag2  1  0.24667700  0.24868600  0.25881900  1
  Ag  Ag3  1  0.99512300  0.99626900  0.00634800  1
  N  N4  1  0.51072400  0.98521100  0.52262500  1
  N  N5  1  0.98579300  0.52297000  0.97696400  1
  N  N6  1  0.80110000  0.20633700  0.79043000  1
  N  N7  1  0.19323400  0.80152800  0.20711300  1
  O  O8  1  0.69860500  0.11711800  0.78041700  1
  O  O9  1  0.40515400  0.91958500  0.50253500  1
  O  O10  1  0.39539600  0.77491400  0.13298300  1
  O  O11  1  0.92298300  0.39328600  0.16966700  1
  O  O12  1  0.16398900  0.51523600  0.91788100  1
  O  O13  1  0.76879000  0.40707000  0.69697600  1
  O  O14  1  0.12671900  0.70340400  0.39945700  1
  O  O15  1  0.51664500  0.17330700  0.39335800  1
