# generated using pymatgen
data_Na2CdO2
_symmetry_space_group_name_H-M   'P 1'
_cell_length_a   9.23375225
_cell_length_b   9.26597256
_cell_length_c   9.24465506
_cell_angle_alpha   109.44133477
_cell_angle_beta   109.57410493
_cell_angle_gamma   109.45063258
_symmetry_Int_Tables_number   1
_chemical_formula_structural   Na2CdO2
_chemical_formula_sum   'Na16 Cd8 O16'
_cell_volume   608.49396671
_cell_formula_units_Z   8
loop_
 _symmetry_equiv_pos_site_id
 _symmetry_equiv_pos_as_xyz
  1  'x, y, z'
loop_
 _atom_site_type_symbol
 _atom_site_label
 _atom_site_symmetry_multiplicity
 _atom_site_fract_x
 _atom_site_fract_y
 _atom_site_fract_z
 _atom_site_occupancy
  Na  Na0  1  0.03477740  0.49206491  0.76990091  1
  Na  Na1  1  0.23149503  0.96692092  0.50955444  1
  Na  Na2  1  0.22294655  0.27487373  0.73495105  1
  Na  Na3  1  0.00724241  0.04373672  0.26813589  1
  Na  Na4  1  0.22415114  0.44819939  0.46364032  1
  Na  Na5  1  0.04290993  0.27309413  0.00832918  1
  Na  Na6  1  0.28269438  0.74778441  0.23836904  1
  Na  Na7  1  0.73046020  0.98474837  0.94871331  1
  Na  Na8  1  0.53068730  0.75858644  0.54266430  1
  Na  Na9  1  0.49668623  0.23634541  0.95372191  1
  Na  Na10  1  0.49041587  0.77024663  0.04213408  1
  Na  Na11  1  0.44949629  0.45636839  0.22606729  1
  Na  Na12  1  0.27991381  0.01696224  0.04908123  1
  Na  Na13  1  0.73172572  0.26866413  0.78567972  1
  Na  Na14  1  0.97235004  0.73835302  0.99969904  1
  Na  Na15  1  0.77680356  0.54774111  0.53538531  1
  Cd  Cd16  1  0.26672698  0.77055403  0.72896992  1
  Cd  Cd17  1  0.54448727  0.54136436  0.78089100  1
  Cd  Cd18  1  0.45612345  0.22494373  0.45187701  1
  Cd  Cd19  1  0.00119770  0.96154390  0.73959101  1
  Cd  Cd20  1  0.76794721  0.71905773  0.25494134  1
  Cd  Cd21  1  0.72770729  0.21656018  0.25876995  1
  Cd  Cd22  1  0.74985052  0.02944159  0.48973767  1
  Cd  Cd23  1  0.97242059  0.51398311  0.23323729  1
  O  O24  1  0.04272133  0.75504560  0.77920244  1
  O  O25  1  0.22571995  0.97558210  0.25746129  1
  O  O26  1  0.98261685  0.98857751  0.49413990  1
  O  O27  1  0.28958526  0.54328698  0.75371498  1
  O  O28  1  0.24426029  0.71446216  0.47109134  1
  O  O29  1  0.24424714  0.21232872  0.95973799  1
  O  O30  1  0.46733445  0.26232306  0.71179171  1
  O  O31  1  0.50524441  0.49384279  0.50930947  1
  O  O32  1  0.54559231  0.75033880  0.29053325  1
  O  O33  1  0.74996204  0.77628188  0.03613893  1
  O  O34  1  0.74017424  0.27089681  0.51572880  1
  O  O35  1  0.72349075  0.46661051  0.24720646  1
  O  O36  1  0.50184748  0.00133381  0.99329412  1
  O  O37  1  0.78807750  0.02795208  0.74137306  1
  O  O38  1  0.95375040  0.25234074  0.21577835  1
  O  O39  1  0.00415976  0.50666084  0.00945371  1
