# generated using pymatgen
data_PdF4
_symmetry_space_group_name_H-M   'P 1'
_cell_length_a   6.69143110
_cell_length_b   5.64944079
_cell_length_c   5.58209408
_cell_angle_alpha   73.13255756
_cell_angle_beta   53.89688145
_cell_angle_gamma   52.97056099
_symmetry_Int_Tables_number   1
_chemical_formula_structural   PdF4
_chemical_formula_sum   'Pd2 F8'
_cell_volume   135.42378856
_cell_formula_units_Z   2
loop_
 _symmetry_equiv_pos_site_id
 _symmetry_equiv_pos_as_xyz
  1  'x, y, z'
loop_
 _atom_site_type_symbol
 _atom_site_label
 _atom_site_symmetry_multiplicity
 _atom_site_fract_x
 _atom_site_fract_y
 _atom_site_fract_z
 _atom_site_occupancy
  Pd  Pd0  1  0.25640900  0.24913700  0.23720700  1
  Pd  Pd1  1  0.01468700  0.99257200  0.99130600  1
  F  F2  1  0.41825500  0.76526500  0.79475700  1
  F  F3  1  0.02626300  0.79531000  0.75377300  1
  F  F4  1  0.01568300  0.29651300  0.69240600  1
  F  F5  1  0.98271400  0.70764600  0.29705700  1
  F  F6  1  0.55396500  0.25766700  0.23718200  1
  F  F7  1  0.94825600  0.23438000  0.26466500  1
  F  F8  1  0.49420900  0.82669700  0.22792100  1
  F  F9  1  0.45563900  0.23132500  0.83140300  1
