# generated using pymatgen
data_Ba(H8O5)2
_symmetry_space_group_name_H-M   'P 1'
_cell_length_a   6.44560250
_cell_length_b   6.44560250
_cell_length_c   11.18765057
_cell_angle_alpha   90.20317141
_cell_angle_beta   90.20317141
_cell_angle_gamma   90.00781554
_symmetry_Int_Tables_number   1
_chemical_formula_structural   Ba(H8O5)2
_chemical_formula_sum   'Ba2 H32 O20'
_cell_volume   464.79394966
_cell_formula_units_Z   2
loop_
 _symmetry_equiv_pos_site_id
 _symmetry_equiv_pos_as_xyz
  1  'x, y, z'
loop_
 _atom_site_type_symbol
 _atom_site_label
 _atom_site_symmetry_multiplicity
 _atom_site_fract_x
 _atom_site_fract_y
 _atom_site_fract_z
 _atom_site_occupancy
  Ba  Ba0  1  0.00129752  0.99870248  0.75000000  1
  Ba  Ba1  1  0.99870248  0.00129752  0.25000000  1
  H  H2  1  0.71814913  0.59766096  0.64427133  1
  H  H3  1  0.84955866  0.66639040  0.53057322  1
  H  H4  1  0.27655283  0.40557113  0.64867006  1
  H  H5  1  0.03677686  0.46113744  0.62946567  1
  H  H6  1  0.40291348  0.71964075  0.64507649  1
  H  H7  1  0.33319595  0.85000756  0.53112778  1
  H  H8  1  0.54138052  0.03748018  0.62890370  1
  H  H9  1  0.59546145  0.27759978  0.64788981  1
  H  H10  1  0.27759978  0.59546145  0.14788981  1
  H  H11  1  0.03748018  0.54138052  0.12890370  1
  H  H12  1  0.71964075  0.40291348  0.14507649  1
  H  H13  1  0.85000756  0.33319595  0.03112778  1
  H  H14  1  0.59766096  0.71814913  0.14427133  1
  H  H15  1  0.66639040  0.84955866  0.03057322  1
  H  H16  1  0.40557113  0.27655283  0.14867006  1
  H  H17  1  0.46113744  0.03677686  0.12946567  1
  H  H18  1  0.28185087  0.40233904  0.35572867  1
  H  H19  1  0.15044134  0.33360960  0.46942678  1
  H  H20  1  0.72344717  0.59442887  0.35132994  1
  H  H21  1  0.96322314  0.53886256  0.37053433  1
  H  H22  1  0.59708652  0.28035925  0.35492351  1
  H  H23  1  0.66680405  0.14999244  0.46887222  1
  H  H24  1  0.45861948  0.96251982  0.37109630  1
  H  H25  1  0.40453855  0.72240022  0.35211019  1
  H  H26  1  0.96251982  0.45861948  0.87109630  1
  H  H27  1  0.72240022  0.40453855  0.85211019  1
  H  H28  1  0.28035925  0.59708652  0.85492351  1
  H  H29  1  0.14999244  0.66680405  0.96887222  1
  H  H30  1  0.40233904  0.28185087  0.85572867  1
  H  H31  1  0.33360960  0.15044134  0.96942678  1
  H  H32  1  0.53886256  0.96322314  0.87053433  1
  H  H33  1  0.59442887  0.72344717  0.85132994  1
  O  O34  1  0.49892816  0.49754374  0.68377243  1
  O  O35  1  0.49754374  0.49892816  0.18377243  1
  O  O36  1  0.50107184  0.50245626  0.31622757  1
  O  O37  1  0.50245626  0.50107184  0.81622757  1
  O  O38  1  0.85526388  0.65747811  0.61892355  1
  O  O39  1  0.13829714  0.34616863  0.62333374  1
  O  O40  1  0.34259575  0.85666052  0.61958085  1
  O  O41  1  0.65511289  0.13998206  0.62197522  1
  O  O42  1  0.13998206  0.65511289  0.12197522  1
  O  O43  1  0.85666052  0.34259575  0.11958085  1
  O  O44  1  0.65747811  0.85526388  0.11892355  1
  O  O45  1  0.34616863  0.13829714  0.12333374  1
  O  O46  1  0.14473612  0.34252189  0.38107645  1
  O  O47  1  0.86170286  0.65383137  0.37666626  1
  O  O48  1  0.65740425  0.14333948  0.38041915  1
  O  O49  1  0.34488711  0.86001794  0.37802478  1
  O  O50  1  0.86001794  0.34488711  0.87802478  1
  O  O51  1  0.14333948  0.65740425  0.88041915  1
  O  O52  1  0.34252189  0.14473612  0.88107645  1
  O  O53  1  0.65383137  0.86170286  0.87666626  1
