# generated using pymatgen
data_Zn(BH4)2
_symmetry_space_group_name_H-M   'P 1'
_cell_length_a   4.20355101
_cell_length_b   5.61882269
_cell_length_c   8.00221050
_cell_angle_alpha   90.00000000
_cell_angle_beta   90.00000000
_cell_angle_gamma   90.00000000
_symmetry_Int_Tables_number   1
_chemical_formula_structural   Zn(BH4)2
_chemical_formula_sum   'Zn2 B4 H16'
_cell_volume   189.00427217
_cell_formula_units_Z   2
loop_
 _symmetry_equiv_pos_site_id
 _symmetry_equiv_pos_as_xyz
  1  'x, y, z'
loop_
 _atom_site_type_symbol
 _atom_site_label
 _atom_site_symmetry_multiplicity
 _atom_site_fract_x
 _atom_site_fract_y
 _atom_site_fract_z
 _atom_site_occupancy
  Zn  Zn0  1  -0.00000000  0.30149880  0.01018612  1
  Zn  Zn1  1  -0.00000000  0.69850120  0.51018612  1
  B  B2  1  0.50000000  0.89590039  0.47245564  1
  B  B3  1  -0.00000000  0.53564403  0.24642414  1
  B  B4  1  -0.00000000  0.46435597  0.74642414  1
  B  B5  1  0.50000000  0.10409961  0.97245564  1
  H  H6  1  0.50000000  0.30802779  0.92157038  1
  H  H7  1  0.72339772  0.06445325  0.07072809  1
  H  H8  1  0.75245038  0.48064915  0.17779620  1
  H  H9  1  -0.00000000  0.24872016  0.75384098  1
  H  H10  1  -0.00000000  0.42391175  0.37957196  1
  H  H11  1  0.24754962  0.48064915  0.17779620  1
  H  H12  1  0.27660228  0.06445325  0.07072809  1
  H  H13  1  -0.00000000  0.75127984  0.25384098  1
  H  H14  1  0.50000000  0.03502812  0.35994621  1
  H  H15  1  0.24754962  0.51935085  0.67779620  1
  H  H16  1  0.50000000  0.96497188  0.85994621  1
  H  H17  1  0.50000000  0.69197221  0.42157038  1
  H  H18  1  -0.00000000  0.57608825  0.87957196  1
  H  H19  1  0.72339772  0.93554675  0.57072809  1
  H  H20  1  0.27660228  0.93554675  0.57072809  1
  H  H21  1  0.75245038  0.51935085  0.67779620  1
