# generated using pymatgen
data_Bi14MoO24
_symmetry_space_group_name_H-M   'P 1'
_cell_length_a   8.71499705
_cell_length_b   8.74164288
_cell_length_c   10.54621914
_cell_angle_alpha   114.23333629
_cell_angle_beta   114.26283792
_cell_angle_gamma   89.74103282
_symmetry_Int_Tables_number   1
_chemical_formula_structural   Bi14MoO24
_chemical_formula_sum   'Bi14 Mo1 O24'
_cell_volume   654.78406160
_cell_formula_units_Z   1
loop_
 _symmetry_equiv_pos_site_id
 _symmetry_equiv_pos_as_xyz
  1  'x, y, z'
loop_
 _atom_site_type_symbol
 _atom_site_label
 _atom_site_symmetry_multiplicity
 _atom_site_fract_x
 _atom_site_fract_y
 _atom_site_fract_z
 _atom_site_occupancy
  Bi  Bi0  1  0.12418634  0.94525165  0.65885970  1
  Bi  Bi1  1  0.05222125  0.46972450  0.33539462  1
  Bi  Bi2  1  0.34440560  0.34353363  0.68267890  1
  Bi  Bi3  1  0.26746406  0.87296193  0.32967718  1
  Bi  Bi4  1  0.20947881  0.44858637  0.99526255  1
  Bi  Bi5  1  0.52473680  0.72255000  0.65406027  1
  Bi  Bi6  1  0.45880899  0.28133732  0.33133180  1
  Bi  Bi7  1  0.44026068  0.78952847  0.99616438  1
  Bi  Bi8  1  0.71502633  0.13167651  0.65720006  1
  Bi  Bi9  1  0.65223247  0.65997238  0.31741105  1
  Bi  Bi10  1  0.55551671  0.21781097  0.00121505  1
  Bi  Bi11  1  0.93211024  0.53229834  0.65370286  1
  Bi  Bi12  1  0.86613391  0.06168731  0.33165323  1
  Bi  Bi13  1  0.78699076  0.56084840  0.00166074  1
  Mo  Mo14  1  0.98249429  0.97398240  0.96723474  1
  O  O15  1  0.19779293  0.06267921  0.03169632  1
  O  O16  1  0.99569164  0.33341651  0.49594372  1
  O  O17  1  0.23497037  0.55045524  0.84084412  1
  O  O18  1  0.29448384  0.24646459  0.84144446  1
  O  O19  1  0.17299113  0.01038860  0.50445270  1
  O  O20  1  0.10922332  0.62903688  0.23893484  1
  O  O21  1  0.37506805  0.88213441  0.75571252  1
  O  O22  1  0.32499885  0.50625423  0.50473280  1
  O  O23  1  0.54285931  0.60594316  0.84124521  1
  O  O24  1  0.59661077  0.29879657  0.84006196  1
  O  O25  1  0.48493696  0.82071969  0.48122665  1
  O  O26  1  0.49745838  0.18653689  0.50854352  1
  O  O27  1  0.38934655  0.70376280  0.15150503  1
  O  O28  1  0.45066154  0.40513213  0.15733009  1
  O  O29  1  0.87208441  0.13094050  0.04021798  1
  O  O30  1  0.66230970  0.49952776  0.48123229  1
  O  O31  1  0.61499086  0.12300004  0.23757628  1
  O  O32  1  0.87520214  0.37774011  0.75326049  1
  O  O33  1  0.88222630  0.88541789  0.76187764  1
  O  O34  1  0.81957385  0.00192227  0.48758127  1
  O  O35  1  0.69823826  0.76530145  0.15341752  1
  O  O36  1  0.75352316  0.46033024  0.16042964  1
  O  O37  1  0.99049048  0.67273577  0.49042642  1
  O  O38  1  0.97559695  0.80801187  0.02159942  1
