# generated using pymatgen
data_Ti(TlS)4
_symmetry_space_group_name_H-M   'P 1'
_cell_length_a   8.45291600
_cell_length_b   8.56161800
_cell_length_c   15.84343105
_cell_angle_alpha   74.32914294
_cell_angle_beta   90.00000000
_cell_angle_gamma   90.00000000
_symmetry_Int_Tables_number   1
_chemical_formula_structural   Ti(TlS)4
_chemical_formula_sum   'Ti4 Tl16 S16'
_cell_volume   1103.97926903
_cell_formula_units_Z   4
loop_
 _symmetry_equiv_pos_site_id
 _symmetry_equiv_pos_as_xyz
  1  'x, y, z'
loop_
 _atom_site_type_symbol
 _atom_site_label
 _atom_site_symmetry_multiplicity
 _atom_site_fract_x
 _atom_site_fract_y
 _atom_site_fract_z
 _atom_site_occupancy
  Ti  Ti0  1  0.11721400  0.79033100  0.37890100  1
  Ti  Ti1  1  0.60659900  0.21190800  0.12252300  1
  Ti  Ti2  1  0.89226300  0.20558100  0.62106800  1
  Ti  Ti3  1  0.38814300  0.78963800  0.87498800  1
  Tl  Tl4  1  0.27339400  0.38337000  0.64393000  1
  Tl  Tl5  1  0.77937500  0.61728800  0.86096000  1
  Tl  Tl6  1  0.71946800  0.61924900  0.35686600  1
  Tl  Tl7  1  0.21770800  0.38662500  0.14000200  1
  Tl  Tl8  1  0.10299900  0.82090700  0.62114500  1
  Tl  Tl9  1  0.59669600  0.17787200  0.87980700  1
  Tl  Tl10  1  0.89575000  0.17770700  0.37831300  1
  Tl  Tl11  1  0.40230500  0.81904600  0.12106200  1
  Tl  Tl12  1  0.67947900  0.58578500  0.61078800  1
  Tl  Tl13  1  0.18329600  0.40718300  0.89345900  1
  Tl  Tl14  1  0.31757500  0.40759800  0.39383500  1
  Tl  Tl15  1  0.82054200  0.59112700  0.10669400  1
  Tl  Tl16  1  0.51142100  0.96900200  0.63489400  1
  Tl  Tl17  1  0.01139900  0.03080300  0.86730000  1
  Tl  Tl18  1  0.48850300  0.02641900  0.36412900  1
  Tl  Tl19  1  0.99536200  0.97634700  0.13072900  1
  S  S20  1  0.88790100  0.81655500  0.45977700  1
  S  S21  1  0.39649000  0.18004200  0.03904100  1
  S  S22  1  0.10396600  0.17847500  0.54102200  1
  S  S23  1  0.61048500  0.81961000  0.96020800  1
  S  S24  1  0.32383200  0.70514300  0.46028700  1
  S  S25  1  0.82259100  0.29490300  0.03935600  1
  S  S26  1  0.67587400  0.30199500  0.53383700  1
  S  S27  1  0.17982400  0.70145700  0.96452600  1
  S  S28  1  0.05470900  0.62194300  0.29740100  1
  S  S29  1  0.55975300  0.38056700  0.20257300  1
  S  S30  1  0.94253400  0.37802600  0.70635600  1
  S  S31  1  0.44483100  0.61399200  0.79910800  1
  S  S32  1  0.16787500  0.04558900  0.28543700  1
  S  S33  1  0.66879400  0.95942500  0.21415600  1
  S  S34  1  0.83028700  0.95161200  0.71284600  1
  S  S35  1  0.33017800  0.04256600  0.78544200  1
