# generated using pymatgen
data_Na3PH24SO15
_symmetry_space_group_name_H-M   'P 1'
_cell_length_a   13.75801386
_cell_length_b   13.75801386
_cell_length_c   13.75801316
_cell_angle_alpha   39.39458356
_cell_angle_beta   39.39458356
_cell_angle_gamma   39.39458366
_symmetry_Int_Tables_number   1
_chemical_formula_structural   Na3PH24SO15
_chemical_formula_sum   'Na6 P2 H48 S2 O30'
_cell_volume   944.02131687
_cell_formula_units_Z   2
loop_
 _symmetry_equiv_pos_site_id
 _symmetry_equiv_pos_as_xyz
  1  'x, y, z'
loop_
 _atom_site_type_symbol
 _atom_site_label
 _atom_site_symmetry_multiplicity
 _atom_site_fract_x
 _atom_site_fract_y
 _atom_site_fract_z
 _atom_site_occupancy
  Na  Na0  1  0.76558100  0.76558100  0.76558100  1
  Na  Na1  1  0.62371500  0.62371500  0.62371500  1
  Na  Na2  1  0.37628500  0.37628500  0.37628500  1
  Na  Na3  1  0.23441900  0.23441900  0.23441900  1
  Na  Na4  1  0.15187100  0.15187100  0.15187100  1
  Na  Na5  1  0.84812900  0.84812900  0.84812900  1
  P  P6  1  0.47259000  0.47259000  0.47259000  1
  P  P7  1  0.52741000  0.52741000  0.52741000  1
  H  H8  1  0.12369300  0.55061900  0.73810900  1
  H  H9  1  0.73810900  0.12369300  0.55061900  1
  H  H10  1  0.15725600  0.44212000  0.63959300  1
  H  H11  1  0.55061900  0.73810900  0.12369300  1
  H  H12  1  0.17165400  0.19444900  0.76216100  1
  H  H13  1  0.63959300  0.15725600  0.44212000  1
  H  H14  1  0.59034300  0.02283600  0.53306400  1
  H  H15  1  0.44212000  0.63959300  0.15725600  1
  H  H16  1  0.02283600  0.53306400  0.59034300  1
  H  H17  1  0.76216100  0.17165400  0.19444900  1
  H  H18  1  0.19444900  0.76216100  0.17165400  1
  H  H19  1  0.82834600  0.23783900  0.80555100  1
  H  H20  1  0.53306400  0.59034300  0.02283600  1
  H  H21  1  0.21306200  0.99333300  0.67580700  1
  H  H22  1  0.46693600  0.97716400  0.40965700  1
  H  H23  1  0.97716400  0.40965700  0.46693600  1
  H  H24  1  0.84274400  0.36040700  0.55788000  1
  H  H25  1  0.99333300  0.67580700  0.21306200  1
  H  H26  1  0.80555100  0.82834600  0.23783900  1
  H  H27  1  0.11833200  0.89682100  0.71387100  1
  H  H28  1  0.67580700  0.21306200  0.99333300  1
  H  H29  1  0.55788000  0.84274400  0.36040700  1
  H  H30  1  0.40965700  0.46693600  0.97716400  1
  H  H31  1  0.20824900  0.80269700  0.61943000  1
  H  H32  1  0.23783900  0.80555100  0.82834600  1
  H  H33  1  0.02093600  0.08185700  0.51140500  1
  H  H34  1  0.89682100  0.71387100  0.11833200  1
  H  H35  1  0.87630700  0.26189100  0.44938100  1
  H  H36  1  0.36040700  0.55788000  0.84274400  1
  H  H37  1  0.80269700  0.61943000  0.20824900  1
  H  H38  1  0.44938100  0.87630700  0.26189100  1
  H  H39  1  0.71387100  0.11833200  0.89682100  1
  H  H40  1  0.51140500  0.02093600  0.08185700  1
  H  H41  1  0.08185700  0.51140500  0.02093600  1
  H  H42  1  0.26189100  0.44938100  0.87630700  1
  H  H43  1  0.91814300  0.97906400  0.48859500  1
  H  H44  1  0.61943000  0.20824900  0.80269700  1
  H  H45  1  0.19730300  0.79175100  0.38057000  1
  H  H46  1  0.79175100  0.38057000  0.19730300  1
  H  H47  1  0.48859500  0.91814300  0.97906400  1
  H  H48  1  0.10317900  0.88166800  0.28612900  1
  H  H49  1  0.97906400  0.48859500  0.91814300  1
  H  H50  1  0.88166800  0.28612900  0.10317900  1
  H  H51  1  0.38057000  0.19730300  0.79175100  1
  H  H52  1  0.00666700  0.78693800  0.32419300  1
  H  H53  1  0.28612900  0.10317900  0.88166800  1
  H  H54  1  0.78693800  0.32419300  0.00666700  1
  H  H55  1  0.32419300  0.00666700  0.78693800  1
  S  S56  1  0.69360200  0.69360200  0.69360200  1
  S  S57  1  0.30639800  0.30639800  0.30639800  1
  O  O58  1  0.13356000  0.42828000  0.60059200  1
  O  O59  1  0.56233900  0.86419900  0.70468300  1
  O  O60  1  0.86419900  0.70468300  0.56233900  1
  O  O61  1  0.60059200  0.13356000  0.42828000  1
  O  O62  1  0.42828000  0.60059200  0.13356000  1
  O  O63  1  0.70468300  0.56233900  0.86419900  1
  O  O64  1  0.86644000  0.39940800  0.57172000  1
  O  O65  1  0.29531700  0.13580100  0.43766100  1
  O  O66  1  0.13580100  0.43766100  0.29531700  1
  O  O67  1  0.57172000  0.86644000  0.39940800  1
  O  O68  1  0.43766100  0.29531700  0.13580100  1
  O  O69  1  0.09715000  0.88412200  0.66739900  1
  O  O70  1  0.39940800  0.57172000  0.86644000  1
  O  O71  1  0.99882700  0.18880500  0.40965400  1
  O  O72  1  0.88412200  0.66739900  0.09715000  1
  O  O73  1  0.40965400  0.99882700  0.18880500  1
  O  O74  1  0.18880500  0.40965400  0.99882700  1
  O  O75  1  0.66739900  0.09715000  0.88412200  1
  O  O76  1  0.81119500  0.00117300  0.59034600  1
  O  O77  1  0.11587800  0.90285000  0.33260100  1
  O  O78  1  0.90285000  0.33260100  0.11587800  1
  O  O79  1  0.59034600  0.81119500  0.00117300  1
  O  O80  1  0.00117300  0.59034600  0.81119500  1
  O  O81  1  0.33260100  0.11587800  0.90285000  1
  O  O82  1  0.08438400  0.84089000  0.22329100  1
  O  O83  1  0.84089000  0.22329100  0.08438400  1
  O  O84  1  0.22329100  0.08438400  0.84089000  1
  O  O85  1  0.91561600  0.77670900  0.15911000  1
  O  O86  1  0.77670900  0.15911000  0.91561600  1
  O  O87  1  0.15911000  0.91561600  0.77670900  1
