# generated using pymatgen
data_In2(PSe3)3
_symmetry_space_group_name_H-M   'P 1'
_cell_length_a   7.90754404
_cell_length_b   11.17022880
_cell_length_c   17.72661039
_cell_angle_alpha   96.14984164
_cell_angle_beta   89.59961058
_cell_angle_gamma   103.77069645
_symmetry_Int_Tables_number   1
_chemical_formula_structural   In2(PSe3)3
_chemical_formula_sum   'In8 P12 Se36'
_cell_volume   1511.73901237
_cell_formula_units_Z   4
loop_
 _symmetry_equiv_pos_site_id
 _symmetry_equiv_pos_as_xyz
  1  'x, y, z'
loop_
 _atom_site_type_symbol
 _atom_site_label
 _atom_site_symmetry_multiplicity
 _atom_site_fract_x
 _atom_site_fract_y
 _atom_site_fract_z
 _atom_site_occupancy
  In  In0  1  0.17401436  0.64869167  0.82386778  1
  In  In1  1  0.32528486  0.14994954  0.67545831  1
  In  In2  1  0.48861539  0.67660278  0.50777591  1
  In  In3  1  0.51138461  0.32339722  0.49222409  1
  In  In4  1  0.00800284  0.17699664  0.99166985  1
  In  In5  1  0.82598564  0.35130833  0.17613222  1
  In  In6  1  0.99199716  0.82300336  0.00833015  1
  In  In7  1  0.67471514  0.85005046  0.32454169  1
  P  P8  1  0.86868923  0.47667195  0.97043641  1
  P  P9  1  0.47092878  0.51991659  0.69150448  1
  P  P10  1  0.20013015  0.45997120  0.64057483  1
  P  P11  1  0.79986985  0.54002880  0.35942517  1
  P  P12  1  0.36795066  0.96823911  0.47111828  1
  P  P13  1  0.52907122  0.48008341  0.30849552  1
  P  P14  1  0.96751085  0.03475236  0.19150596  1
  P  P15  1  0.13131077  0.52332805  0.02956359  1
  P  P16  1  0.69735417  0.98551507  0.14018553  1
  P  P17  1  0.30264583  0.01448493  0.85981447  1
  P  P18  1  0.03248915  0.96524764  0.80849404  1
  P  P19  1  0.63204934  0.03176089  0.52888172  1
  Se  Se20  1  0.26297022  0.69978402  0.98527940  1
  Se  Se21  1  0.90782403  0.44710583  0.84934244  1
  Se  Se22  1  0.59302723  0.36476843  0.65118582  1
  Se  Se23  1  0.73260493  0.61653704  0.01537492  1
  Se  Se24  1  0.59722898  0.69888506  0.65488078  1
  Se  Se25  1  0.44041431  0.52764490  0.81340936  1
  Se  Se26  1  0.24050108  0.45201774  0.51536193  1
  Se  Se27  1  0.07303116  0.28287462  0.67834398  1
  Se  Se28  1  0.92873184  0.39201276  0.32602501  1
  Se  Se29  1  0.07126816  0.60798724  0.67397499  1
  Se  Se30  1  0.76695239  0.19921071  0.48030314  1
  Se  Se31  1  0.92696884  0.71712538  0.32165602  1
  Se  Se32  1  0.75949892  0.54798226  0.48463807  1
  Se  Se33  1  0.40290866  0.96441387  0.34955853  1
  Se  Se34  1  0.55958569  0.47235510  0.18659064  1
  Se  Se35  1  0.40277102  0.30111494  0.34511922  1
  Se  Se36  1  0.09381611  0.88553398  0.15610171  1
  Se  Se37  1  0.26739507  0.38346296  0.98462508  1
  Se  Se38  1  0.23802967  0.11725571  0.51376938  1
  Se  Se39  1  0.40697277  0.63523157  0.34881418  1
  Se  Se40  1  0.09212356  0.21628865  0.15071164  1
  Se  Se41  1  0.93448330  0.06022750  0.31330920  1
  Se  Se42  1  0.09217597  0.55289417  0.15065756  1
  Se  Se43  1  0.73967356  0.96304579  0.01516471  1
  Se  Se44  1  0.56899106  0.80608382  0.17475251  1
  Se  Se45  1  0.73702978  0.30021598  0.01472060  1
  Se  Se46  1  0.42806450  0.86568178  0.82349969  1
  Se  Se47  1  0.57193550  0.13431822  0.17650031  1
  Se  Se48  1  0.43100894  0.19391618  0.82524749  1
  Se  Se49  1  0.26032644  0.03695421  0.98483529  1
  Se  Se50  1  0.06551670  0.93977250  0.68669080  1
  Se  Se51  1  0.90787644  0.78371135  0.84928836  1
  Se  Se52  1  0.76197033  0.88274429  0.48623062  1
  Se  Se53  1  0.90618389  0.11446602  0.84389829  1
  Se  Se54  1  0.59709134  0.03558613  0.65044147  1
  Se  Se55  1  0.23304761  0.80078929  0.51969686  1
