# generated using pymatgen
data_Pb3(IO)2
_symmetry_space_group_name_H-M   'P 1'
_cell_length_a   5.98228382
_cell_length_b   7.67606888
_cell_length_c   18.12187985
_cell_angle_alpha   90.00000000
_cell_angle_beta   90.00000000
_cell_angle_gamma   90.00000000
_symmetry_Int_Tables_number   1
_chemical_formula_structural   Pb3(IO)2
_chemical_formula_sum   'Pb12 I8 O8'
_cell_volume   832.16438214
_cell_formula_units_Z   4
loop_
 _symmetry_equiv_pos_site_id
 _symmetry_equiv_pos_as_xyz
  1  'x, y, z'
loop_
 _atom_site_type_symbol
 _atom_site_label
 _atom_site_symmetry_multiplicity
 _atom_site_fract_x
 _atom_site_fract_y
 _atom_site_fract_z
 _atom_site_occupancy
  Pb  Pb0  1  0.75000000  0.02313673  0.15958674  1
  Pb  Pb1  1  0.75000000  0.47686327  0.65958674  1
  Pb  Pb2  1  0.75000000  0.64756272  0.47256196  1
  Pb  Pb3  1  0.25000000  0.14756272  0.02743804  1
  Pb  Pb4  1  0.25000000  0.35243728  0.52743804  1
  Pb  Pb5  1  0.75000000  0.21467180  0.39451722  1
  Pb  Pb6  1  0.75000000  0.28532820  0.89451722  1
  Pb  Pb7  1  0.25000000  0.71467180  0.10548278  1
  Pb  Pb8  1  0.25000000  0.52313673  0.34041326  1
  Pb  Pb9  1  0.25000000  0.78532820  0.60548278  1
  Pb  Pb10  1  0.75000000  0.85243728  0.97256196  1
  Pb  Pb11  1  0.25000000  0.97686327  0.84041326  1
  I  I12  1  0.75000000  0.40307236  0.06458437  1
  I  I13  1  0.25000000  0.59692764  0.93541563  1
  I  I14  1  0.25000000  0.32500613  0.74103959  1
  I  I15  1  0.75000000  0.09692764  0.56458437  1
  I  I16  1  0.25000000  0.17499387  0.24103959  1
  I  I17  1  0.75000000  0.67499387  0.25896041  1
  I  I18  1  0.25000000  0.90307236  0.43541563  1
  I  I19  1  0.75000000  0.82500613  0.75896041  1
  O  O20  1  0.00006260  0.91915632  0.07379595  1
  O  O21  1  0.50006260  0.08084368  0.92620405  1
  O  O22  1  0.50006260  0.41915632  0.42620405  1
  O  O23  1  0.49993740  0.58084368  0.57379595  1
  O  O24  1  0.00006260  0.58084368  0.57379595  1
  O  O25  1  0.49993740  0.91915632  0.07379595  1
  O  O26  1  -0.00006260  0.08084368  0.92620405  1
  O  O27  1  -0.00006260  0.41915632  0.42620405  1
