# generated using pymatgen
data_Te(HO2)2
_symmetry_space_group_name_H-M   'P 1'
_cell_length_a   4.85307420
_cell_length_b   5.22485861
_cell_length_c   5.89496330
_cell_angle_alpha   63.85182013
_cell_angle_beta   90.00000000
_cell_angle_gamma   90.00000000
_symmetry_Int_Tables_number   1
_chemical_formula_structural   Te(HO2)2
_chemical_formula_sum   'Te2 H4 O8'
_cell_volume   134.17856833
_cell_formula_units_Z   2
loop_
 _symmetry_equiv_pos_site_id
 _symmetry_equiv_pos_as_xyz
  1  'x, y, z'
loop_
 _atom_site_type_symbol
 _atom_site_label
 _atom_site_symmetry_multiplicity
 _atom_site_fract_x
 _atom_site_fract_y
 _atom_site_fract_z
 _atom_site_occupancy
  Te  Te0  1  0.50000000  0.50000000  -0.00000000  1
  Te  Te1  1  -0.00000000  -0.00000000  -0.00000000  1
  H  H2  1  0.74031733  0.19800434  0.39159521  1
  H  H3  1  0.24031733  0.30199566  0.60840479  1
  H  H4  1  0.25968267  0.80199566  0.60840479  1
  H  H5  1  0.75968267  0.69800434  0.39159521  1
  O  O6  1  0.63502969  0.37603560  0.33659813  1
  O  O7  1  0.13502969  0.12396440  0.66340187  1
  O  O8  1  0.36497031  0.62396440  0.66340187  1
  O  O9  1  0.86497031  0.87603560  0.33659813  1
  O  O10  1  0.81325934  0.35847899  0.88930055  1
  O  O11  1  0.31325934  0.14152101  0.11069945  1
  O  O12  1  0.18674066  0.64152101  0.11069945  1
  O  O13  1  0.68674066  0.85847899  0.88930055  1
