# generated using pymatgen
data_Na3Zr2Si2PO12
_symmetry_space_group_name_H-M   'P 1'
_cell_length_a   9.15343862
_cell_length_b   9.17219113
_cell_length_c   18.59320519
_cell_angle_alpha   61.50131066
_cell_angle_beta   61.43161588
_cell_angle_gamma   59.98211895
_symmetry_Int_Tables_number   1
_chemical_formula_structural   Na3Zr2Si2PO12
_chemical_formula_sum   'Na12 Zr8 Si8 P4 O48'
_cell_volume   1127.49338704
_cell_formula_units_Z   4
loop_
 _symmetry_equiv_pos_site_id
 _symmetry_equiv_pos_as_xyz
  1  'x, y, z'
loop_
 _atom_site_type_symbol
 _atom_site_label
 _atom_site_symmetry_multiplicity
 _atom_site_fract_x
 _atom_site_fract_y
 _atom_site_fract_z
 _atom_site_occupancy
  Na  Na0  1  0.27185459  0.07552816  0.19153094  1
  Na  Na1  1  0.05754478  0.31245916  0.46267668  1
  Na  Na2  1  0.57046845  0.97882962  0.26502904  1
  Na  Na3  1  0.60170360  0.39807229  0.12652790  1
  Na  Na4  1  0.31242515  0.05759582  0.71454073  1
  Na  Na5  1  0.38468526  0.60357945  0.37885762  1
  Na  Na6  1  0.05521780  0.31297491  0.96383259  1
  Na  Na7  1  0.94859383  0.68491268  0.03581116  1
  Na  Na8  1  0.60185089  0.39489749  0.62657871  1
  Na  Na9  1  0.38678427  0.60767458  0.87750984  1
  Na  Na10  1  0.94630160  0.68786005  0.53492917  1
  Na  Na11  1  0.68480533  0.94895192  0.78666583  1
  Zr  Zr12  1  0.14910840  0.64995243  0.28107643  1
  Zr  Zr13  1  0.64476007  0.14401288  0.02889068  1
  Zr  Zr14  1  0.15446468  0.64795689  0.77959891  1
  Zr  Zr15  1  0.35092248  0.85226952  0.47013056  1
  Zr  Zr16  1  0.64581382  0.14335755  0.52796158  1
  Zr  Zr17  1  0.84996477  0.35090065  0.22191783  1
  Zr  Zr18  1  0.34750531  0.85172059  0.97148989  1
  Zr  Zr19  1  0.85704742  0.34901523  0.71990169  1
  Si  Si20  1  0.24936179  0.46975936  0.12004192  1
  Si  Si21  1  0.04707412  0.95591949  0.37515175  1
  Si  Si22  1  0.47176916  0.24731188  0.36644666  1
  Si  Si23  1  0.52722146  0.75201012  0.13210286  1
  Si  Si24  1  0.24936410  0.47341517  0.61754571  1
  Si  Si25  1  0.04337939  0.95520377  0.87555484  1
  Si  Si26  1  0.47280607  0.24633567  0.86762399  1
  Si  Si27  1  0.52859020  0.75120098  0.63119853  1
  P  P28  1  0.95353562  0.04186390  0.12692101  1
  P  P29  1  0.75245008  0.52997752  0.38073362  1
  P  P30  1  0.95645915  0.04361920  0.62490536  1
  P  P31  1  0.75277453  0.52694252  0.88129962  1
  O  O32  1  0.10633560  0.00878925  0.04260358  1
  O  O33  1  0.99730812  0.12175285  0.29097729  1
  O  O34  1  0.07150509  0.43040083  0.14461571  1
  O  O35  1  0.26744069  0.63025480  0.02709135  1
  O  O36  1  0.11111531  0.00684882  0.54272057  1
  O  O37  1  0.42413126  0.28505365  0.11463338  1
  O  O38  1  0.24203585  0.52649943  0.19294787  1
  O  O39  1  0.06691308  0.76665202  0.37597918  1
  O  O40  1  0.00743732  0.11967086  0.78848978  1
  O  O41  1  0.28629025  0.41989216  0.36115683  1
  O  O42  1  0.43358645  0.06947151  0.39252558  1
  O  O43  1  0.06853751  0.43745324  0.64390402  1
  O  O44  1  0.47488424  0.75880205  0.05752417  1
  O  O45  1  0.77410071  0.06856763  0.12477749  1
  O  O46  1  0.36200569  0.73997110  0.22287157  1
  O  O47  1  0.63015736  0.27317916  0.27406892  1
  O  O48  1  0.24194035  0.93263066  0.37097224  1
  O  O49  1  0.52246126  0.24507715  0.44083118  1
  O  O50  1  0.26360525  0.63609717  0.52564682  1
  O  O51  1  0.55839973  0.93346599  0.10903678  1
  O  O52  1  0.71176153  0.58128059  0.13844725  1
  O  O53  1  0.42473552  0.29156236  0.61038968  1
  O  O54  1  0.24144878  0.52742546  0.69197587  1
  O  O55  1  0.93797038  0.22089839  0.12557233  1
  O  O56  1  0.06259060  0.76738964  0.87513218  1
  O  O57  1  0.75518777  0.48156589  0.31042920  1
  O  O58  1  0.58937016  0.70467839  0.38621441  1
  O  O59  1  0.28748419  0.41818712  0.86081230  1
  O  O60  1  0.43773724  0.06526388  0.89587001  1
  O  O61  1  0.73372456  0.37902233  0.46796512  1
  O  O62  1  0.47682856  0.75423768  0.55733556  1
  O  O63  1  0.77705803  0.06993700  0.62338377  1
  O  O64  1  0.36479667  0.73758913  0.72308497  1
  O  O65  1  0.63624793  0.26203873  0.77633244  1
  O  O66  1  0.23521629  0.92874699  0.87574215  1
  O  O67  1  0.52025498  0.24873055  0.94190291  1
  O  O68  1  0.92496707  0.55784953  0.35600408  1
  O  O69  1  0.56168105  0.93199363  0.60588205  1
  O  O70  1  0.71125100  0.57821259  0.63967206  1
  O  O71  1  0.99263555  0.88847695  0.20708836  1
  O  O72  1  0.93977546  0.22215637  0.62432150  1
  O  O73  1  0.75475925  0.47831153  0.81156438  1
  O  O74  1  0.58949853  0.70127122  0.88869503  1
  O  O75  1  0.88715124  0.99493897  0.46314544  1
  O  O76  1  0.73793704  0.37510600  0.96846972  1
  O  O77  1  0.92321807  0.56139803  0.85509268  1
  O  O78  1  0.98963306  0.89047821  0.70766288  1
  O  O79  1  0.88058022  0.99374107  0.96280366  1
