# generated using pymatgen
data_Sb2Cl5F4
_symmetry_space_group_name_H-M   'P 1'
_cell_length_a   11.20760650
_cell_length_b   11.20760650
_cell_length_c   18.52056605
_cell_angle_alpha   84.19209395
_cell_angle_beta   84.19209395
_cell_angle_gamma   68.02876819
_symmetry_Int_Tables_number   1
_chemical_formula_structural   Sb2Cl5F4
_chemical_formula_sum   'Sb16 Cl40 F32'
_cell_volume   2141.27855732
_cell_formula_units_Z   8
loop_
 _symmetry_equiv_pos_site_id
 _symmetry_equiv_pos_as_xyz
  1  'x, y, z'
loop_
 _atom_site_type_symbol
 _atom_site_label
 _atom_site_symmetry_multiplicity
 _atom_site_fract_x
 _atom_site_fract_y
 _atom_site_fract_z
 _atom_site_occupancy
  Sb  Sb0  1  0.78256941  0.25535771  0.06493748  1
  Sb  Sb1  1  0.67672258  0.10362584  0.76880477  1
  Sb  Sb2  1  0.48478400  0.42829192  0.65887083  1
  Sb  Sb3  1  0.21743059  0.74464229  0.93506252  1
  Sb  Sb4  1  0.29598888  0.36491878  0.98507634  1
  Sb  Sb5  1  0.74464229  0.21743059  0.43506252  1
  Sb  Sb6  1  0.70401112  0.63508122  0.01492366  1
  Sb  Sb7  1  0.25535771  0.78256941  0.56493748  1
  Sb  Sb8  1  0.42829192  0.48478400  0.15887083  1
  Sb  Sb9  1  0.63508122  0.70401112  0.51492366  1
  Sb  Sb10  1  0.36491878  0.29598888  0.48507634  1
  Sb  Sb11  1  0.10362584  0.67672258  0.26880477  1
  Sb  Sb12  1  0.89637416  0.32327742  0.73119523  1
  Sb  Sb13  1  0.57170808  0.51521600  0.84112917  1
  Sb  Sb14  1  0.32327742  0.89637416  0.23119523  1
  Sb  Sb15  1  0.51521600  0.57170808  0.34112917  1
  Cl  Cl16  1  0.84508639  0.58198355  0.48159880  1
  Cl  Cl17  1  0.26150705  0.92939376  0.90545347  1
  Cl  Cl18  1  0.95377128  0.50188393  0.71521363  1
  Cl  Cl19  1  0.41801645  0.15491361  0.01840120  1
  Cl  Cl20  1  0.33246922  0.18852499  0.39362231  1
  Cl  Cl21  1  0.25401229  0.88045658  0.66891883  1
  Cl  Cl22  1  0.17452933  0.08219360  0.27788093  1
  Cl  Cl23  1  0.87108367  0.59951761  0.92600068  1
  Cl  Cl24  1  0.50188393  0.95377128  0.21521363  1
  Cl  Cl25  1  0.18852499  0.33246922  0.89362231  1
  Cl  Cl26  1  0.15491361  0.41801645  0.51840120  1
  Cl  Cl27  1  0.94063347  0.26221830  0.61329802  1
  Cl  Cl28  1  0.92939376  0.26150705  0.40545347  1
  Cl  Cl29  1  0.82547067  0.91780640  0.72211907  1
  Cl  Cl30  1  0.11954342  0.74598771  0.83108117  1
  Cl  Cl31  1  0.66753078  0.81147501  0.60637769  1
  Cl  Cl32  1  0.73849295  0.07060624  0.09454653  1
  Cl  Cl33  1  0.26221830  0.94063347  0.11329802  1
  Cl  Cl34  1  0.88045658  0.25401229  0.16891883  1
  Cl  Cl35  1  0.91780640  0.82547067  0.22211907  1
  Cl  Cl36  1  0.12891633  0.40048239  0.07399932  1
  Cl  Cl37  1  0.74598771  0.11954342  0.33108117  1
  Cl  Cl38  1  0.03457533  0.82133917  0.01108847  1
  Cl  Cl39  1  0.07060624  0.73849295  0.59454653  1
  Cl  Cl40  1  0.69469922  0.61412147  0.29176354  1
  Cl  Cl41  1  0.05936653  0.73778170  0.38670198  1
  Cl  Cl42  1  0.08219360  0.17452933  0.77788093  1
  Cl  Cl43  1  0.17866083  0.96542467  0.48891153  1
  Cl  Cl44  1  0.40048239  0.12891633  0.57399932  1
  Cl  Cl45  1  0.04622872  0.49811607  0.28478637  1
  Cl  Cl46  1  0.73778170  0.05936653  0.88670198  1
  Cl  Cl47  1  0.58198355  0.84508639  0.98159880  1
  Cl  Cl48  1  0.38587853  0.30530078  0.20823646  1
  Cl  Cl49  1  0.81147501  0.66753078  0.10637769  1
  Cl  Cl50  1  0.59951761  0.87108367  0.42600068  1
  Cl  Cl51  1  0.49811607  0.04622872  0.78478637  1
  Cl  Cl52  1  0.82133917  0.03457533  0.51108847  1
  Cl  Cl53  1  0.96542467  0.17866083  0.98891153  1
  Cl  Cl54  1  0.30530078  0.38587853  0.70823646  1
  Cl  Cl55  1  0.61412147  0.69469922  0.79176354  1
  F  F56  1  0.35838006  0.61325340  0.62142907  1
  F  F57  1  0.32711477  0.69144604  0.01265925  1
  F  F58  1  0.82281110  0.36322133  0.82896908  1
  F  F59  1  0.17701533  0.82298467  0.25000000  1
  F  F60  1  0.82298467  0.17701533  0.75000000  1
  F  F61  1  0.46271068  0.53728932  0.75000000  1
  F  F62  1  0.63677867  0.17718890  0.67103092  1
  F  F63  1  0.28237560  0.57718847  0.28804861  1
  F  F64  1  0.57096507  0.61495304  0.44979971  1
  F  F65  1  0.69144604  0.32711477  0.51265925  1
  F  F66  1  0.36322133  0.82281110  0.32896908  1
  F  F67  1  0.61457124  0.57413098  0.58481160  1
  F  F68  1  0.17718890  0.63677867  0.17103092  1
  F  F69  1  0.71762440  0.42281153  0.71195139  1
  F  F70  1  0.42281153  0.71762440  0.21195139  1
  F  F71  1  0.64161994  0.38674660  0.37857093  1
  F  F72  1  0.30855396  0.67288523  0.48734075  1
  F  F73  1  0.42586902  0.38542876  0.91518840  1
  F  F74  1  0.57718847  0.28237560  0.78804861  1
  F  F75  1  0.61325340  0.35838006  0.12142907  1
  F  F76  1  0.57413098  0.61457124  0.08481160  1
  F  F77  1  0.42903493  0.38504696  0.55020029  1
  F  F78  1  0.38504696  0.42903493  0.05020029  1
  F  F79  1  0.53728932  0.46271068  0.25000000  1
  F  F80  1  0.78790099  0.43736554  0.04277659  1
  F  F81  1  0.38674660  0.64161994  0.87857093  1
  F  F82  1  0.43736554  0.78790099  0.54277659  1
  F  F83  1  0.67288523  0.30855396  0.98734075  1
  F  F84  1  0.61495304  0.57096507  0.94979971  1
  F  F85  1  0.21209901  0.56263446  0.95722341  1
  F  F86  1  0.56263446  0.21209901  0.45722341  1
  F  F87  1  0.38542876  0.42586902  0.41518840  1
