# generated using pymatgen
data_Sc2Se3
_symmetry_space_group_name_H-M   'P 1'
_cell_length_a   7.70714822
_cell_length_b   11.65203455
_cell_length_c   6.75225088
_cell_angle_alpha   29.60807215
_cell_angle_beta   54.21242004
_cell_angle_gamma   59.44483548
_symmetry_Int_Tables_number   1
_chemical_formula_structural   Sc2Se3
_chemical_formula_sum   'Sc4 Se6'
_cell_volume   243.02473533
_cell_formula_units_Z   2
loop_
 _symmetry_equiv_pos_site_id
 _symmetry_equiv_pos_as_xyz
  1  'x, y, z'
loop_
 _atom_site_type_symbol
 _atom_site_label
 _atom_site_symmetry_multiplicity
 _atom_site_fract_x
 _atom_site_fract_y
 _atom_site_fract_z
 _atom_site_occupancy
  Sc  Sc0  1  0.99933210  0.99208798  0.01251036  1
  Sc  Sc1  1  0.49947732  0.34187810  0.98802642  1
  Sc  Sc2  1  0.49922407  0.66044337  0.01026879  1
  Sc  Sc3  1  0.99946999  0.67355271  0.99044297  1
  Se  Se4  1  0.24877100  0.99405517  0.52288199  1
  Se  Se5  1  0.25000962  0.34003814  0.47748298  1
  Se  Se6  1  0.24886755  0.66674133  0.50106794  1
  Se  Se7  1  0.74991724  0.99390968  0.49634030  1
  Se  Se8  1  0.74872982  0.34005543  0.50412969  1
  Se  Se9  1  0.74901329  0.66713909  0.50038957  1
