# generated using pymatgen
data_LaSc3(BO3)4
_symmetry_space_group_name_H-M   'P 1'
_cell_length_a   6.26764588
_cell_length_b   6.26764371
_cell_length_c   12.03028692
_cell_angle_alpha   99.24492044
_cell_angle_beta   99.24440919
_cell_angle_gamma   103.90564366
_symmetry_Int_Tables_number   1
_chemical_formula_structural   LaSc3(BO3)4
_chemical_formula_sum   'La2 Sc6 B8 O24'
_cell_volume   442.88094674
_cell_formula_units_Z   2
loop_
 _symmetry_equiv_pos_site_id
 _symmetry_equiv_pos_as_xyz
  1  'x, y, z'
loop_
 _atom_site_type_symbol
 _atom_site_label
 _atom_site_symmetry_multiplicity
 _atom_site_fract_x
 _atom_site_fract_y
 _atom_site_fract_z
 _atom_site_occupancy
  La  La0  1  0.03487026  0.96513186  0.25000029  1
  La  La1  1  0.96512940  0.03487162  0.75000009  1
  Sc  Sc2  1  0.20158599  0.70076696  0.97446250  1
  Sc  Sc3  1  0.29923356  0.79841389  0.52553745  1
  Sc  Sc4  1  0.79841543  0.29923429  0.02553762  1
  Sc  Sc5  1  0.70076578  0.20158464  0.47446231  1
  Sc  Sc6  1  0.57526079  0.42473892  0.25000019  1
  Sc  Sc7  1  0.42473812  0.57526173  0.75000024  1
  B  B8  1  0.77862022  0.72878036  0.49947085  1
  B  B9  1  0.27122031  0.22137964  0.00052925  1
  B  B10  1  0.22137925  0.27121948  0.50052870  1
  B  B11  1  0.72878087  0.77862038  0.99947133  1
  B  B12  1  0.10353755  0.49387979  0.27424035  1
  B  B13  1  0.50612070  0.89646093  0.22575924  1
  B  B14  1  0.89646010  0.50612183  0.72575895  1
  B  B15  1  0.49387886  0.10353931  0.77424094  1
  O  O16  1  0.43326023  0.89136603  0.70581721  1
  O  O17  1  0.10863366  0.56673924  0.79418280  1
  O  O18  1  0.56674040  0.10863328  0.29418172  1
  O  O19  1  0.89136695  0.43325882  0.20581853  1
  O  O20  1  0.19054816  0.00814663  0.93337790  1
  O  O21  1  0.99185238  0.80945128  0.56662237  1
  O  O22  1  0.80945101  0.99185203  0.06662254  1
  O  O23  1  0.00814762  0.19054863  0.43337786  1
  O  O24  1  0.24072562  0.35607446  0.25943422  1
  O  O25  1  0.64392541  0.75927427  0.24056577  1
  O  O26  1  0.75927542  0.64392448  0.74056541  1
  O  O27  1  0.35607600  0.24072464  0.75943499  1
  O  O28  1  0.63901172  0.86832260  0.50530676  1
  O  O29  1  0.13167839  0.36098877  0.99469309  1
  O  O30  1  0.36098858  0.13167811  0.49469251  1
  O  O31  1  0.86832247  0.63901129  0.00530732  1
  O  O32  1  0.69323655  0.16836603  0.85245163  1
  O  O33  1  0.83163294  0.30676312  0.64754803  1
  O  O34  1  0.30676444  0.83163456  0.14754875  1
  O  O35  1  0.16836478  0.69323641  0.35245109  1
  O  O36  1  0.51606335  0.70481753  0.93145241  1
  O  O37  1  0.29518273  0.48393749  0.56854723  1
  O  O38  1  0.48393748  0.29518299  0.06854699  1
  O  O39  1  0.70481751  0.51606270  0.43145257  1
