# generated using pymatgen
data_Cs6Bi4O9
_symmetry_space_group_name_H-M   'P 1'
_cell_length_a   8.18024525
_cell_length_b   9.99954165
_cell_length_c   12.33908246
_cell_angle_alpha   104.25466829
_cell_angle_beta   94.12693361
_cell_angle_gamma   92.32356796
_symmetry_Int_Tables_number   1
_chemical_formula_structural   Cs6Bi4O9
_chemical_formula_sum   'Cs12 Bi8 O18'
_cell_volume   973.93453100
_cell_formula_units_Z   2
loop_
 _symmetry_equiv_pos_site_id
 _symmetry_equiv_pos_as_xyz
  1  'x, y, z'
loop_
 _atom_site_type_symbol
 _atom_site_label
 _atom_site_symmetry_multiplicity
 _atom_site_fract_x
 _atom_site_fract_y
 _atom_site_fract_z
 _atom_site_occupancy
  Cs  Cs0  1  0.84903291  0.85462179  0.55268019  1
  Cs  Cs1  1  0.15096709  0.14537821  0.44731981  1
  Cs  Cs2  1  0.37975416  0.63549686  0.94379397  1
  Cs  Cs3  1  0.43913606  0.23712769  0.74091872  1
  Cs  Cs4  1  0.11805305  0.96071493  0.86426926  1
  Cs  Cs5  1  0.62004897  0.55102981  0.63806301  1
  Cs  Cs6  1  0.56086394  0.76287231  0.25908128  1
  Cs  Cs7  1  0.88194695  0.03928507  0.13573074  1
  Cs  Cs8  1  0.93254932  0.24728095  0.75254610  1
  Cs  Cs9  1  0.62024584  0.36450314  0.05620603  1
  Cs  Cs10  1  0.06745068  0.75271905  0.24745390  1
  Cs  Cs11  1  0.37995103  0.44897019  0.36193699  1
  Bi  Bi12  1  0.11017984  0.54200848  0.63255979  1
  Bi  Bi13  1  0.38871916  0.06768905  0.14561404  1
  Bi  Bi14  1  0.66610646  0.16881966  0.41467208  1
  Bi  Bi15  1  0.13560797  0.35705476  0.07171338  1
  Bi  Bi16  1  0.88982016  0.45799152  0.36744021  1
  Bi  Bi17  1  0.86439203  0.64294524  0.92828662  1
  Bi  Bi18  1  0.33389354  0.83118034  0.58532792  1
  Bi  Bi19  1  0.61128084  0.93231095  0.85438596  1
  O  O20  1  0.74415560  0.72234258  0.06726877  1
  O  O21  1  0.22959981  0.89829130  0.10285351  1
  O  O22  1  0.18537002  0.99018961  0.63299690  1
  O  O23  1  0.89917406  0.37688966  0.51006500  1
  O  O24  1  0.10082594  0.62311034  0.48993500  1
  O  O25  1  0.29334888  0.52425799  0.14507918  1
  O  O26  1  0.25584440  0.27765742  0.93273123  1
  O  O27  1  0.29269714  0.72596270  0.70944358  1
  O  O28  1  0.70730286  0.27403730  0.29055642  1
  O  O29  1  0.79029318  0.78125736  0.82545846  1
  O  O30  1  0.44049747  0.06567035  0.31473488  1
  O  O31  1  0.81462998  0.00981039  0.36700310  1
  O  O32  1  0.70665112  0.47574201  0.85492082  1
  O  O33  1  0.20970682  0.21874264  0.17454154  1
  O  O34  1  0.77040019  0.10170870  0.89714649  1
  O  O35  1  0.28877912  0.40556196  0.59798350  1
  O  O36  1  0.55950253  0.93432965  0.68526512  1
  O  O37  1  0.71122088  0.59443804  0.40201650  1
