# generated using pymatgen
data_Y2Te4O11
_symmetry_space_group_name_H-M   'P 1'
_cell_length_a   6.69820807
_cell_length_b   6.69820807
_cell_length_c   16.08931612
_cell_angle_alpha   75.47187859
_cell_angle_beta   75.47187859
_cell_angle_gamma   44.90393104
_symmetry_Int_Tables_number   1
_chemical_formula_structural   Y2Te4O11
_chemical_formula_sum   'Y4 Te8 O22'
_cell_volume   490.44733117
_cell_formula_units_Z   2
loop_
 _symmetry_equiv_pos_site_id
 _symmetry_equiv_pos_as_xyz
  1  'x, y, z'
loop_
 _atom_site_type_symbol
 _atom_site_label
 _atom_site_symmetry_multiplicity
 _atom_site_fract_x
 _atom_site_fract_y
 _atom_site_fract_z
 _atom_site_occupancy
  Y  Y0  1  0.37045949  0.86727110  0.46341843  1
  Y  Y1  1  0.13272890  0.62954051  0.03658157  1
  Y  Y2  1  0.86727110  0.37045949  0.96341843  1
  Y  Y3  1  0.62954051  0.13272890  0.53658157  1
  Te  Te4  1  0.59118983  0.15320335  0.87339967  1
  Te  Te5  1  0.40123155  0.84227184  0.80089431  1
  Te  Te6  1  0.15772816  0.59876845  0.69910569  1
  Te  Te7  1  0.84679665  0.40881017  0.62660033  1
  Te  Te8  1  0.15320335  0.59118983  0.37339967  1
  Te  Te9  1  0.84227184  0.40123155  0.30089431  1
  Te  Te10  1  0.40881017  0.84679665  0.12660033  1
  Te  Te11  1  0.59876845  0.15772816  0.19910569  1
  O  O12  1  0.15078387  0.84921613  0.75000000  1
  O  O13  1  0.81965655  0.03907146  0.95496430  1
  O  O14  1  0.79667791  0.90988813  0.66752364  1
  O  O15  1  0.81180718  0.68254736  0.37288615  1
  O  O16  1  0.18034345  0.96092854  0.04503570  1
  O  O17  1  0.90988813  0.79667791  0.16752364  1
  O  O18  1  0.84921613  0.15078387  0.25000000  1
  O  O19  1  0.20332209  0.09011187  0.33247636  1
  O  O20  1  0.18819282  0.31745264  0.62711385  1
  O  O21  1  0.03907146  0.81965655  0.45496430  1
  O  O22  1  0.66339740  0.75159731  0.55382917  1
  O  O23  1  0.31745264  0.18819282  0.12711385  1
  O  O24  1  0.55771393  0.39383999  0.09613762  1
  O  O25  1  0.33660260  0.24840269  0.44617083  1
  O  O26  1  0.68254736  0.81180718  0.87288615  1
  O  O27  1  0.24840269  0.33660260  0.94617083  1
  O  O28  1  0.75159731  0.66339740  0.05382917  1
  O  O29  1  0.09011187  0.20332209  0.83247636  1
  O  O30  1  0.39383999  0.55771393  0.59613762  1
  O  O31  1  0.44228607  0.60616001  0.90386238  1
  O  O32  1  0.96092854  0.18034345  0.54503570  1
  O  O33  1  0.60616001  0.44228607  0.40386238  1
