# generated using pymatgen
data_Na3LiMg4(Si2O5)6
_symmetry_space_group_name_H-M   'P 1'
_cell_length_a   10.19071252
_cell_length_b   10.19071252
_cell_length_c   14.66865900
_cell_angle_alpha   90.00000000
_cell_angle_beta   90.00000000
_cell_angle_gamma   120.51215795
_symmetry_Int_Tables_number   1
_chemical_formula_structural   Na3LiMg4(Si2O5)6
_chemical_formula_sum   'Na6 Li2 Mg8 Si24 O60'
_cell_volume   1312.39813706
_cell_formula_units_Z   2
loop_
 _symmetry_equiv_pos_site_id
 _symmetry_equiv_pos_as_xyz
  1  'x, y, z'
loop_
 _atom_site_type_symbol
 _atom_site_label
 _atom_site_symmetry_multiplicity
 _atom_site_fract_x
 _atom_site_fract_y
 _atom_site_fract_z
 _atom_site_occupancy
  Na  Na0  1  0.00000000  0.00000000  0.97311100  1
  Na  Na1  1  0.28933500  0.61342900  0.46566000  1
  Na  Na2  1  0.38657100  0.71066500  0.96566000  1
  Na  Na3  1  0.61342900  0.28933500  0.96566000  1
  Na  Na4  1  0.71066500  0.38657100  0.46566000  1
  Na  Na5  1  0.00000000  0.00000000  0.47311100  1
  Li  Li6  1  0.00000000  0.50000000  0.24733000  1
  Li  Li7  1  0.50000000  0.00000000  0.74733000  1
  Mg  Mg8  1  0.50000000  0.50000000  0.24269400  1
  Mg  Mg9  1  0.00000000  0.50000000  0.75246800  1
  Mg  Mg10  1  0.33661700  0.68662100  0.73790000  1
  Mg  Mg11  1  0.31337900  0.66338300  0.23790000  1
  Mg  Mg12  1  0.50000000  0.00000000  0.25246800  1
  Mg  Mg13  1  0.66338300  0.31337900  0.73790000  1
  Mg  Mg14  1  0.68662100  0.33661700  0.23790000  1
  Mg  Mg15  1  0.50000000  0.50000000  0.74269400  1
  Si  Si16  1  0.11228800  0.36467800  0.89356600  1
  Si  Si17  1  0.09707800  0.36284500  0.09226300  1
  Si  Si18  1  0.10635900  0.12757300  0.67903300  1
  Si  Si19  1  0.19328000  0.26112100  0.31434100  1
  Si  Si20  1  0.63715500  0.90292200  0.59226300  1
  Si  Si21  1  0.63532200  0.88771200  0.39356600  1
  Si  Si22  1  0.73887900  0.80672000  0.81434100  1
  Si  Si23  1  0.87242700  0.89364100  0.17903300  1
  Si  Si24  1  0.24699700  0.88392500  0.88809300  1
  Si  Si25  1  0.24570300  0.88678000  0.09844300  1
  Si  Si26  1  0.88678000  0.24570300  0.59844300  1
  Si  Si27  1  0.88392500  0.24699700  0.38809300  1
  Si  Si28  1  0.11322000  0.75429700  0.59844300  1
  Si  Si29  1  0.11607500  0.75300300  0.38809300  1
  Si  Si30  1  0.75429700  0.11322000  0.09844300  1
  Si  Si31  1  0.75300300  0.11607500  0.88809300  1
  Si  Si32  1  0.26112100  0.19328000  0.81434100  1
  Si  Si33  1  0.12757300  0.10635900  0.17903300  1
  Si  Si34  1  0.36284500  0.09707800  0.59226300  1
  Si  Si35  1  0.36467800  0.11228800  0.39356600  1
  Si  Si36  1  0.89364100  0.87242700  0.67903300  1
  Si  Si37  1  0.80672000  0.73887900  0.31434100  1
  Si  Si38  1  0.88771200  0.63532200  0.89356600  1
  Si  Si39  1  0.90292200  0.63715500  0.09226300  1
  O  O40  1  0.16358700  0.23504200  0.88900200  1
  O  O41  1  0.13052200  0.21865200  0.09538100  1
  O  O42  1  0.02547200  0.22149700  0.63615600  1
  O  O43  1  0.02431300  0.22470400  0.35220100  1
  O  O44  1  0.34125200  0.48248100  0.57383400  1
  O  O45  1  0.34991100  0.51397700  0.66332600  1
  O  O46  1  0.31987000  0.44021900  0.31550700  1
  O  O47  1  0.17072100  0.44862700  0.99351100  1
  O  O48  1  0.15173300  0.47988900  0.17436000  1
  O  O49  1  0.17409000  0.49413800  0.81571800  1
  O  O50  1  0.55978100  0.68013000  0.81550700  1
  O  O51  1  0.48602300  0.65008900  0.16332600  1
  O  O52  1  0.78134800  0.86947800  0.59538100  1
  O  O53  1  0.76495800  0.83641300  0.38900200  1
  O  O54  1  0.51751900  0.65874800  0.07383400  1
  O  O55  1  0.55137300  0.82927900  0.49351100  1
  O  O56  1  0.77529600  0.97568700  0.85220100  1
  O  O57  1  0.77850300  0.97452800  0.13615600  1
  O  O58  1  0.52011100  0.84826700  0.67436000  1
  O  O59  1  0.50586200  0.82591000  0.31571800  1
  O  O60  1  0.14582900  0.65233100  0.66806900  1
  O  O61  1  0.15849700  0.64613300  0.33093200  1
  O  O62  1  0.72622100  0.08808200  0.58308400  1
  O  O63  1  0.73175400  0.07440100  0.38824600  1
  O  O64  1  0.06964000  0.68367500  0.49357200  1
  O  O65  1  0.35386700  0.84150300  0.83093200  1
  O  O66  1  0.34766900  0.85417100  0.16806900  1
  O  O67  1  0.31632500  0.93036000  0.99357200  1
  O  O68  1  0.92559900  0.26824600  0.88824600  1
  O  O69  1  0.91191800  0.27377900  0.08308400  1
  O  O70  1  0.07440100  0.73175400  0.88824600  1
  O  O71  1  0.08808200  0.72622100  0.08308400  1
  O  O72  1  0.68367500  0.06964000  0.99357200  1
  O  O73  1  0.64613300  0.15849700  0.83093200  1
  O  O74  1  0.65233100  0.14582900  0.16806900  1
  O  O75  1  0.93036000  0.31632500  0.49357200  1
  O  O76  1  0.27377900  0.91191800  0.58308400  1
  O  O77  1  0.26824600  0.92559900  0.38824600  1
  O  O78  1  0.85417100  0.34766900  0.66806900  1
  O  O79  1  0.84150300  0.35386700  0.33093200  1
  O  O80  1  0.47988900  0.15173300  0.67436000  1
  O  O81  1  0.49413800  0.17409000  0.31571800  1
  O  O82  1  0.22470400  0.02431300  0.85220100  1
  O  O83  1  0.22149700  0.02547200  0.13615600  1
  O  O84  1  0.44862700  0.17072100  0.49351100  1
  O  O85  1  0.48248100  0.34125200  0.07383400  1
  O  O86  1  0.21865200  0.13052200  0.59538100  1
  O  O87  1  0.23504200  0.16358700  0.38900200  1
  O  O88  1  0.44021900  0.31987000  0.81550700  1
  O  O89  1  0.51397700  0.34991100  0.16332600  1
  O  O90  1  0.84826700  0.52011100  0.17436000  1
  O  O91  1  0.82591000  0.50586200  0.81571800  1
  O  O92  1  0.82927900  0.55137300  0.99351100  1
  O  O93  1  0.65008900  0.48602300  0.66332600  1
  O  O94  1  0.68013000  0.55978100  0.31550700  1
  O  O95  1  0.65874800  0.51751900  0.57383400  1
  O  O96  1  0.97452800  0.77850300  0.63615600  1
  O  O97  1  0.97568700  0.77529600  0.35220100  1
  O  O98  1  0.83641300  0.76495800  0.88900200  1
  O  O99  1  0.86947800  0.78134800  0.09538100  1
