# generated using pymatgen
data_CsTaI6
_symmetry_space_group_name_H-M   'P 1'
_cell_length_a   7.27000996
_cell_length_b   7.81697197
_cell_length_c   14.06720950
_cell_angle_alpha   100.31387915
_cell_angle_beta   90.00000000
_cell_angle_gamma   117.71115319
_symmetry_Int_Tables_number   1
_chemical_formula_structural   CsTaI6
_chemical_formula_sum   'Cs2 Ta2 I12'
_cell_volume   693.11540898
_cell_formula_units_Z   2
loop_
 _symmetry_equiv_pos_site_id
 _symmetry_equiv_pos_as_xyz
  1  'x, y, z'
loop_
 _atom_site_type_symbol
 _atom_site_label
 _atom_site_symmetry_multiplicity
 _atom_site_fract_x
 _atom_site_fract_y
 _atom_site_fract_z
 _atom_site_occupancy
  Cs  Cs0  1  0.41320114  0.50000000  0.75000000  1
  Cs  Cs1  1  0.58679886  0.50000000  0.25000000  1
  Ta  Ta2  1  -0.00000000  -0.00000000  -0.00000000  1
  Ta  Ta3  1  0.50000000  -0.00000000  0.50000000  1
  I  I4  1  0.17803436  0.65244355  0.39628170  1
  I  I5  1  0.97440820  0.65244355  0.89628170  1
  I  I6  1  0.02559180  0.34755645  0.10371830  1
  I  I7  1  0.30437585  0.92648112  0.66783149  1
  I  I8  1  0.69562415  0.07351888  0.33216851  1
  I  I9  1  0.28804241  0.19997235  0.46524389  1
  I  I10  1  0.71195759  0.80002765  0.53475611  1
  I  I11  1  0.82196564  0.34755645  0.60371830  1
  I  I12  1  0.41192994  0.19997235  0.96524389  1
  I  I13  1  0.87789473  0.07351888  0.83216851  1
  I  I14  1  0.12210527  0.92648112  0.16783149  1
  I  I15  1  0.58807006  0.80002765  0.03475611  1
