# generated using pymatgen
data_V2Ni(PO5)2
_symmetry_space_group_name_H-M   'P 1'
_cell_length_a   7.22596086
_cell_length_b   7.24906822
_cell_length_c   7.30524765
_cell_angle_alpha   119.60493100
_cell_angle_beta   90.00000000
_cell_angle_gamma   90.00000000
_symmetry_Int_Tables_number   1
_chemical_formula_structural   V2Ni(PO5)2
_chemical_formula_sum   'V4 Ni2 P4 O20'
_cell_volume   332.70440753
_cell_formula_units_Z   2
loop_
 _symmetry_equiv_pos_site_id
 _symmetry_equiv_pos_as_xyz
  1  'x, y, z'
loop_
 _atom_site_type_symbol
 _atom_site_label
 _atom_site_symmetry_multiplicity
 _atom_site_fract_x
 _atom_site_fract_y
 _atom_site_fract_z
 _atom_site_occupancy
  V  V0  1  0.27814035  0.29925043  0.04007989  1
  V  V1  1  0.77814035  0.20074957  0.45992011  1
  V  V2  1  0.72185965  0.70074957  0.95992011  1
  V  V3  1  0.22185965  0.79925043  0.54007989  1
  Ni  Ni4  1  -0.00000000  -0.00000000  -0.00000000  1
  Ni  Ni5  1  0.50000000  0.50000000  0.50000000  1
  P  P6  1  0.62531979  0.00140614  0.74888613  1
  P  P7  1  0.87468021  0.50140614  0.24888613  1
  P  P8  1  0.12531979  0.49859386  0.75111387  1
  P  P9  1  0.37468021  0.99859386  0.25111387  1
  O  O10  1  0.25254558  0.59103248  0.64706390  1
  O  O11  1  0.99804715  0.68168738  0.90490927  1
  O  O12  1  0.75254558  0.90896752  0.85293610  1
  O  O13  1  0.49080023  0.82000442  0.08723343  1
  O  O14  1  0.74915313  0.57812854  0.13488904  1
  O  O15  1  0.50195285  0.18168738  0.40490927  1
  O  O16  1  0.99080023  0.67999558  0.41276657  1
  O  O17  1  0.34302057  0.50213128  0.27310910  1
  O  O18  1  0.65697943  0.49786872  0.72689090  1
  O  O19  1  0.74745442  0.40896752  0.35293610  1
  O  O20  1  0.24745442  0.09103248  0.14706390  1
  O  O21  1  0.15697943  0.00213128  0.77310910  1
  O  O22  1  0.75084687  0.07812854  0.63488904  1
  O  O23  1  0.49804715  0.81831262  0.59509073  1
  O  O24  1  0.25084687  0.42187146  0.86511096  1
  O  O25  1  0.24915313  0.92187146  0.36511096  1
  O  O26  1  0.50919977  0.17999558  0.91276657  1
  O  O27  1  0.84302057  -0.00213128  0.22689090  1
  O  O28  1  0.00919977  0.32000442  0.58723343  1
  O  O29  1  0.00195285  0.31831262  0.09509073  1
