# generated using pymatgen
data_PBr2N
_symmetry_space_group_name_H-M   'P 1'
_cell_length_a   9.57280961
_cell_length_b   10.51030004
_cell_length_c   12.16050011
_cell_angle_alpha   100.82300292
_cell_angle_beta   112.75232717
_cell_angle_gamma   93.64738644
_symmetry_Int_Tables_number   1
_chemical_formula_structural   PBr2N
_chemical_formula_sum   'P10 Br20 N10'
_cell_volume   1095.62121548
_cell_formula_units_Z   10
loop_
 _symmetry_equiv_pos_site_id
 _symmetry_equiv_pos_as_xyz
  1  'x, y, z'
loop_
 _atom_site_type_symbol
 _atom_site_label
 _atom_site_symmetry_multiplicity
 _atom_site_fract_x
 _atom_site_fract_y
 _atom_site_fract_z
 _atom_site_occupancy
  P  P0  1  0.61391256  0.30996784  0.40304978  1
  P  P1  1  0.80218698  0.01161003  0.14734755  1
  P  P2  1  0.30555326  0.95678488  0.65972386  1
  P  P3  1  0.19778589  0.98839036  0.85263299  1
  P  P4  1  0.64961809  0.47441855  0.24917626  1
  P  P5  1  0.38608785  0.69003078  0.59694592  1
  P  P6  1  0.82662167  0.29373804  0.16714338  1
  P  P7  1  0.17344667  0.70628426  0.83290840  1
  P  P8  1  0.35041207  0.52558722  0.75083550  1
  P  P9  1  0.69440217  0.04319700  0.34023200  1
  Br  Br10  1  -0.00734627  0.66591061  0.64517210  1
  Br  Br11  1  0.05309974  0.62757905  0.93348665  1
  Br  Br12  1  0.97201158  0.03513569  0.83908886  1
  Br  Br13  1  0.57522998  0.48389324  0.86405708  1
  Br  Br14  1  0.63171706  0.73112672  0.64291901  1
  Br  Br15  1  0.79686076  0.66329227  0.30644730  1
  Br  Br16  1  0.47316265  0.91372507  0.26390388  1
  Br  Br17  1  0.71649043  0.35044034  0.60262577  1
  Br  Br18  1  0.19222692  0.99029197  0.47666806  1
  Br  Br19  1  0.20316762  0.33670957  0.69360912  1
  Br  Br20  1  0.28356798  0.64953970  0.39735525  1
  Br  Br21  1  0.02790128  0.96476077  0.16085161  1
  Br  Br22  1  0.36831649  0.26886714  0.35714385  1
  Br  Br23  1  0.35793500  0.13999728  0.00576888  1
  Br  Br24  1  0.80766423  0.00966436  0.52327149  1
  Br  Br25  1  0.64193498  0.86010006  -0.00580745  1
  Br  Br26  1  0.00734291  0.33407451  0.35487380  1
  Br  Br27  1  0.94703577  0.37244976  0.06663063  1
  Br  Br28  1  0.42482326  0.51610693  0.13591918  1
  Br  Br29  1  0.52677419  0.08630122  0.73601732  1
  N  N30  1  0.77584741  0.14430640  0.10776248  1
  N  N31  1  0.64960314  0.44183031  0.36972220  1
  N  N32  1  0.22422258  0.85571883  0.89225882  1
  N  N33  1  0.79396320  -0.00748605  0.26958086  1
  N  N34  1  0.30856674  0.62782192  0.84040641  1
  N  N35  1  0.35036968  0.55816558  0.63026392  1
  N  N36  1  0.20600879  0.00747293  0.73039132  1
  N  N37  1  0.33166573  0.81125748  0.65569818  1
  N  N38  1  0.66829741  0.18872712  0.34429007  1
  N  N39  1  0.69150954  0.37221224  0.15962773  1
