# generated using pymatgen
data_Zn(InS2)2
_symmetry_space_group_name_H-M   'P 1'
_cell_length_a   3.88677781
_cell_length_b   6.71891209
_cell_length_c   12.73451179
_cell_angle_alpha   80.04170799
_cell_angle_beta   90.00000000
_cell_angle_gamma   90.00000000
_symmetry_Int_Tables_number   1
_chemical_formula_structural   Zn(InS2)2
_chemical_formula_sum   'Zn2 In4 S8'
_cell_volume   327.55034223
_cell_formula_units_Z   2
loop_
 _symmetry_equiv_pos_site_id
 _symmetry_equiv_pos_as_xyz
  1  'x, y, z'
loop_
 _atom_site_type_symbol
 _atom_site_label
 _atom_site_symmetry_multiplicity
 _atom_site_fract_x
 _atom_site_fract_y
 _atom_site_fract_z
 _atom_site_occupancy
  Zn  Zn0  1  0.00000000  0.76173188  0.70006003  1
  Zn  Zn1  1  0.00000000  0.23826812  0.29993997  1
  In  In2  1  -0.00000000  0.00000000  0.00000000  1
  In  In3  1  0.50000000  0.27707119  0.68584326  1
  In  In4  1  0.50000000  0.50000000  0.00000000  1
  In  In5  1  0.50000000  0.72292881  0.31415674  1
  S  S6  1  0.00000000  0.89292854  0.37565024  1
  S  S7  1  0.50000000  0.35814265  0.36813778  1
  S  S8  1  0.50000000  0.20207714  0.88920435  1
  S  S9  1  0.00000000  0.29573234  0.11013181  1
  S  S10  1  0.00000000  0.70426766  0.88986819  1
  S  S11  1  0.50000000  0.79792286  0.11079565  1
  S  S12  1  0.50000000  0.64185735  0.63186222  1
  S  S13  1  0.00000000  0.10707146  0.62434976  1
