# generated using pymatgen
data_SrMg2Al6(Si3O10)3
_symmetry_space_group_name_H-M   'P 1'
_cell_length_a   10.25966800
_cell_length_b   10.32237334
_cell_length_c   14.27236046
_cell_angle_alpha   89.48334048
_cell_angle_beta   89.33167809
_cell_angle_gamma   60.33910201
_symmetry_Int_Tables_number   1
_chemical_formula_structural   SrMg2Al6(Si3O10)3
_chemical_formula_sum   'Sr2 Mg4 Al12 Si18 O60'
_cell_volume   1313.35038463
_cell_formula_units_Z   2
loop_
 _symmetry_equiv_pos_site_id
 _symmetry_equiv_pos_as_xyz
  1  'x, y, z'
loop_
 _atom_site_type_symbol
 _atom_site_label
 _atom_site_symmetry_multiplicity
 _atom_site_fract_x
 _atom_site_fract_y
 _atom_site_fract_z
 _atom_site_occupancy
  Sr  Sr0  1  0.98709800  0.01585700  0.75658300  1
  Sr  Sr1  1  0.01101000  0.00445100  0.25616700  1
  Mg  Mg2  1  0.67093900  0.66246100  0.75210100  1
  Mg  Mg3  1  0.67014100  0.66533900  0.25192400  1
  Mg  Mg4  1  0.32510900  0.33945400  0.75305700  1
  Mg  Mg5  1  0.32732200  0.33128600  0.25063300  1
  Al  Al6  1  0.89883700  0.75659200  0.38576100  1
  Al  Al7  1  0.99715700  0.49858600  0.24710000  1
  Al  Al8  1  0.49861200  0.99672000  0.75062500  1
  Al  Al9  1  0.64002600  0.25149500  0.88667100  1
  Al  Al10  1  0.50152000  0.49614700  0.25294800  1
  Al  Al11  1  0.49037300  0.50646500  0.74734500  1
  Al  Al12  1  0.50250800  0.00172000  0.25044400  1
  Al  Al13  1  0.10161500  0.65836800  0.88735700  1
  Al  Al14  1  0.24729300  0.10338000  0.11349800  1
  Al  Al15  1  0.00637400  0.49800400  0.75250700  1
  Al  Al16  1  0.10407900  0.23756000  0.38517300  1
  Al  Al17  1  0.10660500  0.24103500  0.61302700  1
  Si  Si18  1  0.90077100  0.75501700  0.61324200  1
  Si  Si19  1  0.75543500  0.90604100  0.11048600  1
  Si  Si20  1  0.75068800  0.90082400  0.88570900  1
  Si  Si21  1  0.90285900  0.33822000  0.88647000  1
  Si  Si22  1  0.89712200  0.34137100  0.11092700  1
  Si  Si23  1  0.75302400  0.34559200  0.61368600  1
  Si  Si24  1  0.74892300  0.34985500  0.39005700  1
  Si  Si25  1  0.35169200  0.89407800  0.38731900  1
  Si  Si26  1  0.34850400  0.89797300  0.61092600  1
  Si  Si27  1  0.64170400  0.25252700  0.11141100  1
  Si  Si28  1  0.35218100  0.75026200  0.11276700  1
  Si  Si29  1  0.34863800  0.75791500  0.88829700  1
  Si  Si30  1  0.65228800  0.10181800  0.38945500  1
  Si  Si31  1  0.65555400  0.09640300  0.61255800  1
  Si  Si32  1  0.24898700  0.64842400  0.38655200  1
  Si  Si33  1  0.24595900  0.65091200  0.60762900  1
  Si  Si34  1  0.09906400  0.66259900  0.11331700  1
  Si  Si35  1  0.25015300  0.10458500  0.88896700  1
  O  O36  1  0.92251600  0.79694300  0.85277600  1
  O  O37  1  0.93232500  0.80722900  0.14142600  1
  O  O38  1  0.79654200  0.93309100  0.64497300  1
  O  O39  1  0.79601800  0.94788600  0.35542700  1
  O  O40  1  0.88251100  0.73243500  0.50530600  1
  O  O41  1  0.86500200  0.64775900  0.68216500  1
  O  O42  1  0.85764100  0.64229800  0.31652700  1
  O  O43  1  0.73069400  0.88916400  0.99978800  1
  O  O44  1  0.86672100  0.48742000  0.82497600  1
  O  O45  1  0.86481700  0.48922600  0.17024700  1
  O  O46  1  0.89086300  0.37391900  0.99824900  1
  O  O47  1  0.64754300  0.86571800  0.17529200  1
  O  O48  1  0.63839900  0.85901000  0.82621700  1
  O  O49  1  0.92187000  0.26816600  0.35617800  1
  O  O50  1  0.92451100  0.27334400  0.64625200  1
  O  O51  1  0.79786700  0.27060400  0.85545700  1
  O  O52  1  0.77017600  0.29590400  0.14206500  1
  O  O53  1  0.49685700  0.85913600  0.67455400  1
  O  O54  1  0.49957500  0.86174600  0.32413900  1
  O  O55  1  0.72470800  0.38613300  0.50227400  1
  O  O56  1  0.64136800  0.49353000  0.67586600  1
  O  O57  1  0.64173000  0.49765000  0.32610600  1
  O  O58  1  0.38606500  0.89295800  0.49895600  1
  O  O59  1  0.71190900  0.21331500  0.64153800  1
  O  O60  1  0.68900500  0.23464800  0.36170800  1
  O  O61  1  0.49379000  0.64479000  0.82281400  1
  O  O62  1  0.49853600  0.63545600  0.17553300  1
  O  O63  1  0.38633400  0.72360900  0.00001100  1
  O  O64  1  0.71777400  0.07478000  0.14105900  1
  O  O65  1  0.70958000  0.06681400  0.85278500  1
  O  O66  1  0.29336800  0.92001400  0.14310800  1
  O  O67  1  0.30202100  0.93050500  0.86233000  1
  O  O68  1  0.59893300  0.27908000  0.00431500  1
  O  O69  1  0.48905700  0.36813000  0.81735900  1
  O  O70  1  0.50169800  0.35429400  0.18201300  1
  O  O71  1  0.29787600  0.77250800  0.63317000  1
  O  O72  1  0.31533100  0.76087900  0.36231900  1
  O  O73  1  0.62341300  0.10483900  0.50196100  1
  O  O74  1  0.35322900  0.50723200  0.67072800  1
  O  O75  1  0.35591500  0.50044600  0.32475000  1
  O  O76  1  0.26523200  0.60993700  0.49783800  1
  O  O77  1  0.50926700  0.12750600  0.67377600  1
  O  O78  1  0.50567900  0.13167100  0.33060900  1
  O  O79  1  0.20583400  0.74542900  0.85389900  1
  O  O80  1  0.21440200  0.72090500  0.14756200  1
  O  O81  1  0.06989200  0.72726500  0.64094700  1
  O  O82  1  0.07701400  0.73233300  0.35350400  1
  O  O83  1  0.36371400  0.14235000  0.18116600  1
  O  O84  1  0.35718200  0.14002300  0.82068500  1
  O  O85  1  0.11421300  0.62728900  0.00518500  1
  O  O86  1  0.14212900  0.50147700  0.82413900  1
  O  O87  1  0.12881400  0.51893500  0.17577700  1
  O  O88  1  0.26830000  0.12912000  0.99653300  1
  O  O89  1  0.14219700  0.35791400  0.68218400  1
  O  O90  1  0.13800300  0.35449800  0.31191100  1
  O  O91  1  0.13355500  0.25809600  0.49814300  1
  O  O92  1  0.20903600  0.05090600  0.65031900  1
  O  O93  1  0.20505300  0.04485300  0.35061400  1
  O  O94  1  0.07228700  0.20001600  0.85646500  1
  O  O95  1  0.05394300  0.19753300  0.14333000  1
