# generated using pymatgen
data_Re(TeBr2)2
_symmetry_space_group_name_H-M   'P 1'
_cell_length_a   10.89561605
_cell_length_b   10.89553076
_cell_length_c   10.89506243
_cell_angle_alpha   115.94886414
_cell_angle_beta   115.94052496
_cell_angle_gamma   97.18255322
_symmetry_Int_Tables_number   1
_chemical_formula_structural   Re(TeBr2)2
_chemical_formula_sum   'Re4 Te8 Br16'
_cell_volume   962.41221500
_cell_formula_units_Z   4
loop_
 _symmetry_equiv_pos_site_id
 _symmetry_equiv_pos_as_xyz
  1  'x, y, z'
loop_
 _atom_site_type_symbol
 _atom_site_label
 _atom_site_symmetry_multiplicity
 _atom_site_fract_x
 _atom_site_fract_y
 _atom_site_fract_z
 _atom_site_occupancy
  Re  Re0  1  0.20441541  0.85449954  0.41671576  1
  Re  Re1  1  0.14550936  0.56220139  0.34988553  1
  Re  Re2  1  0.43778320  0.78771540  0.58329584  1
  Re  Re3  1  0.21230056  0.79559802  0.65009375  1
  Te  Te4  1  0.65454958  0.68062803  0.58253753  1
  Te  Te5  1  0.40460157  0.03205729  0.73255126  1
  Te  Te6  1  0.31936058  0.90190694  0.97394833  1
  Te  Te7  1  0.29951742  0.67208860  0.26746564  1
  Te  Te8  1  0.09809412  0.07203039  0.41747877  1
  Te  Te9  1  0.96799075  0.70048427  0.37255716  1
  Te  Te10  1  0.92796858  0.34540096  0.02603853  1
  Te  Te11  1  0.32794392  0.59541736  0.62742471  1
  Br  Br12  1  0.69549021  0.40853904  0.94611189  1
  Br  Br13  1  0.11601972  0.99522085  0.78691177  1
  Br  Br14  1  0.94160759  0.35075409  0.30129875  1
  Br  Br15  1  0.59140376  0.53751324  0.28689602  1
  Br  Br16  1  0.54841768  0.14297464  0.15577355  1
  Br  Br17  1  0.60735554  0.45159357  0.59456577  1
  Br  Br18  1  0.00479464  0.79161627  0.12074657  1
  Br  Br19  1  0.04945698  0.64033307  0.69873287  1
  Br  Br20  1  0.46245283  0.74938299  0.05388749  1
  Br  Br21  1  0.64927317  0.95052600  0.59084745  1
  Br  Br22  1  0.20830819  0.32912189  0.21308341  1
  Br  Br23  1  0.35968886  0.05843035  0.40915164  1
  Br  Br24  1  0.67084985  0.88404953  0.87924960  1
  Br  Br25  1  0.25061616  0.30451465  0.71312398  1
  Br  Br26  1  0.85703705  0.01278042  0.40542398  1
  Br  Br27  1  0.98719171  0.39262221  0.84420245  1
