# generated using pymatgen
data_HPbClO
_symmetry_space_group_name_H-M   'P 1'
_cell_length_a   9.76857322
_cell_length_b   4.02877364
_cell_length_c   7.10329907
_cell_angle_alpha   90.00000514
_cell_angle_beta   90.00001507
_cell_angle_gamma   89.99999145
_symmetry_Int_Tables_number   1
_chemical_formula_structural   HPbClO
_chemical_formula_sum   'H4 Pb4 Cl4 O4'
_cell_volume   279.55296517
_cell_formula_units_Z   4
loop_
 _symmetry_equiv_pos_site_id
 _symmetry_equiv_pos_as_xyz
  1  'x, y, z'
loop_
 _atom_site_type_symbol
 _atom_site_label
 _atom_site_symmetry_multiplicity
 _atom_site_fract_x
 _atom_site_fract_y
 _atom_site_fract_z
 _atom_site_occupancy
  H  H0  1  0.38612462  0.25000000  0.71745572  1
  H  H1  1  0.11388054  0.24999998  0.21743545  1
  H  H2  1  0.61388050  0.75000000  0.28256455  1
  H  H3  1  0.88612459  0.75000005  0.78254420  1
  Pb  Pb4  1  0.41192558  0.24999976  0.29731160  1
  Pb  Pb5  1  0.08807407  0.25000003  0.79731298  1
  Pb  Pb6  1  0.58807382  0.75000019  0.70268725  1
  Pb  Pb7  1  0.91192528  0.74999996  0.20268833  1
  Cl  Cl8  1  0.67653111  0.24999998  0.06135471  1
  Cl  Cl9  1  0.82346902  0.25000003  0.56135439  1
  Cl  Cl10  1  0.32346905  0.75000004  0.93864558  1
  Cl  Cl11  1  0.17653115  0.74999997  0.43864525  1
  O  O12  1  0.46104353  0.25000000  0.62781775  1
  O  O13  1  0.03895180  0.25000004  0.12782274  1
  O  O14  1  0.53895182  0.74999994  0.37217726  1
  O  O15  1  0.96104352  0.75000002  0.87218224  1
