# generated using pymatgen
data_Rb8BaNaAl11Si13O48
_symmetry_space_group_name_H-M   'P 1'
_cell_length_a   12.61196200
_cell_length_b   12.27086115
_cell_length_c   12.24164536
_cell_angle_alpha   90.05717882
_cell_angle_beta   90.38534012
_cell_angle_gamma   90.28059533
_symmetry_Int_Tables_number   1
_chemical_formula_structural   Rb8BaNaAl11Si13O48
_chemical_formula_sum   'Rb8 Ba1 Na1 Al11 Si13 O48'
_cell_volume   1894.44599115
_cell_formula_units_Z   1
loop_
 _symmetry_equiv_pos_site_id
 _symmetry_equiv_pos_as_xyz
  1  'x, y, z'
loop_
 _atom_site_type_symbol
 _atom_site_label
 _atom_site_symmetry_multiplicity
 _atom_site_fract_x
 _atom_site_fract_y
 _atom_site_fract_z
 _atom_site_occupancy
  Rb  Rb0  1  0.01607700  0.52026400  0.52694600  1
  Rb  Rb1  1  0.55744000  0.53767800  0.97386100  1
  Rb  Rb2  1  0.55632900  0.97343000  0.53615300  1
  Rb  Rb3  1  0.72565400  0.29197100  0.28209600  1
  Rb  Rb4  1  0.74178800  0.24074600  0.76159600  1
  Rb  Rb5  1  0.73722500  0.76320300  0.24250700  1
  Rb  Rb6  1  0.25211200  0.33553000  0.32639500  1
  Rb  Rb7  1  0.00166800  0.86640500  0.88686700  1
  Ba  Ba8  1  0.82477800  0.10295100  0.10011000  1
  Na  Na9  1  0.15275900  0.16251900  0.16117600  1
  Al  Al10  1  0.99888300  0.61929900  0.80907500  1
  Al  Al11  1  0.60656900  0.19309700  0.00494500  1
  Al  Al12  1  0.60643600  0.00941900  0.19169300  1
  Al  Al13  1  0.61785900  0.81255900  0.99435800  1
  Al  Al14  1  0.61805700  0.99133800  0.81276500  1
  Al  Al15  1  0.82457500  0.36798000  0.00686200  1
  Al  Al16  1  0.81802100  0.63517400  0.00066700  1
  Al  Al17  1  0.82531000  0.00834300  0.36507400  1
  Al  Al18  1  0.81865800  0.99740100  0.63281000  1
  Al  Al19  1  0.00570700  0.19138500  0.37747800  1
  Al  Al20  1  0.00503400  0.37607900  0.18990800  1
  Si  Si21  1  0.00607200  0.36809800  0.81727600  1
  Si  Si22  1  0.00671800  0.82044700  0.36687400  1
  Si  Si23  1  0.00130300  0.81074800  0.62085600  1
  Si  Si24  1  0.18628500  0.37896200  0.99892300  1
  Si  Si25  1  0.18391100  0.62671800  0.99883800  1
  Si  Si26  1  0.18699800  0.99960000  0.37736700  1
  Si  Si27  1  0.18401300  0.99557000  0.62530600  1
  Si  Si28  1  0.36321000  0.18600100  0.99883300  1
  Si  Si29  1  0.36752100  0.81519400  0.00011500  1
  Si  Si30  1  0.36477300  0.00288500  0.18554700  1
  Si  Si31  1  0.36703400  0.99664300  0.81553300  1
  Si  Si32  1  0.00458900  0.17812700  0.63509600  1
  Si  Si33  1  0.00365100  0.63454700  0.18172900  1
  O  O34  1  0.99554400  0.23162100  0.51433200  1
  O  O35  1  0.02185800  0.27790100  0.72142800  1
  O  O36  1  0.01928900  0.71371900  0.29006500  1
  O  O37  1  0.99022000  0.48486600  0.75646800  1
  O  O38  1  0.01796700  0.69904300  0.68889000  1
  O  O39  1  0.12170600  0.11030400  0.35143900  1
  O  O40  1  0.12107400  0.34795400  0.10957100  1
  O  O41  1  0.11307100  0.10362000  0.64110700  1
  O  O42  1  0.11213600  0.64408500  0.10847100  1
  O  O43  1  0.11745100  0.37053000  0.88749400  1
  O  O44  1  0.11875700  0.88799100  0.36369300  1
  O  O45  1  0.11690400  0.64028900  0.88750200  1
  O  O46  1  0.11204100  0.88485400  0.63647700  1
  O  O47  1  0.23874600  0.00020100  0.50173300  1
  O  O48  1  0.23850800  0.50229900  0.00763100  1
  O  O49  1  0.27573000  0.28333100  0.99479900  1
  O  O50  1  0.27599800  0.99670800  0.71787600  1
  O  O51  1  0.27793200  0.71826000  0.00642000  1
  O  O52  1  0.27686300  0.99866200  0.28294600  1
  O  O53  1  0.33015500  0.11441300  0.11227300  1
  O  O54  1  0.34843900  0.10585500  0.89358200  1
  O  O55  1  0.35102200  0.89644100  0.10734300  1
  O  O56  1  0.33884800  0.89064500  0.89273400  1
  O  O57  1  0.47717700  0.01522100  0.24674400  1
  O  O58  1  0.47670000  0.24595400  0.00856900  1
  O  O59  1  0.48170900  0.99538100  0.75960800  1
  O  O60  1  0.48218900  0.75964300  0.99767600  1
  O  O61  1  0.63194800  0.14024200  0.13687900  1
  O  O62  1  0.62946300  0.10311100  0.90068700  1
  O  O63  1  0.62691200  0.90368400  0.10354400  1
  O  O64  1  0.64643000  0.86746400  0.86941300  1
  O  O65  1  0.69957900  0.01769300  0.70022000  1
  O  O66  1  0.71498500  0.28173700  0.99746800  1
  O  O67  1  0.69774300  0.70079600  0.02601000  1
  O  O68  1  0.71621600  0.00155400  0.27866700  1
  O  O69  1  0.77992400  0.49873500  0.01216500  1
  O  O70  1  0.78105500  0.00464000  0.49655700  1
  O  O71  1  0.89337100  0.12835700  0.31840200  1
  O  O72  1  0.90112800  0.10973100  0.67030900  1
  O  O73  1  0.89253700  0.31738100  0.12666000  1
  O  O74  1  0.90817300  0.33272900  0.89498000  1
  O  O75  1  0.90012600  0.67395000  0.11599200  1
  O  O76  1  0.89427100  0.66674400  0.88541000  1
  O  O77  1  0.90856700  0.89537200  0.32961100  1
  O  O78  1  0.90152400  0.88173200  0.66150400  1
  O  O79  1  0.04377800  0.30876000  0.30858400  1
  O  O80  1  0.99495600  0.51210400  0.23074600  1
  O  O81  1  0.99229300  0.77108300  0.49138700  1
