# generated using pymatgen
data_Tl3AgTe2
_symmetry_space_group_name_H-M   'P 1'
_cell_length_a   7.65003215
_cell_length_b   9.88990276
_cell_length_c   11.22588308
_cell_angle_alpha   64.17407642
_cell_angle_beta   90.00000000
_cell_angle_gamma   90.00000000
_symmetry_Int_Tables_number   1
_chemical_formula_structural   Tl3AgTe2
_chemical_formula_sum   'Tl12 Ag4 Te8'
_cell_volume   764.49923739
_cell_formula_units_Z   4
loop_
 _symmetry_equiv_pos_site_id
 _symmetry_equiv_pos_as_xyz
  1  'x, y, z'
loop_
 _atom_site_type_symbol
 _atom_site_label
 _atom_site_symmetry_multiplicity
 _atom_site_fract_x
 _atom_site_fract_y
 _atom_site_fract_z
 _atom_site_occupancy
  Tl  Tl0  1  0.70988411  0.66570355  0.41642261  1
  Tl  Tl1  1  0.79011589  0.16570355  0.41642261  1
  Tl  Tl2  1  0.98904774  0.98774951  0.20777618  1
  Tl  Tl3  1  0.00750025  0.46246987  0.76615838  1
  Tl  Tl4  1  0.29011589  0.33429645  0.58357739  1
  Tl  Tl5  1  0.49249975  0.96246987  0.76615838  1
  Tl  Tl6  1  0.01095226  0.01225049  0.79222382  1
  Tl  Tl7  1  0.99249975  0.53753013  0.23384162  1
  Tl  Tl8  1  0.48904774  0.51225049  0.79222382  1
  Tl  Tl9  1  0.51095226  0.48774951  0.20777618  1
  Tl  Tl10  1  0.50750025  0.03753013  0.23384162  1
  Tl  Tl11  1  0.20988411  0.83429645  0.58357739  1
  Ag  Ag12  1  0.16547952  0.32391958  0.09412907  1
  Ag  Ag13  1  0.83452048  0.67608042  0.90587093  1
  Ag  Ag14  1  0.33452048  0.82391958  0.09412907  1
  Ag  Ag15  1  0.66547952  0.17608042  0.90587093  1
  Te  Te16  1  0.77459150  0.80847854  0.62879598  1
  Te  Te17  1  0.22540850  0.19152146  0.37120402  1
  Te  Te18  1  0.72540850  0.30847854  0.62879598  1
  Te  Te19  1  0.27459150  0.69152146  0.37120402  1
  Te  Te20  1  0.77375311  0.35534914  0.03599836  1
  Te  Te21  1  0.27375311  0.14465086  0.96400164  1
  Te  Te22  1  0.72624689  0.85534914  0.03599836  1
  Te  Te23  1  0.22624689  0.64465086  0.96400164  1
