# generated using pymatgen
data_S
_symmetry_space_group_name_H-M   'P 1'
_cell_length_a   14.72191035
_cell_length_b   14.14742272
_cell_length_c   9.61960256
_cell_angle_alpha   73.79683514
_cell_angle_beta   67.33976410
_cell_angle_gamma   38.86340076
_symmetry_Int_Tables_number   1
_chemical_formula_structural   S
_chemical_formula_sum   S32
_cell_volume   1159.35051171
_cell_formula_units_Z   32
loop_
 _symmetry_equiv_pos_site_id
 _symmetry_equiv_pos_as_xyz
  1  'x, y, z'
loop_
 _atom_site_type_symbol
 _atom_site_label
 _atom_site_symmetry_multiplicity
 _atom_site_fract_x
 _atom_site_fract_y
 _atom_site_fract_z
 _atom_site_occupancy
  S  S0  1  0.86760600  0.04369500  0.74662100  1
  S  S1  1  0.85135900  0.73777500  0.04177500  1
  S  S2  1  0.74610000  0.84255300  0.86704300  1
  S  S3  1  0.04026700  0.87228800  0.85038700  1
  S  S4  1  0.12864900  0.95938100  0.26298400  1
  S  S5  1  0.15731200  0.25418000  0.96231100  1
  S  S6  1  0.26053600  0.14766600  0.13050300  1
  S  S7  1  0.95482500  0.13374700  0.15257800  1
  S  S8  1  0.76935800  0.23886800  0.79454100  1
  S  S9  1  0.69203400  0.79761800  0.24015100  1
  S  S10  1  0.79349600  0.69551000  0.76261400  1
  S  S11  1  0.24713700  0.76295700  0.69739900  1
  S  S12  1  0.23005800  0.75622400  0.20371800  1
  S  S13  1  0.30190900  0.20913000  0.75280600  1
  S  S14  1  0.20914100  0.30227400  0.23613500  1
  S  S15  1  0.75220400  0.23308800  0.30571900  1
  S  S16  1  0.86292600  0.29498000  0.61725900  1
  S  S17  1  0.73095300  0.61746400  0.29358800  1
  S  S18  1  0.62338900  0.72102900  0.86079300  1
  S  S19  1  0.29417500  0.85659600  0.72625700  1
  S  S20  1  0.14608700  0.69861000  0.37890300  1
  S  S21  1  0.27627200  0.37543200  0.70532100  1
  S  S22  1  0.37842500  0.27240500  0.14509700  1
  S  S23  1  0.70600500  0.13655500  0.27399900  1
  S  S24  1  0.02893100  0.22916900  0.67125800  1
  S  S25  1  0.57387800  0.67298400  0.22724500  1
  S  S26  1  0.67028000  0.57594000  0.02643100  1
  S  S27  1  0.23106300  0.02099500  0.57352700  1
  S  S28  1  0.97109400  0.77109700  0.32823400  1
  S  S29  1  0.42284700  0.33048400  0.76829700  1
  S  S30  1  0.32631300  0.42595700  0.98007200  1
  S  S31  1  0.77194500  0.97541500  0.42686100  1
