# generated using pymatgen
data_NdAlGe2O7
_symmetry_space_group_name_H-M   'P 1'
_cell_length_a   6.54036719
_cell_length_b   7.23711124
_cell_length_c   12.74562528
_cell_angle_alpha   62.45202028
_cell_angle_beta   90.00000000
_cell_angle_gamma   90.00000000
_symmetry_Int_Tables_number   1
_chemical_formula_structural   NdAlGe2O7
_chemical_formula_sum   'Nd4 Al4 Ge8 O28'
_cell_volume   534.89425795
_cell_formula_units_Z   4
loop_
 _symmetry_equiv_pos_site_id
 _symmetry_equiv_pos_as_xyz
  1  'x, y, z'
loop_
 _atom_site_type_symbol
 _atom_site_label
 _atom_site_symmetry_multiplicity
 _atom_site_fract_x
 _atom_site_fract_y
 _atom_site_fract_z
 _atom_site_occupancy
  Nd  Nd0  1  0.85214028  0.76347820  0.47409742  1
  Nd  Nd1  1  0.35214028  0.23652180  0.02590258  1
  Nd  Nd2  1  0.14785972  0.23652180  0.52590258  1
  Nd  Nd3  1  0.64785972  0.76347820  0.97409742  1
  Al  Al4  1  0.60215537  0.78708528  0.22988785  1
  Al  Al5  1  0.89784463  0.78708528  0.72988785  1
  Al  Al6  1  0.39784463  0.21291472  0.77011215  1
  Al  Al7  1  0.10215537  0.21291472  0.27011215  1
  Ge  Ge8  1  0.15748568  0.79111338  0.95054422  1
  Ge  Ge9  1  0.58960649  0.30203412  0.27987093  1
  Ge  Ge10  1  0.34251432  0.79111338  0.45054422  1
  Ge  Ge11  1  0.84251432  0.20888662  0.04945578  1
  Ge  Ge12  1  0.41039351  0.69796588  0.72012907  1
  Ge  Ge13  1  0.91039351  0.30203412  0.77987093  1
  Ge  Ge14  1  0.08960649  0.69796588  0.22012907  1
  Ge  Ge15  1  0.65748568  0.20888662  0.54945578  1
  O  O16  1  0.62080493  0.57239986  0.19751124  1
  O  O17  1  0.12080493  0.42760014  0.30248876  1
  O  O18  1  0.37919507  0.42760014  0.80248876  1
  O  O19  1  0.87919507  0.57239986  0.69751124  1
  O  O20  1  0.81832427  0.16032562  0.31237910  1
  O  O21  1  0.31832427  0.83967438  0.18762090  1
  O  O22  1  0.18167573  0.83967438  0.68762090  1
  O  O23  1  0.68167573  0.16032562  0.81237910  1
  O  O24  1  0.38299746  0.22366739  0.22296209  1
  O  O25  1  0.88299746  0.77633261  0.27703791  1
  O  O26  1  0.61700254  0.77633261  0.77703791  1
  O  O27  1  0.11700254  0.22366739  0.72296209  1
  O  O28  1  0.82458185  0.40668723  0.52480664  1
  O  O29  1  0.32458185  0.59331277  0.97519336  1
  O  O30  1  0.17541815  0.59331277  0.47519336  1
  O  O31  1  0.67541815  0.40668723  0.02480664  1
  O  O32  1  -0.00250167  0.24750335  0.92643630  1
  O  O33  1  0.49749833  0.75249665  0.57356370  1
  O  O34  1  0.00250167  0.75249665  0.07356370  1
  O  O35  1  0.50250167  0.24750335  0.42643630  1
  O  O36  1  0.66116679  0.00448836  0.08501041  1
  O  O37  1  0.16116679  0.99551164  0.41498959  1
  O  O38  1  0.33883321  0.99551164  0.91498959  1
  O  O39  1  0.83883321  0.00448836  0.58501041  1
  O  O40  1  0.05096050  0.20239319  0.13572034  1
  O  O41  1  0.55096050  0.79760681  0.36427966  1
  O  O42  1  0.94903950  0.79760681  0.86427966  1
  O  O43  1  0.44903950  0.20239319  0.63572034  1
