# generated using pymatgen
data_LiNbGeO5
_symmetry_space_group_name_H-M   'P 1'
_cell_length_a   6.73904678
_cell_length_b   7.52397345
_cell_length_c   7.82183629
_cell_angle_alpha   90.00000000
_cell_angle_beta   90.00000000
_cell_angle_gamma   90.00000000
_symmetry_Int_Tables_number   1
_chemical_formula_structural   LiNbGeO5
_chemical_formula_sum   'Li4 Nb4 Ge4 O20'
_cell_volume   396.60158678
_cell_formula_units_Z   4
loop_
 _symmetry_equiv_pos_site_id
 _symmetry_equiv_pos_as_xyz
  1  'x, y, z'
loop_
 _atom_site_type_symbol
 _atom_site_label
 _atom_site_symmetry_multiplicity
 _atom_site_fract_x
 _atom_site_fract_y
 _atom_site_fract_z
 _atom_site_occupancy
  Li  Li0  1  -0.00000000  0.00000000  0.00000000  1
  Li  Li1  1  0.50000000  0.00000000  0.00000000  1
  Li  Li2  1  -0.00000000  0.50000000  0.50000000  1
  Li  Li3  1  0.50000000  0.50000000  0.50000000  1
  Nb  Nb4  1  0.25000000  0.72680639  0.16259383  1
  Nb  Nb5  1  0.25000000  0.77319361  0.66259383  1
  Nb  Nb6  1  0.75000000  0.22680639  0.33740617  1
  Nb  Nb7  1  0.75000000  0.27319361  0.83740617  1
  Ge  Ge8  1  0.75000000  0.63428273  0.13092867  1
  Ge  Ge9  1  0.75000000  0.86571727  0.63092867  1
  Ge  Ge10  1  0.25000000  0.13428273  0.36907133  1
  Ge  Ge11  1  0.25000000  0.36571727  0.86907133  1
  O  O12  1  0.95914886  0.77017167  0.12429595  1
  O  O13  1  0.25000000  0.83935632  0.88677029  1
  O  O14  1  0.75000000  0.16064368  0.11322971  1
  O  O15  1  0.75000000  0.33935632  0.61322971  1
  O  O16  1  0.25000000  0.66064368  0.38677029  1
  O  O17  1  0.04085114  0.27017167  0.37570405  1
  O  O18  1  0.54085114  0.72982833  0.62429595  1
  O  O19  1  0.25000000  0.00290740  0.55530218  1
  O  O20  1  0.25000000  0.49781111  0.68482738  1
  O  O21  1  0.75000000  0.50218889  0.31517262  1
  O  O22  1  0.75000000  0.99781111  0.81517262  1
  O  O23  1  0.25000000  0.00218889  0.18482738  1
  O  O24  1  0.75000000  0.50290740  0.94469782  1
  O  O25  1  0.75000000  0.99709260  0.44469782  1
  O  O26  1  0.95914886  0.72982833  0.62429595  1
  O  O27  1  0.25000000  0.49709260  0.05530218  1
  O  O28  1  0.54085114  0.77017167  0.12429595  1
  O  O29  1  0.04085114  0.22982833  0.87570405  1
  O  O30  1  0.45914886  0.27017167  0.37570405  1
  O  O31  1  0.45914886  0.22982833  0.87570405  1
