# generated using pymatgen
data_Cs2Ti2S9
_symmetry_space_group_name_H-M   'P 1'
_cell_length_a   10.38877823
_cell_length_b   10.38877824
_cell_length_c   10.38877753
_cell_angle_alpha   83.38886257
_cell_angle_beta   83.38886260
_cell_angle_gamma   83.38887064
_symmetry_Int_Tables_number   1
_chemical_formula_structural   Cs2Ti2S9
_chemical_formula_sum   'Cs6 Ti6 S27'
_cell_volume   1100.45248019
_cell_formula_units_Z   3
loop_
 _symmetry_equiv_pos_site_id
 _symmetry_equiv_pos_as_xyz
  1  'x, y, z'
loop_
 _atom_site_type_symbol
 _atom_site_label
 _atom_site_symmetry_multiplicity
 _atom_site_fract_x
 _atom_site_fract_y
 _atom_site_fract_z
 _atom_site_occupancy
  Cs  Cs0  1  0.66045042  0.66045042  0.66045042  1
  Cs  Cs1  1  0.44185273  0.78495846  0.17402020  1
  Cs  Cs2  1  0.78495846  0.17402020  0.44185273  1
  Cs  Cs3  1  0.23523052  0.23523052  0.23523052  1
  Cs  Cs4  1  0.17402020  0.44185273  0.78495846  1
  Cs  Cs5  1  0.99852822  0.99852822  0.99852822  1
  Ti  Ti6  1  0.86724691  0.52966562  0.16948739  1
  Ti  Ti7  1  0.99377569  0.72935948  0.33245023  1
  Ti  Ti8  1  0.52966562  0.16948739  0.86724691  1
  Ti  Ti9  1  0.72935948  0.33245023  0.99377569  1
  Ti  Ti10  1  0.33245023  0.99377569  0.72935948  1
  Ti  Ti11  1  0.16948739  0.86724691  0.52966562  1
  S  S12  1  0.91292671  0.31211018  0.11618421  1
  S  S13  1  0.39698825  0.89372816  0.50582571  1
  S  S14  1  0.82097725  0.78665557  0.19673914  1
  S  S15  1  0.70549775  0.51179420  0.35156934  1
  S  S16  1  0.78665557  0.19673914  0.82097725  1
  S  S17  1  0.38409347  0.77957169  0.83424687  1
  S  S18  1  0.17481216  0.55832395  0.32933237  1
  S  S19  1  0.60170444  0.15466895  0.09495576  1
  S  S20  1  0.32933237  0.17481216  0.55832395  1
  S  S21  1  0.01333969  0.70904252  0.57444072  1
  S  S22  1  0.70904252  0.57444072  0.01333969  1
  S  S23  1  0.31211018  0.11618421  0.91292671  1
  S  S24  1  0.51179420  0.35156934  0.70549775  1
  S  S25  1  0.95112833  0.88711588  0.64194487  1
  S  S26  1  0.11618421  0.91292671  0.31211018  1
  S  S27  1  0.35156934  0.70549775  0.51179420  1
  S  S28  1  0.64194487  0.95112833  0.88711588  1
  S  S29  1  0.88711588  0.64194487  0.95112833  1
  S  S30  1  0.15466895  0.09495576  0.60170444  1
  S  S31  1  0.89372816  0.50582571  0.39698825  1
  S  S32  1  0.77957169  0.83424687  0.38409347  1
  S  S33  1  0.19673914  0.82097725  0.78665557  1
  S  S34  1  0.50582571  0.39698825  0.89372816  1
  S  S35  1  0.83424687  0.38409347  0.77957169  1
  S  S36  1  0.57444072  0.01333969  0.70904252  1
  S  S37  1  0.55832395  0.32933237  0.17481216  1
  S  S38  1  0.09495576  0.60170444  0.15466895  1
