# generated using pymatgen
data_VPO5
_symmetry_space_group_name_H-M   'P 1'
_cell_length_a   5.01671132
_cell_length_b   10.40957489
_cell_length_c   7.32995625
_cell_angle_alpha   66.21020921
_cell_angle_beta   69.96091705
_cell_angle_gamma   76.08526151
_symmetry_Int_Tables_number   1
_chemical_formula_structural   VPO5
_chemical_formula_sum   'V4 P4 O20'
_cell_volume   326.71795940
_cell_formula_units_Z   4
loop_
 _symmetry_equiv_pos_site_id
 _symmetry_equiv_pos_as_xyz
  1  'x, y, z'
loop_
 _atom_site_type_symbol
 _atom_site_label
 _atom_site_symmetry_multiplicity
 _atom_site_fract_x
 _atom_site_fract_y
 _atom_site_fract_z
 _atom_site_occupancy
  V  V0  1  -0.01257448  0.52610855  0.01014055  1
  V  V1  1  0.00709585  0.75993020  0.27372347  1
  V  V2  1  0.46050208  0.25987049  0.77359622  1
  V  V3  1  0.97739022  0.02629672  0.50967209  1
  P  P4  1  0.61704784  0.05553549  0.18636722  1
  P  P5  1  0.35817657  0.44130176  0.31211732  1
  P  P6  1  0.38874372  0.94126151  0.81193095  1
  P  P7  1  0.64272204  0.55542331  0.68697348  1
  O  O8  1  0.29306109  0.06647092  0.27474011  1
  O  O9  1  0.16486209  0.40773628  0.21767502  1
  O  O10  1  0.07920031  0.82408089  0.41368568  1
  O  O11  1  0.29583218  0.82727589  0.02214130  1
  O  O12  1  0.25125420  0.58643997  0.33303271  1
  O  O13  1  0.33013130  0.08635150  0.83296908  1
  O  O14  1  0.35577156  0.32744198  0.52223679  1
  O  O15  1  0.18452788  0.32372913  0.91417493  1
  O  O16  1  0.74915111  0.08391862  0.32247625  1
  O  O17  1  0.23425997  0.93618920  0.66795021  1
  O  O18  1  0.66139508  0.43624622  0.16729474  1
  O  O19  1  0.34644934  0.58338885  0.82399111  1
  O  O20  1  0.87173550  0.16531692  0.57071777  1
  O  O21  1  0.68044597  0.16474209  0.96651582  1
  O  O22  1  0.68052034  0.40885170  0.66926322  1
  O  O23  1  0.74277108  0.90877008  0.16927026  1
  O  O24  1  0.68916142  0.66491967  0.46733754  1
  O  O25  1  0.89277034  0.66518732  0.07105172  1
  O  O26  1  0.70982792  0.90791606  0.71639620  1
  O  O27  1  0.86839250  0.56630669  0.77449621  1
