# generated using pymatgen
data_Re(SeCl6)2
_symmetry_space_group_name_H-M   'P 1'
_cell_length_a   12.72439110
_cell_length_b   12.50261267
_cell_length_c   8.86251990
_cell_angle_alpha   70.78095970
_cell_angle_beta   68.09581812
_cell_angle_gamma   41.12322218
_symmetry_Int_Tables_number   1
_chemical_formula_structural   Re(SeCl6)2
_chemical_formula_sum   'Re2 Se4 Cl24'
_cell_volume   857.65345586
_cell_formula_units_Z   2
loop_
 _symmetry_equiv_pos_site_id
 _symmetry_equiv_pos_as_xyz
  1  'x, y, z'
loop_
 _atom_site_type_symbol
 _atom_site_label
 _atom_site_symmetry_multiplicity
 _atom_site_fract_x
 _atom_site_fract_y
 _atom_site_fract_z
 _atom_site_occupancy
  Re  Re0  1  0.91724800  0.92324500  0.57519600  1
  Re  Re1  1  0.67390600  0.66526300  0.32670000  1
  Se  Se2  1  0.72870000  0.27396800  0.21668600  1
  Se  Se3  1  0.26763800  0.73548200  0.77922700  1
  Se  Se4  1  0.03525200  0.47266200  0.51257500  1
  Se  Se5  1  0.47360800  0.03307900  0.97811300  1
  Cl  Cl6  1  0.12354300  0.23047700  0.53609500  1
  Cl  Cl7  1  0.92902400  0.56435000  0.21855100  1
  Cl  Cl8  1  0.40660300  0.78366300  0.44212100  1
  Cl  Cl9  1  0.62615700  0.71761100  0.06731000  1
  Cl  Cl10  1  0.30132800  0.85643900  0.87550300  1
  Cl  Cl11  1  0.03633300  0.96304100  0.31425200  1
  Cl  Cl12  1  0.78601900  0.40112900  0.36733200  1
  Cl  Cl13  1  0.66151400  0.18034100  0.54393800  1
  Cl  Cl14  1  0.51345800  0.48168400  0.79021900  1
  Cl  Cl15  1  0.56257800  0.93313200  0.29165300  1
  Cl  Cl16  1  0.27753800  0.37912400  0.39679500  1
  Cl  Cl17  1  0.85237000  0.29703300  0.97517400  1
  Cl  Cl18  1  0.70480300  0.14719800  0.13486600  1
  Cl  Cl19  1  0.96703000  0.02699700  0.69312300  1
  Cl  Cl20  1  0.46937300  0.02935200  0.73521200  1
  Cl  Cl21  1  0.23100600  0.12462200  0.10825700  1
  Cl  Cl22  1  0.80031100  0.89145000  0.84276200  1
  Cl  Cl23  1  0.15046100  0.70596800  0.01692300  1
  Cl  Cl24  1  0.37824000  0.27421300  0.94814600  1
  Cl  Cl25  1  0.88364500  0.80995400  0.46011800  1
  Cl  Cl26  1  0.70974000  0.63361300  0.59494400  1
  Cl  Cl27  1  0.02978300  0.46077500  0.77173600  1
  Cl  Cl28  1  0.47447000  0.51910000  0.22176800  1
  Cl  Cl29  1  0.18370400  0.65910400  0.61315200  1
