# generated using pymatgen
data_BaCdGaF7
_symmetry_space_group_name_H-M   'P 1'
_cell_length_a   7.45536675
_cell_length_b   7.45536675
_cell_length_c   15.01098349
_cell_angle_alpha   88.34025906
_cell_angle_beta   88.34025906
_cell_angle_gamma   42.17511772
_symmetry_Int_Tables_number   1
_chemical_formula_structural   BaCdGaF7
_chemical_formula_sum   'Ba4 Cd4 Ga4 F28'
_cell_volume   559.91020740
_cell_formula_units_Z   4
loop_
 _symmetry_equiv_pos_site_id
 _symmetry_equiv_pos_as_xyz
  1  'x, y, z'
loop_
 _atom_site_type_symbol
 _atom_site_label
 _atom_site_symmetry_multiplicity
 _atom_site_fract_x
 _atom_site_fract_y
 _atom_site_fract_z
 _atom_site_occupancy
  Ba  Ba0  1  0.77276967  0.84346997  0.62346256  1
  Ba  Ba1  1  0.15653003  0.22723033  0.87653744  1
  Ba  Ba2  1  0.84346997  0.77276967  0.12346256  1
  Ba  Ba3  1  0.22723033  0.15653003  0.37653744  1
  Cd  Cd4  1  0.45310483  0.54689517  0.75000000  1
  Cd  Cd5  1  0.54689517  0.45310483  0.25000000  1
  Cd  Cd6  1  0.50000000  0.50000000  0.50000000  1
  Cd  Cd7  1  0.50000000  0.50000000  0.00000000  1
  Ga  Ga8  1  0.13303205  0.11095324  0.62492009  1
  Ga  Ga9  1  0.86696795  0.88904676  0.37507991  1
  Ga  Ga10  1  0.11095324  0.13303205  0.12492009  1
  Ga  Ga11  1  0.88904676  0.86696795  0.87507991  1
  F  F12  1  0.89157438  0.11857032  0.34685882  1
  F  F13  1  0.94130700  0.38016171  0.22219594  1
  F  F14  1  0.43959766  0.83174617  0.54950811  1
  F  F15  1  0.05869300  0.61983829  0.77780406  1
  F  F16  1  0.30167932  0.20185384  0.09304839  1
  F  F17  1  0.75503225  0.06923848  0.98050195  1
  F  F18  1  0.39326467  0.85311498  0.19966714  1
  F  F19  1  0.60673533  0.14688502  0.80033286  1
  F  F20  1  0.61983829  0.05869300  0.27780406  1
  F  F21  1  0.16825383  0.56040234  0.95049189  1
  F  F22  1  0.45684846  0.66627449  0.37083174  1
  F  F23  1  0.93076152  0.24496775  0.51949805  1
  F  F24  1  0.06923848  0.75503225  0.48050195  1
  F  F25  1  0.54315154  0.33372551  0.62916826  1
  F  F26  1  0.10842562  0.88142968  0.65314118  1
  F  F27  1  0.79814616  0.69832068  0.40695161  1
  F  F28  1  0.69832068  0.79814616  0.90695161  1
  F  F29  1  0.38016171  0.94130700  0.72219594  1
  F  F30  1  0.24496775  0.93076152  0.01949805  1
  F  F31  1  0.66627449  0.45684846  0.87083174  1
  F  F32  1  0.85311498  0.39326467  0.69966714  1
  F  F33  1  0.20185384  0.30167932  0.59304839  1
  F  F34  1  0.83174617  0.43959766  0.04950811  1
  F  F35  1  0.33372551  0.54315154  0.12916826  1
  F  F36  1  0.11857032  0.89157438  0.84685882  1
  F  F37  1  0.14688502  0.60673533  0.30033286  1
  F  F38  1  0.56040234  0.16825383  0.45049189  1
  F  F39  1  0.88142968  0.10842562  0.15314118  1
