# generated using pymatgen
data_TePCl9
_symmetry_space_group_name_H-M   'P 1'
_cell_length_a   12.16517084
_cell_length_b   12.16524922
_cell_length_c   12.16490852
_cell_angle_alpha   118.36236446
_cell_angle_beta   119.46261057
_cell_angle_gamma   91.89737395
_symmetry_Int_Tables_number   1
_chemical_formula_structural   TePCl9
_chemical_formula_sum   'Te4 P4 Cl36'
_cell_volume   1293.02185351
_cell_formula_units_Z   4
loop_
 _symmetry_equiv_pos_site_id
 _symmetry_equiv_pos_as_xyz
  1  'x, y, z'
loop_
 _atom_site_type_symbol
 _atom_site_label
 _atom_site_symmetry_multiplicity
 _atom_site_fract_x
 _atom_site_fract_y
 _atom_site_fract_z
 _atom_site_occupancy
  Te  Te0  1  0.75390968  0.84991460  0.10381223  1
  Te  Te1  1  0.17630488  0.72381532  0.40012470  1
  Te  Te2  1  0.25393303  0.15009316  0.90397568  1
  Te  Te3  1  0.67628713  0.27616377  0.45246115  1
  P  P4  1  0.19864248  0.71297246  0.93887843  1
  P  P5  1  0.69867113  0.75976809  0.48570111  1
  P  P6  1  0.22591287  0.28702503  0.48567680  1
  P  P7  1  0.72591148  0.24025290  0.93890501  1
  Cl  Cl8  1  0.82735153  0.43386319  0.46255041  1
  Cl  Cl9  1  0.07657790  0.55927044  0.13586155  1
  Cl  Cl10  1  0.24217986  0.34355502  0.08572012  1
  Cl  Cl11  1  0.88431842  0.20754244  0.94548472  1
  Cl  Cl12  1  0.52866577  0.13520922  0.46254998  1
  Cl  Cl13  1  0.16098272  0.68340837  0.75012507  1
  Cl  Cl14  1  0.23759058  0.12492517  0.47626628  1
  Cl  Cl15  1  0.85309109  0.36537435  0.71848683  1
  Cl  Cl16  1  0.48534922  0.17093735  0.15630823  1
  Cl  Cl17  1  0.35130836  0.87505004  0.11263865  1
  Cl  Cl18  1  0.23792203  0.56114130  0.94545222  1
  Cl  Cl19  1  0.66105107  0.91088628  0.47765339  1
  Cl  Cl20  1  0.27656022  0.92883272  0.70539140  1
  Cl  Cl21  1  0.32737961  0.86479089  0.39350696  1
  Cl  Cl22  1  0.89929316  0.99098459  0.09090430  1
  Cl  Cl23  1  0.98536476  0.82905762  0.31440850  1
  Cl  Cl24  1  0.73795602  0.79246189  0.67680763  1
  Cl  Cl25  1  0.56164194  0.86732581  0.92896429  1
  Cl  Cl26  1  0.38430861  0.43883854  0.67677336  1
  Cl  Cl27  1  0.06167943  0.13269843  0.69435985  1
  Cl  Cl28  1  0.73759494  0.26133696  0.11268747  1
  Cl  Cl29  1  0.04255582  0.72765167  0.94402919  1
  Cl  Cl30  1  0.35310593  0.63459350  0.48771957  1
  Cl  Cl31  1  0.09994569  0.00903996  0.90831960  1
  Cl  Cl32  1  0.54259784  0.59856669  0.31495091  1
  Cl  Cl33  1  0.39931232  0.30839038  0.90830907  1
  Cl  Cl34  1  0.59994067  0.69161791  0.09092259  1
  Cl  Cl35  1  0.77656182  0.07115807  0.34772932  1
  Cl  Cl36  1  0.56674822  0.08915961  0.75017109  1
  Cl  Cl37  1  0.71638394  0.40147668  0.94405739  1
  Cl  Cl38  1  0.85136345  0.73866390  0.47628206  1
  Cl  Cl39  1  0.06673182  0.31659839  0.47760335  1
  Cl  Cl40  1  0.02867720  0.56610262  0.39347419  1
  Cl  Cl41  1  0.74215707  0.65641555  0.89856866  1
  Cl  Cl42  1  0.57658101  0.44072421  0.51729474  1
  Cl  Cl43  1  0.21637330  0.27234291  0.31491193  1
