# generated using pymatgen
data_K2PtS15
_symmetry_space_group_name_H-M   'P 1'
_cell_length_a   9.09911367
_cell_length_b   9.09911367
_cell_length_c   12.59240978
_cell_angle_alpha   88.48055091
_cell_angle_beta   88.48055091
_cell_angle_gamma   66.23920017
_symmetry_Int_Tables_number   1
_chemical_formula_structural   K2PtS15
_chemical_formula_sum   'K4 Pt2 S30'
_cell_volume   953.72274676
_cell_formula_units_Z   2
loop_
 _symmetry_equiv_pos_site_id
 _symmetry_equiv_pos_as_xyz
  1  'x, y, z'
loop_
 _atom_site_type_symbol
 _atom_site_label
 _atom_site_symmetry_multiplicity
 _atom_site_fract_x
 _atom_site_fract_y
 _atom_site_fract_z
 _atom_site_occupancy
  K  K0  1  0.77217056  0.65254286  0.13965209  1
  K  K1  1  0.65254286  0.77217056  0.63965209  1
  K  K2  1  0.94913523  0.27000063  0.39759841  1
  K  K3  1  0.27000063  0.94913523  0.89759841  1
  Pt  Pt4  1  0.20413089  0.77552476  0.24962609  1
  Pt  Pt5  1  0.77552476  0.20413089  0.74962609  1
  S  S6  1  0.56371428  0.40314745  0.27777738  1
  S  S7  1  0.40314745  0.56371428  0.77777738  1
  S  S8  1  0.59117940  0.36032417  0.11520979  1
  S  S9  1  0.36032417  0.59117940  0.61520979  1
  S  S10  1  0.35299630  0.13012490  0.37756906  1
  S  S11  1  0.13012490  0.35299630  0.87756906  1
  S  S12  1  0.35205859  0.93246909  0.46242349  1
  S  S13  1  0.93246909  0.35205859  0.96242349  1
  S  S14  1  0.15490656  0.89673913  0.42305492  1
  S  S15  1  0.89673913  0.15490656  0.92305492  1
  S  S16  1  0.48391805  0.64391458  0.29352704  1
  S  S17  1  0.64391458  0.48391805  0.79352704  1
  S  S18  1  0.35506079  0.43387587  0.07246103  1
  S  S19  1  0.43387587  0.35506079  0.57246103  1
  S  S20  1  0.25586696  0.67634562  0.07093404  1
  S  S21  1  0.67634562  0.25586696  0.57093404  1
  S  S22  1  0.21954615  0.01645905  0.17383122  1
  S  S23  1  0.01645905  0.21954615  0.67383122  1
  S  S24  1  0.41696409  0.04068708  0.22590464  1
  S  S25  1  0.04068708  0.41696409  0.72590464  1
  S  S26  1  0.15119498  0.54795323  0.31072786  1
  S  S27  1  0.54795323  0.15119498  0.81072786  1
  S  S28  1  0.79334003  0.96890175  0.33501567  1
  S  S29  1  0.96890175  0.79334003  0.83501567  1
  S  S30  1  0.01204413  0.61724755  0.44308753  1
  S  S31  1  0.61724755  0.01204413  0.94308753  1
  S  S32  1  0.92607811  0.91099640  0.19972445  1
  S  S33  1  0.91099640  0.92607811  0.69972445  1
  S  S34  1  0.77989750  0.75634732  0.39087330  1
  S  S35  1  0.75634732  0.77989750  0.89087330  1
