# generated using pymatgen
data_TlSnF3
_symmetry_space_group_name_H-M   'P 1'
_cell_length_a   10.34000475
_cell_length_b   10.34000475
_cell_length_c   8.18336620
_cell_angle_alpha   72.42183243
_cell_angle_beta   72.42183243
_cell_angle_gamma   81.39369261
_symmetry_Int_Tables_number   1
_chemical_formula_structural   TlSnF3
_chemical_formula_sum   'Tl8 Sn8 F24'
_cell_volume   793.48417093
_cell_formula_units_Z   8
loop_
 _symmetry_equiv_pos_site_id
 _symmetry_equiv_pos_as_xyz
  1  'x, y, z'
loop_
 _atom_site_type_symbol
 _atom_site_label
 _atom_site_symmetry_multiplicity
 _atom_site_fract_x
 _atom_site_fract_y
 _atom_site_fract_z
 _atom_site_occupancy
  Tl  Tl0  1  0.97761591  0.50958924  0.74283373  1
  Tl  Tl1  1  0.84906734  0.89264791  0.54995483  1
  Tl  Tl2  1  0.11028249  0.14610010  0.94885892  1
  Tl  Tl3  1  0.47942987  0.01318110  0.75454566  1
  Tl  Tl4  1  0.50958924  0.97761591  0.24283373  1
  Tl  Tl5  1  0.89264791  0.84906734  0.04995483  1
  Tl  Tl6  1  0.14610010  0.11028249  0.44885892  1
  Tl  Tl7  1  0.01318110  0.47942987  0.25454566  1
  Sn  Sn8  1  0.37933915  0.36361877  0.95988878  1
  Sn  Sn9  1  0.74481491  0.20980709  0.78598673  1
  Sn  Sn10  1  0.25642601  0.74519184  0.75309630  1
  Sn  Sn11  1  0.64273974  0.61997127  0.53948776  1
  Sn  Sn12  1  0.36361877  0.37933915  0.45988878  1
  Sn  Sn13  1  0.74519184  0.25642601  0.25309630  1
  Sn  Sn14  1  0.20980709  0.74481491  0.28598673  1
  Sn  Sn15  1  0.61997127  0.64273974  0.03948776  1
  F  F16  1  0.68109859  0.83814228  0.90814353  1
  F  F17  1  0.84408563  0.28238026  0.94946684  1
  F  F18  1  0.72395189  0.62236471  0.76147594  1
  F  F19  1  0.18307409  0.41932828  0.93996533  1
  F  F20  1  0.24234815  0.94865637  0.73779228  1
  F  F21  1  0.92018869  0.08834510  0.74885772  1
  F  F22  1  0.05775788  0.76387080  0.74726205  1
  F  F23  1  0.58546302  0.81980896  0.55312261  1
  F  F24  1  0.83656124  0.37217046  0.59518720  1
  F  F25  1  0.38528552  0.27869097  0.73361021  1
  F  F26  1  0.83814228  0.68109859  0.40814353  1
  F  F27  1  0.73131939  0.15591516  0.54035141  1
  F  F28  1  0.28238026  0.84408563  0.44946684  1
  F  F29  1  0.16829608  0.32147076  0.58801216  1
  F  F30  1  0.62236471  0.72395189  0.26147594  1
  F  F31  1  0.41932828  0.18307409  0.43996533  1
  F  F32  1  0.94865637  0.24234815  0.23779228  1
  F  F33  1  0.08834510  0.92018869  0.24885772  1
  F  F34  1  0.76387080  0.05775788  0.24726205  1
  F  F35  1  0.81980896  0.58546302  0.05312261  1
  F  F36  1  0.37217046  0.83656124  0.09518720  1
  F  F37  1  0.27869097  0.38528552  0.23361021  1
  F  F38  1  0.15591516  0.73131939  0.04035141  1
  F  F39  1  0.32147076  0.16829608  0.08801216  1
