# generated using pymatgen
data_ReSeCl
_symmetry_space_group_name_H-M   'P 1'
_cell_length_a   9.34491350
_cell_length_b   9.34516927
_cell_length_c   11.31675013
_cell_angle_alpha   89.99556122
_cell_angle_beta   90.00237912
_cell_angle_gamma   103.78862754
_symmetry_Int_Tables_number   1
_chemical_formula_structural   ReSeCl
_chemical_formula_sum   'Re12 Se12 Cl12'
_cell_volume   959.80858886
_cell_formula_units_Z   12
loop_
 _symmetry_equiv_pos_site_id
 _symmetry_equiv_pos_as_xyz
  1  'x, y, z'
loop_
 _atom_site_type_symbol
 _atom_site_label
 _atom_site_symmetry_multiplicity
 _atom_site_fract_x
 _atom_site_fract_y
 _atom_site_fract_z
 _atom_site_occupancy
  Re  Re0  1  0.37242942  0.62757668  0.25000422  1
  Re  Re1  1  0.31605006  0.82270495  0.10271830  1
  Re  Re2  1  0.39011047  0.89730953  0.32218958  1
  Re  Re3  1  0.62756242  0.37241963  0.74999558  1
  Re  Re4  1  0.60989179  0.10268262  0.82219331  1
  Re  Re5  1  0.68394050  0.17730848  0.60272001  1
  Re  Re6  1  0.82269901  0.31604403  0.89727985  1
  Re  Re7  1  0.89731074  0.39011600  0.67780674  1
  Re  Re8  1  0.87926259  0.12075656  0.75000739  1
  Re  Re9  1  0.10267883  0.60989828  0.17779815  1
  Re  Re10  1  0.17729991  0.68393741  0.39727469  1
  Re  Re11  1  0.12074100  0.87925850  0.24999946  1
  Se  Se12  1  0.29519932  0.55982409  0.03859715  1
  Se  Se13  1  0.44018188  0.70480321  0.46141125  1
  Se  Se14  1  0.33348624  0.08098572  0.17618183  1
  Se  Se15  1  0.55982991  0.29515898  0.96140823  1
  Se  Se16  1  0.70481116  0.44017305  0.53859426  1
  Se  Se17  1  0.66652795  0.91904854  0.67618565  1
  Se  Se18  1  0.91900870  0.66649589  0.32380717  1
  Se  Se19  1  0.80027943  0.05685674  0.96116022  1
  Se  Se20  1  0.94311984  0.19973701  0.53885092  1
  Se  Se21  1  0.08098119  0.33349847  0.82382906  1
  Se  Se22  1  0.05686670  0.80029446  0.03883549  1
  Se  Se23  1  0.19973779  0.94310230  0.46116933  1
  Cl  Cl24  1  0.46792079  0.53207655  0.74999933  1
  Cl  Cl25  1  0.42861362  0.16842081  0.67862791  1
  Cl  Cl26  1  0.40925074  0.90078662  0.90030066  1
  Cl  Cl27  1  0.53208188  0.46792078  0.25000035  1
  Cl  Cl28  1  0.59074237  0.09920399  0.40030872  1
  Cl  Cl29  1  0.57137264  0.83157471  0.17862985  1
  Cl  Cl30  1  0.83155757  0.57136638  0.82137064  1
  Cl  Cl31  1  0.90078983  0.40923943  0.09969143  1
  Cl  Cl32  1  0.95912569  0.04087214  0.24999863  1
  Cl  Cl33  1  0.09919838  0.59075460  0.59968780  1
  Cl  Cl34  1  0.04090811  0.95916908  0.74999836  1
  Cl  Cl35  1  0.16843053  0.42861979  0.32136947  1
