# generated using pymatgen
data_Ba3InAs3
_symmetry_space_group_name_H-M   'P 1'
_cell_length_a   4.65274847
_cell_length_b   14.13905490
_cell_length_c   14.64363996
_cell_angle_alpha   90.00000000
_cell_angle_beta   90.00000000
_cell_angle_gamma   90.00000000
_symmetry_Int_Tables_number   1
_chemical_formula_structural   Ba3InAs3
_chemical_formula_sum   'Ba12 In4 As12'
_cell_volume   963.33867948
_cell_formula_units_Z   4
loop_
 _symmetry_equiv_pos_site_id
 _symmetry_equiv_pos_as_xyz
  1  'x, y, z'
loop_
 _atom_site_type_symbol
 _atom_site_label
 _atom_site_symmetry_multiplicity
 _atom_site_fract_x
 _atom_site_fract_y
 _atom_site_fract_z
 _atom_site_occupancy
  Ba  Ba0  1  0.25000000  0.41895671  0.10673124  1
  Ba  Ba1  1  0.25000000  0.13354636  0.00375771  1
  Ba  Ba2  1  0.25000000  0.22161486  0.29979156  1
  Ba  Ba3  1  0.75000000  0.27838514  0.79979156  1
  Ba  Ba4  1  0.75000000  0.36645364  0.50375771  1
  Ba  Ba5  1  0.25000000  0.91895671  0.39326876  1
  Ba  Ba6  1  0.75000000  0.77838514  0.70020844  1
  Ba  Ba7  1  0.75000000  0.86645364  0.99624229  1
  Ba  Ba8  1  0.25000000  0.72161486  0.20020844  1
  Ba  Ba9  1  0.75000000  0.08104329  0.60673124  1
  Ba  Ba10  1  0.75000000  0.58104329  0.89326876  1
  Ba  Ba11  1  0.25000000  0.63354636  0.49624229  1
  In  In12  1  0.75000000  0.55314218  0.29589113  1
  In  In13  1  0.75000000  0.05314218  0.20410887  1
  In  In14  1  0.25000000  0.44685782  0.70410887  1
  In  In15  1  0.25000000  0.94685782  0.79589113  1
  As  As16  1  0.75000000  0.23094598  0.12913903  1
  As  As17  1  0.75000000  0.73094598  0.37086097  1
  As  As18  1  0.75000000  0.58541328  0.11595278  1
  As  As19  1  0.25000000  0.26905402  0.62913903  1
  As  As20  1  0.25000000  0.76905402  0.87086097  1
  As  As21  1  0.75000000  0.08541328  0.38404722  1
  As  As22  1  0.25000000  0.91458672  0.61595278  1
  As  As23  1  0.25000000  0.41458672  0.88404722  1
  As  As24  1  0.75000000  0.04352746  0.84933041  1
  As  As25  1  0.25000000  0.45647254  0.34933041  1
  As  As26  1  0.25000000  0.95647254  0.15066959  1
  As  As27  1  0.75000000  0.54352746  0.65066959  1
