# generated using pymatgen
data_Sm2Te3
_symmetry_space_group_name_H-M   'P 1'
_cell_length_a   24.59835982
_cell_length_b   9.45611027
_cell_length_c   9.45622341
_cell_angle_alpha   89.98632604
_cell_angle_beta   54.78585082
_cell_angle_gamma   54.78439536
_symmetry_Int_Tables_number   1
_chemical_formula_structural   Sm2Te3
_chemical_formula_sum   'Sm16 Te24'
_cell_volume   1273.31895519
_cell_formula_units_Z   8
loop_
 _symmetry_equiv_pos_site_id
 _symmetry_equiv_pos_as_xyz
  1  'x, y, z'
loop_
 _atom_site_type_symbol
 _atom_site_label
 _atom_site_symmetry_multiplicity
 _atom_site_fract_x
 _atom_site_fract_y
 _atom_site_fract_z
 _atom_site_occupancy
  Sm  Sm0  1  0.08157761  0.62755169  0.37761945  1
  Sm  Sm1  1  0.16663843  0.25001554  0.63293458  1
  Sm  Sm2  1  0.33690072  0.37475725  0.25237591  1
  Sm  Sm3  1  0.25177880  0.87234609  0.12231262  1
  Sm  Sm4  1  0.33688887  0.11479075  0.73705270  1
  Sm  Sm5  1  0.16672400  0.74989169  0.86707204  1
  Sm  Sm6  1  0.49650669  0.26288541  0.62509886  1
  Sm  Sm7  1  0.58157651  0.87761998  0.12755191  1
  Sm  Sm8  1  0.66670283  0.36710287  0.24992126  1
  Sm  Sm9  1  0.49646167  0.74764461  0.88529247  1
  Sm  Sm10  1  0.66663552  0.13294477  0.75003691  1
  Sm  Sm11  1  0.75177891  0.62230430  0.37233832  1
  Sm  Sm12  1  0.83690183  0.23704539  0.61475317  1
  Sm  Sm13  1  0.99646535  0.38529040  0.24762223  1
  Sm  Sm14  1  0.83690280  0.75238756  0.87475566  1
  Sm  Sm15  1  0.99651008  0.12509650  0.76288415  1
  Te  Te16  1  0.12466756  0.49132186  0.99419682  1
  Te  Te17  1  0.04919224  0.35295588  0.49550815  1
  Te  Te18  1  0.28391102  0.14719815  0.14335801  1
  Te  Te19  1  0.04932751  0.99905970  0.35681415  1
  Te  Te20  1  0.28396316  0.50094467  0.00464150  1
  Te  Te21  1  0.20854343  0.00880791  0.86811875  1
  Te  Te22  1  0.12491951  0.63428758  0.63163659  1
  Te  Te23  1  0.20864286  0.86529723  0.50602128  1
  Te  Te24  1  0.44991587  0.49582304  0.00262979  1
  Te  Te25  1  0.38358176  0.35260862  0.50389111  1
  Te  Te26  1  0.38325473  -0.00253357  0.34589990  1
  Te  Te27  1  0.62491452  0.13166210  0.13428606  1
  Te  Te28  1  0.62468091  0.49417772  0.99130239  1
  Te  Te29  1  0.54918934  0.99549759  0.85295756  1
  Te  Te30  1  0.44992876  0.65446446  0.64743840  1
  Te  Te31  1  0.54931984  0.85681121  0.49905746  1
  Te  Te32  1  0.78395553  0.50465715  0.00097091  1
  Te  Te33  1  0.70854516  0.36813280  0.50879500  1
  Te  Te34  1  0.70862857  0.00603071  0.36536470  1
  Te  Te35  1  0.94995740  0.14735843  0.15440567  1
  Te  Te36  1  0.94991621  0.50261063  0.99582178  1
  Te  Te37  1  0.78393154  0.64333750  0.64713115  1
  Te  Te38  1  0.88357342  0.00391227  0.85264125  1
  Te  Te39  1  0.88325256  0.84589553  0.49748539  1
