# generated using pymatgen
data_K3AsO4
_symmetry_space_group_name_H-M   'P 1'
_cell_length_a   8.27960089
_cell_length_b   8.27960089
_cell_length_c   16.89061602
_cell_angle_alpha   90.00000000
_cell_angle_beta   90.00000000
_cell_angle_gamma   96.24265916
_symmetry_Int_Tables_number   1
_chemical_formula_structural   K3AsO4
_chemical_formula_sum   'K24 As8 O32'
_cell_volume   1151.01606099
_cell_formula_units_Z   8
loop_
 _symmetry_equiv_pos_site_id
 _symmetry_equiv_pos_as_xyz
  1  'x, y, z'
loop_
 _atom_site_type_symbol
 _atom_site_label
 _atom_site_symmetry_multiplicity
 _atom_site_fract_x
 _atom_site_fract_y
 _atom_site_fract_z
 _atom_site_occupancy
  K  K0  1  -0.00000000  0.00000000  0.60584000  1
  K  K1  1  -0.00000000  0.50000000  0.85244144  1
  K  K2  1  -0.00000000  0.00000000  0.39416000  1
  K  K3  1  0.50000000  0.00000000  0.88807612  1
  K  K4  1  0.71648744  0.20786892  0.50000000  1
  K  K5  1  0.50000000  0.00000000  0.35244144  1
  K  K6  1  0.21961067  0.21961067  0.75000000  1
  K  K7  1  0.78038933  0.78038933  0.75000000  1
  K  K8  1  -0.00000000  0.50000000  0.14755856  1
  K  K9  1  0.79213108  0.28351256  -0.00000000  1
  K  K10  1  0.50000000  0.00000000  0.11192388  1
  K  K11  1  0.50000000  0.50000000  0.36648000  1
  K  K12  1  -0.00000000  0.50000000  0.38807612  1
  K  K13  1  0.50000000  0.50000000  0.13352000  1
  K  K14  1  0.50000000  0.00000000  0.64755856  1
  K  K15  1  -0.00000000  0.00000000  0.89416000  1
  K  K16  1  0.21961067  0.21961067  0.25000000  1
  K  K17  1  -0.00000000  0.50000000  0.61192388  1
  K  K18  1  0.50000000  0.50000000  0.86648000  1
  K  K19  1  0.78038933  0.78038933  0.25000000  1
  K  K20  1  0.28351256  0.79213108  0.50000000  1
  K  K21  1  0.50000000  0.50000000  0.63352000  1
  K  K22  1  -0.00000000  0.00000000  0.10584000  1
  K  K23  1  0.20786892  0.71648744  -0.00000000  1
  As  As24  1  0.23973448  0.28224234  0.50000000  1
  As  As25  1  0.76026552  0.71775766  0.50000000  1
  As  As26  1  0.26891754  0.73108246  0.25000000  1
  As  As27  1  0.26891754  0.73108246  0.75000000  1
  As  As28  1  0.73108246  0.26891754  0.75000000  1
  As  As29  1  0.73108246  0.26891754  0.25000000  1
  As  As30  1  0.71775766  0.76026552  -0.00000000  1
  As  As31  1  0.28224234  0.23973448  -0.00000000  1
  O  O32  1  0.22632635  0.52653304  0.26276886  1
  O  O33  1  0.79398134  0.17318264  0.66805724  1
  O  O34  1  0.19921610  0.31396247  0.08303676  1
  O  O35  1  0.52653304  0.22632635  0.23723114  1
  O  O36  1  0.48775252  0.28496561  -0.00000000  1
  O  O37  1  0.17318264  0.79398134  0.16805724  1
  O  O38  1  0.20601866  0.82681736  0.33194276  1
  O  O39  1  0.20601866  0.82681736  0.66805724  1
  O  O40  1  0.77367365  0.47346696  0.73723114  1
  O  O41  1  0.03228724  0.24224620  0.50000000  1
  O  O42  1  0.51224748  0.71503439  -0.00000000  1
  O  O43  1  0.82681736  0.20601866  0.16805724  1
  O  O44  1  0.71503439  0.51224748  0.50000000  1
  O  O45  1  0.80078390  0.68603753  0.91696324  1
  O  O46  1  0.96771276  0.75775380  0.50000000  1
  O  O47  1  0.68603753  0.80078390  0.58303676  1
  O  O48  1  0.31396247  0.19921610  0.41696324  1
  O  O49  1  0.82681736  0.20601866  0.83194276  1
  O  O50  1  0.19921610  0.31396247  0.91696324  1
  O  O51  1  0.28496561  0.48775252  0.50000000  1
  O  O52  1  0.22632635  0.52653304  0.73723114  1
  O  O53  1  0.31396247  0.19921610  0.58303676  1
  O  O54  1  0.52653304  0.22632635  0.76276886  1
  O  O55  1  0.80078390  0.68603753  0.08303676  1
  O  O56  1  0.75775380  0.96771276  -0.00000000  1
  O  O57  1  0.77367365  0.47346696  0.26276886  1
  O  O58  1  0.17318264  0.79398134  0.83194276  1
  O  O59  1  0.47346696  0.77367365  0.23723114  1
  O  O60  1  0.24224620  0.03228724  -0.00000000  1
  O  O61  1  0.79398134  0.17318264  0.33194276  1
  O  O62  1  0.47346696  0.77367365  0.76276886  1
  O  O63  1  0.68603753  0.80078390  0.41696324  1
