# generated using pymatgen
data_YHO2
_symmetry_space_group_name_H-M   'P 1'
_cell_length_a   4.30114907
_cell_length_b   3.63345779
_cell_length_c   6.10990944
_cell_angle_alpha   90.00000000
_cell_angle_beta   112.71148366
_cell_angle_gamma   90.00000000
_symmetry_Int_Tables_number   1
_chemical_formula_structural   YHO2
_chemical_formula_sum   'Y2 H2 O4'
_cell_volume   88.08202106
_cell_formula_units_Z   2
loop_
 _symmetry_equiv_pos_site_id
 _symmetry_equiv_pos_as_xyz
  1  'x, y, z'
loop_
 _atom_site_type_symbol
 _atom_site_label
 _atom_site_symmetry_multiplicity
 _atom_site_fract_x
 _atom_site_fract_y
 _atom_site_fract_z
 _atom_site_occupancy
  Y  Y0  1  0.64254740  0.25000000  0.31078936  1
  Y  Y1  1  0.35745260  0.75000000  0.68921064  1
  H  H2  1  0.09721231  0.75000000  0.07975429  1
  H  H3  1  0.90278769  0.25000000  0.92024571  1
  O  O4  1  0.78491616  0.75000000  0.55111219  1
  O  O5  1  0.21508384  0.25000000  0.44888781  1
  O  O6  1  0.31067388  0.75000000  0.06210232  1
  O  O7  1  0.68932612  0.25000000  0.93789768  1
