# generated using pymatgen
data_Rb2ZnH4
_symmetry_space_group_name_H-M   'P 1'
_cell_length_a   6.00913377
_cell_length_b   8.13409839
_cell_length_c   10.57420280
_cell_angle_alpha   90.00000000
_cell_angle_beta   90.00000000
_cell_angle_gamma   90.00000000
_symmetry_Int_Tables_number   1
_chemical_formula_structural   Rb2ZnH4
_chemical_formula_sum   'Rb8 Zn4 H16'
_cell_volume   516.85524605
_cell_formula_units_Z   4
loop_
 _symmetry_equiv_pos_site_id
 _symmetry_equiv_pos_as_xyz
  1  'x, y, z'
loop_
 _atom_site_type_symbol
 _atom_site_label
 _atom_site_symmetry_multiplicity
 _atom_site_fract_x
 _atom_site_fract_y
 _atom_site_fract_z
 _atom_site_occupancy
  Rb  Rb0  1  0.25000000  0.65967305  0.09415086  1
  Rb  Rb1  1  0.25000000  0.15967305  0.40584914  1
  Rb  Rb2  1  0.75000000  0.34032695  0.90584914  1
  Rb  Rb3  1  0.75000000  0.84032695  0.59415086  1
  Rb  Rb4  1  0.25000000  0.98444464  0.81412924  1
  Rb  Rb5  1  0.25000000  0.48444464  0.68587076  1
  Rb  Rb6  1  0.75000000  0.01555536  0.18587076  1
  Rb  Rb7  1  0.75000000  0.51555536  0.31412924  1
  Zn  Zn8  1  0.25000000  0.74038882  0.41726185  1
  Zn  Zn9  1  0.25000000  0.24038882  0.08273815  1
  Zn  Zn10  1  0.75000000  0.25961118  0.58273815  1
  Zn  Zn11  1  0.75000000  0.75961118  0.91726185  1
  H  H12  1  0.02646076  0.81398847  0.34722232  1
  H  H13  1  0.47353924  0.31398847  0.15277768  1
  H  H14  1  0.52646076  0.18601153  0.65277768  1
  H  H15  1  0.97353924  0.68601153  0.84722232  1
  H  H16  1  0.97353924  0.18601153  0.65277768  1
  H  H17  1  0.52646076  0.68601153  0.84722232  1
  H  H18  1  0.47353924  0.81398847  0.34722232  1
  H  H19  1  0.02646076  0.31398847  0.15277768  1
  H  H20  1  0.25000000  0.53871459  0.40819530  1
  H  H21  1  0.25000000  0.03871459  0.09180470  1
  H  H22  1  0.75000000  0.46128541  0.59180470  1
  H  H23  1  0.75000000  0.96128541  0.90819530  1
  H  H24  1  0.25000000  0.30589888  0.93479802  1
  H  H25  1  0.25000000  0.80589888  0.56520198  1
  H  H26  1  0.75000000  0.69410112  0.06520198  1
  H  H27  1  0.75000000  0.19410112  0.43479802  1
