# generated using pymatgen
data_Cs4Th2P5Se17
_symmetry_space_group_name_H-M   'P 1'
_cell_length_a   32.76523038
_cell_length_b   10.34604812
_cell_length_c   10.95891124
_cell_angle_alpha   83.99019417
_cell_angle_beta   90.00000000
_cell_angle_gamma   90.00000000
_symmetry_Int_Tables_number   1
_chemical_formula_structural   Cs4Th2P5Se17
_chemical_formula_sum   'Cs16 Th8 P20 Se68'
_cell_volume   3694.55094714
_cell_formula_units_Z   4
loop_
 _symmetry_equiv_pos_site_id
 _symmetry_equiv_pos_as_xyz
  1  'x, y, z'
loop_
 _atom_site_type_symbol
 _atom_site_label
 _atom_site_symmetry_multiplicity
 _atom_site_fract_x
 _atom_site_fract_y
 _atom_site_fract_z
 _atom_site_occupancy
  Cs  Cs0  1  0.73304943  0.68875935  0.79914654  1
  Cs  Cs1  1  0.27283441  0.80134131  0.16469108  1
  Cs  Cs2  1  0.26695057  0.31124065  0.20085346  1
  Cs  Cs3  1  0.76695057  0.68875935  0.29914654  1
  Cs  Cs4  1  0.72716559  0.19865869  0.83530892  1
  Cs  Cs5  1  0.05439423  0.82253728  0.64963963  1
  Cs  Cs6  1  0.44560577  0.82253728  0.14963963  1
  Cs  Cs7  1  0.55439423  0.17746272  0.85036037  1
  Cs  Cs8  1  0.23304943  0.31124065  0.70085346  1
  Cs  Cs9  1  0.06504930  0.30255191  0.73601099  1
  Cs  Cs10  1  0.77283441  0.19865869  0.33530892  1
  Cs  Cs11  1  0.43495070  0.30255191  0.23601099  1
  Cs  Cs12  1  0.94560577  0.17746272  0.35036037  1
  Cs  Cs13  1  0.56504930  0.69744809  0.76398901  1
  Cs  Cs14  1  0.22716559  0.80134131  0.66469108  1
  Cs  Cs15  1  0.93495070  0.69744809  0.26398901  1
  Th  Th16  1  0.59914794  0.64864743  0.29087457  1
  Th  Th17  1  0.90085206  0.64864743  0.79087457  1
  Th  Th18  1  0.60832725  0.20968991  0.33985986  1
  Th  Th19  1  0.10832725  0.79031009  0.16014014  1
  Th  Th20  1  0.89167275  0.20968991  0.83985986  1
  Th  Th21  1  0.09914794  0.35135257  0.20912543  1
  Th  Th22  1  0.39167275  0.79031009  0.66014014  1
  Th  Th23  1  0.40085206  0.35135257  0.70912543  1
  P  P24  1  0.52877558  0.97633505  0.44794005  1
  P  P25  1  0.81319770  0.38074940  0.00241905  1
  P  P26  1  0.31319770  0.61925060  0.49758095  1
  P  P27  1  0.47122442  0.02366495  0.55205995  1
  P  P28  1  0.68680230  0.38074940  0.50241905  1
  P  P29  1  0.66495797  0.99850899  0.13678702  1
  P  P30  1  0.13528829  0.14011084  0.48193907  1
  P  P31  1  0.83504203  0.99850899  0.63678702  1
  P  P32  1  0.33504203  0.00149101  0.86321298  1
  P  P33  1  0.13723091  0.51806976  0.90506048  1
  P  P34  1  0.02877558  0.02366495  0.05205995  1
  P  P35  1  0.86276909  0.48193024  0.09493952  1
  P  P36  1  0.36276909  0.51806976  0.40506048  1
  P  P37  1  0.63528829  0.85988916  0.01806093  1
  P  P38  1  0.36471171  0.14011084  0.98193907  1
  P  P39  1  0.63723091  0.48193024  0.59493952  1
  P  P40  1  0.97122442  0.97633505  0.94794005  1
  P  P41  1  0.86471171  0.85988916  0.51806093  1
  P  P42  1  0.16495797  0.00149101  0.36321298  1
  P  P43  1  0.18680230  0.61925060  0.99758095  1
  Se  Se44  1  0.35299574  0.31377893  0.47468962  1
  Se  Se45  1  0.72950748  0.98712850  0.11646229  1
  Se  Se46  1  0.35965103  0.06421692  0.67742239  1
  Se  Se47  1  0.63902238  0.19381411  0.08437674  1
  Se  Se48  1  0.64034897  0.93578308  0.32257761  1
  Se  Se49  1  0.82727748  0.17311382  0.03577520  1
  Se  Se50  1  0.24526267  0.56117924  0.93910657  1
  Se  Se51  1  0.64004675  0.43318942  0.78875909  1
  Se  Se52  1  0.47287884  0.89192375  0.72284978  1
  Se  Se53  1  0.74526267  0.43882076  0.56089343  1
  Se  Se54  1  0.14004675  0.56681058  0.71124091  1
  Se  Se55  1  0.57951598  0.03131803  0.56078697  1
  Se  Se56  1  0.35995325  0.56681058  0.21124091  1
  Se  Se57  1  0.02470991  0.22944114  0.07758444  1
  Se  Se58  1  0.85375135  0.93130720  0.33082590  1
  Se  Se59  1  0.02013560  0.46387306  0.25419833  1
  Se  Se60  1  0.02712116  0.89192375  0.22284978  1
  Se  Se61  1  0.14034897  0.06421692  0.17742239  1
  Se  Se62  1  0.52470991  0.77055886  0.42241556  1
  Se  Se63  1  0.27049252  0.01287150  0.88353771  1
  Se  Se64  1  0.85995325  0.43318942  0.28875909  1
  Se  Se65  1  0.92905531  0.83903412  0.57321656  1
  Se  Se66  1  0.42905531  0.16096588  0.92678344  1
  Se  Se67  1  0.14624865  0.06869280  0.66917410  1
  Se  Se68  1  0.97529009  0.77055886  0.92241556  1
  Se  Se69  1  0.16485143  0.32168216  0.40527507  1
  Se  Se70  1  0.52013560  0.53612694  0.24580167  1
  Se  Se71  1  0.22950748  0.01287150  0.38353771  1
  Se  Se72  1  0.57993654  0.42681153  0.50096485  1
  Se  Se73  1  0.83514857  0.67831784  0.59472493  1
  Se  Se74  1  0.47986440  0.46387306  0.75419833  1
  Se  Se75  1  0.07279952  0.57434897  0.34856527  1
  Se  Se76  1  0.32727748  0.82688618  0.46422480  1
  Se  Se77  1  0.17272252  0.82688618  0.96422480  1
  Se  Se78  1  0.86097762  0.19381411  0.58437674  1
  Se  Se79  1  0.77049252  0.98712850  0.61646229  1
  Se  Se80  1  0.75473733  0.43882076  0.06089343  1
  Se  Se81  1  0.07993654  0.57318847  -0.00096485  1
  Se  Se82  1  0.85965103  0.93578308  0.82257761  1
  Se  Se83  1  0.36097762  0.80618589  0.91562326  1
  Se  Se84  1  0.67135055  0.43214537  0.30499326  1
  Se  Se85  1  0.57279952  0.42565103  0.15143473  1
  Se  Se86  1  0.57094469  0.83903412  0.07321656  1
  Se  Se87  1  0.13902238  0.80618589  0.41562326  1
  Se  Se88  1  0.25473733  0.56117924  0.43910657  1
  Se  Se89  1  0.52712116  0.10807625  0.27715022  1
  Se  Se90  1  0.47529009  0.22944114  0.57758444  1
  Se  Se91  1  0.67272252  0.17311382  0.53577520  1
  Se  Se92  1  0.97986440  0.53612694  0.74580167  1
  Se  Se93  1  0.82864945  0.43214537  0.80499326  1
  Se  Se94  1  0.07094469  0.16096588  0.42678344  1
  Se  Se95  1  0.42048402  0.96868197  0.43921303  1
  Se  Se96  1  0.33514857  0.32168216  0.90527507  1
  Se  Se97  1  0.32864945  0.56785463  0.69500674  1
  Se  Se98  1  0.17135055  0.56785463  0.19500674  1
  Se  Se99  1  0.85299574  0.68622107  0.02531038  1
  Se  Se100  1  0.92720048  0.42565103  0.65143473  1
  Se  Se101  1  0.92006346  0.42681153  0.00096485  1
  Se  Se102  1  0.64700426  0.68622107  0.52531038  1
  Se  Se103  1  0.42006346  0.57318847  0.49903515  1
  Se  Se104  1  0.66485143  0.67831784  0.09472493  1
  Se  Se105  1  0.14700426  0.31377893  0.97468962  1
  Se  Se106  1  0.64624865  0.93130720  0.83082590  1
  Se  Se107  1  0.42720048  0.57434897  0.84856527  1
  Se  Se108  1  0.07951598  0.96868197  0.93921303  1
  Se  Se109  1  0.92048402  0.03131803  0.06078697  1
  Se  Se110  1  0.97287884  0.10807625  0.77715022  1
  Se  Se111  1  0.35375135  0.06869280  0.16917410  1
