# generated using pymatgen
data_Tl2(ReSe2)3
_symmetry_space_group_name_H-M   'P 1'
_cell_length_a   10.07807633
_cell_length_b   10.07807633
_cell_length_c   12.36449158
_cell_angle_alpha   89.44600767
_cell_angle_beta   89.44600767
_cell_angle_gamma   59.85630893
_symmetry_Int_Tables_number   1
_chemical_formula_structural   Tl2(ReSe2)3
_chemical_formula_sum   'Tl8 Re12 Se24'
_cell_volume   1085.93667989
_cell_formula_units_Z   4
loop_
 _symmetry_equiv_pos_site_id
 _symmetry_equiv_pos_as_xyz
  1  'x, y, z'
loop_
 _atom_site_type_symbol
 _atom_site_label
 _atom_site_symmetry_multiplicity
 _atom_site_fract_x
 _atom_site_fract_y
 _atom_site_fract_z
 _atom_site_occupancy
  Tl  Tl0  1  0.35373257  0.85777326  0.51016681  1
  Tl  Tl1  1  0.78674927  0.21325073  0.75000000  1
  Tl  Tl2  1  0.14222674  0.64626743  0.98983319  1
  Tl  Tl3  1  0.21325073  0.78674927  0.25000000  1
  Tl  Tl4  1  0.40815229  0.59184771  0.75000000  1
  Tl  Tl5  1  0.85777326  0.35373257  0.01016681  1
  Tl  Tl6  1  0.64626743  0.14222674  0.48983319  1
  Tl  Tl7  1  0.59184771  0.40815229  0.25000000  1
  Re  Re8  1  0.52948935  0.88401793  0.12616235  1
  Re  Re9  1  0.18049642  0.39992234  0.58133976  1
  Re  Re10  1  0.99154824  0.68611889  0.52336460  1
  Re  Re11  1  0.68611889  0.99154824  0.02336460  1
  Re  Re12  1  0.00845176  0.31388111  0.47663540  1
  Re  Re13  1  0.47051065  0.11598207  0.87383765  1
  Re  Re14  1  0.39992234  0.18049642  0.08133976  1
  Re  Re15  1  0.31388111  0.00845176  0.97663540  1
  Re  Re16  1  0.60007766  0.81950358  0.91866024  1
  Re  Re17  1  0.88401793  0.52948935  0.62616235  1
  Re  Re18  1  0.11598207  0.47051065  0.37383765  1
  Re  Re19  1  0.81950358  0.60007766  0.41866024  1
  Se  Se20  1  0.74851450  0.92794560  0.82605382  1
  Se  Se21  1  0.80362155  0.70628641  0.06509126  1
  Se  Se22  1  0.92794560  0.74851450  0.32605382  1
  Se  Se23  1  0.25148550  0.07205440  0.17394618  1
  Se  Se24  1  0.70628641  0.80362155  0.56509126  1
  Se  Se25  1  0.94743909  0.39022778  0.27969816  1
  Se  Se26  1  0.55463927  0.27890590  0.97789261  1
  Se  Se27  1  0.56259387  0.72630972  0.30512450  1
  Se  Se28  1  0.93579364  0.98911916  0.07978766  1
  Se  Se29  1  0.06420636  0.01088084  0.92021234  1
  Se  Se30  1  0.07205440  0.25148550  0.67394618  1
  Se  Se31  1  0.01088084  0.06420636  0.42021234  1
  Se  Se32  1  0.19637845  0.29371359  0.93490874  1
  Se  Se33  1  0.72630972  0.56259387  0.80512450  1
  Se  Se34  1  0.39022778  0.94743909  0.77969816  1
  Se  Se35  1  0.98911916  0.93579364  0.57978766  1
  Se  Se36  1  0.72109410  0.44536073  0.52210739  1
  Se  Se37  1  0.60977222  0.05256091  0.22030184  1
  Se  Se38  1  0.43740613  0.27369028  0.69487550  1
  Se  Se39  1  0.27369028  0.43740613  0.19487550  1
  Se  Se40  1  0.27890590  0.55463927  0.47789261  1
  Se  Se41  1  0.29371359  0.19637845  0.43490874  1
  Se  Se42  1  0.44536073  0.72109410  0.02210739  1
  Se  Se43  1  0.05256091  0.60977222  0.72030184  1
