# generated using pymatgen
data_Rb2VAgSe4
_symmetry_space_group_name_H-M   'P 1'
_cell_length_a   14.16300263
_cell_length_b   12.63641405
_cell_length_c   7.69558378
_cell_angle_alpha   84.59784614
_cell_angle_beta   62.65417209
_cell_angle_gamma   32.74798177
_symmetry_Int_Tables_number   1
_chemical_formula_structural   Rb2VAgSe4
_chemical_formula_sum   'Rb4 V2 Ag2 Se8'
_cell_volume   525.34032611
_cell_formula_units_Z   2
loop_
 _symmetry_equiv_pos_site_id
 _symmetry_equiv_pos_as_xyz
  1  'x, y, z'
loop_
 _atom_site_type_symbol
 _atom_site_label
 _atom_site_symmetry_multiplicity
 _atom_site_fract_x
 _atom_site_fract_y
 _atom_site_fract_z
 _atom_site_occupancy
  Rb  Rb0  1  0.17585900  0.18329000  0.82708600  1
  Rb  Rb1  1  0.82331000  0.81583800  0.17214500  1
  Rb  Rb2  1  0.43925600  0.42262700  0.06577700  1
  Rb  Rb3  1  0.07617700  0.06213800  0.42194300  1
  V  V4  1  0.25665300  0.24583800  0.24167900  1
  V  V5  1  0.99929600  0.00277800  0.00561500  1
  Ag  Ag6  1  0.75330200  0.75018800  0.74401700  1
  Ag  Ag7  1  0.50759600  0.49320200  0.49095300  1
  Se  Se8  1  0.84084700  0.04500000  0.35979400  1
  Se  Se9  1  0.74153500  0.36894000  0.05865000  1
  Se  Se10  1  0.89374100  0.49764400  0.41018900  1
  Se  Se11  1  0.20519100  0.40934500  0.49388300  1
  Se  Se12  1  0.35691000  0.75469400  0.83245900  1
  Se  Se13  1  0.04932800  0.83581100  0.74897100  1
  Se  Se14  1  0.49314100  0.89222300  0.19786700  1
  Se  Se15  1  0.41072600  0.20420000  0.88912800  1
