# generated using pymatgen
data_Ba2AlH7
_symmetry_space_group_name_H-M   'P 1'
_cell_length_a   8.80101989
_cell_length_b   8.80101989
_cell_length_c   8.56080108
_cell_angle_alpha   70.06077866
_cell_angle_beta   70.06077866
_cell_angle_gamma   71.59659895
_symmetry_Int_Tables_number   1
_chemical_formula_structural   Ba2AlH7
_chemical_formula_sum   'Ba8 Al4 H28'
_cell_volume   570.87184391
_cell_formula_units_Z   4
loop_
 _symmetry_equiv_pos_site_id
 _symmetry_equiv_pos_as_xyz
  1  'x, y, z'
loop_
 _atom_site_type_symbol
 _atom_site_label
 _atom_site_symmetry_multiplicity
 _atom_site_fract_x
 _atom_site_fract_y
 _atom_site_fract_z
 _atom_site_occupancy
  Ba  Ba0  1  0.25921635  0.92867301  0.48152821  1
  Ba  Ba1  1  0.07132699  0.74078365  0.01847179  1
  Ba  Ba2  1  0.74078365  0.07132699  0.51847179  1
  Ba  Ba3  1  0.92867301  0.25921635  0.98152821  1
  Ba  Ba4  1  0.28107932  0.43226075  0.47906593  1
  Ba  Ba5  1  0.56773925  0.71892068  0.02093407  1
  Ba  Ba6  1  0.71892068  0.56773925  0.52093407  1
  Ba  Ba7  1  0.43226075  0.28107932  0.97906593  1
  Al  Al8  1  0.31912860  0.03174670  0.80125964  1
  Al  Al9  1  0.96825330  0.68087140  0.69874036  1
  Al  Al10  1  0.68087140  0.96825330  0.19874036  1
  Al  Al11  1  0.03174670  0.31912860  0.30125964  1
  H  H12  1  0.39204193  0.10487431  0.58091198  1
  H  H13  1  0.89512569  0.60795807  0.91908802  1
  H  H14  1  0.60795807  0.89512569  0.41908802  1
  H  H15  1  0.10487431  0.39204193  0.08091198  1
  H  H16  1  0.37887504  0.82433109  0.77957674  1
  H  H17  1  0.17566891  0.62112496  0.72042326  1
  H  H18  1  0.62112496  0.17566891  0.22042326  1
  H  H19  1  0.82433109  0.37887504  0.27957674  1
  H  H20  1  0.51049100  0.01873545  0.82672912  1
  H  H21  1  0.98126455  0.48950900  0.67327088  1
  H  H22  1  0.48950900  0.98126455  0.17327088  1
  H  H23  1  0.01873545  0.51049100  0.32672912  1
  H  H24  1  0.25377408  0.94721351  0.02336989  1
  H  H25  1  0.05278649  0.74622592  0.47663011  1
  H  H26  1  0.74622592  0.05278649  0.97663011  1
  H  H27  1  0.94721351  0.25377408  0.52336989  1
  H  H28  1  0.24690254  0.23504154  0.81801712  1
  H  H29  1  0.76495846  0.75309746  0.68198288  1
  H  H30  1  0.75309746  0.76495846  0.18198288  1
  H  H31  1  0.23504154  0.24690254  0.31801712  1
  H  H32  1  0.12574789  0.03886980  0.78545378  1
  H  H33  1  0.96113020  0.87425211  0.71454622  1
  H  H34  1  0.87425211  0.96113020  0.21454622  1
  H  H35  1  0.03886980  0.12574789  0.28545378  1
  H  H36  1  0.33904697  0.54540328  0.12586504  1
  H  H37  1  0.45459672  0.66095303  0.37413496  1
  H  H38  1  0.66095303  0.45459672  0.87413496  1
  H  H39  1  0.54540328  0.33904697  0.62586504  1
