# generated using pymatgen
data_La(HO)3
_symmetry_space_group_name_H-M   'P 1'
_cell_length_a   6.51449236
_cell_length_b   6.51449258
_cell_length_c   3.83457827
_cell_angle_alpha   90.00000000
_cell_angle_beta   90.00000000
_cell_angle_gamma   119.99959832
_symmetry_Int_Tables_number   1
_chemical_formula_structural   La(HO)3
_chemical_formula_sum   'La2 H6 O6'
_cell_volume   140.93250434
_cell_formula_units_Z   2
loop_
 _symmetry_equiv_pos_site_id
 _symmetry_equiv_pos_as_xyz
  1  'x, y, z'
loop_
 _atom_site_type_symbol
 _atom_site_label
 _atom_site_symmetry_multiplicity
 _atom_site_fract_x
 _atom_site_fract_y
 _atom_site_fract_z
 _atom_site_occupancy
  La  La0  1  0.33333976  0.66667296  0.31663872  1
  La  La1  1  0.66666024  0.33332704  0.81663872  1
  H  H2  1  0.86783433  0.72486676  0.34947819  1
  H  H3  1  0.85704868  0.13216876  0.34948599  1
  H  H4  1  0.27512212  0.14295678  0.34948107  1
  H  H5  1  0.13216567  0.27513324  0.84947819  1
  H  H6  1  0.14295132  0.86783124  0.84948599  1
  H  H7  1  0.72487788  0.85704322  0.84948107  1
  O  O8  1  0.91947947  0.61153044  0.30617270  1
  O  O9  1  0.69202756  0.08050871  0.30615710  1
  O  O10  1  0.38848057  0.30796683  0.30616123  1
  O  O11  1  0.08052053  0.38846956  0.80617270  1
  O  O12  1  0.30797244  0.91949129  0.80615710  1
  O  O13  1  0.61151943  0.69203317  0.80616123  1
