# generated using pymatgen
data_Tm4Zr3O12
_symmetry_space_group_name_H-M   'P 1'
_cell_length_a   6.29740702
_cell_length_b   6.35031201
_cell_length_c   12.64028067
_cell_angle_alpha   99.31654786
_cell_angle_beta   99.36013260
_cell_angle_gamma   99.38484639
_symmetry_Int_Tables_number   1
_chemical_formula_structural   Tm4Zr3O12
_chemical_formula_sum   'Tm8 Zr6 O24'
_cell_volume   482.78065437
_cell_formula_units_Z   2
loop_
 _symmetry_equiv_pos_site_id
 _symmetry_equiv_pos_as_xyz
  1  'x, y, z'
loop_
 _atom_site_type_symbol
 _atom_site_label
 _atom_site_symmetry_multiplicity
 _atom_site_fract_x
 _atom_site_fract_y
 _atom_site_fract_z
 _atom_site_occupancy
  Tm  Tm0  1  0.38976411  0.86374913  0.09693375  1
  Tm  Tm1  1  0.31082712  0.60890333  0.81844058  1
  Tm  Tm2  1  0.29981471  0.61054390  0.31888721  1
  Tm  Tm3  1  0.85904124  0.69098032  0.44674648  1
  Tm  Tm4  1  0.68917288  0.39109667  0.18155942  1
  Tm  Tm5  1  0.14095876  0.30901968  0.55325352  1
  Tm  Tm6  1  0.61023589  0.13625087  0.90306625  1
  Tm  Tm7  1  0.70018529  0.38945610  0.68111279  1
  Zr  Zr8  1  0.99276589  0.99418585  0.24796242  1
  Zr  Zr9  1  0.39155894  0.85619941  0.59412986  1
  Zr  Zr10  1  0.00723411  0.00581415  0.75203758  1
  Zr  Zr11  1  0.85468946  0.67826336  0.94604625  1
  Zr  Zr12  1  0.14531054  0.32173664  0.05395375  1
  Zr  Zr13  1  0.60844106  0.14380059  0.40587014  1
  O  O14  1  0.32113545  0.94212449  0.78617960  1
  O  O15  1  0.03874929  0.89832446  0.08862981  1
  O  O16  1  0.31829907  0.95873094  0.29544245  1
  O  O17  1  0.07290733  0.92060391  0.59268081  1
  O  O18  1  0.58654277  0.81953515  0.96229795  1
  O  O19  1  0.92268407  0.69070775  0.78975339  1
  O  O20  1  0.17429010  0.57513779  0.96505170  1
  O  O21  1  0.56855239  0.82938218  0.46236288  1
  O  O22  1  0.41055673  0.56862901  0.15843639  1
  O  O23  1  0.92502805  0.68079227  0.27885497  1
  O  O24  1  0.58944327  0.43137099  0.84156361  1
  O  O25  1  0.18440323  0.58975214  0.46852716  1
  O  O26  1  0.82570990  0.42486221  0.03494830  1
  O  O27  1  0.42740333  0.58199616  0.65848573  1
  O  O28  1  0.07731593  0.30929225  0.21024661  1
  O  O29  1  0.57259667  0.41800384  0.34151427  1
  O  O30  1  0.41345723  0.18046485  0.03770205  1
  O  O31  1  0.81559677  0.41024786  0.53147284  1
  O  O32  1  0.07497195  0.31920773  0.72114503  1
  O  O33  1  0.43144761  0.17061782  0.53763712  1
  O  O34  1  0.96125071  0.10167554  0.91137019  1
  O  O35  1  0.67886455  0.05787551  0.21382040  1
  O  O36  1  0.92709267  0.07939609  0.40731919  1
  O  O37  1  0.68170093  0.04126906  0.70455755  1
