# generated using pymatgen
data_K2Pd3Se4
_symmetry_space_group_name_H-M   'P 1'
_cell_length_a   14.59587281
_cell_length_b   13.85333311
_cell_length_c   6.46558105
_cell_angle_alpha   83.37125759
_cell_angle_beta   70.52409851
_cell_angle_gamma   26.10464390
_symmetry_Int_Tables_number   1
_chemical_formula_structural   K2Pd3Se4
_chemical_formula_sum   'K4 Pd6 Se8'
_cell_volume   486.09066489
_cell_formula_units_Z   2
loop_
 _symmetry_equiv_pos_site_id
 _symmetry_equiv_pos_as_xyz
  1  'x, y, z'
loop_
 _atom_site_type_symbol
 _atom_site_label
 _atom_site_symmetry_multiplicity
 _atom_site_fract_x
 _atom_site_fract_y
 _atom_site_fract_z
 _atom_site_occupancy
  K  K0  1  0.54642000  0.55668400  0.70737200  1
  K  K1  1  0.70057400  0.69982100  0.54836800  1
  K  K2  1  0.45132200  0.44857700  0.30322600  1
  K  K3  1  0.29513600  0.30598100  0.45641100  1
  Pd  Pd4  1  0.11508200  0.13295800  0.62997500  1
  Pd  Pd5  1  0.36895900  0.37791800  0.88498200  1
  Pd  Pd6  1  0.86717000  0.88362300  0.37664400  1
  Pd  Pd7  1  0.88323000  0.86588900  0.87038400  1
  Pd  Pd8  1  0.11871200  0.13340900  0.12789400  1
  Pd  Pd9  1  0.62892100  0.62575600  0.12670300  1
  Se  Se10  1  0.76071000  0.10841900  0.65396600  1
  Se  Se11  1  0.10502000  0.77027200  0.97172200  1
  Se  Se12  1  0.65126300  0.97781900  0.77113700  1
  Se  Se13  1  0.01674400  0.35600000  0.89567600  1
  Se  Se14  1  0.24216700  0.88512100  0.34914000  1
  Se  Se15  1  0.98057000  0.64490400  0.10832200  1
  Se  Se16  1  0.35220800  0.02215900  0.23845800  1
  Se  Se17  1  0.88454700  0.24212300  0.02444900  1
