# generated using pymatgen
data_C
_symmetry_space_group_name_H-M   'P 1'
_cell_length_a   9.84758869
_cell_length_b   9.84758949
_cell_length_c   9.84758976
_cell_angle_alpha   55.32684556
_cell_angle_beta   55.32684156
_cell_angle_gamma   55.32684541
_symmetry_Int_Tables_number   1
_chemical_formula_structural   C
_chemical_formula_sum   C60
_cell_volume   601.94380892
_cell_formula_units_Z   60
loop_
 _symmetry_equiv_pos_site_id
 _symmetry_equiv_pos_as_xyz
  1  'x, y, z'
loop_
 _atom_site_type_symbol
 _atom_site_label
 _atom_site_symmetry_multiplicity
 _atom_site_fract_x
 _atom_site_fract_y
 _atom_site_fract_z
 _atom_site_occupancy
  C  C0  1  0.87697247  0.02952458  0.71887639  1
  C  C1  1  0.24902233  0.24902233  0.57134656  1
  C  C2  1  0.02952458  0.71887639  0.87697247  1
  C  C3  1  0.47184792  0.91686837  0.64475314  1
  C  C4  1  0.71887639  0.02952458  0.87697247  1
  C  C5  1  0.52815208  0.08313163  0.35524686  1
  C  C6  1  0.24902233  0.57134656  0.24902233  1
  C  C7  1  0.91686837  0.64475314  0.47184792  1
  C  C8  1  0.89071853  0.63294352  0.19784268  1
  C  C9  1  0.57134656  0.24902233  0.24902233  1
  C  C10  1  0.19784268  0.89071853  0.63294352  1
  C  C11  1  0.78992982  0.94399596  0.45442803  1
  C  C12  1  0.73847486  0.73847486  0.30735672  1
  C  C13  1  0.30735672  0.73847486  0.73847486  1
  C  C14  1  0.64475314  0.47184792  0.91686837  1
  C  C15  1  0.08313163  0.52815208  0.35524686  1
  C  C16  1  0.97047542  0.28112361  0.12302753  1
  C  C17  1  0.54557197  0.05600404  0.21007018  1
  C  C18  1  0.21007018  0.05600404  0.54557197  1
  C  C19  1  0.97047542  0.12302753  0.28112361  1
  C  C20  1  0.35524686  0.08313163  0.52815208  1
  C  C21  1  0.94399596  0.45442803  0.78992982  1
  C  C22  1  0.45442803  0.94399596  0.78992982  1
  C  C23  1  0.73847486  0.30735672  0.73847486  1
  C  C24  1  0.64475314  0.91686837  0.47184792  1
  C  C25  1  0.12302753  0.97047542  0.28112361  1
  C  C26  1  0.63294352  0.19784268  0.89071853  1
  C  C27  1  0.28112361  0.12302753  0.97047542  1
  C  C28  1  0.19784268  0.63294352  0.89071853  1
  C  C29  1  0.69264328  0.26152514  0.26152514  1
  C  C30  1  0.75097767  0.42865344  0.75097767  1
  C  C31  1  0.02952458  0.87697247  0.71887639  1
  C  C32  1  0.91686837  0.47184792  0.64475314  1
  C  C33  1  0.52815208  0.35524686  0.08313163  1
  C  C34  1  0.05600404  0.21007018  0.54557197  1
  C  C35  1  0.42865344  0.75097767  0.75097767  1
  C  C36  1  0.75097767  0.75097767  0.42865344  1
  C  C37  1  0.45442803  0.78992982  0.94399596  1
  C  C38  1  0.87697247  0.71887639  0.02952458  1
  C  C39  1  0.26152514  0.69264328  0.26152514  1
  C  C40  1  0.05600404  0.54557197  0.21007018  1
  C  C41  1  0.94399596  0.78992982  0.45442803  1
  C  C42  1  0.35524686  0.52815208  0.08313163  1
  C  C43  1  0.26152514  0.26152514  0.69264328  1
  C  C44  1  0.47184792  0.64475314  0.91686837  1
  C  C45  1  0.80215732  0.10928147  0.36705648  1
  C  C46  1  0.08313163  0.35524686  0.52815208  1
  C  C47  1  0.89071853  0.19784268  0.63294352  1
  C  C48  1  0.28112361  0.97047542  0.12302753  1
  C  C49  1  0.21007018  0.54557197  0.05600404  1
  C  C50  1  0.10928147  0.80215732  0.36705648  1
  C  C51  1  0.63294352  0.89071853  0.19784268  1
  C  C52  1  0.36705648  0.10928147  0.80215732  1
  C  C53  1  0.12302753  0.28112361  0.97047542  1
  C  C54  1  0.80215732  0.36705648  0.10928147  1
  C  C55  1  0.78992982  0.45442803  0.94399596  1
  C  C56  1  0.71887639  0.87697247  0.02952458  1
  C  C57  1  0.54557197  0.21007018  0.05600404  1
  C  C58  1  0.10928147  0.36705648  0.80215732  1
  C  C59  1  0.36705648  0.80215732  0.10928147  1
