# generated using pymatgen
data_NaGeSbO5
_symmetry_space_group_name_H-M   'P 1'
_cell_length_a   5.57344316
_cell_length_b   5.57344319
_cell_length_c   7.23887406
_cell_angle_alpha   104.57318688
_cell_angle_beta   104.57317599
_cell_angle_gamma   105.80290260
_symmetry_Int_Tables_number   1
_chemical_formula_structural   NaGeSbO5
_chemical_formula_sum   'Na2 Ge2 Sb2 O10'
_cell_volume   196.64050233
_cell_formula_units_Z   2
loop_
 _symmetry_equiv_pos_site_id
 _symmetry_equiv_pos_as_xyz
  1  'x, y, z'
loop_
 _atom_site_type_symbol
 _atom_site_label
 _atom_site_symmetry_multiplicity
 _atom_site_fract_x
 _atom_site_fract_y
 _atom_site_fract_z
 _atom_site_occupancy
  Na  Na0  1  0.33311972  0.66688028  0.75000000  1
  Na  Na1  1  0.66688028  0.33311972  0.25000000  1
  Ge  Ge2  1  0.31407442  0.68592558  0.25000000  1
  Ge  Ge3  1  0.68592558  0.31407442  0.75000000  1
  Sb  Sb4  1  -0.00000000  -0.00000000  0.50000000  1
  Sb  Sb5  1  -0.00000000  -0.00000000  -0.00000000  1
  O  O6  1  0.07914065  0.92085935  0.75000000  1
  O  O7  1  0.92085935  0.07914065  0.25000000  1
  O  O8  1  0.09200161  0.68717101  0.38447261  1
  O  O9  1  0.31282899  0.90799839  0.11552639  1
  O  O10  1  0.90799839  0.31282899  0.61552639  1
  O  O11  1  0.68717101  0.09200161  0.88447361  1
  O  O12  1  0.37098164  0.24552879  0.57769591  1
  O  O13  1  0.75447121  0.62901836  0.92230409  1
  O  O14  1  0.62901836  0.75447121  0.42230409  1
  O  O15  1  0.24552879  0.37098164  0.07769591  1
