# generated using pymatgen
data_TePb
_symmetry_space_group_name_H-M   'P 1'
_cell_length_a   4.64850416
_cell_length_b   7.06836857
_cell_length_c   8.49990272
_cell_angle_alpha   90.00000000
_cell_angle_beta   90.00000000
_cell_angle_gamma   90.00000000
_symmetry_Int_Tables_number   1
_chemical_formula_structural   TePb
_chemical_formula_sum   'Te4 Pb4'
_cell_volume   279.28419961
_cell_formula_units_Z   4
loop_
 _symmetry_equiv_pos_site_id
 _symmetry_equiv_pos_as_xyz
  1  'x, y, z'
loop_
 _atom_site_type_symbol
 _atom_site_label
 _atom_site_symmetry_multiplicity
 _atom_site_fract_x
 _atom_site_fract_y
 _atom_site_fract_z
 _atom_site_occupancy
  Te  Te0  1  0.75000000  0.12008937  0.18988861  1
  Te  Te1  1  0.75000000  0.37991063  0.68988861  1
  Te  Te2  1  0.25000000  0.62008937  0.31011139  1
  Te  Te3  1  0.25000000  0.87991063  0.81011139  1
  Pb  Pb4  1  0.75000000  0.72893453  0.04083178  1
  Pb  Pb5  1  0.75000000  0.77106547  0.54083178  1
  Pb  Pb6  1  0.25000000  0.22893453  0.45916822  1
  Pb  Pb7  1  0.25000000  0.27106547  0.95916822  1
