# generated using pymatgen
data_ZnH3CNO3
_symmetry_space_group_name_H-M   'P 1'
_cell_length_a   9.35432940
_cell_length_b   5.32383188
_cell_length_c   7.49404576
_cell_angle_alpha   90.00000000
_cell_angle_beta   90.00000000
_cell_angle_gamma   90.00000000
_symmetry_Int_Tables_number   1
_chemical_formula_structural   ZnH3CNO3
_chemical_formula_sum   'Zn4 H12 C4 N4 O12'
_cell_volume   373.21005169
_cell_formula_units_Z   4
loop_
 _symmetry_equiv_pos_site_id
 _symmetry_equiv_pos_as_xyz
  1  'x, y, z'
loop_
 _atom_site_type_symbol
 _atom_site_label
 _atom_site_symmetry_multiplicity
 _atom_site_fract_x
 _atom_site_fract_y
 _atom_site_fract_z
 _atom_site_occupancy
  Zn  Zn0  1  0.64749785  0.25765156  0.32502499  1
  Zn  Zn1  1  0.35250215  0.75765156  0.67497501  1
  Zn  Zn2  1  0.85250215  0.75765156  0.82502499  1
  Zn  Zn3  1  0.14749785  0.25765156  0.17497501  1
  H  H4  1  0.88817753  0.05127417  0.54551112  1
  H  H5  1  0.11182247  0.55127417  0.45448888  1
  H  H6  1  0.61182247  0.55127417  0.04551112  1
  H  H7  1  0.38817753  0.05127417  0.95448888  1
  H  H8  1  0.03786946  0.95771068  0.64113393  1
  H  H9  1  0.96213054  0.45771068  0.35886607  1
  H  H10  1  0.46213054  0.45771068  0.14113393  1
  H  H11  1  0.53786946  0.95771068  0.85886607  1
  H  H12  1  0.94036695  0.18396958  0.73311196  1
  H  H13  1  0.05963305  0.68396958  0.26688804  1
  H  H14  1  0.55963305  0.68396958  0.23311196  1
  H  H15  1  0.44036695  0.18396958  0.76688804  1
  C  C16  1  0.88091928  0.01699838  0.14814092  1
  C  C17  1  0.11908072  0.51699838  0.85185908  1
  C  C18  1  0.61908072  0.51699838  0.64814092  1
  C  C19  1  0.38091928  0.01699838  0.35185908  1
  N  N20  1  0.93605125  0.01714308  0.66552867  1
  N  N21  1  0.06394875  0.51714308  0.33447133  1
  N  N22  1  0.56394875  0.51714308  0.16552867  1
  N  N23  1  0.43605125  0.01714308  0.83447133  1
  O  O24  1  0.51537970  0.98688773  0.38617577  1
  O  O25  1  0.48462030  0.48688773  0.61382423  1
  O  O26  1  0.98462030  0.48688773  0.88617577  1
  O  O27  1  0.01537970  0.98688773  0.11382423  1
  O  O28  1  0.84279808  0.14097610  0.28800802  1
  O  O29  1  0.15720192  0.64097610  0.71199198  1
  O  O30  1  0.65720192  0.64097610  0.78800802  1
  O  O31  1  0.34279808  0.14097610  0.21199198  1
  O  O32  1  0.71385708  0.42098772  0.54669705  1
  O  O33  1  0.28614292  0.92098772  0.45330295  1
  O  O34  1  0.78614292  0.92098772  0.04669705  1
  O  O35  1  0.21385708  0.42098772  0.95330295  1
