# generated using pymatgen
data_LaTlGeSe4
_symmetry_space_group_name_H-M   'P 1'
_cell_length_a   7.23016800
_cell_length_b   11.61422516
_cell_length_c   19.57560597
_cell_angle_alpha   90.14592715
_cell_angle_beta   90.12051507
_cell_angle_gamma   90.09558653
_symmetry_Int_Tables_number   1
_chemical_formula_structural   LaTlGeSe4
_chemical_formula_sum   'La8 Tl8 Ge8 Se32'
_cell_volume   1643.80715755
_cell_formula_units_Z   8
loop_
 _symmetry_equiv_pos_site_id
 _symmetry_equiv_pos_as_xyz
  1  'x, y, z'
loop_
 _atom_site_type_symbol
 _atom_site_label
 _atom_site_symmetry_multiplicity
 _atom_site_fract_x
 _atom_site_fract_y
 _atom_site_fract_z
 _atom_site_occupancy
  La  La0  1  0.77325300  0.39211400  0.43378700  1
  La  La1  1  0.26991300  0.60663600  0.06454900  1
  La  La2  1  0.77028700  0.89246100  0.06647200  1
  La  La3  1  0.22515600  0.10577700  0.93343000  1
  La  La4  1  0.72981200  0.89212800  0.56563400  1
  La  La5  1  0.72584600  0.39096600  0.93398900  1
  La  La6  1  0.22838500  0.60774600  0.56683900  1
  La  La7  1  0.27277500  0.10668400  0.43564700  1
  Tl  Tl8  1  0.32599700  0.25793900  0.19839200  1
  Tl  Tl9  1  0.16547000  0.75421000  0.80333000  1
  Tl  Tl10  1  0.66400900  0.74369200  0.80176600  1
  Tl  Tl11  1  0.82709400  0.74238200  0.30153800  1
  Tl  Tl12  1  0.17377200  0.25559900  0.69665300  1
  Tl  Tl13  1  0.33316900  0.75524500  0.30259600  1
  Tl  Tl14  1  0.82423900  0.24388900  0.19809000  1
  Tl  Tl15  1  0.67438500  0.24344500  0.69701100  1
  Ge  Ge16  1  0.28259700  0.94458800  0.11170700  1
  Ge  Ge17  1  0.71336900  0.05369200  0.88726900  1
  Ge  Ge18  1  0.21670400  0.94488700  0.61409400  1
  Ge  Ge19  1  0.21497800  0.44261000  0.88681300  1
  Ge  Ge20  1  0.28465500  0.44360200  0.38837800  1
  Ge  Ge21  1  0.78403500  0.05435900  0.38834800  1
  Ge  Ge22  1  0.78280900  0.55508500  0.11260400  1
  Ge  Ge23  1  0.71540700  0.55650800  0.61194700  1
  Se  Se24  1  0.53315000  0.49839800  0.31668900  1
  Se  Se25  1  0.53350400  0.00074700  0.18250800  1
  Se  Se26  1  0.87718100  0.14097400  0.49547000  1
  Se  Se27  1  0.61969500  0.13983700  0.99387500  1
  Se  Se28  1  0.40391700  0.29395200  0.84044300  1
  Se  Se29  1  0.12390100  0.86084000  0.50616400  1
  Se  Se30  1  0.87532100  0.63977200  0.00535600  1
  Se  Se31  1  0.56906900  0.40530300  0.08255200  1
  Se  Se32  1  0.09394500  0.79568400  0.15862100  1
  Se  Se33  1  0.43117300  0.09412900  0.58434700  1
  Se  Se34  1  0.03540600  0.50002200  0.18324500  1
  Se  Se35  1  0.38023000  0.35896400  0.49516300  1
  Se  Se36  1  0.92591200  0.90377500  0.91731200  1
  Se  Se37  1  0.46240900  0.99572600  0.81690300  1
  Se  Se38  1  0.03512900  0.99641800  0.31841600  1
  Se  Se39  1  0.59378800  0.20154100  0.34150900  1
  Se  Se40  1  0.06967700  0.09470200  0.08258700  1
  Se  Se41  1  0.90343700  0.20223200  0.84092100  1
  Se  Se42  1  0.07427500  0.59493700  0.41734900  1
  Se  Se43  1  0.96290200  0.49926900  0.81687700  1
  Se  Se44  1  0.62147800  0.64081700  0.50470700  1
  Se  Se45  1  0.92848000  0.40729500  0.58273100  1
  Se  Se46  1  0.96569900  0.00089100  0.68403500  1
  Se  Se47  1  0.40862600  0.79682600  0.65932600  1
  Se  Se48  1  0.57034100  0.90506600  0.41756600  1
  Se  Se49  1  0.46773500  0.49970300  0.68338000  1
  Se  Se50  1  0.90705700  0.70471600  0.65922600  1
  Se  Se51  1  0.12139900  0.35799600  0.99416300  1
  Se  Se52  1  0.09355400  0.29436900  0.34207400  1
  Se  Se53  1  0.59099800  0.70213600  0.15844000  1
  Se  Se54  1  0.42913400  0.59198200  0.91620200  1
  Se  Se55  1  0.37590300  0.85896100  0.00470200  1
