# generated using pymatgen
data_Ga5(PS)3
_symmetry_space_group_name_H-M   'P 1'
_cell_length_a   3.78829062
_cell_length_b   22.85488161
_cell_length_c   6.61579684
_cell_angle_alpha   29.72216738
_cell_angle_beta   55.06832663
_cell_angle_gamma   60.17703855
_symmetry_Int_Tables_number   1
_chemical_formula_structural   Ga5(PS)3
_chemical_formula_sum   'Ga5 P3 S3'
_cell_volume   232.82681759
_cell_formula_units_Z   1
loop_
 _symmetry_equiv_pos_site_id
 _symmetry_equiv_pos_as_xyz
  1  'x, y, z'
loop_
 _atom_site_type_symbol
 _atom_site_label
 _atom_site_symmetry_multiplicity
 _atom_site_fract_x
 _atom_site_fract_y
 _atom_site_fract_z
 _atom_site_occupancy
  Ga  Ga0  1  0.99872544  0.00895254  0.97399569  1
  Ga  Ga1  1  0.99934125  0.32435890  0.02791289  1
  Ga  Ga2  1  0.00989783  0.66662611  0.99008740  1
  Ga  Ga3  1  0.00608381  0.49680479  0.00363279  1
  Ga  Ga4  1  0.00577577  0.83660608  0.98415554  1
  P  P5  1  0.25281182  0.49407005  0.26507955  1
  P  P6  1  0.25507418  0.66668003  0.24472707  1
  P  P7  1  0.25252006  0.83921536  0.22962707  1
  S  S8  1  0.24035083  0.00636005  0.24038897  1
  S  S9  1  0.23860373  0.16666574  0.26180661  1
  S  S10  1  0.24081227  0.32699334  0.27858842  1
