# generated using pymatgen
data_Sb2S2O9
_symmetry_space_group_name_H-M   'P 1'
_cell_length_a   6.57792025
_cell_length_b   6.57792025
_cell_length_c   17.24903511
_cell_angle_alpha   90.00000000
_cell_angle_beta   90.00000000
_cell_angle_gamma   90.00000000
_symmetry_Int_Tables_number   1
_chemical_formula_structural   Sb2S2O9
_chemical_formula_sum   'Sb8 S8 O36'
_cell_volume   746.34910071
_cell_formula_units_Z   4
loop_
 _symmetry_equiv_pos_site_id
 _symmetry_equiv_pos_as_xyz
  1  'x, y, z'
loop_
 _atom_site_type_symbol
 _atom_site_label
 _atom_site_symmetry_multiplicity
 _atom_site_fract_x
 _atom_site_fract_y
 _atom_site_fract_z
 _atom_site_occupancy
  Sb  Sb0  1  0.84638155  0.97431590  0.34213857  1
  Sb  Sb1  1  0.97431590  0.84638155  0.65786143  1
  Sb  Sb2  1  0.15361845  0.02568410  0.84213857  1
  Sb  Sb3  1  0.02568410  0.15361845  0.15786143  1
  Sb  Sb4  1  0.52568410  0.34638155  0.59213857  1
  Sb  Sb5  1  0.65361845  0.47431590  0.90786143  1
  Sb  Sb6  1  0.47431590  0.65361845  0.09213857  1
  Sb  Sb7  1  0.34638155  0.52568410  0.40786143  1
  S  S8  1  0.35654259  0.03773303  0.30323589  1
  S  S9  1  0.03773303  0.35654259  0.69676411  1
  S  S10  1  0.46226697  0.85654259  0.55323589  1
  S  S11  1  0.14345741  0.53773303  0.94676411  1
  S  S12  1  0.53773303  0.14345741  0.05323589  1
  S  S13  1  0.96226697  0.64345741  0.19676411  1
  S  S14  1  0.85654259  0.46226697  0.44676411  1
  S  S15  1  0.64345741  0.96226697  0.80323589  1
  O  O16  1  0.29840050  0.94782163  0.59870588  1
  O  O17  1  0.70248857  0.88618049  0.72536490  1
  O  O18  1  0.32679836  0.45407507  0.90710398  1
  O  O19  1  0.49545011  0.12711717  0.79477144  1
  O  O20  1  0.37288283  0.99545011  0.04477144  1
  O  O21  1  0.36007963  0.36007963  0.50000000  1
  O  O22  1  0.11381951  0.29751143  0.77463510  1
  O  O23  1  0.44782163  0.20159950  0.34870588  1
  O  O24  1  0.05217837  0.70159950  0.90129412  1
  O  O25  1  0.86007963  0.13992037  0.25000000  1
  O  O26  1  0.94782163  0.29840050  0.40129412  1
  O  O27  1  0.82679836  0.04592493  0.84289602  1
  O  O28  1  0.17320164  0.95407507  0.34289602  1
  O  O29  1  0.04592493  0.82679836  0.15710398  1
  O  O30  1  0.50454989  0.87288283  0.29477144  1
  O  O31  1  0.62711717  0.00454989  0.54477144  1
  O  O32  1  0.79840050  0.55217837  0.15129412  1
  O  O33  1  0.70159950  0.05217837  0.09870588  1
  O  O34  1  0.79751143  0.38618049  0.52463510  1
  O  O35  1  0.20159950  0.44782163  0.65129412  1
  O  O36  1  0.12711717  0.49545011  0.20522856  1
  O  O37  1  0.99545011  0.37288283  0.95522856  1
  O  O38  1  0.63992037  0.63992037  -0.00000000  1
  O  O39  1  0.45407507  0.32679836  0.09289602  1
  O  O40  1  0.88618049  0.70248857  0.27463510  1
  O  O41  1  0.54592493  0.67320164  0.59289602  1
  O  O42  1  0.87288283  0.50454989  0.70522856  1
  O  O43  1  0.38618049  0.79751143  0.47536490  1
  O  O44  1  0.29751143  0.11381951  0.22536490  1
  O  O45  1  0.20248857  0.61381951  0.02463510  1
  O  O46  1  0.00454989  0.62711717  0.45522856  1
  O  O47  1  0.67320164  0.54592493  0.40710398  1
  O  O48  1  0.95407507  0.17320164  0.65710398  1
  O  O49  1  0.55217837  0.79840050  0.84870588  1
  O  O50  1  0.13992037  0.86007963  0.75000000  1
  O  O51  1  0.61381951  0.20248857  0.97536490  1
