# generated using pymatgen
data_Na3GdI6
_symmetry_space_group_name_H-M   'P 1'
_cell_length_a   7.82280537
_cell_length_b   7.83747881
_cell_length_c   7.83750176
_cell_angle_alpha   119.52015554
_cell_angle_beta   99.87848569
_cell_angle_gamma   99.87820944
_symmetry_Int_Tables_number   1
_chemical_formula_structural   Na3GdI6
_chemical_formula_sum   'Na3 Gd1 I6'
_cell_volume   393.13639184
_cell_formula_units_Z   1
loop_
 _symmetry_equiv_pos_site_id
 _symmetry_equiv_pos_as_xyz
  1  'x, y, z'
loop_
 _atom_site_type_symbol
 _atom_site_label
 _atom_site_symmetry_multiplicity
 _atom_site_fract_x
 _atom_site_fract_y
 _atom_site_fract_z
 _atom_site_occupancy
  Na  Na0  1  0.00000000  0.33276923  0.66722977  1
  Na  Na1  1  0.50000000  0.82906080  0.17094020  1
  Na  Na2  1  0.00000100  0.66677628  0.33322472  1
  Gd  Gd3  1  0.00000100  0.00062181  0.99937919  1
  I  I4  1  0.23896690  0.76038583  0.76369258  1
  I  I5  1  0.24186399  0.40286847  0.08199425  1
  I  I6  1  0.24407027  0.07970866  0.39890624  1
  I  I7  1  0.75813301  0.91800675  0.59712453  1
  I  I8  1  0.75592973  0.60109176  0.92029234  1
  I  I9  1  0.76103510  0.23630942  0.23961617  1
