# generated using pymatgen
data_Cs2SiSe4
_symmetry_space_group_name_H-M   'P 1'
_cell_length_a   7.71213562
_cell_length_b   8.59092714
_cell_length_c   9.74701307
_cell_angle_alpha   67.24088672
_cell_angle_beta   66.69564357
_cell_angle_gamma   63.32985252
_symmetry_Int_Tables_number   1
_chemical_formula_structural   Cs2SiSe4
_chemical_formula_sum   'Cs4 Si2 Se8'
_cell_volume   512.47280217
_cell_formula_units_Z   2
loop_
 _symmetry_equiv_pos_site_id
 _symmetry_equiv_pos_as_xyz
  1  'x, y, z'
loop_
 _atom_site_type_symbol
 _atom_site_label
 _atom_site_symmetry_multiplicity
 _atom_site_fract_x
 _atom_site_fract_y
 _atom_site_fract_z
 _atom_site_occupancy
  Cs  Cs0  1  0.58994769  0.67407479  0.14603184  1
  Cs  Cs1  1  0.15978400  0.96518590  0.71524410  1
  Cs  Cs2  1  0.41005231  0.32592521  0.85396816  1
  Cs  Cs3  1  0.84021600  0.03481410  0.28475590  1
  Si  Si4  1  0.84493648  0.61009356  0.70003448  1
  Si  Si5  1  0.15506352  0.38990644  0.29996552  1
  Se  Se6  1  0.31012028  0.11189074  0.26786769  1
  Se  Se7  1  0.67129792  0.63818712  0.53813686  1
  Se  Se8  1  0.68987972  0.88810926  0.73213231  1
  Se  Se9  1  0.84762090  0.36181288  0.46186314  1
  Se  Se10  1  0.87430759  0.36211614  0.88926769  1
  Se  Se11  1  0.12569241  0.63788386  0.11073231  1
  Se  Se12  1  0.32870208  0.36181288  0.46186314  1
  Se  Se13  1  0.15237910  0.63818712  0.53813686  1
