# generated using pymatgen
data_AgNO3
_symmetry_space_group_name_H-M   'P 1'
_cell_length_a   6.90205076
_cell_length_b   7.20285772
_cell_length_c   10.01382351
_cell_angle_alpha   90.00000000
_cell_angle_beta   90.00000000
_cell_angle_gamma   90.00000000
_symmetry_Int_Tables_number   1
_chemical_formula_structural   AgNO3
_chemical_formula_sum   'Ag8 N8 O24'
_cell_volume   497.83212475
_cell_formula_units_Z   8
loop_
 _symmetry_equiv_pos_site_id
 _symmetry_equiv_pos_as_xyz
  1  'x, y, z'
loop_
 _atom_site_type_symbol
 _atom_site_label
 _atom_site_symmetry_multiplicity
 _atom_site_fract_x
 _atom_site_fract_y
 _atom_site_fract_z
 _atom_site_occupancy
  Ag  Ag0  1  0.88683127  0.47519978  0.38081266  1
  Ag  Ag1  1  0.11316873  0.97519978  0.11918734  1
  Ag  Ag2  1  0.61316873  0.97519978  0.38081266  1
  Ag  Ag3  1  0.88683127  0.02480022  0.88081266  1
  Ag  Ag4  1  0.38683127  0.47519978  0.11918734  1
  Ag  Ag5  1  0.11316873  0.52480022  0.61918734  1
  Ag  Ag6  1  0.61316873  0.52480022  0.88081266  1
  Ag  Ag7  1  0.38683127  0.02480022  0.61918734  1
  N  N8  1  0.12310092  0.86387065  0.40300308  1
  N  N9  1  0.87689908  0.13612935  0.59699692  1
  N  N10  1  0.62310092  0.63612935  0.59699692  1
  N  N11  1  0.87689908  0.36387065  0.09699692  1
  N  N12  1  0.37689908  0.36387065  0.40300308  1
  N  N13  1  0.12310092  0.63612935  0.90300308  1
  N  N14  1  0.62310092  0.86387065  0.09699692  1
  N  N15  1  0.37689908  0.13612935  0.90300308  1
  O  O16  1  0.23776338  0.98316008  0.35562485  1
  O  O17  1  0.99557338  0.21568586  0.67326770  1
  O  O18  1  0.50442662  0.71568586  0.67326770  1
  O  O19  1  0.76223662  0.01683992  0.64437515  1
  O  O20  1  0.50442662  0.78431414  0.17326770  1
  O  O21  1  0.00442662  0.71568586  0.82673230  1
  O  O22  1  0.37228288  0.17235591  0.02689725  1
  O  O23  1  0.00442662  0.78431414  0.32673230  1
  O  O24  1  0.49557338  0.21568586  0.82673230  1
  O  O25  1  0.62771712  0.82764309  0.97310275  1
  O  O26  1  0.23776338  0.51683992  0.85562485  1
  O  O27  1  0.26223662  0.48316008  0.35562485  1
  O  O28  1  0.73776338  0.98316008  0.14437515  1
  O  O29  1  0.49557338  0.28431414  0.32673230  1
  O  O30  1  0.99557338  0.28431414  0.17326770  1
  O  O31  1  0.73776338  0.51683992  0.64437515  1
  O  O32  1  0.37228288  0.32764309  0.52689725  1
  O  O33  1  0.26223662  0.01683992  0.85562485  1
  O  O34  1  0.87228288  0.17235591  0.47310275  1
  O  O35  1  0.12771712  0.82764309  0.52689725  1
  O  O36  1  0.76223662  0.48316008  0.14437515  1
  O  O37  1  0.62771712  0.67235691  0.47310275  1
  O  O38  1  0.87228288  0.32764309  0.97310275  1
  O  O39  1  0.12771712  0.67235691  0.02689725  1
