# generated using pymatgen
data_SnPHO4
_symmetry_space_group_name_H-M   'P 1'
_cell_length_a   4.67031300
_cell_length_b   5.89274393
_cell_length_c   13.77258400
_cell_angle_alpha   90.00000000
_cell_angle_beta   90.00000000
_cell_angle_gamma   98.64566555
_symmetry_Int_Tables_number   1
_chemical_formula_structural   SnPHO4
_chemical_formula_sum   'Sn4 P4 H4 O16'
_cell_volume   374.72769859
_cell_formula_units_Z   4
loop_
 _symmetry_equiv_pos_site_id
 _symmetry_equiv_pos_as_xyz
  1  'x, y, z'
loop_
 _atom_site_type_symbol
 _atom_site_label
 _atom_site_symmetry_multiplicity
 _atom_site_fract_x
 _atom_site_fract_y
 _atom_site_fract_z
 _atom_site_occupancy
  Sn  Sn0  1  0.05149200  0.60835400  0.34299700  1
  Sn  Sn1  1  0.94850800  0.89164600  0.84299700  1
  Sn  Sn2  1  0.94850800  0.39164600  0.65700300  1
  Sn  Sn3  1  0.05149200  0.10835400  0.15700300  1
  P  P4  1  0.57170300  0.06320100  0.34937400  1
  P  P5  1  0.42829700  0.43679900  0.84937400  1
  P  P6  1  0.42829700  0.93679900  0.65062600  1
  P  P7  1  0.57170300  0.56320100  0.15062600  1
  H  H8  1  0.41203100  0.70147700  0.01356300  1
  H  H9  1  0.58796900  0.79852300  0.51356300  1
  H  H10  1  0.58796900  0.29852300  0.98643700  1
  H  H11  1  0.41203100  0.20147700  0.48643700  1
  O  O12  1  0.30359400  0.95643100  0.28727100  1
  O  O13  1  0.69640600  0.54356900  0.78727100  1
  O  O14  1  0.69640600  0.04356900  0.71272900  1
  O  O15  1  0.30359400  0.45643100  0.21272900  1
  O  O16  1  0.48064500  0.25690200  0.41826100  1
  O  O17  1  0.51935500  0.24309800  0.91826100  1
  O  O18  1  0.51935500  0.74309800  0.58173900  1
  O  O19  1  0.48064500  0.75690200  0.08173900  1
  O  O20  1  0.68195200  0.87558500  0.40926300  1
  O  O21  1  0.31804800  0.62441500  0.90926300  1
  O  O22  1  0.31804800  0.12441500  0.59073700  1
  O  O23  1  0.68195200  0.37558500  0.09073700  1
  O  O24  1  0.80326500  0.20013900  0.28271200  1
  O  O25  1  0.19673500  0.29986100  0.78271200  1
  O  O26  1  0.19673500  0.79986100  0.71728800  1
  O  O27  1  0.80326500  0.70013900  0.21728800  1
