# generated using pymatgen
data_K2SO4
_symmetry_space_group_name_H-M   'P 1'
_cell_length_a   5.74885069
_cell_length_b   5.74885069
_cell_length_c   7.86671805
_cell_angle_alpha   90.00000000
_cell_angle_beta   90.00000000
_cell_angle_gamma   118.41704652
_symmetry_Int_Tables_number   1
_chemical_formula_structural   K2SO4
_chemical_formula_sum   'K4 S2 O8'
_cell_volume   228.66250548
_cell_formula_units_Z   2
loop_
 _symmetry_equiv_pos_site_id
 _symmetry_equiv_pos_as_xyz
  1  'x, y, z'
loop_
 _atom_site_type_symbol
 _atom_site_label
 _atom_site_symmetry_multiplicity
 _atom_site_fract_x
 _atom_site_fract_y
 _atom_site_fract_z
 _atom_site_occupancy
  K  K0  1  0.30964789  0.69035211  0.75000000  1
  K  K1  1  -0.00000000  0.00000000  0.00000000  1
  K  K2  1  -0.00000000  0.00000000  0.50000000  1
  K  K3  1  0.69035211  0.30964789  0.25000000  1
  S  S4  1  0.34791804  0.65208196  0.25000000  1
  S  S5  1  0.65208196  0.34791804  0.75000000  1
  O  O6  1  0.23036674  0.35923790  0.25000000  1
  O  O7  1  0.26190151  0.73809849  0.40309556  1
  O  O8  1  0.26190151  0.73809849  0.09690444  1
  O  O9  1  0.64076210  0.76963326  0.25000000  1
  O  O10  1  0.35923790  0.23036674  0.75000000  1
  O  O11  1  0.73809849  0.26190151  0.59690444  1
  O  O12  1  0.73809849  0.26190151  0.90309556  1
  O  O13  1  0.76963326  0.64076210  0.75000000  1
