# generated using pymatgen
data_Sr3InP3
_symmetry_space_group_name_H-M   'P 1'
_cell_length_a   4.33893351
_cell_length_b   12.88862246
_cell_length_c   13.92308198
_cell_angle_alpha   90.00000000
_cell_angle_beta   90.00000000
_cell_angle_gamma   90.00000000
_symmetry_Int_Tables_number   1
_chemical_formula_structural   Sr3InP3
_chemical_formula_sum   'Sr12 In4 P12'
_cell_volume   778.61878557
_cell_formula_units_Z   4
loop_
 _symmetry_equiv_pos_site_id
 _symmetry_equiv_pos_as_xyz
  1  'x, y, z'
loop_
 _atom_site_type_symbol
 _atom_site_label
 _atom_site_symmetry_multiplicity
 _atom_site_fract_x
 _atom_site_fract_y
 _atom_site_fract_z
 _atom_site_occupancy
  Sr  Sr0  1  0.75000000  0.14354525  0.99629305  1
  Sr  Sr1  1  0.25000000  0.27401300  0.20665468  1
  Sr  Sr2  1  0.25000000  0.35645475  0.49629305  1
  Sr  Sr3  1  0.75000000  0.64354525  0.50370695  1
  Sr  Sr4  1  0.75000000  0.42686681  0.89563905  1
  Sr  Sr5  1  0.25000000  0.85645475  0.00370695  1
  Sr  Sr6  1  0.75000000  0.22598700  0.70665468  1
  Sr  Sr7  1  0.75000000  0.92686681  0.60436095  1
  Sr  Sr8  1  0.25000000  0.07313319  0.39563905  1
  Sr  Sr9  1  0.25000000  0.57313319  0.10436095  1
  Sr  Sr10  1  0.25000000  0.77401300  0.29334532  1
  Sr  Sr11  1  0.75000000  0.72598700  0.79334532  1
  In  In12  1  0.75000000  0.94726054  0.20183856  1
  In  In13  1  0.75000000  0.44726054  0.29816144  1
  In  In14  1  0.25000000  0.55273946  0.70183856  1
  In  In15  1  0.25000000  0.05273946  0.79816144  1
  P  P16  1  0.75000000  0.75925592  0.12814795  1
  P  P17  1  0.25000000  0.09506187  0.61568797  1
  P  P18  1  0.25000000  0.59506187  0.88431203  1
  P  P19  1  0.75000000  0.90493813  0.38431203  1
  P  P20  1  0.25000000  0.74074408  0.62814795  1
  P  P21  1  0.25000000  0.04638770  0.14408320  1
  P  P22  1  0.75000000  0.95361230  0.85591680  1
  P  P23  1  0.75000000  0.45361230  0.64408320  1
  P  P24  1  0.25000000  0.54638770  0.35591680  1
  P  P25  1  0.75000000  0.25925592  0.37185205  1
  P  P26  1  0.75000000  0.40493813  0.11568797  1
  P  P27  1  0.25000000  0.24074408  0.87185205  1
