# generated using pymatgen
data_Tl9SbSe6
_symmetry_space_group_name_H-M   'P 1'
_cell_length_a   8.51952281
_cell_length_b   8.51423906
_cell_length_c   8.92525853
_cell_angle_alpha   118.44300816
_cell_angle_beta   118.53448376
_cell_angle_gamma   90.02757359
_symmetry_Int_Tables_number   1
_chemical_formula_structural   Tl9SbSe6
_chemical_formula_sum   'Tl9 Sb1 Se6'
_cell_volume   477.83719846
_cell_formula_units_Z   1
loop_
 _symmetry_equiv_pos_site_id
 _symmetry_equiv_pos_as_xyz
  1  'x, y, z'
loop_
 _atom_site_type_symbol
 _atom_site_label
 _atom_site_symmetry_multiplicity
 _atom_site_fract_x
 _atom_site_fract_y
 _atom_site_fract_z
 _atom_site_occupancy
  Tl  Tl0  1  0.99315651  0.51569040  0.30835219  1
  Tl  Tl1  1  0.20720099  0.00635107  0.69171193  1
  Tl  Tl2  1  0.00000000  -0.00000000  0.00000000  1
  Tl  Tl3  1  0.31509448  0.79233036  0.30787600  1
  Tl  Tl4  1  0.48396808  0.68441975  0.69093477  1
  Tl  Tl5  1  0.51603192  0.31558025  0.30906523  1
  Tl  Tl6  1  0.68490552  0.20766964  0.69212400  1
  Tl  Tl7  1  0.79279901  0.99364893  0.30828807  1
  Tl  Tl8  1  0.00684349  0.48430960  0.69164781  1
  Sb  Sb9  1  0.50000000  0.50000000  0.00000000  1
  Se  Se10  1  0.27962759  0.27964126  0.55819657  1
  Se  Se11  1  0.18550858  0.35420298  -0.00014804  1
  Se  Se12  1  0.35477974  0.81455249  -0.00028782  1
  Se  Se13  1  0.72037241  0.72035874  0.44180343  1
  Se  Se14  1  0.64522026  0.18544751  0.00028782  1
  Se  Se15  1  0.81449142  0.64579702  0.00014804  1
