# generated using pymatgen
data_BaSeO3
_symmetry_space_group_name_H-M   'P 1'
_cell_length_a   4.72731693
_cell_length_b   5.68404761
_cell_length_c   6.88163359
_cell_angle_alpha   90.00000000
_cell_angle_beta   107.07620243
_cell_angle_gamma   90.00000000
_symmetry_Int_Tables_number   1
_chemical_formula_structural   BaSeO3
_chemical_formula_sum   'Ba2 Se2 O6'
_cell_volume   176.75970786
_cell_formula_units_Z   2
loop_
 _symmetry_equiv_pos_site_id
 _symmetry_equiv_pos_as_xyz
  1  'x, y, z'
loop_
 _atom_site_type_symbol
 _atom_site_label
 _atom_site_symmetry_multiplicity
 _atom_site_fract_x
 _atom_site_fract_y
 _atom_site_fract_z
 _atom_site_occupancy
  Ba  Ba0  1  0.34446315  0.75000000  0.70797578  1
  Ba  Ba1  1  0.65553785  0.25000000  0.29202422  1
  Se  Se2  1  0.93414266  0.25000000  0.83892834  1
  Se  Se3  1  0.06585734  0.75000000  0.16107166  1
  O  O4  1  0.17501300  0.98294497  0.32215971  1
  O  O5  1  0.82498700  0.48294497  0.67784029  1
  O  O6  1  0.82498700  0.01705503  0.67784029  1
  O  O7  1  0.17501300  0.51705503  0.32215971  1
  O  O8  1  0.69157402  0.75000000  0.12040279  1
  O  O9  1  0.30842598  0.25000000  0.87959721  1
