# generated using pymatgen
data_Sm(HO)3
_symmetry_space_group_name_H-M   'P 1'
_cell_length_a   6.35167108
_cell_length_b   6.35166650
_cell_length_c   3.65227558
_cell_angle_alpha   90.00000000
_cell_angle_beta   90.00000000
_cell_angle_gamma   120.00017697
_symmetry_Int_Tables_number   1
_chemical_formula_structural   Sm(HO)3
_chemical_formula_sum   'Sm2 H6 O6'
_cell_volume   127.60540900
_cell_formula_units_Z   2
loop_
 _symmetry_equiv_pos_site_id
 _symmetry_equiv_pos_as_xyz
  1  'x, y, z'
loop_
 _atom_site_type_symbol
 _atom_site_label
 _atom_site_symmetry_multiplicity
 _atom_site_fract_x
 _atom_site_fract_y
 _atom_site_fract_z
 _atom_site_occupancy
  Sm  Sm0  1  0.33333400  0.66666700  0.25000000  1
  Sm  Sm1  1  0.66666600  0.33333300  0.75000000  1
  H  H2  1  0.86236958  0.72462757  0.25000000  1
  H  H3  1  0.86225600  0.13763042  0.25000000  1
  H  H4  1  0.27537143  0.13774200  0.25000000  1
  H  H5  1  0.13763042  0.27537243  0.75000000  1
  H  H6  1  0.13774400  0.86236958  0.75000000  1
  H  H7  1  0.72462857  0.86225800  0.75000000  1
  O  O8  1  0.91710731  0.60751727  0.25000000  1
  O  O9  1  0.69040796  0.08289169  0.25000000  1
  O  O10  1  0.39248373  0.30959104  0.25000000  1
  O  O11  1  0.08289269  0.39248273  0.75000000  1
  O  O12  1  0.30959204  0.91710831  0.75000000  1
  O  O13  1  0.60751627  0.69040896  0.75000000  1
