# generated using pymatgen
data_CdI2
_symmetry_space_group_name_H-M   'P 1'
_cell_length_a   4.28273793
_cell_length_b   4.28273791
_cell_length_c   85.90515183
_cell_angle_alpha   90.00000000
_cell_angle_beta   90.00000000
_cell_angle_gamma   120.00000011
_symmetry_Int_Tables_number   1
_chemical_formula_structural   CdI2
_chemical_formula_sum   'Cd12 I24'
_cell_volume   1364.56063354
_cell_formula_units_Z   12
loop_
 _symmetry_equiv_pos_site_id
 _symmetry_equiv_pos_as_xyz
  1  'x, y, z'
loop_
 _atom_site_type_symbol
 _atom_site_label
 _atom_site_symmetry_multiplicity
 _atom_site_fract_x
 _atom_site_fract_y
 _atom_site_fract_z
 _atom_site_occupancy
  Cd  Cd0  1  0.00000000  0.00000000  0.27062950  1
  Cd  Cd1  1  0.66666700  0.33333300  0.52082922  1
  Cd  Cd2  1  0.66666700  0.33333300  0.02083577  1
  Cd  Cd3  1  0.00000000  -0.00000000  0.43749611  1
  Cd  Cd4  1  0.00000000  -0.00000000  0.10407887  1
  Cd  Cd5  1  0.66666700  0.33333300  0.35425480  1
  Cd  Cd6  1  0.66666700  0.33333300  0.18750181  1
  Cd  Cd7  1  0.66666700  0.33333300  0.93760630  1
  Cd  Cd8  1  0.66666700  0.33333300  0.68749445  1
  Cd  Cd9  1  0.66666700  0.33333300  0.77082880  1
  Cd  Cd10  1  0.33333300  0.66666700  0.85423966  1
  Cd  Cd11  1  0.66666700  0.33333300  0.60416619  1
  I  I12  1  0.00000000  -0.00000000  0.16744224  1
  I  I13  1  0.33333300  0.66666700  0.79089115  1
  I  I14  1  0.66666700  0.33333300  0.08394895  1
  I  I15  1  0.33333300  0.66666700  0.45755825  1
  I  I16  1  0.33333300  0.66666700  0.20755881  1
  I  I17  1  0.33333300  0.66666700  0.95771808  1
  I  I18  1  -0.00000000  0.00000000  0.83413228  1
  I  I19  1  0.00000000  -0.00000000  0.66744097  1
  I  I20  1  0.66666700  0.33333300  0.87437638  1
  I  I21  1  0.00000000  0.00000000  0.91750774  1
  I  I22  1  -0.00000000  -0.00000000  0.58410793  1
  I  I23  1  0.33333300  0.66666700  0.54089273  1
  I  I24  1  0.33333300  0.66666700  0.12420116  1
  I  I25  1  0.33333300  0.66666700  0.04089010  1
  I  I26  1  0.00000000  0.00000000  0.75077436  1
  I  I27  1  0.33333300  0.66666700  0.29069753  1
  I  I28  1  0.00000000  -0.00000000  0.33413494  1
  I  I29  1  0.33333300  0.66666700  0.37437947  1
  I  I30  1  0.66666700  0.33333300  0.41744130  1
  I  I31  1  0.33333300  0.66666700  0.70755682  1
  I  I32  1  -0.00000000  0.00000000  0.00077454  1
  I  I33  1  0.66666700  0.33333300  0.25061516  1
  I  I34  1  0.33333300  0.66666700  0.62422588  1
  I  I35  1  0.00000000  0.00000000  0.50077478  1
