# generated using pymatgen
data_ScTl(MoO4)2
_symmetry_space_group_name_H-M   'P 1'
_cell_length_a   5.81030554
_cell_length_b   9.00075519
_cell_length_c   15.07540019
_cell_angle_alpha   90.00000000
_cell_angle_beta   90.00000000
_cell_angle_gamma   90.00000000
_symmetry_Int_Tables_number   1
_chemical_formula_structural   ScTl(MoO4)2
_chemical_formula_sum   'Sc4 Tl4 Mo8 O32'
_cell_volume   788.40028029
_cell_formula_units_Z   4
loop_
 _symmetry_equiv_pos_site_id
 _symmetry_equiv_pos_as_xyz
  1  'x, y, z'
loop_
 _atom_site_type_symbol
 _atom_site_label
 _atom_site_symmetry_multiplicity
 _atom_site_fract_x
 _atom_site_fract_y
 _atom_site_fract_z
 _atom_site_occupancy
  Sc  Sc0  1  0.25000000  0.31279615  0.61704809  1
  Sc  Sc1  1  0.25000000  0.18720385  0.11704809  1
  Sc  Sc2  1  0.75000000  0.81279615  0.88295191  1
  Sc  Sc3  1  0.75000000  0.68720385  0.38295191  1
  Tl  Tl4  1  0.75000000  0.57660958  0.12325610  1
  Tl  Tl5  1  0.25000000  0.42339042  0.87674390  1
  Tl  Tl6  1  0.75000000  0.92339042  0.62325610  1
  Tl  Tl7  1  0.25000000  0.07660958  0.37674390  1
  Mo  Mo8  1  0.75000000  0.50426113  0.71936311  1
  Mo  Mo9  1  0.75000000  0.28970999  0.46667828  1
  Mo  Mo10  1  0.25000000  0.71029001  0.53332172  1
  Mo  Mo11  1  0.25000000  0.78970999  0.03332172  1
  Mo  Mo12  1  0.75000000  0.99573887  0.21936311  1
  Mo  Mo13  1  0.25000000  0.49573887  0.28063689  1
  Mo  Mo14  1  0.75000000  0.21029001  0.96667828  1
  Mo  Mo15  1  0.25000000  0.00426113  0.78063689  1
  O  O16  1  0.75000000  0.18992336  0.36882029  1
  O  O17  1  0.99662651  0.23616347  0.52950980  1
  O  O18  1  0.99504984  0.60420231  0.29291886  1
  O  O19  1  0.75000000  0.01795056  0.94566258  1
  O  O20  1  0.25000000  0.68992336  0.13117971  1
  O  O21  1  0.75000000  0.48204944  0.44566258  1
  O  O22  1  0.25000000  0.51795056  0.55433742  1
  O  O23  1  0.50337349  0.26383653  0.02950980  1
  O  O24  1  0.00337349  0.76383653  0.47049020  1
  O  O25  1  0.49504984  0.10420231  0.20708114  1
  O  O26  1  0.25000000  0.39138967  0.18081428  1
  O  O27  1  0.00495016  0.10420231  0.20708114  1
  O  O28  1  0.75000000  0.60861033  0.81918572  1
  O  O29  1  0.50495016  0.89579769  0.79291886  1
  O  O30  1  0.50337349  0.23616347  0.52950980  1
  O  O31  1  0.25000000  0.81007664  0.63117971  1
  O  O32  1  0.75000000  0.63229694  0.63438613  1
  O  O33  1  0.75000000  0.31007664  0.86882029  1
  O  O34  1  0.25000000  0.10861033  0.68081428  1
  O  O35  1  0.49662651  0.73616347  0.97049020  1
  O  O36  1  0.49504984  0.39579769  0.70708114  1
  O  O37  1  0.25000000  0.98204944  0.05433742  1
  O  O38  1  0.75000000  0.89138967  0.31918572  1
  O  O39  1  0.75000000  0.86770306  0.13438513  1
  O  O40  1  0.50495016  0.60420231  0.29291886  1
  O  O41  1  0.49662651  0.76383653  0.47049020  1
  O  O42  1  0.99504984  0.89579769  0.79291886  1
  O  O43  1  0.00495016  0.39579769  0.70708114  1
  O  O44  1  0.25000000  0.13229694  0.86561387  1
  O  O45  1  0.25000000  0.36770306  0.36561487  1
  O  O46  1  0.00337349  0.73616347  0.97049020  1
  O  O47  1  0.99662651  0.26383653  0.02950980  1
