# generated using pymatgen
data_Mo3S7Cl4
_symmetry_space_group_name_H-M   'P 1'
_cell_length_a   12.22117014
_cell_length_b   9.59826687
_cell_length_c   14.19731277
_cell_angle_alpha   57.68639335
_cell_angle_beta   90.00000000
_cell_angle_gamma   90.00000000
_symmetry_Int_Tables_number   1
_chemical_formula_structural   Mo3S7Cl4
_chemical_formula_sum   'Mo12 S28 Cl16'
_cell_volume   1407.46564615
_cell_formula_units_Z   4
loop_
 _symmetry_equiv_pos_site_id
 _symmetry_equiv_pos_as_xyz
  1  'x, y, z'
loop_
 _atom_site_type_symbol
 _atom_site_label
 _atom_site_symmetry_multiplicity
 _atom_site_fract_x
 _atom_site_fract_y
 _atom_site_fract_z
 _atom_site_occupancy
  Mo  Mo0  1  0.74787697  0.12969260  0.28922708  1
  Mo  Mo1  1  0.37952516  0.63406338  0.21948216  1
  Mo  Mo2  1  0.15914139  0.59901334  0.22408056  1
  Mo  Mo3  1  0.65914139  0.40098666  0.27591944  1
  Mo  Mo4  1  0.87952516  0.36593662  0.28051784  1
  Mo  Mo5  1  0.12047484  0.63406338  0.71948216  1
  Mo  Mo6  1  0.34085861  0.59901334  0.72408056  1
  Mo  Mo7  1  0.24787697  0.87030740  0.21077292  1
  Mo  Mo8  1  0.62047484  0.36593662  0.78051784  1
  Mo  Mo9  1  0.84085861  0.40098666  0.77591944  1
  Mo  Mo10  1  0.25212303  0.87030740  0.71077292  1
  Mo  Mo11  1  0.75212303  0.12969260  0.78922708  1
  S  S12  1  0.23537651  0.59450592  0.86363218  1
  S  S13  1  0.04707104  0.81802485  0.22229839  1
  S  S14  1  0.61922807  0.08081573  0.92741326  1
  S  S15  1  0.27844763  0.58788113  0.09461491  1
  S  S16  1  0.04816188  0.88288305  0.71198500  1
  S  S17  1  0.45292896  0.81802485  0.72229839  1
  S  S18  1  0.88077193  0.08081573  0.42741326  1
  S  S19  1  0.71199598  0.61827833  0.75136412  1
  S  S20  1  0.54816188  0.11711695  0.78801500  1
  S  S21  1  0.62188269  0.12225568  0.42105503  1
  S  S22  1  0.26462349  0.59450592  0.36363218  1
  S  S23  1  0.28800402  0.38172167  0.24863588  1
  S  S24  1  0.12188269  0.87774432  0.07894497  1
  S  S25  1  0.73537651  0.40549408  0.63636782  1
  S  S26  1  0.38077193  0.91918427  0.07258674  1
  S  S27  1  0.22155237  0.58788113  0.59461491  1
  S  S28  1  0.87811731  0.12225568  0.92105503  1
  S  S29  1  0.11922807  0.91918427  0.57258674  1
  S  S30  1  0.72155237  0.41211887  0.90538509  1
  S  S31  1  0.54707104  0.18197515  0.27770161  1
  S  S32  1  0.77844763  0.41211887  0.40538509  1
  S  S33  1  0.95183812  0.11711695  0.28801500  1
  S  S34  1  0.78800402  0.61827833  0.25136412  1
  S  S35  1  0.45183812  0.88288305  0.21198500  1
  S  S36  1  0.37811731  0.87774432  0.57894497  1
  S  S37  1  0.95292896  0.18197515  0.77770161  1
  S  S38  1  0.76462349  0.40549408  0.13636782  1
  S  S39  1  0.21199598  0.38172167  0.74863588  1
  Cl  Cl40  1  0.95302304  0.61417779  0.61756155  1
  Cl  Cl41  1  0.76090837  0.07759064  0.63558722  1
  Cl  Cl42  1  0.54697696  0.61417779  0.11756155  1
  Cl  Cl43  1  0.77647563  0.83034185  0.89841630  1
  Cl  Cl44  1  0.72352437  0.83034185  0.39841630  1
  Cl  Cl45  1  0.99039296  0.46433471  0.87383153  1
  Cl  Cl46  1  0.27647563  0.16965815  0.60158370  1
  Cl  Cl47  1  0.50960704  0.46433471  0.37383153  1
  Cl  Cl48  1  0.00960704  0.53566529  0.12616847  1
  Cl  Cl49  1  0.04697696  0.38582221  0.38243845  1
  Cl  Cl50  1  0.73909163  0.07759064  0.13558722  1
  Cl  Cl51  1  0.26090837  0.92240936  0.86441278  1
  Cl  Cl52  1  0.22352437  0.16965815  0.10158370  1
  Cl  Cl53  1  0.49039296  0.53566529  0.62616847  1
  Cl  Cl54  1  0.45302304  0.38582221  0.88243845  1
  Cl  Cl55  1  0.23909163  0.92240936  0.36441278  1
