# generated using pymatgen
data_Re3(SeCl)7
_symmetry_space_group_name_H-M   'P 1'
_cell_length_a   10.43077490
_cell_length_b   12.06177758
_cell_length_c   14.48541919
_cell_angle_alpha   90.00000000
_cell_angle_beta   90.00000000
_cell_angle_gamma   90.00000000
_symmetry_Int_Tables_number   1
_chemical_formula_structural   Re3(SeCl)7
_chemical_formula_sum   'Re12 Se28 Cl28'
_cell_volume   1822.46399358
_cell_formula_units_Z   4
loop_
 _symmetry_equiv_pos_site_id
 _symmetry_equiv_pos_as_xyz
  1  'x, y, z'
loop_
 _atom_site_type_symbol
 _atom_site_label
 _atom_site_symmetry_multiplicity
 _atom_site_fract_x
 _atom_site_fract_y
 _atom_site_fract_z
 _atom_site_occupancy
  Re  Re0  1  0.11841955  0.72178319  0.56020523  1
  Re  Re1  1  0.75000000  0.26859448  0.60494243  1
  Re  Re2  1  0.75000000  0.73140552  0.10494243  1
  Re  Re3  1  0.88158045  0.27821681  0.43979477  1
  Re  Re4  1  0.88158045  0.72178319  0.93979477  1
  Re  Re5  1  0.11841955  0.27821681  0.06020523  1
  Re  Re6  1  0.38158045  0.72178319  0.56020523  1
  Re  Re7  1  0.61841955  0.72178319  0.93979477  1
  Re  Re8  1  0.25000000  0.73140552  0.39505757  1
  Re  Re9  1  0.61841955  0.27821681  0.43979477  1
  Re  Re10  1  0.25000000  0.26859448  0.89505757  1
  Re  Re11  1  0.38158045  0.27821681  0.06020523  1
  Se  Se12  1  0.90760165  0.12374711  0.55448469  1
  Se  Se13  1  0.00282417  0.29206639  0.90139411  1
  Se  Se14  1  0.75000000  0.56895845  0.00163350  1
  Se  Se15  1  0.75000000  0.86494237  0.85640300  1
  Se  Se16  1  0.25000000  0.68835970  0.70848720  1
  Se  Se17  1  0.50282417  0.29206639  0.59860589  1
  Se  Se18  1  0.00282417  0.70793361  0.40139411  1
  Se  Se19  1  0.75000000  0.68835970  0.79151280  1
  Se  Se20  1  0.40760165  0.87625289  0.44551531  1
  Se  Se21  1  0.09239835  0.87625289  0.44551531  1
  Se  Se22  1  0.09239835  0.12374711  0.94551531  1
  Se  Se23  1  0.90760165  0.87625289  0.05448469  1
  Se  Se24  1  0.75000000  0.43104155  0.50163350  1
  Se  Se25  1  0.59239835  0.12374711  0.55448469  1
  Se  Se26  1  0.25000000  0.56895845  0.49836650  1
  Se  Se27  1  0.75000000  0.13505763  0.35640300  1
  Se  Se28  1  0.25000000  0.43104155  0.99836650  1
  Se  Se29  1  0.40760165  0.12374711  0.94551531  1
  Se  Se30  1  0.25000000  0.31164030  0.20848720  1
  Se  Se31  1  0.99717583  0.70793361  0.09860589  1
  Se  Se32  1  0.49717583  0.70793361  0.40139411  1
  Se  Se33  1  0.25000000  0.86494237  0.64359700  1
  Se  Se34  1  0.49717583  0.29206639  0.90139411  1
  Se  Se35  1  0.25000000  0.13505763  0.14359700  1
  Se  Se36  1  0.59239835  0.87625289  0.05448469  1
  Se  Se37  1  0.50282417  0.70793361  0.09860589  1
  Se  Se38  1  0.99717583  0.29206639  0.59860589  1
  Se  Se39  1  0.75000000  0.31164030  0.29151280  1
  Cl  Cl40  1  0.75000000  0.84302507  0.24493240  1
  Cl  Cl41  1  0.05701722  0.81693680  0.86643698  1
  Cl  Cl42  1  0.99063063  0.43312913  0.11320089  1
  Cl  Cl43  1  0.44298278  0.81693680  0.86643698  1
  Cl  Cl44  1  0.94298278  0.18306320  0.13356302  1
  Cl  Cl45  1  0.25000000  0.04051212  0.52728360  1
  Cl  Cl46  1  0.00936937  0.43312913  0.38679911  1
  Cl  Cl47  1  0.55701722  0.18306320  0.13356302  1
  Cl  Cl48  1  0.75000000  0.58963936  0.22185451  1
  Cl  Cl49  1  0.55701722  0.81693680  0.63356302  1
  Cl  Cl50  1  0.49063063  0.43312913  0.38679911  1
  Cl  Cl51  1  0.75000000  0.41036064  0.72185451  1
  Cl  Cl52  1  0.49063063  0.56687087  0.88679911  1
  Cl  Cl53  1  0.25000000  0.58963936  0.27814549  1
  Cl  Cl54  1  0.05701722  0.18306320  0.36643698  1
  Cl  Cl55  1  0.99063063  0.56687087  0.61320089  1
  Cl  Cl56  1  0.25000000  0.15697493  0.75506760  1
  Cl  Cl57  1  0.25000000  0.41036064  0.77814549  1
  Cl  Cl58  1  0.00936937  0.56687087  0.88679911  1
  Cl  Cl59  1  0.50936937  0.56687087  0.61320089  1
  Cl  Cl60  1  0.44298278  0.18306320  0.36643698  1
  Cl  Cl61  1  0.75000000  0.04051212  0.97271640  1
  Cl  Cl62  1  0.75000000  0.95948788  0.47271640  1
  Cl  Cl63  1  0.94298278  0.81693680  0.63356302  1
  Cl  Cl64  1  0.25000000  0.95948788  0.02728360  1
  Cl  Cl65  1  0.50936937  0.43312913  0.11320089  1
  Cl  Cl66  1  0.75000000  0.15697493  0.74493240  1
  Cl  Cl67  1  0.25000000  0.84302507  0.25506760  1
