# generated using pymatgen
data_Rb5Tc3S7
_symmetry_space_group_name_H-M   'P 1'
_cell_length_a   10.65505073
_cell_length_b   10.65505073
_cell_length_c   10.84704299
_cell_angle_alpha   59.42351878
_cell_angle_beta   59.42351878
_cell_angle_gamma   59.63443770
_symmetry_Int_Tables_number   1
_chemical_formula_structural   Rb5Tc3S7
_chemical_formula_sum   'Rb10 Tc6 S14'
_cell_volume   860.74543356
_cell_formula_units_Z   2
loop_
 _symmetry_equiv_pos_site_id
 _symmetry_equiv_pos_as_xyz
  1  'x, y, z'
loop_
 _atom_site_type_symbol
 _atom_site_label
 _atom_site_symmetry_multiplicity
 _atom_site_fract_x
 _atom_site_fract_y
 _atom_site_fract_z
 _atom_site_occupancy
  Rb  Rb0  1  0.00773212  0.00773212  0.99022206  1
  Rb  Rb1  1  0.41774115  0.99385577  0.00448686  1
  Rb  Rb2  1  0.41562650  0.99694158  0.58028124  1
  Rb  Rb3  1  0.84425932  0.84425932  0.86967199  1
  Rb  Rb4  1  0.84030375  0.84030375  0.43586727  1
  Rb  Rb5  1  0.99694158  0.41562650  0.58028124  1
  Rb  Rb6  1  0.02460164  0.02460164  0.46629903  1
  Rb  Rb7  1  0.99385577  0.41774115  0.00448686  1
  Rb  Rb8  1  0.19490158  0.57902463  0.11061823  1
  Rb  Rb9  1  0.57902463  0.19490158  0.11061823  1
  Tc  Tc10  1  0.37433980  0.62265201  0.61969846  1
  Tc  Tc11  1  0.37517081  0.37517081  0.62344713  1
  Tc  Tc12  1  0.37371513  0.62217540  0.38020488  1
  Tc  Tc13  1  0.62265201  0.37433980  0.61969846  1
  Tc  Tc14  1  0.62171937  0.62171937  0.37572998  1
  Tc  Tc15  1  0.62217540  0.37371513  0.38020488  1
  S  S16  1  0.21397453  0.21397453  0.78566582  1
  S  S17  1  0.20088293  0.79098216  0.77117986  1
  S  S18  1  0.38565810  0.38565810  0.83616980  1
  S  S19  1  0.15593400  0.61148341  0.61485499  1
  S  S20  1  0.61145436  0.61145436  0.60901303  1
  S  S21  1  0.19883908  0.79037908  0.23494326  1
  S  S22  1  0.38489530  0.38489530  0.39022305  1
  S  S23  1  0.38995745  0.83923700  0.38333679  1
  S  S24  1  0.61148341  0.15593400  0.61485499  1
  S  S25  1  0.79098216  0.20088293  0.77117986  1
  S  S26  1  0.83923700  0.38995745  0.38333679  1
  S  S27  1  0.61032998  0.61032998  0.16448544  1
  S  S28  1  0.78603307  0.78603307  0.20879825  1
  S  S29  1  0.79037908  0.19883908  0.23494326  1
