# generated using pymatgen
data_Na3Ca2BiO6
_symmetry_space_group_name_H-M   'P 1'
_cell_length_a   11.20859652
_cell_length_b   10.64879257
_cell_length_c   5.94066965
_cell_angle_alpha   79.50049970
_cell_angle_beta   69.09102403
_cell_angle_gamma   31.40847627
_symmetry_Int_Tables_number   1
_chemical_formula_structural   Na3Ca2BiO6
_chemical_formula_sum   'Na6 Ca4 Bi2 O12'
_cell_volume   334.10434933
_cell_formula_units_Z   2
loop_
 _symmetry_equiv_pos_site_id
 _symmetry_equiv_pos_as_xyz
  1  'x, y, z'
loop_
 _atom_site_type_symbol
 _atom_site_label
 _atom_site_symmetry_multiplicity
 _atom_site_fract_x
 _atom_site_fract_y
 _atom_site_fract_z
 _atom_site_occupancy
  Na  Na0  1  0.84148800  0.83384200  0.15408500  1
  Na  Na1  1  0.15493000  0.17028200  0.83632000  1
  Na  Na2  1  0.40548900  0.41748700  0.09221700  1
  Na  Na3  1  0.08174900  0.08704900  0.41519200  1
  Na  Na4  1  0.25899400  0.24351000  0.24603100  1
  Na  Na5  1  0.00106200  0.99985800  0.00758200  1
  Ca  Ca6  1  0.33800300  0.32693700  0.66649000  1
  Ca  Ca7  1  0.58464300  0.57759600  0.92514200  1
  Ca  Ca8  1  0.67334200  0.66212700  0.32737300  1
  Ca  Ca9  1  0.92255200  0.91778400  0.57125300  1
  Bi  Bi10  1  0.49605600  0.50698900  0.50459000  1
  Bi  Bi11  1  0.74923800  0.74667600  0.75620500  1
  O  O12  1  0.65373800  0.19603300  0.35240500  1
  O  O13  1  0.35286100  0.80529500  0.65050100  1
  O  O14  1  0.78827100  0.36514500  0.19792900  1
  O  O15  1  0.88450100  0.46084500  0.60385500  1
  O  O16  1  0.53496300  0.96429600  0.52151000  1
  O  O17  1  0.05936200  0.59281900  0.44637700  1
  O  O18  1  0.71617300  0.28151000  0.72067900  1
  O  O19  1  0.28297100  0.71880400  0.28081200  1
  O  O20  1  0.44982600  0.89095300  0.06340500  1
  O  O21  1  0.60306600  0.04905000  0.88853600  1
  O  O22  1  0.18839100  0.65546000  0.80670500  1
  O  O23  1  0.98036800  0.51854000  0.97394700  1
