# generated using pymatgen
data_Mg3H13C9NO13
_symmetry_space_group_name_H-M   'P 1'
_cell_length_a   10.10060300
_cell_length_b   11.60431500
_cell_length_c   14.82626262
_cell_angle_alpha   88.74727959
_cell_angle_beta   90.00000000
_cell_angle_gamma   90.00000000
_symmetry_Int_Tables_number   1
_chemical_formula_structural   Mg3H13C9NO13
_chemical_formula_sum   'Mg12 H52 C36 N4 O52'
_cell_volume   1737.37947489
_cell_formula_units_Z   4
loop_
 _symmetry_equiv_pos_site_id
 _symmetry_equiv_pos_as_xyz
  1  'x, y, z'
loop_
 _atom_site_type_symbol
 _atom_site_label
 _atom_site_symmetry_multiplicity
 _atom_site_fract_x
 _atom_site_fract_y
 _atom_site_fract_z
 _atom_site_occupancy
  Mg  Mg0  1  0.61271200  0.23905700  0.19061200  1
  Mg  Mg1  1  0.38728800  0.76094300  0.80938800  1
  Mg  Mg2  1  0.92078900  0.24492100  0.13505300  1
  Mg  Mg3  1  0.88728800  0.73905700  0.69061200  1
  Mg  Mg4  1  0.11271200  0.26094300  0.30938800  1
  Mg  Mg5  1  0.50000000  0.00000000  0.50000000  1
  Mg  Mg6  1  0.07921100  0.75507900  0.86494700  1
  Mg  Mg7  1  0.57921100  0.74492100  0.63505300  1
  Mg  Mg8  1  0.00000000  0.50000000  0.00000000  1
  Mg  Mg9  1  0.50000000  0.50000000  0.50000000  1
  Mg  Mg10  1  0.42078900  0.25507900  0.36494700  1
  Mg  Mg11  1  0.00000000  0.00000000  0.00000000  1
  H  H12  1  0.53963000  0.97307400  0.23061100  1
  H  H13  1  0.65896400  0.19166200  0.57678800  1
  H  H14  1  0.74845200  0.23311500  0.89928900  1
  H  H15  1  0.11558300  0.36779600  0.60715500  1
  H  H16  1  0.44551700  0.53578900  0.21563700  1
  H  H17  1  0.55448300  0.46421100  0.78436300  1
  H  H18  1  0.84901700  0.87018700  0.21659600  1
  H  H19  1  0.24845200  0.26688500  0.60071100  1
  H  H20  1  0.38888600  0.56094400  0.95851000  1
  H  H21  1  0.21891500  0.07447100  0.68113400  1
  H  H22  1  0.65098300  0.37018700  0.71659600  1
  H  H23  1  0.46037000  0.02692600  0.76938900  1
  H  H24  1  0.34901700  0.62981300  0.28340400  1
  H  H25  1  0.11111400  0.06094400  0.45851000  1
  H  H26  1  0.24833000  0.84767100  0.62269500  1
  H  H27  1  0.75167000  0.15232900  0.37730500  1
  H  H28  1  0.15098300  0.12981300  0.78340400  1
  H  H29  1  0.88441700  0.63220400  0.39284500  1
  H  H30  1  0.78796300  0.48668300  0.52404100  1
  H  H31  1  0.78361800  0.96884800  0.77304100  1
  H  H32  1  0.28796300  0.01331700  0.97595900  1
  H  H33  1  0.38441700  0.86779600  0.10715500  1
  H  H34  1  0.94551700  0.96421100  0.28436300  1
  H  H35  1  0.96037000  0.47307400  0.73061100  1
  H  H36  1  0.15896400  0.30833800  0.92321200  1
  H  H37  1  0.41662100  0.21644100  0.90059900  1
  H  H38  1  0.79090800  0.67090100  0.29419400  1
  H  H39  1  0.28108500  0.57447100  0.18113400  1
  H  H40  1  0.20909200  0.32909900  0.70580600  1
  H  H41  1  0.25167000  0.34767100  0.12269500  1
  H  H42  1  0.21638200  0.03115200  0.22695900  1
  H  H43  1  0.25154800  0.76688500  0.10071100  1
  H  H44  1  0.74833000  0.65232900  0.87730500  1
  H  H45  1  0.84103600  0.69166200  0.07678800  1
  H  H46  1  0.29090800  0.82909900  0.20580600  1
  H  H47  1  0.71891500  0.42552900  0.81886600  1
  H  H48  1  0.91662100  0.28355900  0.59940100  1
  H  H49  1  0.88888600  0.93905600  0.54149000  1
  H  H50  1  0.61111400  0.43905600  0.04149000  1
  H  H51  1  0.21203700  0.51331700  0.47595900  1
  H  H52  1  0.58337900  0.78355900  0.09940100  1
  H  H53  1  0.71638200  0.46884800  0.27304100  1
  H  H54  1  0.05448300  0.03578900  0.71563700  1
  H  H55  1  0.71203700  0.98668300  0.02404100  1
  H  H56  1  0.34103600  0.80833800  0.42321200  1
  H  H57  1  0.75154800  0.73311500  0.39928900  1
  H  H58  1  0.78108500  0.92552900  0.31886600  1
  H  H59  1  0.70909200  0.17090100  0.79419400  1
  H  H60  1  0.08337900  0.71644100  0.40059900  1
  H  H61  1  0.28361800  0.53115200  0.72695900  1
  H  H62  1  0.03963000  0.52692600  0.26938900  1
  H  H63  1  0.61558300  0.13220400  0.89284500  1
  C  C64  1  0.77079800  0.56342300  0.56487300  1
  C  C65  1  0.98383000  0.52037400  0.79248000  1
  C  C66  1  0.72920200  0.06342300  0.06487300  1
  C  C67  1  0.59342600  0.24268000  0.53171000  1
  C  C68  1  0.05596600  0.79557800  0.36095800  1
  C  C69  1  0.28262500  0.57983300  0.94967600  1
  C  C70  1  0.51617000  0.02037400  0.29248000  1
  C  C71  1  0.16770900  0.81816100  0.66765900  1
  C  C72  1  0.83422200  0.70350400  0.35704700  1
  C  C73  1  0.78262500  0.92016700  0.55032400  1
  C  C74  1  0.66770900  0.68183900  0.83234100  1
  C  C75  1  0.01617000  0.47962600  0.20752000  1
  C  C76  1  0.40657400  0.75732000  0.46829000  1
  C  C77  1  0.55596600  0.70442200  0.13904200  1
  C  C78  1  0.37210000  0.60500600  0.21382000  1
  C  C79  1  0.62790000  0.39499400  0.78618000  1
  C  C80  1  0.94403400  0.20442200  0.63904200  1
  C  C81  1  0.86133300  0.94236600  0.82145200  1
  C  C82  1  0.13866700  0.05763400  0.17854800  1
  C  C83  1  0.87210000  0.89499400  0.28618000  1
  C  C84  1  0.83229100  0.18183900  0.33234100  1
  C  C85  1  0.21737500  0.07983300  0.44967600  1
  C  C86  1  0.12790000  0.10500600  0.71382000  1
  C  C87  1  0.63866700  0.44236600  0.32145200  1
  C  C88  1  0.90657400  0.74268000  0.03171000  1
  C  C89  1  0.48383000  0.97962600  0.70752000  1
  C  C90  1  0.71737500  0.42016700  0.05032400  1
  C  C91  1  0.36133300  0.55763400  0.67854800  1
  C  C92  1  0.09342600  0.25732000  0.96829000  1
  C  C93  1  0.16577800  0.29649600  0.64295300  1
  C  C94  1  0.66577800  0.20350400  0.85704700  1
  C  C95  1  0.44403400  0.29557800  0.86095800  1
  C  C96  1  0.22920200  0.43657700  0.43512700  1
  C  C97  1  0.33422200  0.79649600  0.14295300  1
  C  C98  1  0.33229100  0.31816100  0.16765900  1
  C  C99  1  0.27079800  0.93657700  0.93512700  1
  N  N100  1  0.57381300  0.29759000  0.83740900  1
  N  N101  1  0.92618700  0.79759000  0.33740900  1
  N  N102  1  0.07381300  0.20241000  0.66259100  1
  N  N103  1  0.42618700  0.70241000  0.16259100  1
  O  O104  1  0.90628300  0.84992200  0.03915700  1
  O  O105  1  0.92182900  0.84727800  0.80412000  1
  O  O106  1  0.13057100  0.39336300  0.39676500  1
  O  O107  1  0.69737200  0.69674400  0.74836400  1
  O  O108  1  0.00237500  0.53612200  0.13563800  1
  O  O109  1  0.79817100  0.47547500  0.00267200  1
  O  O110  1  0.40628300  0.65007800  0.46084300  1
  O  O111  1  0.99369200  0.63064100  0.78254400  1
  O  O112  1  0.02368400  0.31442600  0.02520900  1
  O  O113  1  0.63917400  0.62877100  0.15718500  1
  O  O114  1  0.49762500  0.03612200  0.63563800  1
  O  O115  1  0.94403000  0.19715700  0.36728500  1
  O  O116  1  0.80262800  0.19674400  0.24836400  1
  O  O117  1  0.07817100  0.15272200  0.19588000  1
  O  O118  1  0.57817100  0.34727800  0.30412000  1
  O  O119  1  0.42182900  0.65272200  0.69588000  1
  O  O120  1  0.47631600  0.81442600  0.52520900  1
  O  O121  1  0.59371700  0.34992200  0.53915700  1
  O  O122  1  0.61673600  0.50580800  0.38660500  1
  O  O123  1  0.50630800  0.13064100  0.28254400  1
  O  O124  1  0.29817100  0.02452500  0.49732800  1
  O  O125  1  0.36942900  0.89336300  0.89676500  1
  O  O126  1  0.44403000  0.30284300  0.13271500  1
  O  O127  1  0.38326400  0.49419200  0.61339500  1
  O  O128  1  0.99762500  0.46387800  0.86436200  1
  O  O129  1  0.70182900  0.97547500  0.50267200  1
  O  O130  1  0.65064500  0.59969900  0.56840900  1
  O  O131  1  0.50237500  0.96387800  0.36436200  1
  O  O132  1  0.13917400  0.87122900  0.34281500  1
  O  O133  1  0.84935500  0.09969900  0.06840900  1
  O  O134  1  0.19737200  0.80325600  0.75163600  1
  O  O135  1  0.55597000  0.69715700  0.86728500  1
  O  O136  1  0.49369200  0.86935900  0.71745600  1
  O  O137  1  0.52368400  0.18557400  0.47479100  1
  O  O138  1  0.88326400  0.00580800  0.88660500  1
  O  O139  1  0.20182900  0.52452500  0.99732800  1
  O  O140  1  0.86942900  0.60663700  0.60323500  1
  O  O141  1  0.30262800  0.30325600  0.25163600  1
  O  O142  1  0.97631600  0.68557400  0.97479100  1
  O  O143  1  0.09371700  0.15007800  0.96084300  1
  O  O144  1  0.75401800  0.84038500  0.60962600  1
  O  O145  1  0.05597000  0.80284300  0.63271500  1
  O  O146  1  0.86082600  0.12877100  0.65718500  1
  O  O147  1  0.11673600  0.99419200  0.11339500  1
  O  O148  1  0.15064500  0.90030100  0.93159100  1
  O  O149  1  0.36082600  0.37122900  0.84281500  1
  O  O150  1  0.34935500  0.40030100  0.43159100  1
  O  O151  1  0.00630800  0.36935900  0.21745600  1
  O  O152  1  0.63057100  0.10663700  0.10323500  1
  O  O153  1  0.25401800  0.65961500  0.89037400  1
  O  O154  1  0.74598200  0.34038500  0.10962600  1
  O  O155  1  0.24598200  0.15961500  0.39037400  1
