# generated using pymatgen
data_La(HO)3
_symmetry_space_group_name_H-M   'P 1'
_cell_length_a   3.83223200
_cell_length_b   6.61684400
_cell_length_c   6.66465225
_cell_angle_alpha   60.66742215
_cell_angle_beta   90.00000000
_cell_angle_gamma   90.00000000
_symmetry_Int_Tables_number   1
_chemical_formula_structural   La(HO)3
_chemical_formula_sum   'La2 H6 O6'
_cell_volume   147.33044483
_cell_formula_units_Z   2
loop_
 _symmetry_equiv_pos_site_id
 _symmetry_equiv_pos_as_xyz
  1  'x, y, z'
loop_
 _atom_site_type_symbol
 _atom_site_label
 _atom_site_symmetry_multiplicity
 _atom_site_fract_x
 _atom_site_fract_y
 _atom_site_fract_z
 _atom_site_occupancy
  La  La0  1  0.00000000  0.33371000  0.33562700  1
  La  La1  1  0.50000000  0.66088900  0.67560600  1
  H  H2  1  0.00000000  0.86183300  0.85697100  1
  H  H3  1  0.00000000  0.85739300  0.30706700  1
  H  H4  1  0.00000000  0.28124500  0.86172500  1
  H  H5  1  0.50000000  0.13360400  0.14869100  1
  H  H6  1  0.50000000  0.14177300  0.71493100  1
  H  H7  1  0.50000000  0.72060700  0.14087900  1
  O  O8  1  0.00000000  0.91147200  0.69309300  1
  O  O9  1  0.00000000  0.69056900  0.40714400  1
  O  O10  1  0.00000000  0.39209900  0.91833700  1
  O  O11  1  0.50000000  0.08815300  0.31145100  1
  O  O12  1  0.50000000  0.30772800  0.60573000  1
  O  O13  1  0.50000000  0.60386800  0.09178300  1
