# generated using pymatgen
data_K2ZnCl4
_symmetry_space_group_name_H-M   'P 1'
_cell_length_a   7.15892310
_cell_length_b   8.87527911
_cell_length_c   12.57361805
_cell_angle_alpha   90.00000000
_cell_angle_beta   90.00000000
_cell_angle_gamma   90.00000000
_symmetry_Int_Tables_number   1
_chemical_formula_structural   K2ZnCl4
_chemical_formula_sum   'K8 Zn4 Cl16'
_cell_volume   798.89551048
_cell_formula_units_Z   4
loop_
 _symmetry_equiv_pos_site_id
 _symmetry_equiv_pos_as_xyz
  1  'x, y, z'
loop_
 _atom_site_type_symbol
 _atom_site_label
 _atom_site_symmetry_multiplicity
 _atom_site_fract_x
 _atom_site_fract_y
 _atom_site_fract_z
 _atom_site_occupancy
  K  K0  1  0.73975610  0.48271921  0.81949448  1
  K  K1  1  0.74273904  0.61788854  0.42873775  1
  K  K2  1  0.23975610  0.51728079  0.18050552  1
  K  K3  1  0.74273904  0.11788854  0.07126225  1
  K  K4  1  0.24273904  0.88211146  0.92873775  1
  K  K5  1  0.24273904  0.38211146  0.57126225  1
  K  K6  1  0.73975610  0.98271921  0.68050552  1
  K  K7  1  0.23975610  0.01728079  0.31949448  1
  Zn  Zn8  1  0.25678635  0.78385016  0.57544297  1
  Zn  Zn9  1  0.75678635  0.71614984  0.07544297  1
  Zn  Zn10  1  0.25678635  0.28385016  0.92455703  1
  Zn  Zn11  1  0.75678635  0.21614984  0.42455703  1
  Cl  Cl12  1  0.51193063  0.67368259  0.64874722  1
  Cl  Cl13  1  0.24565217  0.18300096  0.09115388  1
  Cl  Cl14  1  0.01193063  0.32631741  0.35125278  1
  Cl  Cl15  1  0.24565217  0.68300096  0.40884612  1
  Cl  Cl16  1  0.29028140  0.53447106  0.92598631  1
  Cl  Cl17  1  0.51193063  0.17368259  0.85125278  1
  Cl  Cl18  1  0.50685530  0.30836971  0.33711781  1
  Cl  Cl19  1  0.74565217  0.31699904  0.59115388  1
  Cl  Cl20  1  0.79028140  0.96552894  0.42598631  1
  Cl  Cl21  1  0.00685530  0.19163029  0.83711781  1
  Cl  Cl22  1  0.74565217  0.81699904  0.90884612  1
  Cl  Cl23  1  0.79028140  0.46552894  0.07401369  1
  Cl  Cl24  1  0.00685530  0.69163029  0.66288219  1
  Cl  Cl25  1  0.29028140  0.03447106  0.57401369  1
  Cl  Cl26  1  0.50685530  0.80836971  0.16288219  1
  Cl  Cl27  1  0.01193063  0.82631741  0.14874722  1
