# generated using pymatgen
data_PtI4
_symmetry_space_group_name_H-M   'P 1'
_cell_length_a   6.93374975
_cell_length_b   13.39515033
_cell_length_c   15.91439766
_cell_angle_alpha   90.00000000
_cell_angle_beta   90.00000000
_cell_angle_gamma   90.00000000
_symmetry_Int_Tables_number   1
_chemical_formula_structural   PtI4
_chemical_formula_sum   'Pt8 I32'
_cell_volume   1478.10729680
_cell_formula_units_Z   8
loop_
 _symmetry_equiv_pos_site_id
 _symmetry_equiv_pos_as_xyz
  1  'x, y, z'
loop_
 _atom_site_type_symbol
 _atom_site_label
 _atom_site_symmetry_multiplicity
 _atom_site_fract_x
 _atom_site_fract_y
 _atom_site_fract_z
 _atom_site_occupancy
  Pt  Pt0  1  0.59471344  0.67288741  0.68909079  1
  Pt  Pt1  1  0.09471344  0.82711259  0.31090921  1
  Pt  Pt2  1  0.90528656  0.17288741  0.68909079  1
  Pt  Pt3  1  0.40528656  0.32711259  0.31090921  1
  Pt  Pt4  1  0.40528656  0.17288741  0.81090921  1
  Pt  Pt5  1  0.59471344  0.82711259  0.18909079  1
  Pt  Pt6  1  0.90528656  0.32711259  0.18909079  1
  Pt  Pt7  1  0.09471344  0.67288741  0.81090921  1
  I  I8  1  0.22128843  0.44009607  0.18481554  1
  I  I9  1  0.74990032  0.44594110  0.07272943  1
  I  I10  1  0.58548356  0.28459095  0.69318345  1
  I  I11  1  0.75009968  0.55405890  0.57272943  1
  I  I12  1  0.27871157  0.94009507  0.18481554  1
  I  I13  1  0.05582413  0.20939305  0.06882496  1
  I  I14  1  0.44417587  0.79060695  0.56882496  1
  I  I15  1  0.25009968  0.55405890  0.92727057  1
  I  I16  1  0.05582413  0.29060695  0.56882496  1
  I  I17  1  0.91451644  0.71540905  0.19318345  1
  I  I18  1  0.55582413  0.29060695  0.93117504  1
  I  I19  1  0.44417587  0.70939305  0.06882496  1
  I  I20  1  0.24990032  0.44594110  0.42727057  1
  I  I21  1  0.41451644  0.71540905  0.30681655  1
  I  I22  1  0.24990032  0.05405890  0.92727057  1
  I  I23  1  0.91451644  0.78459095  0.69318345  1
  I  I24  1  0.58548356  0.21540905  0.19318345  1
  I  I25  1  0.55582413  0.20939305  0.43117504  1
  I  I26  1  0.08548356  0.21540905  0.30681655  1
  I  I27  1  0.22128843  0.05990393  0.68481554  1
  I  I28  1  0.72128843  0.44009607  0.31518446  1
  I  I29  1  0.74990032  0.05405890  0.57272943  1
  I  I30  1  0.77871157  0.55990493  0.81518446  1
  I  I31  1  0.94417587  0.79060695  0.93117504  1
  I  I32  1  0.27871157  0.55990493  0.68481554  1
  I  I33  1  0.25009968  0.94594110  0.42727057  1
  I  I34  1  0.41451644  0.78459095  0.80681655  1
  I  I35  1  0.72128843  0.05990393  0.81518446  1
  I  I36  1  0.94417587  0.70939305  0.43117504  1
  I  I37  1  0.08548356  0.28459095  0.80681655  1
  I  I38  1  0.75009968  0.94594110  0.07272943  1
  I  I39  1  0.77871157  0.94009507  0.31518446  1
