# generated using pymatgen
data_ScCuS2
_symmetry_space_group_name_H-M   'P 1'
_cell_length_a   3.73793898
_cell_length_b   3.73793907
_cell_length_c   5.99504719
_cell_angle_alpha   90.00000000
_cell_angle_beta   90.00000000
_cell_angle_gamma   119.99999919
_symmetry_Int_Tables_number   1
_chemical_formula_structural   ScCuS2
_chemical_formula_sum   'Sc1 Cu1 S2'
_cell_volume   72.54168961
_cell_formula_units_Z   1
loop_
 _symmetry_equiv_pos_site_id
 _symmetry_equiv_pos_as_xyz
  1  'x, y, z'
loop_
 _atom_site_type_symbol
 _atom_site_label
 _atom_site_symmetry_multiplicity
 _atom_site_fract_x
 _atom_site_fract_y
 _atom_site_fract_z
 _atom_site_occupancy
  Sc  Sc0  1  0.00000000  0.00000000  0.00234087  1
  Cu  Cu1  1  0.33333300  0.66666700  0.40052352  1
  S  S2  1  0.66666700  0.33333300  0.26227064  1
  S  S3  1  0.33333300  0.66666700  0.77766497  1
