# generated using pymatgen
data_Tm2TeO6
_symmetry_space_group_name_H-M   'P 1'
_cell_length_a   5.17929576
_cell_length_b   8.94572192
_cell_length_c   9.79806424
_cell_angle_alpha   89.99969633
_cell_angle_beta   90.00041763
_cell_angle_gamma   90.00008830
_symmetry_Int_Tables_number   1
_chemical_formula_structural   Tm2TeO6
_chemical_formula_sum   'Tm8 Te4 O24'
_cell_volume   453.96919950
_cell_formula_units_Z   4
loop_
 _symmetry_equiv_pos_site_id
 _symmetry_equiv_pos_as_xyz
  1  'x, y, z'
loop_
 _atom_site_type_symbol
 _atom_site_label
 _atom_site_symmetry_multiplicity
 _atom_site_fract_x
 _atom_site_fract_y
 _atom_site_fract_z
 _atom_site_occupancy
  Tm  Tm0  1  0.01773732  0.39590178  0.03707709  1
  Tm  Tm1  1  0.03973667  0.28291182  0.63395716  1
  Tm  Tm2  1  0.46026816  0.71708623  0.13395539  1
  Tm  Tm3  1  0.48226597  0.60409660  0.53707504  1
  Tm  Tm4  1  0.51773997  0.10409692  0.96292056  1
  Tm  Tm5  1  0.53974083  0.21709153  0.36604264  1
  Tm  Tm6  1  0.96026634  0.78291629  0.86604417  1
  Tm  Tm7  1  0.98226799  0.89590642  0.46292517  1
  Te  Te8  1  0.03792584  0.00510837  0.14937260  1
  Te  Te9  1  0.46209254  0.99488787  0.64937093  1
  Te  Te10  1  0.53791094  0.49488909  0.85062758  1
  Te  Te11  1  0.96210177  0.50510588  0.35062909  1
  O  O12  1  0.08994751  0.65632813  0.47075754  1
  O  O13  1  0.16933954  0.55066909  0.19743245  1
  O  O14  1  0.19027704  0.85764276  0.26313999  1
  O  O15  1  0.17751992  0.85901053  0.67961442  1
  O  O16  1  0.23557493  0.38438395  0.42917206  1
  O  O17  1  0.24280481  0.91487465  0.00408788  1
  O  O18  1  0.25719936  0.08513354  0.50407816  1
  O  O19  1  0.26441682  0.61561533  0.92916617  1
  O  O20  1  0.32248429  0.14099031  0.17961715  1
  O  O21  1  0.30971567  0.14235670  0.76312977  1
  O  O22  1  0.33064845  0.44932281  0.69742195  1
  O  O23  1  0.41005023  0.34366722  0.97075037  1
  O  O24  1  0.58994711  0.84367313  0.52924218  1
  O  O25  1  0.66934027  0.94932842  0.80256653  1
  O  O26  1  0.69027767  0.64235908  0.73686081  1
  O  O27  1  0.67752620  0.64099078  0.32038656  1
  O  O28  1  0.73556835  0.11561854  0.57082626  1
  O  O29  1  0.74280161  0.58512386  0.99591630  1
  O  O30  1  0.75719391  0.41487152  0.49591823  1
  O  O31  1  0.76442750  0.88438209  0.07083329  1
  O  O32  1  0.82246972  0.35900987  0.82038511  1
  O  O33  1  0.80971230  0.35764127  0.23686498  1
  O  O34  1  0.83064976  0.05067786  0.30258072  1
  O  O35  1  0.91005467  0.15633279  0.02925271  1
