# generated using pymatgen
data_BiOF
_symmetry_space_group_name_H-M   'P 1'
_cell_length_a   5.74214083
_cell_length_b   5.86575337
_cell_length_c   5.96052135
_cell_angle_alpha   90.00000000
_cell_angle_beta   96.14365206
_cell_angle_gamma   90.00000000
_symmetry_Int_Tables_number   1
_chemical_formula_structural   BiOF
_chemical_formula_sum   'Bi4 O4 F4'
_cell_volume   199.60913414
_cell_formula_units_Z   4
loop_
 _symmetry_equiv_pos_site_id
 _symmetry_equiv_pos_as_xyz
  1  'x, y, z'
loop_
 _atom_site_type_symbol
 _atom_site_label
 _atom_site_symmetry_multiplicity
 _atom_site_fract_x
 _atom_site_fract_y
 _atom_site_fract_z
 _atom_site_occupancy
  Bi  Bi0  1  0.24306591  0.45603678  0.69602581  1
  Bi  Bi1  1  0.24306591  0.04396322  0.19602581  1
  Bi  Bi2  1  0.75693409  0.95603678  0.80397419  1
  Bi  Bi3  1  0.75693409  0.54396322  0.30397419  1
  O  O4  1  0.07505188  0.17024414  0.87142642  1
  O  O5  1  0.07505188  0.32975586  0.37142642  1
  O  O6  1  0.92494812  0.67024414  0.62857358  1
  O  O7  1  0.92494812  0.82975586  0.12857358  1
  F  F8  1  0.44067617  0.75954773  0.97877765  1
  F  F9  1  0.44067617  0.74045227  0.47877765  1
  F  F10  1  0.55932383  0.25954773  0.52122235  1
  F  F11  1  0.55932383  0.24045227  0.02122235  1
