# generated using pymatgen
data_SmBiO4
_symmetry_space_group_name_H-M   'P 1'
_cell_length_a   5.61077220
_cell_length_b   5.29772273
_cell_length_c   6.71107530
_cell_angle_alpha   69.52270331
_cell_angle_beta   67.93365972
_cell_angle_gamma   96.15862465
_symmetry_Int_Tables_number   1
_chemical_formula_structural   SmBiO4
_chemical_formula_sum   'Sm2 Bi2 O8'
_cell_volume   166.51329734
_cell_formula_units_Z   2
loop_
 _symmetry_equiv_pos_site_id
 _symmetry_equiv_pos_as_xyz
  1  'x, y, z'
loop_
 _atom_site_type_symbol
 _atom_site_label
 _atom_site_symmetry_multiplicity
 _atom_site_fract_x
 _atom_site_fract_y
 _atom_site_fract_z
 _atom_site_occupancy
  Sm  Sm0  1  0.36549539  0.11714660  0.77083035  1
  Sm  Sm1  1  0.63790388  0.88948058  0.22617578  1
  Bi  Bi2  1  0.10135123  0.35290187  0.29926974  1
  Bi  Bi3  1  0.90198693  0.65366845  0.69781373  1
  O  O4  1  0.61411855  0.28412431  0.93379869  1
  O  O5  1  0.26883559  0.03730591  0.44401847  1
  O  O6  1  0.78908367  0.52377590  0.44402791  1
  O  O7  1  0.04941051  0.21958799  0.06319093  1
  O  O8  1  0.95399090  0.78724052  0.93375000  1
  O  O9  1  0.21434916  0.48290411  0.55296445  1
  O  O10  1  0.73457094  0.96927172  0.55291023  1
  O  O11  1  0.38932525  0.72245004  0.06322872  1
