# generated using pymatgen
data_LiWF6
_symmetry_space_group_name_H-M   'P 1'
_cell_length_a   4.97164267
_cell_length_b   8.74828663
_cell_length_c   9.87924667
_cell_angle_alpha   88.53074763
_cell_angle_beta   90.00000000
_cell_angle_gamma   90.00000000
_symmetry_Int_Tables_number   1
_chemical_formula_structural   LiWF6
_chemical_formula_sum   'Li4 W4 F24'
_cell_volume   429.54031658
_cell_formula_units_Z   4
loop_
 _symmetry_equiv_pos_site_id
 _symmetry_equiv_pos_as_xyz
  1  'x, y, z'
loop_
 _atom_site_type_symbol
 _atom_site_label
 _atom_site_symmetry_multiplicity
 _atom_site_fract_x
 _atom_site_fract_y
 _atom_site_fract_z
 _atom_site_occupancy
  Li  Li0  1  0.63472355  0.60231754  0.08084386  1
  Li  Li1  1  0.13472355  0.39768246  0.41915614  1
  Li  Li2  1  0.86527645  0.60231754  0.58084386  1
  Li  Li3  1  0.36527645  0.39768246  0.91915614  1
  W  W4  1  0.85872605  0.22630024  0.13900694  1
  W  W5  1  0.35872605  0.77369976  0.36099306  1
  W  W6  1  0.64127395  0.22630024  0.63900694  1
  W  W7  1  0.14127395  0.77369976  0.86099306  1
  F  F8  1  0.16743766  0.26189945  0.02403018  1
  F  F9  1  0.68868266  0.39740024  0.02899878  1
  F  F10  1  0.75084879  0.08602774  0.01271955  1
  F  F11  1  0.01803853  0.07684485  0.25214358  1
  F  F12  1  0.01932564  0.39092837  0.24272941  1
  F  F13  1  0.57351663  0.24682755  0.25935117  1
  F  F14  1  0.07351663  0.75317245  0.24064883  1
  F  F15  1  0.51803853  0.92315515  0.24785642  1
  F  F16  1  0.51932564  0.60907163  0.25727059  1
  F  F17  1  0.25084879  0.91397226  0.48728045  1
  F  F18  1  0.18868266  0.60259976  0.47100122  1
  F  F19  1  0.66743766  0.73810055  0.47596982  1
  F  F20  1  0.33256234  0.26189945  0.52403018  1
  F  F21  1  0.74915121  0.08602774  0.51271955  1
  F  F22  1  0.81131734  0.39740024  0.52899878  1
  F  F23  1  0.48196147  0.07684485  0.75214358  1
  F  F24  1  0.48067436  0.39092837  0.74272941  1
  F  F25  1  0.92648337  0.24682755  0.75935117  1
  F  F26  1  0.42648337  0.75317245  0.74064883  1
  F  F27  1  0.98067436  0.60907163  0.75727059  1
  F  F28  1  0.98196147  0.92315515  0.74785642  1
  F  F29  1  0.24915121  0.91397226  0.98728045  1
  F  F30  1  0.31131734  0.60259976  0.97100122  1
  F  F31  1  0.83256234  0.73810055  0.97596982  1
