# generated using pymatgen
data_La10Bi8O27
_symmetry_space_group_name_H-M   'P 1'
_cell_length_a   8.21027791
_cell_length_b   10.40948974
_cell_length_c   10.39001449
_cell_angle_alpha   70.89113087
_cell_angle_beta   78.57670711
_cell_angle_gamma   78.58367619
_symmetry_Int_Tables_number   1
_chemical_formula_structural   La10Bi8O27
_chemical_formula_sum   'La10 Bi8 O27'
_cell_volume   813.89347587
_cell_formula_units_Z   1
loop_
 _symmetry_equiv_pos_site_id
 _symmetry_equiv_pos_as_xyz
  1  'x, y, z'
loop_
 _atom_site_type_symbol
 _atom_site_label
 _atom_site_symmetry_multiplicity
 _atom_site_fract_x
 _atom_site_fract_y
 _atom_site_fract_z
 _atom_site_occupancy
  La  La0  1  0.83624446  0.66441430  0.98768166  1
  La  La1  1  0.15862519  0.02371041  0.33608705  1
  La  La2  1  0.34075072  0.67041433  0.96756215  1
  La  La3  1  0.66248633  0.02463605  0.32942333  1
  La  La4  1  0.00237420  0.00556902  0.99237328  1
  La  La5  1  0.49867037  0.00407589  0.99443227  1
  La  La6  1  0.83732736  0.97417193  0.66951260  1
  La  La7  1  0.33593412  0.00697914  0.66001934  1
  La  La8  1  0.66605301  0.33644743  0.99443105  1
  La  La9  1  0.16188552  0.33131818  0.02487103  1
  Bi  Bi10  1  0.49984688  0.31111681  0.68907879  1
  Bi  Bi11  1  0.00030223  0.31040841  0.68764220  1
  Bi  Bi12  1  0.16571092  0.67106230  0.66781189  1
  Bi  Bi13  1  0.66600144  0.67062999  0.66612577  1
  Bi  Bi14  1  0.33899148  0.33345028  0.32803302  1
  Bi  Bi15  1  0.82944772  0.33215796  0.32901359  1
  Bi  Bi16  1  0.50419175  0.68691418  0.30673728  1
  Bi  Bi17  1  -0.00014165  0.68467592  0.30593646  1
  O  O18  1  0.01341266  0.09704969  0.73074144  1
  O  O19  1  0.42683267  0.26659556  0.90268041  1
  O  O20  1  0.98996371  0.26824682  0.90068385  1
  O  O21  1  0.57211289  0.09801179  0.73150158  1
  O  O22  1  0.12942204  0.58150623  0.88730086  1
  O  O23  1  0.37013179  0.11418264  0.40316489  1
  O  O24  1  0.86800916  0.11037870  0.41757386  1
  O  O25  1  0.63444403  0.59359751  0.88585056  1
  O  O26  1  0.72253684  0.36067331  0.74749939  1
  O  O27  1  0.27916193  0.25404304  0.63055275  1
  O  O28  1  0.79423858  0.89939297  0.91976201  1
  O  O29  1  0.89049322  0.72331883  0.72354114  1
  O  O30  1  0.38921622  0.71978396  0.71908256  1
  O  O31  1  0.20317451  0.08045991  0.10021572  1
  O  O32  1  0.29583149  0.92001629  0.89944675  1
  O  O33  1  0.70727813  0.09443511  0.08320904  1
  O  O34  1  0.61260708  0.27573581  0.27485465  1
  O  O35  1  0.10909180  0.27993981  0.27831944  1
  O  O36  1  0.76770057  0.64504231  0.28339893  1
  O  O37  1  0.13776624  0.88968448  0.58006053  1
  O  O38  1  0.37321205  0.42323346  0.10366647  1
  O  O39  1  0.62682830  0.89390660  0.57866296  1
  O  O40  1  0.86293550  0.41634000  0.10952203  1
  O  O41  1  0.46321716  0.89349357  0.28287035  1
  O  O42  1  0.94956201  0.89048015  0.28711232  1
  O  O43  1  0.06492037  0.72690330  0.09720450  1
  O  O44  1  0.52135198  0.72694764  0.09859724  1
