# generated using pymatgen
data_Cs3GaO3
_symmetry_space_group_name_H-M   'P 1'
_cell_length_a   7.10521285
_cell_length_b   8.12899354
_cell_length_c   11.39791660
_cell_angle_alpha   83.45628620
_cell_angle_beta   90.00000000
_cell_angle_gamma   90.00000000
_symmetry_Int_Tables_number   1
_chemical_formula_structural   Cs3GaO3
_chemical_formula_sum   'Cs12 Ga4 O12'
_cell_volume   654.03463445
_cell_formula_units_Z   4
loop_
 _symmetry_equiv_pos_site_id
 _symmetry_equiv_pos_as_xyz
  1  'x, y, z'
loop_
 _atom_site_type_symbol
 _atom_site_label
 _atom_site_symmetry_multiplicity
 _atom_site_fract_x
 _atom_site_fract_y
 _atom_site_fract_z
 _atom_site_occupancy
  Cs  Cs0  1  0.33063728  0.34294149  0.06856549  1
  Cs  Cs1  1  0.62073444  0.95997084  0.15538211  1
  Cs  Cs2  1  0.82502355  0.37235365  0.19809240  1
  Cs  Cs3  1  0.32502355  0.62764635  0.30190760  1
  Cs  Cs4  1  0.12073444  0.04002916  0.34461789  1
  Cs  Cs5  1  0.83063728  0.65705851  0.43143451  1
  Cs  Cs6  1  0.16936272  0.34294149  0.56856549  1
  Cs  Cs7  1  0.87926556  0.95997084  0.65538211  1
  Cs  Cs8  1  0.67497645  0.37235365  0.69809240  1
  Cs  Cs9  1  0.17497645  0.62764635  0.80190760  1
  Cs  Cs10  1  0.37926556  0.04002916  0.84461789  1
  Cs  Cs11  1  0.66936272  0.65705851  0.93143451  1
  Ga  Ga12  1  0.07392997  0.85206288  0.06243020  1
  Ga  Ga13  1  0.57392997  0.14793712  0.43756980  1
  Ga  Ga14  1  0.42607003  0.85206288  0.56243020  1
  Ga  Ga15  1  0.92607003  0.14793712  0.93756980  1
  O  O16  1  0.30846351  0.76325255  0.03751620  1
  O  O17  1  0.06103105  0.08676635  0.08410533  1
  O  O18  1  0.94163557  0.72368890  0.17846887  1
  O  O19  1  0.44163557  0.27631110  0.32153113  1
  O  O20  1  0.56103105  0.91323365  0.41589467  1
  O  O21  1  0.80846351  0.23674745  0.46248380  1
  O  O22  1  0.19153649  0.76325255  0.53751620  1
  O  O23  1  0.43896895  0.08676635  0.58410533  1
  O  O24  1  0.55836443  0.72368890  0.67846887  1
  O  O25  1  0.05836443  0.27631110  0.82153113  1
  O  O26  1  0.93896895  0.91323365  0.91589467  1
  O  O27  1  0.69153649  0.23674745  0.96248380  1
