# generated using pymatgen
data_MnAl2O4
_symmetry_space_group_name_H-M   'P 1'
_cell_length_a   5.78897440
_cell_length_b   5.78875964
_cell_length_c   5.78897120
_cell_angle_alpha   120.00110743
_cell_angle_beta   90.00002175
_cell_angle_gamma   59.99879056
_symmetry_Int_Tables_number   1
_chemical_formula_structural   MnAl2O4
_chemical_formula_sum   'Mn2 Al4 O8'
_cell_volume   137.16976986
_cell_formula_units_Z   2
loop_
 _symmetry_equiv_pos_site_id
 _symmetry_equiv_pos_as_xyz
  1  'x, y, z'
loop_
 _atom_site_type_symbol
 _atom_site_label
 _atom_site_symmetry_multiplicity
 _atom_site_fract_x
 _atom_site_fract_y
 _atom_site_fract_z
 _atom_site_occupancy
  Mn  Mn0  1  0.00000011  0.00000024  -0.00000062  1
  Mn  Mn1  1  0.74999989  0.49999976  0.75000062  1
  Al  Al2  1  0.37500000  0.25000000  0.37500000  1
  Al  Al3  1  0.37500000  0.25000000  0.87500000  1
  Al  Al4  1  0.37500000  0.75000000  0.37500000  1
  Al  Al5  1  0.87500000  0.75000000  0.37500000  1
  O  O6  1  0.14138577  0.28275702  0.14137784  1
  O  O7  1  0.17414330  0.21724186  0.60862149  1
  O  O8  1  0.14137893  0.71724086  0.57585578  1
  O  O9  1  0.14137771  0.71724387  0.14138603  1
  O  O10  1  0.60861423  0.21724298  0.60862216  1
  O  O11  1  0.57585670  0.28275814  0.14137851  1
  O  O12  1  0.60862229  0.78275613  0.60861397  1
  O  O13  1  0.60862107  0.78275914  0.17414422  1
