# generated using pymatgen
data_CdFe2Sb2(PO4)6
_symmetry_space_group_name_H-M   'P 1'
_cell_length_a   8.78379378
_cell_length_b   8.78379578
_cell_length_c   8.78379387
_cell_angle_alpha   56.57431699
_cell_angle_beta   56.57432479
_cell_angle_gamma   56.57431656
_symmetry_Int_Tables_number   1
_chemical_formula_structural   CdFe2Sb2(PO4)6
_chemical_formula_sum   'Cd1 Fe2 Sb2 P6 O24'
_cell_volume   441.28540043
_cell_formula_units_Z   1
loop_
 _symmetry_equiv_pos_site_id
 _symmetry_equiv_pos_as_xyz
  1  'x, y, z'
loop_
 _atom_site_type_symbol
 _atom_site_label
 _atom_site_symmetry_multiplicity
 _atom_site_fract_x
 _atom_site_fract_y
 _atom_site_fract_z
 _atom_site_occupancy
  Cd  Cd0  1  -0.00000000  0.00000000  -0.00000000  1
  Fe  Fe1  1  0.14696821  0.14696813  0.14696803  1
  Fe  Fe2  1  0.85303179  0.85303187  0.85303197  1
  Sb  Sb3  1  0.64700816  0.64700841  0.64700820  1
  Sb  Sb4  1  0.35299184  0.35299159  0.35299180  1
  P  P5  1  0.96213190  0.24565162  0.54362248  1
  P  P6  1  0.54362243  0.96213206  0.24565153  1
  P  P7  1  0.24565162  0.54362240  0.96213205  1
  P  P8  1  0.75434838  0.45637760  0.03786795  1
  P  P9  1  0.45637757  0.03786794  0.75434847  1
  P  P10  1  0.03786810  0.75434838  0.45637752  1
  O  O11  1  0.52589933  0.15851566  0.22591504  1
  O  O12  1  0.48632091  0.18250112  0.54066828  1
  O  O13  1  0.18250122  0.54066820  0.48632070  1
  O  O14  1  0.54066814  0.48632088  0.18250116  1
  O  O15  1  0.19538270  0.38912299  0.99221893  1
  O  O16  1  0.22591507  0.52589923  0.15851573  1
  O  O17  1  0.99221882  0.19538272  0.38912301  1
  O  O18  1  0.15851566  0.22591502  0.52589935  1
  O  O19  1  0.11231881  0.88801417  0.24827476  1
  O  O20  1  0.88801412  0.24827483  0.11231886  1
  O  O21  1  0.24827488  0.11231887  0.88801419  1
  O  O22  1  0.61087724  0.00778087  0.80461753  1
  O  O23  1  0.38912276  0.99221913  0.19538247  1
  O  O24  1  0.75172512  0.88768113  0.11198581  1
  O  O25  1  0.11198588  0.75172517  0.88768114  1
  O  O26  1  0.88768119  0.11198583  0.75172524  1
  O  O27  1  0.84148434  0.77408498  0.47410065  1
  O  O28  1  0.00778118  0.80461728  0.61087699  1
  O  O29  1  0.77408493  0.47410077  0.84148427  1
  O  O30  1  0.80461730  0.61087701  0.00778107  1
  O  O31  1  0.45933186  0.51367912  0.81749884  1
  O  O32  1  0.81749878  0.45933180  0.51367930  1
  O  O33  1  0.51367909  0.81749888  0.45933172  1
  O  O34  1  0.47410067  0.84148434  0.77408496  1
