# generated using pymatgen
data_V(SO4)2
_symmetry_space_group_name_H-M   'P 1'
_cell_length_a   8.72195141
_cell_length_b   8.72195141
_cell_length_c   8.72195163
_cell_angle_alpha   56.38965210
_cell_angle_beta   56.38964596
_cell_angle_gamma   56.38965494
_symmetry_Int_Tables_number   1
_chemical_formula_structural   V(SO4)2
_chemical_formula_sum   'V3 S6 O24'
_cell_volume   429.99414734
_cell_formula_units_Z   3
loop_
 _symmetry_equiv_pos_site_id
 _symmetry_equiv_pos_as_xyz
  1  'x, y, z'
loop_
 _atom_site_type_symbol
 _atom_site_label
 _atom_site_symmetry_multiplicity
 _atom_site_fract_x
 _atom_site_fract_y
 _atom_site_fract_z
 _atom_site_occupancy
  V  V0  1  0.64405556  0.64405556  0.64405556  1
  V  V1  1  0.35567712  0.35567712  0.35567712  1
  V  V2  1  0.14632082  0.14632082  0.14632082  1
  S  S3  1  0.96638026  0.25932652  0.52557336  1
  S  S4  1  0.52557336  0.96638026  0.25932652  1
  S  S5  1  0.25932652  0.52557336  0.96638026  1
  S  S6  1  0.74368644  0.46808383  0.04135631  1
  S  S7  1  0.46808383  0.04135631  0.74368644  1
  S  S8  1  0.04135631  0.74368644  0.46808383  1
  O  O9  1  0.88136640  0.70506934  0.49096538  1
  O  O10  1  0.70506934  0.49096538  0.88136640  1
  O  O11  1  0.01087215  0.06730756  0.66486649  1
  O  O12  1  0.49096538  0.88136640  0.70506934  1
  O  O13  1  0.97720136  0.27595321  0.34129196  1
  O  O14  1  0.76865015  0.40085780  0.59901820  1
  O  O15  1  0.59901820  0.76865015  0.40085780  1
  O  O16  1  0.66486649  0.01087215  0.06730756  1
  O  O17  1  0.40085780  0.59901820  0.76865015  1
  O  O18  1  0.94521180  0.32101383  0.02253641  1
  O  O19  1  0.70801312  0.64720300  0.04064378  1
  O  O20  1  0.64720300  0.04064378  0.70801312  1
  O  O21  1  0.34129196  0.97720136  0.27595321  1
  O  O22  1  0.27595321  0.34129196  0.97720136  1
  O  O23  1  0.06730756  0.66486649  0.01087215  1
  O  O24  1  0.60988593  0.36519493  0.23411966  1
  O  O25  1  0.32101383  0.02253641  0.94521180  1
  O  O26  1  0.36519493  0.23411966  0.60988593  1
  O  O27  1  0.23411966  0.60988593  0.36519493  1
  O  O28  1  0.04064378  0.70801312  0.64720300  1
  O  O29  1  0.46108090  0.10390256  0.35495884  1
  O  O30  1  0.02253641  0.94521180  0.32101383  1
  O  O31  1  0.35495884  0.46108090  0.10390256  1
  O  O32  1  0.10390256  0.35495884  0.46108090  1
