# generated using pymatgen
data_LiVSiO4
_symmetry_space_group_name_H-M   'P 1'
_cell_length_a   10.24638816
_cell_length_b   10.24638816
_cell_length_c   17.51428406
_cell_angle_alpha   71.62818862
_cell_angle_beta   71.62818862
_cell_angle_gamma   58.69529899
_symmetry_Int_Tables_number   1
_chemical_formula_structural   LiVSiO4
_chemical_formula_sum   'Li16 V16 Si16 O64'
_cell_volume   1464.79524839
_cell_formula_units_Z   16
loop_
 _symmetry_equiv_pos_site_id
 _symmetry_equiv_pos_as_xyz
  1  'x, y, z'
loop_
 _atom_site_type_symbol
 _atom_site_label
 _atom_site_symmetry_multiplicity
 _atom_site_fract_x
 _atom_site_fract_y
 _atom_site_fract_z
 _atom_site_occupancy
  Li  Li0  1  0.43749000  0.37312800  0.18447100  1
  Li  Li1  1  0.36628100  0.93524500  0.68731200  1
  Li  Li2  1  0.26433900  0.18206900  0.43605500  1
  Li  Li3  1  0.76524000  0.61799900  0.43670800  1
  Li  Li4  1  0.68439000  0.26298900  0.93602200  1
  Li  Li5  1  0.11791700  0.76485100  0.93724500  1
  Li  Li6  1  0.49595800  0.88109700  0.18796600  1
  Li  Li7  1  0.93524500  0.36628100  0.18731200  1
  Li  Li8  1  0.87295100  0.99444600  0.68788200  1
  Li  Li9  1  0.37312800  0.43749000  0.68447100  1
  Li  Li10  1  0.26298900  0.68439000  0.43602200  1
  Li  Li11  1  0.76485100  0.11791700  0.43724500  1
  Li  Li12  1  0.18206900  0.26433900  0.93605500  1
  Li  Li13  1  0.61799900  0.76524000  0.93670800  1
  Li  Li14  1  0.99444600  0.87295100  0.18788200  1
  Li  Li15  1  0.88109700  0.49595800  0.68796600  1
  V  V16  1  0.12770100  0.50152800  0.31255800  1
  V  V17  1  0.56186000  0.62559300  0.81359600  1
  V  V18  1  0.00096200  0.13064600  0.81328400  1
  V  V19  1  0.38099600  0.23591900  0.06257700  1
  V  V20  1  0.81210300  0.73840200  0.06448000  1
  V  V21  1  0.23937900  0.87920700  0.56313900  1
  V  V22  1  0.73818200  0.31247300  0.56364600  1
  V  V23  1  0.62559300  0.56186000  0.31359600  1
  V  V24  1  0.13064600  0.00096200  0.31328400  1
  V  V25  1  0.06338200  0.62979700  0.81292200  1
  V  V26  1  0.50152800  0.12770100  0.81255800  1
  V  V27  1  0.87920700  0.23937900  0.06313900  1
  V  V28  1  0.31247300  0.73818200  0.06364600  1
  V  V29  1  0.23591900  0.38099600  0.56257700  1
  V  V30  1  0.73840200  0.81210300  0.56448000  1
  V  V31  1  0.62979700  0.06338200  0.31292200  1
  Si  Si32  1  0.68923500  0.06110900  0.12216800  1
  Si  Si33  1  0.12678400  0.55909800  0.12396600  1
  Si  Si34  1  0.05912300  0.18704500  0.62294400  1
  Si  Si35  1  0.56315200  0.62653500  0.62440600  1
  Si  Si36  1  0.43934900  0.87481100  0.37381600  1
  Si  Si37  1  0.93672500  0.31441500  0.37478500  1
  Si  Si38  1  0.37335500  0.43663700  0.87374300  1
  Si  Si39  1  0.81451000  0.93845900  0.87540300  1
  Si  Si40  1  0.18704500  0.05912300  0.12294400  1
  Si  Si41  1  0.62653500  0.56315200  0.12440600  1
  Si  Si42  1  0.06110900  0.68923500  0.62216800  1
  Si  Si43  1  0.55909800  0.12678400  0.62396600  1
  Si  Si44  1  0.43663700  0.37335500  0.37374300  1
  Si  Si45  1  0.93845900  0.81451000  0.37540300  1
  Si  Si46  1  0.87481100  0.43934900  0.87381600  1
  Si  Si47  1  0.31441500  0.93672500  0.87478500  1
  O  O48  1  0.96924200  0.63539000  0.38888600  1
  O  O49  1  0.17521100  0.67675200  0.04579900  1
  O  O50  1  0.58193900  0.14043200  0.20359100  1
  O  O51  1  0.08349500  0.62999600  0.20616500  1
  O  O52  1  0.60033900  0.17781700  0.04477900  1
  O  O53  1  0.27547900  0.38374700  0.13496300  1
  O  O54  1  0.46667300  0.01239400  0.38366500  1
  O  O55  1  0.13474200  0.96841600  0.88873500  1
  O  O56  1  0.67697200  0.67709300  0.54432200  1
  O  O57  1  0.64293600  0.58532700  0.70304600  1
  O  O58  1  0.12791000  0.07876100  0.70738200  1
  O  O59  1  0.70142600  0.88901000  0.13583800  1
  O  O60  1  0.18105600  0.09833300  0.54639500  1
  O  O61  1  0.10420800  0.31428600  0.35715000  1
  O  O62  1  0.38624200  0.77261500  0.63614100  1
  O  O63  1  0.97957000  0.55086000  0.11072000  1
  O  O64  1  0.51457200  0.45983100  0.88301500  1
  O  O65  1  0.60974000  0.72146900  0.35848000  1
  O  O66  1  0.88760600  0.19952100  0.63486700  1
  O  O67  1  0.81766200  0.39415800  0.45454200  1
  O  O68  1  0.81398300  0.10663200  0.85765800  1
  O  O69  1  0.35345800  0.92830900  0.29573700  1
  O  O70  1  0.84697800  0.42156500  0.29656900  1
  O  O71  1  0.32096300  0.83299300  0.45428000  1
  O  O72  1  0.35962000  0.04760200  0.10663500  1
  O  O73  1  0.55438200  0.47920500  0.61199200  1
  O  O74  1  0.22321600  0.60986400  0.85904000  1
  O  O75  1  0.89380100  0.81912300  0.95523800  1
  O  O76  1  0.96841600  0.13474200  0.38873500  1
  O  O77  1  0.67709300  0.67697200  0.04432200  1
  O  O78  1  0.58532700  0.64293600  0.20304600  1
  O  O79  1  0.07876100  0.12791000  0.20738200  1
  O  O80  1  0.92288600  0.85246200  0.79585400  1
  O  O81  1  0.42146200  0.35087000  0.79663000  1
  O  O82  1  0.04856100  0.86230100  0.60514800  1
  O  O83  1  0.33015700  0.32048500  0.95489900  1
  O  O84  1  0.09833300  0.18105600  0.04639500  1
  O  O85  1  0.77261500  0.38624200  0.13614100  1
  O  O86  1  0.63539000  0.96924200  0.88888600  1
  O  O87  1  0.45983100  0.51457200  0.38301500  1
  O  O88  1  0.67675200  0.17521100  0.54579900  1
  O  O89  1  0.14043200  0.58193900  0.70359100  1
  O  O90  1  0.62999600  0.08349500  0.70616500  1
  O  O91  1  0.19952100  0.88760600  0.13486700  1
  O  O92  1  0.10663200  0.81398300  0.35765800  1
  O  O93  1  0.17781700  0.60033900  0.54477900  1
  O  O94  1  0.47920500  0.55438200  0.11199200  1
  O  O95  1  0.38374700  0.27547900  0.63496300  1
  O  O96  1  0.01239400  0.46667300  0.88366500  1
  O  O97  1  0.60986400  0.22321600  0.35904000  1
  O  O98  1  0.88901000  0.70142600  0.63583800  1
  O  O99  1  0.81912300  0.89380100  0.45523800  1
  O  O100  1  0.31428600  0.10420800  0.85715000  1
  O  O101  1  0.85246200  0.92288600  0.29585400  1
  O  O102  1  0.35087000  0.42146200  0.29663000  1
  O  O103  1  0.86230100  0.04856100  0.10514800  1
  O  O104  1  0.32048500  0.33015700  0.45489900  1
  O  O105  1  0.55086000  0.97957000  0.61072000  1
  O  O106  1  0.72146900  0.60974000  0.85848000  1
  O  O107  1  0.39415800  0.81766200  0.95454200  1
  O  O108  1  0.92830900  0.35345800  0.79573700  1
  O  O109  1  0.42156500  0.84697800  0.79656900  1
  O  O110  1  0.83299300  0.32096300  0.95428000  1
  O  O111  1  0.04760200  0.35962000  0.60663500  1
