# generated using pymatgen
data_WO2F
_symmetry_space_group_name_H-M   'P 1'
_cell_length_a   5.38838764
_cell_length_b   5.50366374
_cell_length_c   13.42936206
_cell_angle_alpha   92.74230119
_cell_angle_beta   89.34570001
_cell_angle_gamma   118.72033983
_symmetry_Int_Tables_number   1
_chemical_formula_structural   WO2F
_chemical_formula_sum   'W6 O12 F6'
_cell_volume   348.83343851
_cell_formula_units_Z   6
loop_
 _symmetry_equiv_pos_site_id
 _symmetry_equiv_pos_as_xyz
  1  'x, y, z'
loop_
 _atom_site_type_symbol
 _atom_site_label
 _atom_site_symmetry_multiplicity
 _atom_site_fract_x
 _atom_site_fract_y
 _atom_site_fract_z
 _atom_site_occupancy
  W  W0  1  0.32757897  0.66131923  0.58279904  1
  W  W1  1  0.97998841  0.98324208  0.74865697  1
  W  W2  1  0.62333044  0.29244948  0.91615148  1
  W  W3  1  0.67242103  0.33868077  0.41720096  1
  W  W4  1  0.37666956  0.70755052  0.08384852  1
  W  W5  1  0.02001159  0.01675792  0.25134303  1
  O  O6  1  0.65209079  0.82582216  0.66811759  1
  O  O7  1  -0.00000000  0.50000000  0.50000000  1
  O  O8  1  0.68858578  0.85498798  0.16496065  1
  O  O9  1  0.15191739  0.82363459  0.66730061  1
  O  O10  1  0.84808261  0.17636541  0.33269939  1
  O  O11  1  0.82535274  0.16200721  0.83476868  1
  O  O12  1  0.50000000  0.50000000  0.50000000  1
  O  O13  1  0.17464726  0.83799279  0.16523132  1
  O  O14  1  0.50000000  0.50000000  -0.00000000  1
  O  O15  1  0.34790921  0.17417784  0.33188241  1
  O  O16  1  0.31141422  0.14501202  0.83503935  1
  O  O17  1  0.50000000  0.00000000  -0.00000000  1
  F  F18  1  -0.00000000  0.50000000  -0.00000000  1
  F  F19  1  0.84521988  0.67750044  0.33427689  1
  F  F20  1  0.80982750  0.64943715  0.83260021  1
  F  F21  1  0.50000000  0.00000000  0.50000000  1
  F  F22  1  0.19017250  0.35056285  0.16739979  1
  F  F23  1  0.15478012  0.32249956  0.66572311  1
