# generated using pymatgen
data_Ti3P6WO24
_symmetry_space_group_name_H-M   'P 1'
_cell_length_a   8.76553770
_cell_length_b   8.76553770
_cell_length_c   8.76553734
_cell_angle_alpha   58.16711350
_cell_angle_beta   58.16711355
_cell_angle_gamma   58.16711367
_symmetry_Int_Tables_number   1
_chemical_formula_structural   Ti3P6WO24
_chemical_formula_sum   'Ti3 P6 W1 O24'
_cell_volume   456.22949871
_cell_formula_units_Z   1
loop_
 _symmetry_equiv_pos_site_id
 _symmetry_equiv_pos_as_xyz
  1  'x, y, z'
loop_
 _atom_site_type_symbol
 _atom_site_label
 _atom_site_symmetry_multiplicity
 _atom_site_fract_x
 _atom_site_fract_y
 _atom_site_fract_z
 _atom_site_occupancy
  Ti  Ti0  1  0.13969954  0.13969954  0.13969954  1
  Ti  Ti1  1  0.35974411  0.35974411  0.35974411  1
  Ti  Ti2  1  0.64144443  0.64144443  0.64144443  1
  P  P3  1  0.03255500  0.46258237  0.74906874  1
  P  P4  1  0.46258237  0.74906874  0.03255500  1
  P  P5  1  0.74906874  0.03255500  0.46258237  1
  P  P6  1  0.25143403  0.97306252  0.52831974  1
  P  P7  1  0.52831974  0.25143403  0.97306252  1
  P  P8  1  0.97306252  0.52831974  0.25143403  1
  W  W9  1  0.85930002  0.85930002  0.85930002  1
  O  O10  1  0.15204925  0.51259263  0.25351729  1
  O  O11  1  0.25351729  0.15204925  0.51259263  1
  O  O12  1  0.08341492  0.27893545  0.90907002  1
  O  O13  1  0.51259263  0.25351729  0.15204925  1
  O  O14  1  0.19863219  0.46570278  0.56086301  1
  O  O15  1  0.99524317  0.63261650  0.79451099  1
  O  O16  1  0.27893545  0.90907002  0.08341492  1
  O  O17  1  0.46570278  0.56086301  0.19863219  1
  O  O18  1  0.56086301  0.19863219  0.46570278  1
  O  O19  1  0.20420263  0.00135093  0.37110515  1
  O  O20  1  0.08334125  0.92202708  0.72034077  1
  O  O21  1  0.37110515  0.20420263  0.00135093  1
  O  O22  1  0.63261650  0.79451099  0.99524317  1
  O  O23  1  0.90907002  0.08341492  0.27893545  1
  O  O24  1  0.79451099  0.99524317  0.63261650  1
  O  O25  1  0.43166127  0.80134533  0.54682516  1
  O  O26  1  0.54682516  0.43166127  0.80134533  1
  O  O27  1  0.72034077  0.08334125  0.92202708  1
  O  O28  1  0.00135093  0.37110515  0.20420263  1
  O  O29  1  0.80134533  0.54682516  0.43166127  1
  O  O30  1  0.49190007  0.74022489  0.85131578  1
  O  O31  1  0.92202708  0.72034077  0.08334125  1
  O  O32  1  0.74022489  0.85131578  0.49190007  1
  O  O33  1  0.85131578  0.49190007  0.74022489  1
