# generated using pymatgen
data_VO2F
_symmetry_space_group_name_H-M   'P 1'
_cell_length_a   5.07890185
_cell_length_b   5.17251533
_cell_length_c   5.07890229
_cell_angle_alpha   118.31513139
_cell_angle_beta   58.62142050
_cell_angle_gamma   118.31513893
_symmetry_Int_Tables_number   1
_chemical_formula_structural   VO2F
_chemical_formula_sum   'V2 O4 F2'
_cell_volume   95.58494417
_cell_formula_units_Z   2
loop_
 _symmetry_equiv_pos_site_id
 _symmetry_equiv_pos_as_xyz
  1  'x, y, z'
loop_
 _atom_site_type_symbol
 _atom_site_label
 _atom_site_symmetry_multiplicity
 _atom_site_fract_x
 _atom_site_fract_y
 _atom_site_fract_z
 _atom_site_occupancy
  V  V0  1  0.73339935  0.18952879  0.76546403  1
  V  V1  1  0.26546403  0.68952879  0.23339935  1
  O  O2  1  0.04782450  0.39151278  0.86280709  1
  O  O3  1  0.46418898  0.39712510  0.04763636  1
  O  O4  1  0.36280709  0.89151278  0.54782450  1
  O  O5  1  0.54763736  0.89712510  0.96418898  1
  F  F6  1  0.87022882  0.38548132  0.45088186  1
  F  F7  1  0.95088186  0.88548132  0.37022882  1
