# generated using pymatgen
data_Rb3FeO3
_symmetry_space_group_name_H-M   'P 1'
_cell_length_a   6.82104567
_cell_length_b   7.64044812
_cell_length_c   10.94860285
_cell_angle_alpha   84.84529027
_cell_angle_beta   90.00000000
_cell_angle_gamma   90.00000000
_symmetry_Int_Tables_number   1
_chemical_formula_structural   Rb3FeO3
_chemical_formula_sum   'Rb12 Fe4 O12'
_cell_volume   568.28805193
_cell_formula_units_Z   4
loop_
 _symmetry_equiv_pos_site_id
 _symmetry_equiv_pos_as_xyz
  1  'x, y, z'
loop_
 _atom_site_type_symbol
 _atom_site_label
 _atom_site_symmetry_multiplicity
 _atom_site_fract_x
 _atom_site_fract_y
 _atom_site_fract_z
 _atom_site_occupancy
  Rb  Rb0  1  0.31874396  0.36115743  0.07004881  1
  Rb  Rb1  1  0.62215692  0.95469973  0.15195891  1
  Rb  Rb2  1  0.81386930  0.36261429  0.19679282  1
  Rb  Rb3  1  0.31386930  0.63738571  0.30320718  1
  Rb  Rb4  1  0.12215692  0.04530027  0.34804109  1
  Rb  Rb5  1  0.81874396  0.63884257  0.42995119  1
  Rb  Rb6  1  0.18125604  0.36115743  0.57004881  1
  Rb  Rb7  1  0.87784308  0.95469973  0.65195891  1
  Rb  Rb8  1  0.68613070  0.36261429  0.69679282  1
  Rb  Rb9  1  0.18613070  0.63738571  0.80320718  1
  Rb  Rb10  1  0.37784308  0.04530027  0.84804109  1
  Rb  Rb11  1  0.68125604  0.63884257  0.92995119  1
  Fe  Fe12  1  0.07925002  0.84608449  0.06350340  1
  Fe  Fe13  1  0.57925002  0.15391551  0.43649660  1
  Fe  Fe14  1  0.42074998  0.84608449  0.56350340  1
  Fe  Fe15  1  0.92074998  0.15391551  0.93649660  1
  O  O16  1  0.32850426  0.75594702  0.03920768  1
  O  O17  1  0.05266162  0.09582198  0.09388246  1
  O  O18  1  0.93849848  0.70473221  0.17813263  1
  O  O19  1  0.43849848  0.29526779  0.32186737  1
  O  O20  1  0.55266162  0.90417802  0.40611754  1
  O  O21  1  0.82850426  0.24405298  0.46079232  1
  O  O22  1  0.17149574  0.75594702  0.53920768  1
  O  O23  1  0.44733838  0.09582198  0.59388246  1
  O  O24  1  0.56150152  0.70473221  0.67813263  1
  O  O25  1  0.06150152  0.29526779  0.82186737  1
  O  O26  1  0.94733838  0.90417802  0.90611754  1
  O  O27  1  0.67149574  0.24405298  0.96079232  1
