# generated using pymatgen
data_Hf2N2O
_symmetry_space_group_name_H-M   'P 1'
_cell_length_a   8.66782437
_cell_length_b   8.66751122
_cell_length_c   8.67363208
_cell_angle_alpha   109.44137865
_cell_angle_beta   109.44747909
_cell_angle_gamma   109.44828616
_symmetry_Int_Tables_number   1
_chemical_formula_structural   Hf2N2O
_chemical_formula_sum   'Hf16 N16 O8'
_cell_volume   502.10328413
_cell_formula_units_Z   8
loop_
 _symmetry_equiv_pos_site_id
 _symmetry_equiv_pos_as_xyz
  1  'x, y, z'
loop_
 _atom_site_type_symbol
 _atom_site_label
 _atom_site_symmetry_multiplicity
 _atom_site_fract_x
 _atom_site_fract_y
 _atom_site_fract_z
 _atom_site_occupancy
  Hf  Hf0  1  0.21947013  0.25833777  0.97092518  1
  Hf  Hf1  1  0.99610446  0.48952912  0.99100888  1
  Hf  Hf2  1  0.75268805  0.97264119  0.72065492  1
  Hf  Hf3  1  0.25115056  0.53631436  0.78535845  1
  Hf  Hf4  1  0.53788665  0.78241413  0.24392893  1
  Hf  Hf5  1  0.03133724  0.28165968  0.25264275  1
  Hf  Hf6  1  0.98745402  0.99093116  0.48392613  1
  Hf  Hf7  1  0.50750153  0.50059721  0.51107171  1
  Hf  Hf8  1  0.51305352  0.00996878  0.00470843  1
  Hf  Hf9  1  0.72068512  0.25611103  0.47129587  1
  Hf  Hf10  1  0.28907039  0.75241503  0.53888680  1
  Hf  Hf11  1  0.46858256  0.21234806  0.75204835  1
  Hf  Hf12  1  0.95479226  0.70850263  0.74082391  1
  Hf  Hf13  1  0.74197800  0.46084076  0.20868180  1
  Hf  Hf14  1  0.24972152  0.03444086  0.29582743  1
  Hf  Hf15  1  0.77922058  0.74719147  0.03206876  1
  N  N16  1  0.27524009  0.53299254  0.05054888  1
  N  N17  1  0.25978067  0.48918602  0.53400469  1
  N  N18  1  0.76979872  0.04375903  0.51229440  1
  N  N19  1  0.53154572  0.76318389  0.98794034  1
  N  N20  1  0.46181945  0.23634380  0.01061789  1
  N  N21  1  0.96926311  0.46144943  0.73062076  1
  N  N22  1  0.22251058  0.94893679  0.48710127  1
  N  N23  1  0.73167709  0.74137017  0.77193555  1
  N  N24  1  0.99366951  0.03438656  0.26115181  1
  N  N25  1  0.77293154  0.22752660  0.23864089  1
  N  N26  1  0.73924496  0.51673273  0.46652283  1
  N  N27  1  0.54269149  0.00601038  0.77065192  1
  N  N28  1  0.76008101  0.72759254  0.27328832  1
  N  N29  1  0.95680223  0.22625644  0.96825031  1
  N  N30  1  0.73042530  0.46617426  0.95322226  1
  N  N31  1  0.50681599  0.27066132  0.54074671  1
  O  O32  1  0.48169838  0.72471199  0.45087387  1
  O  O33  1  0.23491640  0.27209924  0.72866003  1
  O  O34  1  0.05333974  0.77537042  0.03716030  1
  O  O35  1  0.44760417  0.98618467  0.22156758  1
  O  O36  1  0.22515183  0.77559822  0.76089829  1
  O  O37  1  0.01997765  0.96785497  0.73962177  1
  O  O38  1  0.27561967  0.26308309  0.22727525  1
  O  O39  1  0.03669610  0.54829366  0.27254278  1
