# generated using pymatgen
data_CrAuS2
_symmetry_space_group_name_H-M   'P 1'
_cell_length_a   7.39623319
_cell_length_b   7.39623319
_cell_length_c   7.39623316
_cell_angle_alpha   27.70166292
_cell_angle_beta   27.70166292
_cell_angle_gamma   27.70166699
_symmetry_Int_Tables_number   1
_chemical_formula_structural   CrAuS2
_chemical_formula_sum   'Cr1 Au1 S2'
_cell_volume   77.19535984
_cell_formula_units_Z   1
loop_
 _symmetry_equiv_pos_site_id
 _symmetry_equiv_pos_as_xyz
  1  'x, y, z'
loop_
 _atom_site_type_symbol
 _atom_site_label
 _atom_site_symmetry_multiplicity
 _atom_site_fract_x
 _atom_site_fract_y
 _atom_site_fract_z
 _atom_site_occupancy
  Cr  Cr0  1  0.50000000  0.50000000  0.50000000  1
  Au  Au1  1  0.00000000  0.00000000  0.00000000  1
  S  S2  1  0.89231846  0.89231846  0.89231846  1
  S  S3  1  0.10768154  0.10768154  0.10768154  1
