# generated using pymatgen
data_Dy3TaO7
_symmetry_space_group_name_H-M   'P 1'
_cell_length_a   6.44380403
_cell_length_b   6.44380403
_cell_length_c   7.42258248
_cell_angle_alpha   90.00000000
_cell_angle_beta   90.00000000
_cell_angle_gamma   108.79601733
_symmetry_Int_Tables_number   1
_chemical_formula_structural   Dy3TaO7
_chemical_formula_sum   'Dy6 Ta2 O14'
_cell_volume   291.76893917
_cell_formula_units_Z   2
loop_
 _symmetry_equiv_pos_site_id
 _symmetry_equiv_pos_as_xyz
  1  'x, y, z'
loop_
 _atom_site_type_symbol
 _atom_site_label
 _atom_site_symmetry_multiplicity
 _atom_site_fract_x
 _atom_site_fract_y
 _atom_site_fract_z
 _atom_site_occupancy
  Dy  Dy0  1  -0.00005793  0.53479032  0.24142816  1
  Dy  Dy1  1  0.46520968  0.00005793  0.25857184  1
  Dy  Dy2  1  0.46622546  0.46622546  -0.00000000  1
  Dy  Dy3  1  0.53377454  0.53377454  0.50000000  1
  Dy  Dy4  1  0.00005793  0.46520968  0.74142816  1
  Dy  Dy5  1  0.53479032  -0.00005793  0.75857184  1
  Ta  Ta6  1  0.00186780  0.00186780  0.50000000  1
  Ta  Ta7  1  0.99813220  0.99813220  -0.00000000  1
  O  O8  1  0.93158431  0.06841569  0.75000000  1
  O  O9  1  0.63913651  0.36086349  0.75000000  1
  O  O10  1  0.30863737  0.05173901  0.54421040  1
  O  O11  1  0.94826099  0.69136263  0.95578960  1
  O  O12  1  0.62907603  0.37092397  0.25000000  1
  O  O13  1  0.91734162  0.67167195  0.52449631  1
  O  O14  1  0.32832805  0.08265838  0.97550369  1
  O  O15  1  0.08265838  0.32832805  0.02449631  1
  O  O16  1  0.67167195  0.91734162  0.47550369  1
  O  O17  1  0.37092397  0.62907603  0.75000000  1
  O  O18  1  0.69136263  0.94826099  0.04421040  1
  O  O19  1  0.05173901  0.30863737  0.45578960  1
  O  O20  1  0.36086349  0.63913651  0.25000000  1
  O  O21  1  0.06841569  0.93158431  0.25000000  1
