# generated using pymatgen
data_V4O5F7
_symmetry_space_group_name_H-M   'P 1'
_cell_length_a   5.07556817
_cell_length_b   5.28592402
_cell_length_c   7.29947336
_cell_angle_alpha   92.36204626
_cell_angle_beta   90.33727091
_cell_angle_gamma   90.05880783
_symmetry_Int_Tables_number   1
_chemical_formula_structural   V4O5F7
_chemical_formula_sum   'V4 O5 F7'
_cell_volume   195.66812316
_cell_formula_units_Z   1
loop_
 _symmetry_equiv_pos_site_id
 _symmetry_equiv_pos_as_xyz
  1  'x, y, z'
loop_
 _atom_site_type_symbol
 _atom_site_label
 _atom_site_symmetry_multiplicity
 _atom_site_fract_x
 _atom_site_fract_y
 _atom_site_fract_z
 _atom_site_occupancy
  V  V0  1  0.52191894  0.50815385  0.49731940  1
  V  V1  1  0.53466668  0.53166654  0.98377569  1
  V  V2  1  0.96778712  0.00763084  0.49211089  1
  V  V3  1  0.03662546  0.02136469  0.99433581  1
  O  O4  1  0.28862460  0.20186312  0.95740957  1
  O  O5  1  0.58432130  0.50359319  0.75665953  1
  O  O6  1  0.72519708  0.21543108  0.45581233  1
  O  O7  1  0.70709315  0.78401332  0.04686213  1
  O  O8  1  0.76427698  0.71589774  0.45879754  1
  F  F9  1  0.10923480  0.97974662  0.25063568  1
  F  F10  1  0.22282406  0.27510333  0.54599277  1
  F  F11  1  0.20071907  0.69266421  0.95075217  1
  F  F12  1  0.26307851  0.77634785  0.55201580  1
  F  F13  1  0.39629854  0.49422459  0.24482964  1
  F  F14  1  0.78790644  0.29027237  0.06031648  1
  F  F15  1  0.88942726  0.00202565  0.75237058  1
