# generated using pymatgen
data_Ba4PdO6
_symmetry_space_group_name_H-M   'P 1'
_cell_length_a   7.30998297
_cell_length_b   7.30998297
_cell_length_c   7.30998303
_cell_angle_alpha   89.39236932
_cell_angle_beta   89.39236932
_cell_angle_gamma   89.39237593
_symmetry_Int_Tables_number   1
_chemical_formula_structural   Ba4PdO6
_chemical_formula_sum   'Ba8 Pd2 O12'
_cell_volume   390.54972947
_cell_formula_units_Z   2
loop_
 _symmetry_equiv_pos_site_id
 _symmetry_equiv_pos_as_xyz
  1  'x, y, z'
loop_
 _atom_site_type_symbol
 _atom_site_label
 _atom_site_symmetry_multiplicity
 _atom_site_fract_x
 _atom_site_fract_y
 _atom_site_fract_z
 _atom_site_occupancy
  Ba  Ba0  1  0.75000000  0.12009681  0.37990319  1
  Ba  Ba1  1  0.62009681  0.25000000  0.87990319  1
  Ba  Ba2  1  0.87990319  0.62009681  0.25000000  1
  Ba  Ba3  1  0.75000000  0.75000000  0.75000000  1
  Ba  Ba4  1  0.25000000  0.25000000  0.25000000  1
  Ba  Ba5  1  0.12009681  0.37990319  0.75000000  1
  Ba  Ba6  1  0.37990319  0.75000000  0.12009681  1
  Ba  Ba7  1  0.25000000  0.87990319  0.62009681  1
  Pd  Pd8  1  0.00000000  -0.00000000  -0.00000000  1
  Pd  Pd9  1  0.50000000  0.50000000  0.50000000  1
  O  O10  1  0.92785033  0.06077066  0.72976699  1
  O  O11  1  0.93922934  0.27023301  0.07214967  1
  O  O12  1  0.77023301  0.43922934  0.57214967  1
  O  O13  1  0.42785033  0.22976699  0.56077066  1
  O  O14  1  0.27023301  0.07214967  0.93922934  1
  O  O15  1  0.56077066  0.42785033  0.22976699  1
  O  O16  1  0.43922934  0.57214967  0.77023301  1
  O  O17  1  0.57214967  0.77023301  0.43922934  1
  O  O18  1  0.72976699  0.92785033  0.06077066  1
  O  O19  1  0.22976699  0.56077066  0.42785033  1
  O  O20  1  0.06077066  0.72976699  0.92785033  1
  O  O21  1  0.07214967  0.93922934  0.27023301  1
