# generated using pymatgen
data_KZnBr3O2
_symmetry_space_group_name_H-M   'P 1'
_cell_length_a   13.16641700
_cell_length_b   6.78077100
_cell_length_c   10.27790605
_cell_angle_alpha   79.62073662
_cell_angle_beta   90.00000000
_cell_angle_gamma   90.00000000
_symmetry_Int_Tables_number   1
_chemical_formula_structural   KZnBr3O2
_chemical_formula_sum   'K4 Zn4 Br12 O8'
_cell_volume   902.58075382
_cell_formula_units_Z   4
loop_
 _symmetry_equiv_pos_site_id
 _symmetry_equiv_pos_as_xyz
  1  'x, y, z'
loop_
 _atom_site_type_symbol
 _atom_site_label
 _atom_site_symmetry_multiplicity
 _atom_site_fract_x
 _atom_site_fract_y
 _atom_site_fract_z
 _atom_site_occupancy
  K  K0  1  0.82348300  0.73671300  0.98782500  1
  K  K1  1  0.32348300  0.76328700  0.51217500  1
  K  K2  1  0.17651700  0.26328700  0.01217500  1
  K  K3  1  0.67651700  0.23671300  0.48782500  1
  Zn  Zn4  1  0.95223100  0.24281300  0.75067200  1
  Zn  Zn5  1  0.45223100  0.25718700  0.74932800  1
  Zn  Zn6  1  0.04776900  0.75718700  0.24932800  1
  Zn  Zn7  1  0.54776900  0.74281300  0.25067200  1
  Br  Br8  1  0.40876200  0.23630700  0.52683700  1
  Br  Br9  1  0.90876200  0.26369300  0.97316300  1
  Br  Br10  1  0.59123800  0.76369300  0.47316300  1
  Br  Br11  1  0.09123800  0.73630700  0.02683700  1
  Br  Br12  1  0.38568500  0.51939700  0.84345700  1
  Br  Br13  1  0.88568500  0.98060300  0.65654300  1
  Br  Br14  1  0.61431500  0.48060300  0.15654300  1
  Br  Br15  1  0.11431500  0.01939700  0.34345700  1
  Br  Br16  1  0.09767300  0.41835700  0.66702000  1
  Br  Br17  1  0.59767300  0.08164300  0.83298000  1
  Br  Br18  1  0.90232700  0.58164300  0.33298000  1
  Br  Br19  1  0.40232700  0.91835700  0.16702000  1
  O  O20  1  0.77784200  0.49226000  0.68331700  1
  O  O21  1  0.27784200  0.00774000  0.81668300  1
  O  O22  1  0.22215800  0.50774000  0.31668300  1
  O  O23  1  0.72215800  0.99226000  0.18331700  1
  O  O24  1  0.71749000  0.53912600  0.76398500  1
  O  O25  1  0.21749000  0.96087400  0.73601500  1
  O  O26  1  0.28251000  0.46087400  0.23601500  1
  O  O27  1  0.78251000  0.03912600  0.26398500  1
