# generated using pymatgen
data_Li7Y7Zr9S32
_symmetry_space_group_name_H-M   'P 1'
_cell_length_a   7.66150639
_cell_length_b   7.72071091
_cell_length_c   25.09132124
_cell_angle_alpha   82.48150197
_cell_angle_beta   82.19376353
_cell_angle_gamma   61.13183088
_symmetry_Int_Tables_number   1
_chemical_formula_structural   Li7Y7Zr9S32
_chemical_formula_sum   'Li7 Y7 Zr9 S32'
_cell_volume   1284.07632997
_cell_formula_units_Z   1
loop_
 _symmetry_equiv_pos_site_id
 _symmetry_equiv_pos_as_xyz
  1  'x, y, z'
loop_
 _atom_site_type_symbol
 _atom_site_label
 _atom_site_symmetry_multiplicity
 _atom_site_fract_x
 _atom_site_fract_y
 _atom_site_fract_z
 _atom_site_occupancy
  Li  Li0  1  0.69068423  0.68238910  0.93603595  1
  Li  Li1  1  0.00176046  0.00056204  -0.00036623  1
  Li  Li2  1  0.43619253  0.43746018  0.68807617  1
  Li  Li3  1  0.50145797  0.50167893  0.49961671  1
  Li  Li4  1  0.93506180  0.93653544  0.18812791  1
  Li  Li5  1  0.18477997  0.18445210  0.44058560  1
  Li  Li6  1  0.25337507  0.25019124  0.24908558  1
  Y  Y7  1  0.96496264  0.47222108  0.59505773  1
  Y  Y8  1  0.21692236  0.71956221  0.84252439  1
  Y  Y9  1  0.46748347  0.96964476  0.59599492  1
  Y  Y10  1  0.21826097  0.71932668  0.34388705  1
  Y  Y11  1  0.71918605  0.21851202  0.34383122  1
  Y  Y12  1  0.97086824  0.46897335  0.09195945  1
  Y  Y13  1  0.47175231  0.96759992  0.09297180  1
  Zr  Zr14  1  0.35005119  0.34048588  0.96739035  1
  Zr  Zr15  1  0.21754143  0.21425687  0.84187150  1
  Zr  Zr16  1  0.72513173  0.21335986  0.84119955  1
  Zr  Zr17  1  0.84264430  0.84503606  0.47001670  1
  Zr  Zr18  1  0.08763401  0.09692962  0.71994429  1
  Zr  Zr19  1  0.96227703  0.96692733  0.59606038  1
  Zr  Zr20  1  0.59594744  0.59367596  0.21895929  1
  Zr  Zr21  1  0.71937514  0.71931176  0.34451093  1
  Zr  Zr22  1  0.47155793  0.46861350  0.09331823  1
  S  S23  1  0.91445142  0.38255795  0.78588663  1
  S  S24  1  0.37746750  0.93287364  0.78198304  1
  S  S25  1  0.05854791  0.50574571  0.90592647  1
  S  S26  1  0.52304309  0.05330297  0.90277709  1
  S  S27  1  0.53347986  0.50612351  0.90466186  1
  S  S28  1  0.26198979  0.27260260  0.66240457  1
  S  S29  1  0.41046546  0.38696595  0.78699548  1
  S  S30  1  0.89991280  0.93160955  0.78192592  1
  S  S31  1  0.02531441  0.04827477  0.90095944  1
  S  S32  1  0.79131592  0.79502983  0.65265305  1
  S  S33  1  0.13350637  0.68021109  0.53167176  1
  S  S34  1  0.67565625  0.13575467  0.53189502  1
  S  S35  1  0.79849154  0.26216911  0.65773692  1
  S  S36  1  0.25424120  0.80569265  0.65939639  1
  S  S37  1  0.01875397  0.01933841  0.40947527  1
  S  S38  1  0.14421810  0.14633152  0.53794031  1
  S  S39  1  0.89528411  0.89533151  0.28570855  1
  S  S40  1  0.66493454  0.67191251  0.52880117  1
  S  S41  1  0.41950509  0.41951212  0.27727534  1
  S  S42  1  0.54199463  0.54227058  0.40158433  1
  S  S43  1  0.88538951  0.42885773  0.28077785  1
  S  S44  1  0.42946740  0.88325424  0.28059789  1
  S  S45  1  0.55228813  0.00924307  0.40625920  1
  S  S46  1  0.76214081  0.30365417  0.15490761  1
  S  S47  1  0.30480528  0.75843986  0.15521439  1
  S  S48  1  0.00837768  0.55422207  0.40654840  1
  S  S49  1  0.77262522  0.76737722  0.15804834  1
  S  S50  1  0.64712004  0.64537139  0.03419135  1
  S  S51  1  0.17441039  0.16641402  0.02572411  1
  S  S52  1  0.29323759  0.29237162  0.15042069  1
  S  S53  1  0.63810598  0.17775104  0.03023795  1
  S  S54  1  0.18454977  0.63172806  0.02875414  1
