# generated using pymatgen
data_V3OF11
_symmetry_space_group_name_H-M   'P 1'
_cell_length_a   5.06014278
_cell_length_b   5.34785231
_cell_length_c   14.04467808
_cell_angle_alpha   80.57862431
_cell_angle_beta   90.00000000
_cell_angle_gamma   90.00000000
_symmetry_Int_Tables_number   1
_chemical_formula_structural   V3OF11
_chemical_formula_sum   'V6 O2 F22'
_cell_volume   374.93498651
_cell_formula_units_Z   2
loop_
 _symmetry_equiv_pos_site_id
 _symmetry_equiv_pos_as_xyz
  1  'x, y, z'
loop_
 _atom_site_type_symbol
 _atom_site_label
 _atom_site_symmetry_multiplicity
 _atom_site_fract_x
 _atom_site_fract_y
 _atom_site_fract_z
 _atom_site_occupancy
  V  V0  1  0.02835340  0.02958501  0.83686787  1
  V  V1  1  0.52835340  0.97041499  0.16313213  1
  V  V2  1  0.99563563  0.75001224  0.50015320  1
  V  V3  1  0.51168447  0.55848060  0.83218615  1
  V  V4  1  0.01168447  0.44151940  0.16781385  1
  V  V5  1  0.49563563  0.24998776  0.49984680  1
  O  O6  1  0.20548947  0.77337324  0.86226777  1
  O  O7  1  0.70548947  0.22662676  0.13773223  1
  F  F8  1  0.80444184  0.06765344  0.47026655  1
  F  F9  1  0.71425830  0.87491785  0.80260422  1
  F  F10  1  0.30444184  0.93234656  0.52973345  1
  F  F11  1  0.88793363  0.05377877  0.94872243  1
  F  F12  1  0.59655188  0.87603063  0.28538344  1
  F  F13  1  0.88561764  0.72270376  0.61883810  1
  F  F14  1  0.38793363  0.94622123  0.05127757  1
  F  F15  1  0.09384490  0.78334600  0.38001704  1
  F  F16  1  0.38689075  0.61393351  0.71514603  1
  F  F17  1  0.80577388  0.74623111  0.13666539  1
  F  F18  1  0.68502725  0.56477447  0.47056095  1
  F  F19  1  0.80319843  0.38143562  0.80331969  1
  F  F20  1  0.30319843  0.61856438  0.19668031  1
  F  F21  1  0.18502725  0.43522553  0.52943905  1
  F  F22  1  0.59529852  0.54542702  0.95325049  1
  F  F23  1  0.88689075  0.38606649  0.28485397  1
  F  F24  1  0.59384490  0.21665400  0.61998296  1
  F  F25  1  0.09529852  0.45457298  0.04674951  1
  F  F26  1  0.38561764  0.27729624  0.38116190  1
  F  F27  1  0.09655188  0.12396937  0.71461656  1
  F  F28  1  0.30577388  0.25376889  0.86333461  1
  F  F29  1  0.21425830  0.12508215  0.19739578  1
