# generated using pymatgen
data_V4(OF3)3
_symmetry_space_group_name_H-M   'P 1'
_cell_length_a   5.06310345
_cell_length_b   5.25791705
_cell_length_c   17.01805453
_cell_angle_alpha   89.38880435
_cell_angle_beta   97.87546816
_cell_angle_gamma   118.29082488
_symmetry_Int_Tables_number   1
_chemical_formula_structural   V4(OF3)3
_chemical_formula_sum   'V8 O6 F18'
_cell_volume   394.40110340
_cell_formula_units_Z   2
loop_
 _symmetry_equiv_pos_site_id
 _symmetry_equiv_pos_as_xyz
  1  'x, y, z'
loop_
 _atom_site_type_symbol
 _atom_site_label
 _atom_site_symmetry_multiplicity
 _atom_site_fract_x
 _atom_site_fract_y
 _atom_site_fract_z
 _atom_site_occupancy
  V  V0  1  0.74304533  0.36884229  0.12550392  1
  V  V1  1  0.75589160  0.88747764  0.62764202  1
  V  V2  1  0.50907451  0.72543455  0.24995273  1
  V  V3  1  0.52889071  0.24248405  0.75112304  1
  V  V4  1  0.24946657  0.10333784  0.38279389  1
  V  V5  1  0.21850121  0.60867577  0.87278397  1
  V  V6  1  0.97660126  0.01111364  0.00111784  1
  V  V7  1  0.02445209  0.49816919  0.49504756  1
  O  O8  1  0.83861401  0.19907989  0.04207516  1
  O  O9  1  0.16882095  0.30272958  0.45883317  1
  O  O10  1  0.85101139  0.41969222  0.83414496  1
  O  O11  1  0.65033689  0.54117196  0.20875921  1
  O  O12  1  0.66135308  0.04718005  0.70790169  1
  O  O13  1  0.22140793  0.82836850  0.43797274  1
  F  F14  1  0.32060125  0.14099003  0.08772419  1
  F  F15  1  0.75784416  0.66727908  0.05860619  1
  F  F16  1  0.77140099  0.18727111  0.55938978  1
  F  F17  1  0.72617250  0.06915123  0.19157373  1
  F  F18  1  0.32347931  0.95948566  0.28873228  1
  F  F19  1  0.32672105  0.66296791  0.58855854  1
  F  F20  1  0.35015542  0.47726112  0.78713844  1
  F  F21  1  0.16519049  0.59662781  0.16404308  1
  F  F22  1  0.17774931  0.10502421  0.66221179  1
  F  F23  1  0.26491542  0.42609489  0.31398285  1
  F  F24  1  0.73693511  0.57280043  0.68647429  1
  F  F25  1  0.81767818  0.91137382  0.34066326  1
  F  F26  1  0.83184453  0.70528806  0.53804071  1
  F  F27  1  0.17241969  0.78556945  0.96421368  1
  F  F28  1  0.67912176  0.35292396  0.40947559  1
  F  F29  1  0.27555496  0.95172976  0.81566943  1
  F  F30  1  0.23566674  0.30892964  0.93774928  1
  F  F31  1  0.66907759  0.83546966  0.91010800  1
