# generated using pymatgen
data_Y2(SeO4)3
_symmetry_space_group_name_H-M   'P 1'
_cell_length_a   9.61139327
_cell_length_b   9.68869151
_cell_length_c   13.16046423
_cell_angle_alpha   90.00000000
_cell_angle_beta   90.00000000
_cell_angle_gamma   90.00000000
_symmetry_Int_Tables_number   1
_chemical_formula_structural   Y2(SeO4)3
_chemical_formula_sum   'Y8 Se12 O48'
_cell_volume   1225.52643871
_cell_formula_units_Z   4
loop_
 _symmetry_equiv_pos_site_id
 _symmetry_equiv_pos_as_xyz
  1  'x, y, z'
loop_
 _atom_site_type_symbol
 _atom_site_label
 _atom_site_symmetry_multiplicity
 _atom_site_fract_x
 _atom_site_fract_y
 _atom_site_fract_z
 _atom_site_occupancy
  Y  Y0  1  0.25001798  0.96183840  0.12016120  1
  Y  Y1  1  0.74998202  0.46183840  0.12016120  1
  Y  Y2  1  0.24998202  0.46183840  0.37983880  1
  Y  Y3  1  0.75001798  0.96183840  0.37983880  1
  Y  Y4  1  0.24998202  0.03816160  0.62016120  1
  Y  Y5  1  0.75001798  0.53816160  0.62016120  1
  Y  Y6  1  0.25001798  0.53816160  0.87983880  1
  Y  Y7  1  0.74998202  0.03816160  0.87983880  1
  Se  Se8  1  0.03358201  0.25000000  -0.00000000  1
  Se  Se9  1  0.96641799  0.75000000  -0.00000000  1
  Se  Se10  1  0.39733400  0.61520263  0.14635737  1
  Se  Se11  1  0.60266600  0.11520263  0.14635737  1
  Se  Se12  1  0.10266600  0.11520263  0.35364263  1
  Se  Se13  1  0.89733400  0.61520263  0.35364263  1
  Se  Se14  1  0.46641799  0.75000000  0.50000000  1
  Se  Se15  1  0.53358201  0.25000000  0.50000000  1
  Se  Se16  1  0.10266600  0.38479737  0.64635737  1
  Se  Se17  1  0.89733400  0.88479737  0.64635737  1
  Se  Se18  1  0.39733400  0.88479737  0.85364263  1
  Se  Se19  1  0.60266600  0.38479737  0.85364263  1
  O  O20  1  0.65784481  0.08654770  0.03029631  1
  O  O21  1  0.34215519  0.58654770  0.03029631  1
  O  O22  1  0.86741094  0.64201550  0.06242073  1
  O  O23  1  0.13258906  0.14201550  0.06242073  1
  O  O24  1  0.06369743  0.83271641  0.08228884  1
  O  O25  1  0.93630257  0.33271641  0.08228884  1
  O  O26  1  0.43308118  0.09872102  0.15122459  1
  O  O27  1  0.56691882  0.59872102  0.15122459  1
  O  O28  1  0.35632649  0.77261338  0.18139278  1
  O  O29  1  0.64367351  0.27261338  0.18139278  1
  O  O30  1  0.32417141  0.50213683  0.22218980  1
  O  O31  1  0.67582859  0.00213683  0.22218980  1
  O  O32  1  0.17582859  0.00213683  0.27781020  1
  O  O33  1  0.82417141  0.50213683  0.27781020  1
  O  O34  1  0.85632649  0.77261338  0.31860722  1
  O  O35  1  0.14367351  0.27261338  0.31860722  1
  O  O36  1  0.06691882  0.59872102  0.34877541  1
  O  O37  1  0.93308118  0.09872102  0.34877541  1
  O  O38  1  0.43630257  0.33271641  0.41771116  1
  O  O39  1  0.56369743  0.83271641  0.41771116  1
  O  O40  1  0.36741094  0.64201550  0.43757927  1
  O  O41  1  0.63258906  0.14201550  0.43757927  1
  O  O42  1  0.15784481  0.08654770  0.46970369  1
  O  O43  1  0.84215519  0.58654770  0.46970369  1
  O  O44  1  0.15784481  0.41345230  0.53029631  1
  O  O45  1  0.84215519  0.91345230  0.53029631  1
  O  O46  1  0.63258906  0.35798450  0.56242073  1
  O  O47  1  0.36741094  0.85798450  0.56242073  1
  O  O48  1  0.43630257  0.16728359  0.58228884  1
  O  O49  1  0.56369743  0.66728359  0.58228884  1
  O  O50  1  0.06691882  0.90127898  0.65122459  1
  O  O51  1  0.93308118  0.40127898  0.65122459  1
  O  O52  1  0.14367351  0.22738662  0.68139278  1
  O  O53  1  0.85632649  0.72738662  0.68139278  1
  O  O54  1  0.17582859  0.49786317  0.72218980  1
  O  O55  1  0.82417141  0.99786317  0.72218980  1
  O  O56  1  0.32417141  0.99786317  0.77781020  1
  O  O57  1  0.67582859  0.49786317  0.77781020  1
  O  O58  1  0.35632649  0.72738662  0.81860722  1
  O  O59  1  0.64367351  0.22738662  0.81860722  1
  O  O60  1  0.43308118  0.40127898  0.84877541  1
  O  O61  1  0.56691882  0.90127898  0.84877541  1
  O  O62  1  0.06369743  0.66728359  0.91771116  1
  O  O63  1  0.93630257  0.16728359  0.91771116  1
  O  O64  1  0.13258906  0.35798450  0.93757927  1
  O  O65  1  0.86741094  0.85798450  0.93757927  1
  O  O66  1  0.34215519  0.91345230  0.96970369  1
  O  O67  1  0.65784481  0.41345230  0.96970369  1
