# generated using pymatgen
data_LiFeSiO4
_symmetry_space_group_name_H-M   'P 1'
_cell_length_a   5.43843419
_cell_length_b   8.16104116
_cell_length_c   18.41021638
_cell_angle_alpha   90.00000000
_cell_angle_beta   90.00000000
_cell_angle_gamma   89.99918772
_symmetry_Int_Tables_number   1
_chemical_formula_structural   LiFeSiO4
_chemical_formula_sum   'Li12 Fe12 Si12 O48'
_cell_volume   817.10588544
_cell_formula_units_Z   12
loop_
 _symmetry_equiv_pos_site_id
 _symmetry_equiv_pos_as_xyz
  1  'x, y, z'
loop_
 _atom_site_type_symbol
 _atom_site_label
 _atom_site_symmetry_multiplicity
 _atom_site_fract_x
 _atom_site_fract_y
 _atom_site_fract_z
 _atom_site_occupancy
  Li  Li0  1  0.00946122  0.08001535  0.08303787  1
  Li  Li1  1  0.50165060  0.57963244  0.08314339  1
  Li  Li2  1  0.00579983  0.41818014  0.25000140  1
  Li  Li3  1  0.50579983  0.91818014  0.24999860  1
  Li  Li4  1  0.00165060  0.07963244  0.41685661  1
  Li  Li5  1  0.50946122  0.58001535  0.41696213  1
  Li  Li6  1  0.00948522  0.41999892  0.58302827  1
  Li  Li7  1  0.50158698  0.92036390  0.58314190  1
  Li  Li8  1  0.00569300  0.08189973  0.74998971  1
  Li  Li9  1  0.50569300  0.58189973  0.75001029  1
  Li  Li10  1  0.00158698  0.42036390  0.91685810  1
  Li  Li11  1  0.50948522  0.91999892  0.91697173  1
  Fe  Fe12  1  0.00562624  0.75001688  0.00001344  1
  Fe  Fe13  1  0.50563313  0.24994776  0.00001255  1
  Fe  Fe14  1  0.50714757  0.24947596  0.16674263  1
  Fe  Fe15  1  0.00537876  0.74959455  0.16668399  1
  Fe  Fe16  1  0.50537876  0.24959455  0.33331601  1
  Fe  Fe17  1  0.00714757  0.74947596  0.33325737  1
  Fe  Fe18  1  0.00563313  0.74994776  0.49998745  1
  Fe  Fe19  1  0.50562624  0.25001688  0.49998656  1
  Fe  Fe20  1  0.50718754  0.25054616  0.66672920  1
  Fe  Fe21  1  0.00543751  0.75039645  0.66666682  1
  Fe  Fe22  1  0.50543751  0.25039645  0.83333318  1
  Fe  Fe23  1  0.00718754  0.75054616  0.83327080  1
  Si  Si24  1  0.00594944  0.40194183  0.08338129  1
  Si  Si25  1  0.50584575  0.90183541  0.08343919  1
  Si  Si26  1  0.00636841  0.09725568  0.24997723  1
  Si  Si27  1  0.50636841  0.59725568  0.25002277  1
  Si  Si28  1  0.00584575  0.40183541  0.41656081  1
  Si  Si29  1  0.50594944  0.90194183  0.41661871  1
  Si  Si30  1  0.00594211  0.09805003  0.58336316  1
  Si  Si31  1  0.50589544  0.59816772  0.58342895  1
  Si  Si32  1  0.00639872  0.40272908  0.74997317  1
  Si  Si33  1  0.50639872  0.90272908  0.75002683  1
  Si  Si34  1  0.00589544  0.09816772  0.91657105  1
  Si  Si35  1  0.50594211  0.59805003  0.91663684  1
  O  O36  1  0.50612872  0.48516467  0.98838244  1
  O  O37  1  0.00612551  0.51479869  0.01164899  1
  O  O38  1  0.50486321  0.01478569  0.01174567  1
  O  O39  1  0.74486274  0.77482919  0.08330984  1
  O  O40  1  0.26598452  0.77534153  0.08333038  1
  O  O41  1  0.24584359  0.27541162  0.08332511  1
  O  O42  1  0.76700176  0.27487264  0.08329735  1
  O  O43  1  0.00650952  0.51434721  0.15526074  1
  O  O44  1  0.50590997  0.01422835  0.15532676  1
  O  O45  1  0.00615990  0.98489373  0.17809649  1
  O  O46  1  0.50660880  0.48473048  0.17819911  1
  O  O47  1  0.26714633  0.72429451  0.24996858  1
  O  O48  1  0.74572904  0.72418567  0.25000798  1
  O  O49  1  0.76714633  0.22429451  0.25003142  1
  O  O50  1  0.24572904  0.22418567  0.24999202  1
  O  O51  1  0.00660880  0.98473048  0.32180089  1
  O  O52  1  0.50615990  0.48489373  0.32190351  1
  O  O53  1  0.00590997  0.51422835  0.34467324  1
  O  O54  1  0.50650952  0.01434721  0.34473926  1
  O  O55  1  0.26700176  0.77487264  0.41670265  1
  O  O56  1  0.74584359  0.77541162  0.41667489  1
  O  O57  1  0.76598452  0.27534153  0.41666962  1
  O  O58  1  0.24486274  0.27482919  0.41669016  1
  O  O59  1  0.00486321  0.51478569  0.48825433  1
  O  O60  1  0.50612551  0.01479869  0.48835101  1
  O  O61  1  0.00612872  0.98516467  0.51161756  1
  O  O62  1  0.50487198  0.48520205  0.51171286  1
  O  O63  1  0.74489246  0.72518256  0.58329096  1
  O  O64  1  0.26602074  0.72466181  0.58332090  1
  O  O65  1  0.24584848  0.22458031  0.58330375  1
  O  O66  1  0.76697420  0.22512609  0.58328210  1
  O  O67  1  0.00654512  0.98564438  0.65522513  1
  O  O68  1  0.50595711  0.48581221  0.65531148  1
  O  O69  1  0.00619775  0.51508927  0.67808321  1
  O  O70  1  0.50661326  0.01527484  0.67820298  1
  O  O71  1  0.74578983  0.77580995  0.75000853  1
  O  O72  1  0.26717197  0.77568456  0.74996954  1
  O  O73  1  0.24578983  0.27580995  0.74999147  1
  O  O74  1  0.76717197  0.27568456  0.75003046  1
  O  O75  1  0.00661326  0.51527484  0.82179702  1
  O  O76  1  0.50619775  0.01508927  0.82191679  1
  O  O77  1  0.00595711  0.98581221  0.84468852  1
  O  O78  1  0.50654512  0.48564438  0.84477487  1
  O  O79  1  0.26697420  0.72512609  0.91671790  1
  O  O80  1  0.74584848  0.72458031  0.91669625  1
  O  O81  1  0.76602074  0.22466181  0.91667910  1
  O  O82  1  0.24489246  0.22518256  0.91670904  1
  O  O83  1  0.00487198  0.98520205  0.98828714  1
