# generated using pymatgen
data_Ba2Ta2O7
_symmetry_space_group_name_H-M   'P 1'
_cell_length_a   13.84191431
_cell_length_b   13.84191431
_cell_length_c   5.91417615
_cell_angle_alpha   90.00000000
_cell_angle_beta   90.00000000
_cell_angle_gamma   163.16874121
_symmetry_Int_Tables_number   1
_chemical_formula_structural   Ba2Ta2O7
_chemical_formula_sum   'Ba4 Ta4 O14'
_cell_volume   328.10752679
_cell_formula_units_Z   2
loop_
 _symmetry_equiv_pos_site_id
 _symmetry_equiv_pos_as_xyz
  1  'x, y, z'
loop_
 _atom_site_type_symbol
 _atom_site_label
 _atom_site_symmetry_multiplicity
 _atom_site_fract_x
 _atom_site_fract_y
 _atom_site_fract_z
 _atom_site_occupancy
  Ba  Ba0  1  0.70268227  0.29731773  0.75000000  1
  Ba  Ba1  1  0.55276269  0.44723731  0.25000000  1
  Ba  Ba2  1  0.29731773  0.70268227  0.25000000  1
  Ba  Ba3  1  0.44723731  0.55276269  0.75000000  1
  Ta  Ta4  1  0.83829391  0.16170609  0.75000000  1
  Ta  Ta5  1  0.94341023  0.05658977  0.25000000  1
  Ta  Ta6  1  0.16170609  0.83829391  0.25000000  1
  Ta  Ta7  1  0.05658977  0.94341023  0.75000000  1
  O  O8  1  -0.00000000  0.00000000  0.50000000  1
  O  O9  1  0.89853594  0.10146406  0.49679445  1
  O  O10  1  -0.00000000  0.00000000  0.00000000  1
  O  O11  1  0.89853594  0.10146406  0.00320555  1
  O  O12  1  0.79252736  0.20747264  0.52329267  1
  O  O13  1  0.79252736  0.20747264  0.97670733  1
  O  O14  1  0.55016713  0.44983287  0.75000000  1
  O  O15  1  0.65195101  0.34804899  0.25000000  1
  O  O16  1  0.44983287  0.55016713  0.25000000  1
  O  O17  1  0.20747264  0.79252736  0.02329267  1
  O  O18  1  0.20747264  0.79252736  0.47670733  1
  O  O19  1  0.10146406  0.89853594  0.50320555  1
  O  O20  1  0.34804899  0.65195101  0.75000000  1
  O  O21  1  0.10146406  0.89853594  -0.00320555  1
