# generated using pymatgen
data_La4Al2O9
_symmetry_space_group_name_H-M   'P 1'
_cell_length_a   11.02568164
_cell_length_b   7.92385349
_cell_length_c   11.43296375
_cell_angle_alpha   70.21427153
_cell_angle_beta   90.00000000
_cell_angle_gamma   90.00000000
_symmetry_Int_Tables_number   1
_chemical_formula_structural   La4Al2O9
_chemical_formula_sum   'La16 Al8 O36'
_cell_volume   939.88395185
_cell_formula_units_Z   4
loop_
 _symmetry_equiv_pos_site_id
 _symmetry_equiv_pos_as_xyz
  1  'x, y, z'
loop_
 _atom_site_type_symbol
 _atom_site_label
 _atom_site_symmetry_multiplicity
 _atom_site_fract_x
 _atom_site_fract_y
 _atom_site_fract_z
 _atom_site_occupancy
  La  La0  1  0.62886778  0.91466300  0.92719070  1
  La  La1  1  0.87113222  0.91466300  0.42719070  1
  La  La2  1  0.41985739  0.77891324  0.68826533  1
  La  La3  1  0.90615525  0.72581054  0.79640845  1
  La  La4  1  0.08014261  0.77891324  0.18826533  1
  La  La5  1  0.12326167  0.58638170  0.58267490  1
  La  La6  1  0.59384475  0.72581054  0.29640845  1
  La  La7  1  0.62326167  0.41361830  0.91732510  1
  La  La8  1  0.37673833  0.58638170  0.08267490  1
  La  La9  1  0.40615525  0.27418946  0.70359155  1
  La  La10  1  0.87673833  0.41361830  0.41732510  1
  La  La11  1  0.91985739  0.22108676  0.81173467  1
  La  La12  1  0.09384475  0.27418946  0.20359155  1
  La  La13  1  0.58014261  0.22108676  0.31173467  1
  La  La14  1  0.12886778  0.08533700  0.57280930  1
  La  La15  1  0.37113222  0.08533700  0.07280930  1
  Al  Al16  1  0.19314671  0.97036938  0.87108180  1
  Al  Al17  1  0.30685329  0.97036938  0.37108180  1
  Al  Al18  1  0.69489505  0.59396737  0.62468367  1
  Al  Al19  1  0.19489505  0.40603263  0.87531633  1
  Al  Al20  1  0.80510495  0.59396737  0.12468367  1
  Al  Al21  1  0.30510495  0.40603263  0.37531633  1
  Al  Al22  1  0.69314671  0.02963062  0.62891820  1
  Al  Al23  1  0.80685329  0.02963062  0.12891820  1
  O  O24  1  0.04084121  0.94669869  0.83544861  1
  O  O25  1  0.28162830  0.97950757  0.73997183  1
  O  O26  1  0.00108269  0.83010689  0.60393258  1
  O  O27  1  0.72254163  0.81333133  0.62399067  1
  O  O28  1  0.50093240  0.68533889  0.89396134  1
  O  O29  1  0.45915879  0.94669869  0.33544861  1
  O  O30  1  0.21837170  0.97950757  0.23997183  1
  O  O31  1  0.76593884  0.61323868  0.97215557  1
  O  O32  1  0.26221630  0.83592859  0.51976770  1
  O  O33  1  0.28951468  0.52649736  0.75185694  1
  O  O34  1  0.49891731  0.83010689  0.10393258  1
  O  O35  1  0.77745837  0.81333133  0.12399067  1
  O  O36  1  0.04706606  0.47499186  0.82293532  1
  O  O37  1  0.99906760  0.68533889  0.39396134  1
  O  O38  1  0.54706606  0.52500814  0.67706468  1
  O  O39  1  0.73406116  0.61323868  0.47215557  1
  O  O40  1  0.78951468  0.47350264  0.74814306  1
  O  O41  1  0.23778370  0.83592859  0.01976770  1
  O  O42  1  0.76221630  0.16407141  0.98023230  1
  O  O43  1  0.21048532  0.52649736  0.25185694  1
  O  O44  1  0.26593884  0.38676132  0.52784443  1
  O  O45  1  0.45293394  0.47499186  0.32293532  1
  O  O46  1  0.00093240  0.31466111  0.60603866  1
  O  O47  1  0.95293394  0.52500814  0.17706468  1
  O  O48  1  0.22254163  0.18666867  0.87600933  1
  O  O49  1  0.50108269  0.16989311  0.89606742  1
  O  O50  1  0.71048532  0.47350264  0.24814306  1
  O  O51  1  0.73778370  0.16407141  0.48023230  1
  O  O52  1  0.23406116  0.38676132  0.02784443  1
  O  O53  1  0.78162830  0.02049243  0.76002817  1
  O  O54  1  0.54084121  0.05330131  0.66455139  1
  O  O55  1  0.49906760  0.31466111  0.10603866  1
  O  O56  1  0.27745837  0.18666867  0.37600933  1
  O  O57  1  0.99891731  0.16989311  0.39606742  1
  O  O58  1  0.71837170  0.02049243  0.26002817  1
  O  O59  1  0.95915879  0.05330131  0.16455139  1
