# generated using pymatgen
data_Li2FeCO4
_symmetry_space_group_name_H-M   'P 1'
_cell_length_a   4.93411100
_cell_length_b   7.25991701
_cell_length_c   10.48591682
_cell_angle_alpha   78.83224853
_cell_angle_beta   90.00000000
_cell_angle_gamma   90.00000000
_symmetry_Int_Tables_number   1
_chemical_formula_structural   Li2FeCO4
_chemical_formula_sum   'Li8 Fe4 C4 O16'
_cell_volume   368.50591439
_cell_formula_units_Z   4
loop_
 _symmetry_equiv_pos_site_id
 _symmetry_equiv_pos_as_xyz
  1  'x, y, z'
loop_
 _atom_site_type_symbol
 _atom_site_label
 _atom_site_symmetry_multiplicity
 _atom_site_fract_x
 _atom_site_fract_y
 _atom_site_fract_z
 _atom_site_occupancy
  Li  Li0  1  0.67301130  0.87654693  0.79651264  1
  Li  Li1  1  0.82698870  0.87654693  0.29651264  1
  Li  Li2  1  0.81729536  0.79293104  0.57675034  1
  Li  Li3  1  0.68270464  0.79293104  0.07675034  1
  Li  Li4  1  0.31729536  0.20706896  0.92324966  1
  Li  Li5  1  0.18270464  0.20706896  0.42324966  1
  Li  Li6  1  0.17301130  0.12345307  0.70348736  1
  Li  Li7  1  0.32698870  0.12345307  0.20348736  1
  Fe  Fe8  1  0.84207290  0.44921653  0.82689306  1
  Fe  Fe9  1  0.34207290  0.55078347  0.67310694  1
  Fe  Fe10  1  0.65792710  0.44921653  0.32689306  1
  Fe  Fe11  1  0.15792710  0.55078347  0.17310694  1
  C  C12  1  0.19156237  0.83678176  0.93836348  1
  C  C13  1  0.30843763  0.83678176  0.43836348  1
  C  C14  1  0.69156237  0.16321824  0.56163652  1
  C  C15  1  0.80843763  0.16321824  0.06163652  1
  O  O16  1  0.32852911  0.95990716  0.85871806  1
  O  O17  1  0.17147089  0.95990716  0.35871806  1
  O  O18  1  0.93438230  0.82934628  0.93556657  1
  O  O19  1  0.56561770  0.82934628  0.43556657  1
  O  O20  1  0.17102869  0.71769285  0.52480001  1
  O  O21  1  0.65833350  0.65196037  0.72920589  1
  O  O22  1  0.32897131  0.71769285  0.02480001  1
  O  O23  1  0.84166650  0.65196037  0.22920589  1
  O  O24  1  0.15833350  0.34803963  0.77079411  1
  O  O25  1  0.67102869  0.28230715  0.97519999  1
  O  O26  1  0.34166650  0.34803963  0.27079411  1
  O  O27  1  0.82897131  0.28230715  0.47519999  1
  O  O28  1  0.43438230  0.17065372  0.56443343  1
  O  O29  1  0.06561770  0.17065372  0.06443343  1
  O  O30  1  0.82852911  0.04009284  0.64128194  1
  O  O31  1  0.67147089  0.04009284  0.14128194  1
