# generated using pymatgen
data_V4(OF3)3
_symmetry_space_group_name_H-M   'P 1'
_cell_length_a   5.14884765
_cell_length_b   5.27838346
_cell_length_c   8.80425728
_cell_angle_alpha   74.21411401
_cell_angle_beta   89.87593388
_cell_angle_gamma   61.02841181
_symmetry_Int_Tables_number   1
_chemical_formula_structural   V4(OF3)3
_chemical_formula_sum   'V4 O3 F9'
_cell_volume   199.03866552
_cell_formula_units_Z   1
loop_
 _symmetry_equiv_pos_site_id
 _symmetry_equiv_pos_as_xyz
  1  'x, y, z'
loop_
 _atom_site_type_symbol
 _atom_site_label
 _atom_site_symmetry_multiplicity
 _atom_site_fract_x
 _atom_site_fract_y
 _atom_site_fract_z
 _atom_site_occupancy
  V  V0  1  0.74873286  0.50232957  0.25018353  1
  V  V1  1  0.49733913  0.97068760  0.49499323  1
  V  V2  1  0.26635035  0.51822359  0.74577324  1
  V  V3  1  0.00246329  0.02597220  0.00821168  1
  O  O4  1  0.95928128  0.23880158  0.12503940  1
  O  O5  1  0.53940136  0.76549042  0.37267303  1
  O  O6  1  0.41455215  0.73674929  0.66861226  1
  F  F7  1  0.91990930  0.75504407  0.57688600  1
  F  F8  1  0.94046086  0.73289625  0.17219508  1
  F  F9  1  0.43366768  0.75055443  0.07029158  1
  F  F10  1  0.56405608  0.26743785  0.33077921  1
  F  F11  1  0.57595695  0.23309266  0.92697050  1
  F  F12  1  0.46305292  0.23645206  0.62676378  1
  F  F13  1  0.03629149  0.74940614  0.88065444  1
  F  F14  1  0.07134465  0.26268698  0.82256408  1
  F  F15  1  0.06714066  0.25417431  0.42740696  1
