# generated using pymatgen
data_Sn2(SO4)3
_symmetry_space_group_name_H-M   'P 1'
_cell_length_a   9.50476519
_cell_length_b   9.50476519
_cell_length_c   9.50476528
_cell_angle_alpha   52.51885514
_cell_angle_beta   52.51885515
_cell_angle_gamma   52.51885582
_symmetry_Int_Tables_number   1
_chemical_formula_structural   Sn2(SO4)3
_chemical_formula_sum   'Sn4 S6 O24'
_cell_volume   500.53967615
_cell_formula_units_Z   2
loop_
 _symmetry_equiv_pos_site_id
 _symmetry_equiv_pos_as_xyz
  1  'x, y, z'
loop_
 _atom_site_type_symbol
 _atom_site_label
 _atom_site_symmetry_multiplicity
 _atom_site_fract_x
 _atom_site_fract_y
 _atom_site_fract_z
 _atom_site_occupancy
  Sn  Sn0  1  0.86443599  0.86443599  0.86443599  1
  Sn  Sn1  1  0.66207454  0.66207454  0.66207454  1
  Sn  Sn2  1  0.33792546  0.33792546  0.33792546  1
  Sn  Sn3  1  0.13556401  0.13556401  0.13556401  1
  S  S4  1  0.26637636  0.56503290  0.93821732  1
  S  S5  1  0.06178268  0.73362364  0.43496710  1
  S  S6  1  0.43496710  0.06178268  0.73362364  1
  S  S7  1  0.56503290  0.93821732  0.26637636  1
  S  S8  1  0.93821732  0.26637636  0.56503290  1
  S  S9  1  0.73362364  0.43496710  0.06178268  1
  O  O10  1  0.48017436  0.85572483  0.79052357  1
  O  O11  1  0.79052357  0.48017436  0.85572483  1
  O  O12  1  0.23067540  0.44522235  0.92842872  1
  O  O13  1  0.15969629  0.76921422  0.85526015  1
  O  O14  1  0.85572483  0.79052357  0.48017436  1
  O  O15  1  0.23078578  0.14473985  0.84030371  1
  O  O16  1  0.07157128  0.76932460  0.55477765  1
  O  O17  1  0.47729695  0.52351802  0.84094163  1
  O  O18  1  0.15905837  0.52270305  0.47648198  1
  O  O19  1  0.55477765  0.07157128  0.76932460  1
  O  O20  1  0.14473985  0.84030371  0.23078578  1
  O  O21  1  0.47648198  0.15905837  0.52270305  1
  O  O22  1  0.52351802  0.84094163  0.47729695  1
  O  O23  1  0.85526015  0.15969629  0.76921422  1
  O  O24  1  0.44522235  0.92842872  0.23067540  1
  O  O25  1  0.84094163  0.47729695  0.52351802  1
  O  O26  1  0.52270305  0.47648198  0.15905837  1
  O  O27  1  0.92842872  0.23067540  0.44522235  1
  O  O28  1  0.76921422  0.85526015  0.15969629  1
  O  O29  1  0.14427517  0.20947643  0.51982564  1
  O  O30  1  0.84030371  0.23078578  0.14473985  1
  O  O31  1  0.76932460  0.55477765  0.07157128  1
  O  O32  1  0.20947643  0.51982564  0.14427517  1
  O  O33  1  0.51982564  0.14427517  0.20947643  1
