# generated using pymatgen
data_V2SnO7
_symmetry_space_group_name_H-M   'P 1'
_cell_length_a   8.79270642
_cell_length_b   8.79270642
_cell_length_c   8.79270642
_cell_angle_alpha   90.00000000
_cell_angle_beta   90.00000000
_cell_angle_gamma   90.00000000
_symmetry_Int_Tables_number   1
_chemical_formula_structural   V2SnO7
_chemical_formula_sum   'V8 Sn4 O28'
_cell_volume   679.77895949
_cell_formula_units_Z   4
loop_
 _symmetry_equiv_pos_site_id
 _symmetry_equiv_pos_as_xyz
  1  'x, y, z'
loop_
 _atom_site_type_symbol
 _atom_site_label
 _atom_site_symmetry_multiplicity
 _atom_site_fract_x
 _atom_site_fract_y
 _atom_site_fract_z
 _atom_site_occupancy
  V  V0  1  0.11614437  0.88385563  0.38385563  1
  V  V1  1  0.11614437  0.61614437  0.88385563  1
  V  V2  1  0.38385563  0.38385563  0.38385563  1
  V  V3  1  0.38385563  0.11614437  0.88385563  1
  V  V4  1  0.61614437  0.61614437  0.61614437  1
  V  V5  1  0.61614437  0.88385563  0.11614437  1
  V  V6  1  0.88385563  0.11614437  0.61614437  1
  V  V7  1  0.88385563  0.38385563  0.11614437  1
  Sn  Sn8  1  0.00000000  0.00000000  -0.00000000  1
  Sn  Sn9  1  0.00000000  0.50000000  0.50000000  1
  Sn  Sn10  1  0.50000000  0.00000000  0.50000000  1
  Sn  Sn11  1  0.50000000  0.50000000  -0.00000000  1
  O  O12  1  0.00000000  0.00000000  0.50000000  1
  O  O13  1  0.00000000  0.50000000  -0.00000000  1
  O  O14  1  0.06129047  0.70053939  0.40295299  1
  O  O15  1  0.06129047  0.79946061  0.90295299  1
  O  O16  1  0.09704701  0.56129047  0.70053939  1
  O  O17  1  0.09704701  0.93870953  0.20053939  1
  O  O18  1  0.20053939  0.09704701  0.93870953  1
  O  O19  1  0.20053939  0.40295299  0.43870953  1
  O  O20  1  0.29946061  0.59704701  0.93870953  1
  O  O21  1  0.29946061  0.90295299  0.43870953  1
  O  O22  1  0.40295299  0.06129047  0.70053939  1
  O  O23  1  0.40295299  0.43870953  0.20053939  1
  O  O24  1  0.43870953  0.29946061  0.90295299  1
  O  O25  1  0.43870953  0.20053939  0.40295299  1
  O  O26  1  0.50000000  0.50000000  0.50000000  1
  O  O27  1  0.50000000  0.00000000  -0.00000000  1
  O  O28  1  0.56129047  0.70053939  0.09704701  1
  O  O29  1  0.56129047  0.79946061  0.59704701  1
  O  O30  1  0.59704701  0.56129047  0.79946061  1
  O  O31  1  0.59704701  0.93870953  0.29946061  1
  O  O32  1  0.70053939  0.09704701  0.56129047  1
  O  O33  1  0.70053939  0.40295299  0.06129047  1
  O  O34  1  0.79946061  0.59704701  0.56129047  1
  O  O35  1  0.79946061  0.90295299  0.06129047  1
  O  O36  1  0.90295299  0.06129047  0.79946061  1
  O  O37  1  0.90295299  0.43870953  0.29946061  1
  O  O38  1  0.93870953  0.20053939  0.09704701  1
  O  O39  1  0.93870953  0.29946061  0.59704701  1
