# generated using pymatgen
data_Bi14SO24
_symmetry_space_group_name_H-M   'P 1'
_cell_length_a   10.55231684
_cell_length_b   10.55231684
_cell_length_c   8.66058696
_cell_angle_alpha   65.81009098
_cell_angle_beta   65.81009098
_cell_angle_gamma   109.01012589
_symmetry_Int_Tables_number   1
_chemical_formula_structural   Bi14SO24
_chemical_formula_sum   'Bi14 S1 O24'
_cell_volume   645.98347565
_cell_formula_units_Z   1
loop_
 _symmetry_equiv_pos_site_id
 _symmetry_equiv_pos_as_xyz
  1  'x, y, z'
loop_
 _atom_site_type_symbol
 _atom_site_label
 _atom_site_symmetry_multiplicity
 _atom_site_fract_x
 _atom_site_fract_y
 _atom_site_fract_z
 _atom_site_occupancy
  Bi  Bi0  1  0.21456155  0.21456155  0.23242752  1
  Bi  Bi1  1  0.46758472  0.12708538  0.81548855  1
  Bi  Bi2  1  0.72299739  0.06110848  0.40395293  1
  Bi  Bi3  1  0.45033079  0.45033079  0.33791617  1
  Bi  Bi4  1  0.66169000  0.34346020  0.99385572  1
  Bi  Bi5  1  0.55790759  0.55790759  0.65178301  1
  Bi  Bi6  1  0.94387814  0.27789089  0.59640317  1
  Bi  Bi7  1  0.87362053  0.53748426  0.18943385  1
  Bi  Bi8  1  0.79288761  0.79288761  0.76473745  1
  Bi  Bi9  1  0.12708538  0.46758472  0.81548855  1
  Bi  Bi10  1  0.06110848  0.72299739  0.40395293  1
  Bi  Bi11  1  0.34346020  0.66169000  0.99385572  1
  Bi  Bi12  1  0.27789089  0.94387814  0.59640317  1
  Bi  Bi13  1  0.53748426  0.87362053  0.18943385  1
  S  S14  1  0.96641340  0.96641340  0.00646630  1
  O  O15  1  0.49643932  0.00812764  0.32753845  1
  O  O16  1  0.39755109  0.24238669  0.30522828  1
  O  O17  1  0.45335647  0.29578897  0.94485037  1
  O  O18  1  0.67335250  0.18396030  0.82875902  1
  O  O19  1  0.62157889  0.37911292  0.49997882  1
  O  O20  1  0.87796624  0.11950262  0.50404792  1
  O  O21  1  0.97000394  0.11110417  0.99481649  1
  O  O22  1  0.82573265  0.33557741  0.17084850  1
  O  O23  1  0.70572606  0.54974711  0.05627664  1
  O  O24  1  0.76171089  0.60326921  0.68989158  1
  O  O25  1  0.00812764  0.49643932  0.32753845  1
  O  O26  1  0.99244607  0.50460454  0.67633366  1
  O  O27  1  0.24238669  0.39755109  0.30522828  1
  O  O28  1  0.79986815  0.79986815  0.21370690  1
  O  O29  1  0.29578897  0.45335647  0.94485037  1
  O  O30  1  0.18396030  0.67335250  0.82875902  1
  O  O31  1  0.98098723  0.98098723  0.82035274  1
  O  O32  1  0.11950262  0.87796624  0.50404792  1
  O  O33  1  0.37911292  0.62157889  0.49997882  1
  O  O34  1  0.11110417  0.97000394  0.99481649  1
  O  O35  1  0.33557741  0.82573265  0.17084850  1
  O  O36  1  0.54974711  0.70572606  0.05627664  1
  O  O37  1  0.60326921  0.76171089  0.68989158  1
  O  O38  1  0.50460454  0.99244607  0.67633366  1
