# generated using pymatgen
data_BaNa6O4
_symmetry_space_group_name_H-M   'P 1'
_cell_length_a   8.03037028
_cell_length_b   8.03037028
_cell_length_c   5.61166541
_cell_angle_alpha   90.00000000
_cell_angle_beta   90.00000000
_cell_angle_gamma   90.00000000
_symmetry_Int_Tables_number   1
_chemical_formula_structural   BaNa6O4
_chemical_formula_sum   'Ba2 Na12 O8'
_cell_volume   361.87860778
_cell_formula_units_Z   2
loop_
 _symmetry_equiv_pos_site_id
 _symmetry_equiv_pos_as_xyz
  1  'x, y, z'
loop_
 _atom_site_type_symbol
 _atom_site_label
 _atom_site_symmetry_multiplicity
 _atom_site_fract_x
 _atom_site_fract_y
 _atom_site_fract_z
 _atom_site_occupancy
  Ba  Ba0  1  0.50000000  0.50000000  0.00000000  1
  Ba  Ba1  1  0.00000000  0.00000000  0.50000000  1
  Na  Na2  1  0.28560642  0.28560642  0.50000000  1
  Na  Na3  1  0.71439358  0.28560642  0.50000000  1
  Na  Na4  1  0.00000000  0.50000000  0.48428730  1
  Na  Na5  1  0.00000000  0.50000000  0.98428730  1
  Na  Na6  1  0.28560642  0.71439358  0.50000000  1
  Na  Na7  1  0.71439358  0.71439358  0.50000000  1
  Na  Na8  1  0.78560642  0.78560642  0.00000000  1
  Na  Na9  1  0.21439358  0.78560642  0.00000000  1
  Na  Na10  1  0.50000000  0.00000000  0.01571270  1
  Na  Na11  1  0.50000000  0.00000000  0.51571270  1
  Na  Na12  1  0.78560642  0.21439358  0.00000000  1
  Na  Na13  1  0.21439358  0.21439358  0.00000000  1
  O  O14  1  0.00000000  0.27025884  0.73565540  1
  O  O15  1  0.77025884  0.50000000  0.23565540  1
  O  O16  1  0.22974116  0.50000000  0.23565540  1
  O  O17  1  0.00000000  0.72974116  0.73565540  1
  O  O18  1  0.50000000  0.77025884  0.76434460  1
  O  O19  1  0.72974116  0.00000000  0.26434460  1
  O  O20  1  0.27025884  0.00000000  0.26434460  1
  O  O21  1  0.50000000  0.22974116  0.76434460  1
