# generated using pymatgen
data_NaSbO2
_symmetry_space_group_name_H-M   'P 1'
_cell_length_a   5.30604116
_cell_length_b   5.30604116
_cell_length_c   5.53484260
_cell_angle_alpha   63.85544827
_cell_angle_beta   116.14455173
_cell_angle_gamma   89.86936355
_symmetry_Int_Tables_number   1
_chemical_formula_structural   NaSbO2
_chemical_formula_sum   'Na2 Sb2 O4'
_cell_volume   121.78431751
_cell_formula_units_Z   2
loop_
 _symmetry_equiv_pos_site_id
 _symmetry_equiv_pos_as_xyz
  1  'x, y, z'
loop_
 _atom_site_type_symbol
 _atom_site_label
 _atom_site_symmetry_multiplicity
 _atom_site_fract_x
 _atom_site_fract_y
 _atom_site_fract_z
 _atom_site_occupancy
  Na  Na0  1  0.37826614  0.37826614  0.75000000  1
  Na  Na1  1  0.62173386  0.62173386  0.25000000  1
  Sb  Sb2  1  0.88768735  0.88768735  0.75000000  1
  Sb  Sb3  1  0.11231265  0.11231265  0.25000000  1
  O  O4  1  0.25719719  0.85709052  0.74550395  1
  O  O5  1  0.14290948  0.74280281  0.24550395  1
  O  O6  1  0.85709052  0.25719719  0.75449605  1
  O  O7  1  0.74280281  0.14290948  0.25449605  1
