# generated using pymatgen
data_TmAsO4
_symmetry_space_group_name_H-M   'P 1'
_cell_length_a   5.82989327
_cell_length_b   5.82989327
_cell_length_c   5.82989327
_cell_angle_alpha   106.67123349
_cell_angle_beta   106.66861546
_cell_angle_gamma   115.23200115
_symmetry_Int_Tables_number   1
_chemical_formula_structural   TmAsO4
_chemical_formula_sum   'Tm2 As2 O8'
_cell_volume   151.36353517
_cell_formula_units_Z   2
loop_
 _symmetry_equiv_pos_site_id
 _symmetry_equiv_pos_as_xyz
  1  'x, y, z'
loop_
 _atom_site_type_symbol
 _atom_site_label
 _atom_site_symmetry_multiplicity
 _atom_site_fract_x
 _atom_site_fract_y
 _atom_site_fract_z
 _atom_site_occupancy
  Tm  Tm0  1  0.87497176  0.12497176  0.75000000  1
  Tm  Tm1  1  0.12502824  0.87502824  0.25000000  1
  As  As2  1  0.62499839  0.37499839  0.25000000  1
  As  As3  1  0.37500161  0.62500161  0.75000000  1
  O  O4  1  0.80307909  0.36966446  0.06658537  1
  O  O5  1  0.26351672  0.19694145  0.06657528  1
  O  O6  1  0.63036517  0.19694145  0.43342472  1
  O  O7  1  0.80307909  0.73649572  0.43341463  1
  O  O8  1  0.19692091  0.26350428  0.56658537  1
  O  O9  1  0.36963483  0.80305855  0.56657528  1
  O  O10  1  0.73648328  0.80305855  0.93342472  1
  O  O11  1  0.19692091  0.63033554  0.93341463  1
