# generated using pymatgen
data_V4(OF3)3
_symmetry_space_group_name_H-M   'P 1'
_cell_length_a   5.09555291
_cell_length_b   5.27806315
_cell_length_c   16.97643336
_cell_angle_alpha   89.05152072
_cell_angle_beta   98.06766103
_cell_angle_gamma   118.70784450
_symmetry_Int_Tables_number   1
_chemical_formula_structural   V4(OF3)3
_chemical_formula_sum   'V8 O6 F18'
_cell_volume   395.80934365
_cell_formula_units_Z   2
loop_
 _symmetry_equiv_pos_site_id
 _symmetry_equiv_pos_as_xyz
  1  'x, y, z'
loop_
 _atom_site_type_symbol
 _atom_site_label
 _atom_site_symmetry_multiplicity
 _atom_site_fract_x
 _atom_site_fract_y
 _atom_site_fract_z
 _atom_site_occupancy
  V  V0  1  0.75556188  0.37933652  0.12520517  1
  V  V1  1  0.73663026  0.89213734  0.62955088  1
  V  V2  1  0.52764112  0.73206889  0.25141004  1
  V  V3  1  0.49700227  0.23159548  0.74909267  1
  V  V4  1  0.21573341  0.09601442  0.37460727  1
  V  V5  1  0.24565670  0.65133723  0.86907104  1
  V  V6  1  0.98781239  0.02548367  -0.00023772  1
  V  V7  1  0.96672541  0.46987795  0.50558683  1
  O  O8  1  0.78487279  0.19225407  0.56075636  1
  O  O9  1  0.85213302  0.21185871  0.04069778  1
  O  O10  1  0.84973404  0.90878041  0.33556125  1
  O  O11  1  0.65526087  0.54199257  0.20731730  1
  O  O12  1  0.67128020  0.05090914  0.70746902  1
  O  O13  1  0.28517481  0.92564305  0.81227363  1
  F  F14  1  0.33560455  0.15501604  0.08390322  1
  F  F15  1  0.77598619  0.68256454  0.05911097  1
  F  F16  1  0.73109961  0.07115982  0.18906114  1
  F  F17  1  0.35196464  0.96322326  0.29228147  1
  F  F18  1  0.31824389  0.65920867  0.58941114  1
  F  F19  1  0.32040982  0.45283973  0.78542130  1
  F  F20  1  0.17385281  0.60503449  0.16559947  1
  F  F21  1  0.17500924  0.09418278  0.66016683  1
  F  F22  1  0.17989535  0.29120227  0.46404679  1
  F  F23  1  0.27491815  0.43698568  0.31516810  1
  F  F24  1  0.73231602  0.57213477  0.68841925  1
  F  F25  1  0.81920875  0.71637371  0.54002470  1
  F  F26  1  0.81424560  0.40574582  0.83890224  1
  F  F27  1  0.17223622  0.79019803  0.96214051  1
  F  F28  1  0.66566663  0.33790054  0.41248826  1
  F  F29  1  0.22628880  0.31751502  0.93213910  1
  F  F30  1  0.22351861  0.80601741  0.44396568  1
  F  F31  1  0.67831097  0.83340796  0.90938229  1
