# generated using pymatgen
data_VOF
_symmetry_space_group_name_H-M   'P 1'
_cell_length_a   4.91156115
_cell_length_b   6.37045333
_cell_length_c   4.91764892
_cell_angle_alpha   71.62095267
_cell_angle_beta   100.06162381
_cell_angle_gamma   71.58481997
_symmetry_Int_Tables_number   1
_chemical_formula_structural   VOF
_chemical_formula_sum   'V4 O4 F4'
_cell_volume   131.95585454
_cell_formula_units_Z   4
loop_
 _symmetry_equiv_pos_site_id
 _symmetry_equiv_pos_as_xyz
  1  'x, y, z'
loop_
 _atom_site_type_symbol
 _atom_site_label
 _atom_site_symmetry_multiplicity
 _atom_site_fract_x
 _atom_site_fract_y
 _atom_site_fract_z
 _atom_site_occupancy
  V  V0  1  0.41374578  0.17261500  0.16395304  1
  V  V1  1  0.08627195  0.82736831  0.33624912  1
  V  V2  1  0.91369740  0.17267563  0.66373348  1
  V  V3  1  0.58621112  0.82745648  0.83600234  1
  O  O4  1  0.78246092  0.93332430  0.53240255  1
  O  O5  1  0.28269152  0.93294008  0.03268694  1
  O  O6  1  0.71721504  0.06703051  0.96719652  1
  O  O7  1  0.21744384  0.06662499  0.46753450  1
  F  F8  1  0.05303649  0.39318723  0.80295478  1
  F  F9  1  0.55290602  0.39343942  0.30279596  1
  F  F10  1  0.44720774  0.60654403  0.69734114  1
  F  F11  1  0.94711318  0.60679401  0.19715062  1
