# generated using pymatgen
data_Tm2GeO5
_symmetry_space_group_name_H-M   'P 1'
_cell_length_a   3.62622659
_cell_length_b   10.09695298
_cell_length_c   10.91803331
_cell_angle_alpha   90.00000000
_cell_angle_beta   90.00000000
_cell_angle_gamma   90.00000000
_symmetry_Int_Tables_number   1
_chemical_formula_structural   Tm2GeO5
_chemical_formula_sum   'Tm8 Ge4 O20'
_cell_volume   399.75111789
_cell_formula_units_Z   4
loop_
 _symmetry_equiv_pos_site_id
 _symmetry_equiv_pos_as_xyz
  1  'x, y, z'
loop_
 _atom_site_type_symbol
 _atom_site_label
 _atom_site_symmetry_multiplicity
 _atom_site_fract_x
 _atom_site_fract_y
 _atom_site_fract_z
 _atom_site_occupancy
  Tm  Tm0  1  0.25000000  0.11093915  0.77929965  1
  Tm  Tm1  1  0.25000000  0.13595989  0.44440957  1
  Tm  Tm2  1  0.75000000  0.36404011  0.94440957  1
  Tm  Tm3  1  0.75000000  0.38906085  0.27929965  1
  Tm  Tm4  1  0.25000000  0.61093915  0.72070035  1
  Tm  Tm5  1  0.25000000  0.63595989  0.05559043  1
  Tm  Tm6  1  0.75000000  0.86404011  0.55559043  1
  Tm  Tm7  1  0.75000000  0.88906085  0.22070035  1
  Ge  Ge8  1  0.25000000  0.17487708  0.12073654  1
  Ge  Ge9  1  0.75000000  0.32512292  0.62073654  1
  Ge  Ge10  1  0.25000000  0.67487708  0.37926346  1
  Ge  Ge11  1  0.75000000  0.82512292  0.87926346  1
  O  O12  1  0.25000000  0.99243697  0.60536501  1
  O  O13  1  0.25000000  0.00625621  0.15481173  1
  O  O14  1  0.75000000  0.23283073  0.11828875  1
  O  O15  1  0.75000000  0.24333553  0.77020945  1
  O  O16  1  0.25000000  0.22375970  0.96131672  1
  O  O17  1  0.75000000  0.27624030  0.46131672  1
  O  O18  1  0.25000000  0.25666447  0.27020945  1
  O  O19  1  0.25000000  0.26716927  0.61828875  1
  O  O20  1  0.75000000  0.49374379  0.65481173  1
  O  O21  1  0.75000000  0.50756303  0.10536501  1
  O  O22  1  0.25000000  0.49243697  0.89463499  1
  O  O23  1  0.25000000  0.50625621  0.34518827  1
  O  O24  1  0.75000000  0.73283073  0.38171125  1
  O  O25  1  0.75000000  0.74333553  0.72979055  1
  O  O26  1  0.25000000  0.72375970  0.53868328  1
  O  O27  1  0.75000000  0.77624030  0.03868328  1
  O  O28  1  0.25000000  0.75666447  0.22979055  1
  O  O29  1  0.25000000  0.76716927  0.88171125  1
  O  O30  1  0.75000000  0.99374379  0.84518827  1
  O  O31  1  0.75000000  0.00756303  0.39463499  1
