# generated using pymatgen
data_Ti3N2O3
_symmetry_space_group_name_H-M   'P 1'
_cell_length_a   5.23863649
_cell_length_b   5.23863649
_cell_length_c   9.84029644
_cell_angle_alpha   90.00000000
_cell_angle_beta   90.00000000
_cell_angle_gamma   137.16186867
_symmetry_Int_Tables_number   1
_chemical_formula_structural   Ti3N2O3
_chemical_formula_sum   'Ti6 N4 O6'
_cell_volume   183.61517494
_cell_formula_units_Z   2
loop_
 _symmetry_equiv_pos_site_id
 _symmetry_equiv_pos_as_xyz
  1  'x, y, z'
loop_
 _atom_site_type_symbol
 _atom_site_label
 _atom_site_symmetry_multiplicity
 _atom_site_fract_x
 _atom_site_fract_y
 _atom_site_fract_z
 _atom_site_occupancy
  Ti  Ti0  1  0.80077637  0.19922363  0.25000000  1
  Ti  Ti1  1  0.85656020  0.14343980  0.94673277  1
  Ti  Ti2  1  0.85656020  0.14343980  0.55326723  1
  Ti  Ti3  1  0.19922363  0.80077637  0.75000000  1
  Ti  Ti4  1  0.14343980  0.85656020  0.05326723  1
  Ti  Ti5  1  0.14343980  0.85656020  0.44673277  1
  N  N6  1  0.69234345  0.30765655  0.42293117  1
  N  N7  1  0.69234345  0.30765655  0.07706883  1
  N  N8  1  0.30765655  0.69234345  0.57706883  1
  N  N9  1  0.30765655  0.69234345  0.92293117  1
  O  O10  1  0.75137857  0.24862143  0.75000000  1
  O  O11  1  0.95498886  0.04501114  0.11819426  1
  O  O12  1  0.95498886  0.04501114  0.38180574  1
  O  O13  1  0.04501114  0.95498886  0.88180574  1
  O  O14  1  0.24862143  0.75137857  0.25000000  1
  O  O15  1  0.04501114  0.95498886  0.61819426  1
