# generated using pymatgen
data_Sr5Ta4O15
_symmetry_space_group_name_H-M   'P 1'
_cell_length_a   5.67053500
_cell_length_b   5.67053458
_cell_length_c   23.06224154
_cell_angle_alpha   90.00001753
_cell_angle_beta   89.99999065
_cell_angle_gamma   120.00001611
_symmetry_Int_Tables_number   1
_chemical_formula_structural   Sr5Ta4O15
_chemical_formula_sum   'Sr10 Ta8 O30'
_cell_volume   642.21451375
_cell_formula_units_Z   2
loop_
 _symmetry_equiv_pos_site_id
 _symmetry_equiv_pos_as_xyz
  1  'x, y, z'
loop_
 _atom_site_type_symbol
 _atom_site_label
 _atom_site_symmetry_multiplicity
 _atom_site_fract_x
 _atom_site_fract_y
 _atom_site_fract_z
 _atom_site_occupancy
  Sr  Sr0  1  0.33333344  0.66666604  0.63971851  1
  Sr  Sr1  1  0.33333333  0.66666660  0.97180643  1
  Sr  Sr2  1  0.00000086  0.00000078  0.74999249  1
  Sr  Sr3  1  -0.00000061  -0.00000061  0.25001113  1
  Sr  Sr4  1  0.33333329  0.66666653  0.47179394  1
  Sr  Sr5  1  0.33333327  0.66666694  0.13973173  1
  Sr  Sr6  1  0.66666690  0.33333367  0.52819355  1
  Sr  Sr7  1  0.66666626  0.33333293  0.86027060  1
  Sr  Sr8  1  0.66666625  0.33333326  0.02819724  1
  Sr  Sr9  1  0.66666668  0.33333355  0.36027942  1
  Ta  Ta10  1  0.33333334  0.66666706  0.80212165  1
  Ta  Ta11  1  0.00000032  -0.00000014  0.59208957  1
  Ta  Ta12  1  -0.00000041  0.00000001  0.90790990  1
  Ta  Ta13  1  0.00000002  -0.00000008  0.09210384  1
  Ta  Ta14  1  -0.00000025  0.00000001  0.40791444  1
  Ta  Ta15  1  0.33333302  0.66666654  0.30213915  1
  Ta  Ta16  1  0.66666724  0.33333315  0.69786431  1
  Ta  Ta17  1  0.66666663  0.33333310  0.19787700  1
  O  O18  1  0.10115480  0.76912926  0.05597540  1
  O  O19  1  0.12085396  0.79033841  0.84553567  1
  O  O20  1  -0.00000818  0.54066885  0.25000532  1
  O  O21  1  -0.00000943  0.45933143  0.74999217  1
  O  O22  1  0.20966689  0.87914878  0.34554359  1
  O  O23  1  0.23089261  0.89883243  0.55595549  1
  O  O24  1  0.10116742  0.33206019  0.55595564  1
  O  O25  1  0.12085133  0.33051869  0.34554369  1
  O  O26  1  0.20966169  0.33051618  0.84553572  1
  O  O27  1  0.23087090  0.33202515  0.05597542  1
  O  O28  1  0.33204627  0.23087848  0.44403350  1
  O  O29  1  0.66797469  0.89884517  0.05597545  1
  O  O30  1  0.66948401  0.87914613  0.84553581  1
  O  O31  1  0.33051184  0.20966163  0.65444931  1
  O  O32  1  0.45933120  0.45932323  0.25000532  1
  O  O33  1  0.54066898  0.54065900  0.74999221  1
  O  O34  1  0.66948143  0.79033301  0.34554371  1
  O  O35  1  0.33051403  0.12084983  0.15446877  1
  O  O36  1  0.33205610  0.10116218  0.94403680  1
  O  O37  1  0.66794044  0.76910736  0.55595557  1
  O  O38  1  0.76910541  0.66794390  0.94403682  1
  O  O39  1  0.79033583  0.66948580  0.15446882  1
  O  O40  1  0.45934117  0.00001005  0.74999227  1
  O  O41  1  0.54067695  0.00000799  0.25000529  1
  O  O42  1  0.87915080  0.66948814  0.65444916  1
  O  O43  1  0.89883176  0.66795334  0.44403347  1
  O  O44  1  0.76912180  0.10116850  0.44403356  1
  O  O45  1  0.79033826  0.12084890  0.65444948  1
  O  O46  1  0.87915024  0.20966399  0.15446881  1
  O  O47  1  0.89883723  0.23089366  0.94403686  1
