# generated using pymatgen
data_Li3VF6
_symmetry_space_group_name_H-M   'P 1'
_cell_length_a   4.98831311
_cell_length_b   8.42172822
_cell_length_c   9.45556537
_cell_angle_alpha   90.00000000
_cell_angle_beta   90.00000000
_cell_angle_gamma   90.00000000
_symmetry_Int_Tables_number   1
_chemical_formula_structural   Li3VF6
_chemical_formula_sum   'Li12 V4 F24'
_cell_volume   397.23035578
_cell_formula_units_Z   4
loop_
 _symmetry_equiv_pos_site_id
 _symmetry_equiv_pos_as_xyz
  1  'x, y, z'
loop_
 _atom_site_type_symbol
 _atom_site_label
 _atom_site_symmetry_multiplicity
 _atom_site_fract_x
 _atom_site_fract_y
 _atom_site_fract_z
 _atom_site_occupancy
  Li  Li0  1  0.49656253  0.44519287  0.10173559  1
  Li  Li1  1  0.00563045  0.86165785  0.12507120  1
  Li  Li2  1  0.50074685  0.04885627  0.14696268  1
  Li  Li3  1  0.00074685  0.54885627  0.35303732  1
  Li  Li4  1  0.50563045  0.36165785  0.37492880  1
  Li  Li5  1  0.99656253  0.94519287  0.39826441  1
  Li  Li6  1  0.49656253  0.05480713  0.60173559  1
  Li  Li7  1  0.00563045  0.63834215  0.62507120  1
  Li  Li8  1  0.50074685  0.45114373  0.64696268  1
  Li  Li9  1  0.00074685  0.95114373  0.85303732  1
  Li  Li10  1  0.50563045  0.13834215  0.87492880  1
  Li  Li11  1  0.99656253  0.55480713  0.89826441  1
  V  V12  1  0.99928331  0.23945074  0.12934119  1
  V  V13  1  0.49928331  0.73945074  0.37065881  1
  V  V14  1  0.99928331  0.26054926  0.62934119  1
  V  V15  1  0.49928331  0.76054926  0.87065881  1
  F  F16  1  0.81830388  0.08057490  0.00807140  1
  F  F17  1  0.33176468  0.24532954  0.02242127  1
  F  F18  1  0.84477785  0.40851887  0.02101674  1
  F  F19  1  0.14842584  0.05816160  0.23136783  1
  F  F20  1  0.67659798  0.23189093  0.24190973  1
  F  F21  1  0.18511765  0.39089052  0.25252484  1
  F  F22  1  0.68511765  0.89089052  0.24747516  1
  F  F23  1  0.17659798  0.73189093  0.25809027  1
  F  F24  1  0.64842584  0.55816160  0.26863217  1
  F  F25  1  0.34477785  0.90851887  0.47898326  1
  F  F26  1  0.83176468  0.74532954  0.47757873  1
  F  F27  1  0.31830388  0.58057490  0.49192860  1
  F  F28  1  0.81830388  0.41942510  0.50807140  1
  F  F29  1  0.33176468  0.25467046  0.52242127  1
  F  F30  1  0.84477785  0.09148113  0.52101674  1
  F  F31  1  0.14842584  0.44183840  0.73136783  1
  F  F32  1  0.67659798  0.26810907  0.74190973  1
  F  F33  1  0.18511765  0.10910948  0.75252484  1
  F  F34  1  0.68511765  0.60910948  0.74747516  1
  F  F35  1  0.17659798  0.76810907  0.75809027  1
  F  F36  1  0.64842584  0.94183840  0.76863217  1
  F  F37  1  0.34477785  0.59148113  0.97898326  1
  F  F38  1  0.83176468  0.75467046  0.97757873  1
  F  F39  1  0.31830388  0.91942510  0.99192860  1
