# generated using pymatgen
data_Sm2Se2O
_symmetry_space_group_name_H-M   'P 1'
_cell_length_a   4.01049616
_cell_length_b   7.14528088
_cell_length_c   16.34677285
_cell_angle_alpha   90.00000000
_cell_angle_beta   90.00000000
_cell_angle_gamma   90.00000000
_symmetry_Int_Tables_number   1
_chemical_formula_structural   Sm2Se2O
_chemical_formula_sum   'Sm8 Se8 O4'
_cell_volume   468.43510944
_cell_formula_units_Z   4
loop_
 _symmetry_equiv_pos_site_id
 _symmetry_equiv_pos_as_xyz
  1  'x, y, z'
loop_
 _atom_site_type_symbol
 _atom_site_label
 _atom_site_symmetry_multiplicity
 _atom_site_fract_x
 _atom_site_fract_y
 _atom_site_fract_z
 _atom_site_occupancy
  Sm  Sm0  1  0.25000000  0.69820257  0.03821992  1
  Sm  Sm1  1  0.25000000  0.25886834  0.16183772  1
  Sm  Sm2  1  0.75000000  0.75886834  0.33816228  1
  Sm  Sm3  1  0.75000000  0.19820257  0.46178008  1
  Sm  Sm4  1  0.25000000  0.80179743  0.53821992  1
  Sm  Sm5  1  0.25000000  0.24113166  0.66183772  1
  Sm  Sm6  1  0.75000000  0.74113166  0.83816228  1
  Sm  Sm7  1  0.75000000  0.30179743  0.96178008  1
  Se  Se8  1  0.75000000  0.01105600  0.09944477  1
  Se  Se9  1  0.75000000  0.55125518  0.17927733  1
  Se  Se10  1  0.25000000  0.05125518  0.32072267  1
  Se  Se11  1  0.25000000  0.51105600  0.40055523  1
  Se  Se12  1  0.75000000  0.48894400  0.59944477  1
  Se  Se13  1  0.75000000  0.94874482  0.67927733  1
  Se  Se14  1  0.25000000  0.44874482  0.82072267  1
  Se  Se15  1  0.25000000  0.98894400  0.90055523  1
  O  O16  1  0.25000000  0.37222404  0.03049884  1
  O  O17  1  0.75000000  0.87222404  0.46950116  1
  O  O18  1  0.25000000  0.12777596  0.53049884  1
  O  O19  1  0.75000000  0.62777596  0.96950116  1
