# generated using pymatgen
data_Na2Ge2O5
_symmetry_space_group_name_H-M   'P 1'
_cell_length_a   4.92146995
_cell_length_b   8.38528881
_cell_length_c   12.54854452
_cell_angle_alpha   77.06707673
_cell_angle_beta   90.00000000
_cell_angle_gamma   90.00000000
_symmetry_Int_Tables_number   1
_chemical_formula_structural   Na2Ge2O5
_chemical_formula_sum   'Na8 Ge8 O20'
_cell_volume   504.71617058
_cell_formula_units_Z   4
loop_
 _symmetry_equiv_pos_site_id
 _symmetry_equiv_pos_as_xyz
  1  'x, y, z'
loop_
 _atom_site_type_symbol
 _atom_site_label
 _atom_site_symmetry_multiplicity
 _atom_site_fract_x
 _atom_site_fract_y
 _atom_site_fract_z
 _atom_site_occupancy
  Na  Na0  1  0.71579794  0.14043744  0.02632460  1
  Na  Na1  1  0.25598477  0.38024378  0.05131675  1
  Na  Na2  1  0.75598477  0.61975622  0.44868325  1
  Na  Na3  1  0.78420206  0.14043744  0.52632460  1
  Na  Na4  1  0.21579794  0.85956256  0.47367540  1
  Na  Na5  1  0.24401523  0.38024378  0.55131675  1
  Na  Na6  1  0.74401523  0.61975622  0.94868325  1
  Na  Na7  1  0.28420206  0.85956256  0.97367540  1
  Ge  Ge8  1  0.80295786  0.39969153  0.22276454  1
  Ge  Ge9  1  0.66879889  0.02391260  0.32297072  1
  Ge  Ge10  1  0.16879889  0.97608740  0.17702928  1
  Ge  Ge11  1  0.30295786  0.60030847  0.27723546  1
  Ge  Ge12  1  0.69704214  0.39969153  0.72276454  1
  Ge  Ge13  1  0.83120111  0.02391260  0.82297072  1
  Ge  Ge14  1  0.33120111  0.97608740  0.67702928  1
  Ge  Ge15  1  0.19704214  0.60030847  0.77723546  1
  O  O16  1  0.24212665  0.10409188  0.05486897  1
  O  O17  1  0.72880204  0.38655486  0.09173385  1
  O  O18  1  0.31364334  0.01401098  0.29788635  1
  O  O19  1  0.16001751  0.43659446  0.22738881  1
  O  O20  1  0.24103086  0.77188166  0.16840673  1
  O  O21  1  0.74103086  0.22811834  0.33159327  1
  O  O22  1  0.66001751  0.56340554  0.27261119  1
  O  O23  1  0.81364334  0.98598902  0.20211365  1
  O  O24  1  0.22880204  0.61344514  0.40826615  1
  O  O25  1  0.25787335  0.10409188  0.55486897  1
  O  O26  1  0.74212665  0.89590812  0.44513103  1
  O  O27  1  0.77119796  0.38655486  0.59173385  1
  O  O28  1  0.18635666  0.01401098  0.79788635  1
  O  O29  1  0.33998249  0.43659446  0.72738881  1
  O  O30  1  0.25896914  0.77188166  0.66840673  1
  O  O31  1  0.75896914  0.22811834  0.83159327  1
  O  O32  1  0.83998249  0.56340554  0.77261119  1
  O  O33  1  0.68635666  0.98598902  0.70211365  1
  O  O34  1  0.27119796  0.61344514  0.90826615  1
  O  O35  1  0.75787335  0.89590812  0.94513103  1
