# generated using pymatgen
data_Nb2O5
_symmetry_space_group_name_H-M   'P 1'
_cell_length_a   11.51573649
_cell_length_b   7.73121522
_cell_length_c   11.39097549
_cell_angle_alpha   99.72313305
_cell_angle_beta   92.01661777
_cell_angle_gamma   80.29335282
_symmetry_Int_Tables_number   1
_chemical_formula_structural   Nb2O5
_chemical_formula_sum   'Nb20 O50'
_cell_volume   985.24439531
_cell_formula_units_Z   10
loop_
 _symmetry_equiv_pos_site_id
 _symmetry_equiv_pos_as_xyz
  1  'x, y, z'
loop_
 _atom_site_type_symbol
 _atom_site_label
 _atom_site_symmetry_multiplicity
 _atom_site_fract_x
 _atom_site_fract_y
 _atom_site_fract_z
 _atom_site_occupancy
  Nb  Nb0  1  0.88356328  0.10724452  0.31903052  1
  Nb  Nb1  1  0.89306510  0.61033375  0.32801013  1
  Nb  Nb2  1  0.55965411  0.17174165  0.20849465  1
  Nb  Nb3  1  0.56357075  0.65430202  0.20950984  1
  Nb  Nb4  1  0.80078336  0.43691208  0.55270556  1
  Nb  Nb5  1  0.78255135  0.94384775  0.55544323  1
  Nb  Nb6  1  0.32517789  0.94605982  0.11459083  1
  Nb  Nb7  1  0.32185195  0.44921393  0.11193560  1
  Nb  Nb8  1  0.47422813  0.98445784  0.41535356  1
  Nb  Nb9  1  0.00326468  0.99845404  0.99681944  1
  Nb  Nb10  1  0.99673532  0.50154596  0.00318056  1
  Nb  Nb11  1  0.52577187  0.51554216  0.58464644  1
  Nb  Nb12  1  0.67482211  0.55394018  0.88540917  1
  Nb  Nb13  1  0.67814805  0.05078607  0.88806440  1
  Nb  Nb14  1  0.19921664  0.06308792  0.44729444  1
  Nb  Nb15  1  0.21744865  0.55615225  0.44455677  1
  Nb  Nb16  1  0.44034589  0.32825835  0.79150535  1
  Nb  Nb17  1  0.43642925  0.84569798  0.79049016  1
  Nb  Nb18  1  0.11643672  0.39275548  0.68096948  1
  Nb  Nb19  1  0.10693490  0.88966625  0.67198987  1
  O  O20  1  0.93352357  0.55746013  0.16565347  1
  O  O21  1  0.93246967  0.05784714  0.16427074  1
  O  O22  1  0.60603776  0.09468666  0.03918193  1
  O  O23  1  0.60580135  0.61808543  0.03608402  1
  O  O24  1  0.86072347  0.87647663  0.36006230  1
  O  O25  1  0.86720366  0.37363179  0.36700772  1
  O  O26  1  0.71069514  0.15016783  0.26701090  1
  O  O27  1  0.71303486  0.62885802  0.26503597  1
  O  O28  1  0.95569660  0.41833185  0.61804582  1
  O  O29  1  0.95654090  0.90965072  0.60918381  1
  O  O30  1  0.51177622  0.42040387  0.18914460  1
  O  O31  1  0.51356102  0.92311180  0.20748254  1
  O  O32  1  0.81272158  0.17254256  0.51073272  1
  O  O33  1  0.81122586  0.67612593  0.50816170  1
  O  O34  1  0.36476669  0.19327922  0.13543754  1
  O  O35  1  0.36103748  0.69557078  0.14204879  1
  O  O36  1  0.63905994  0.45715166  0.46724361  1
  O  O37  1  0.63119984  0.96258925  0.47609423  1
  O  O38  1  0.48200167  0.73139948  0.36248075  1
  O  O39  1  0.47966425  0.20808537  0.36138457  1
  O  O40  1  0.16590586  0.47408121  0.06441685  1
  O  O41  1  0.16670899  0.97784820  0.07510311  1
  O  O42  1  0.70718032  0.49474036  0.69088333  1
  O  O43  1  0.72926127  0.99597884  0.70732083  1
  O  O44  1  0.00000000  0.25000000  -0.00000000  1
  O  O45  1  0.00000000  0.75000000  -0.00000000  1
  O  O46  1  0.29281968  0.00525964  0.30911667  1
  O  O47  1  0.27073873  0.50402116  0.29267917  1
  O  O48  1  0.83409414  0.02591879  0.93558315  1
  O  O49  1  0.83329101  0.52215180  0.92489689  1
  O  O50  1  0.52033575  0.29191463  0.63861543  1
  O  O51  1  0.51799833  0.76860052  0.63751925  1
  O  O52  1  0.36094006  0.04284834  0.53275639  1
  O  O53  1  0.36880016  0.53741075  0.52390577  1
  O  O54  1  0.63896252  0.80442922  0.85795121  1
  O  O55  1  0.63523331  0.30672078  0.86456246  1
  O  O56  1  0.18727742  0.32745744  0.48926728  1
  O  O57  1  0.18877414  0.82387407  0.49183830  1
  O  O58  1  0.48643898  0.57688820  0.79251746  1
  O  O59  1  0.48822378  0.07959613  0.81085540  1
  O  O60  1  0.04430340  0.08166815  0.38195418  1
  O  O61  1  0.04345910  0.59034928  0.39081619  1
  O  O62  1  0.28930486  0.34983217  0.73298910  1
  O  O63  1  0.28696514  0.87114198  0.73496403  1
  O  O64  1  0.13279634  0.12636821  0.63299228  1
  O  O65  1  0.13927653  0.62352337  0.63993770  1
  O  O66  1  0.39396224  0.40531334  0.96081807  1
  O  O67  1  0.39419865  0.88191457  0.96391598  1
  O  O68  1  0.06753033  0.44215286  0.83572926  1
  O  O69  1  0.06647643  0.94253987  0.83434653  1
