# generated using pymatgen
data_Zr2N2O
_symmetry_space_group_name_H-M   'P 1'
_cell_length_a   8.76525598
_cell_length_b   8.79455677
_cell_length_c   8.79613505
_cell_angle_alpha   109.58656945
_cell_angle_beta   109.47168511
_cell_angle_gamma   109.23522016
_symmetry_Int_Tables_number   1
_chemical_formula_structural   Zr2N2O
_chemical_formula_sum   'Zr16 N16 O8'
_cell_volume   522.74258592
_cell_formula_units_Z   8
loop_
 _symmetry_equiv_pos_site_id
 _symmetry_equiv_pos_as_xyz
  1  'x, y, z'
loop_
 _atom_site_type_symbol
 _atom_site_label
 _atom_site_symmetry_multiplicity
 _atom_site_fract_x
 _atom_site_fract_y
 _atom_site_fract_z
 _atom_site_occupancy
  Zr  Zr0  1  0.46224808  0.21648909  0.25749039  1
  Zr  Zr1  1  0.00627085  0.00904894  0.99628708  1
  Zr  Zr2  1  0.50764111  0.51641101  0.00737075  1
  Zr  Zr3  1  0.98888367  0.49776103  0.49752636  1
  Zr  Zr4  1  0.74715420  0.46501037  0.71388858  1
  Zr  Zr5  1  0.24220158  0.02482032  0.78306330  1
  Zr  Zr6  1  0.71706840  0.25509277  0.96980898  1
  Zr  Zr7  1  0.21527133  0.25038366  0.46222173  1
  Zr  Zr8  1  0.96200274  0.70740103  0.24885988  1
  Zr  Zr9  1  0.03788938  0.28517897  0.74929508  1
  Zr  Zr10  1  0.78381619  0.75038910  0.52771444  1
  Zr  Zr11  1  0.27754251  0.74026818  0.02120328  1
  Zr  Zr12  1  0.75325887  0.96919187  0.21643963  1
  Zr  Zr13  1  0.49707104  0.99520762  0.50703653  1
  Zr  Zr14  1  0.25204199  0.53023408  0.28042610  1
  Zr  Zr15  1  0.53831953  0.79689043  0.75687263  1
  N  N16  1  0.46427758  0.23364220  0.51080484  1
  N  N17  1  0.95837575  0.22510705  0.46699834  1
  N  N18  1  0.73720642  0.50850624  0.96378035  1
  N  N19  1  0.02721843  0.54140638  0.77153379  1
  N  N20  1  0.23099744  0.95827002  0.99010949  1
  N  N21  1  0.98608642  0.03536266  0.76238055  1
  N  N22  1  0.72409782  0.46547170  0.44978890  1
  N  N23  1  0.48231670  0.72409404  0.94971714  1
  N  N24  1  0.77386524  0.04272287  0.01190947  1
  N  N25  1  0.97159009  0.45738972  0.22853947  1
  N  N26  1  0.26231593  0.48850892  0.03485995  1
  N  N27  1  0.04800997  0.77203858  0.53492625  1
  N  N28  1  0.45936781  0.99449911  0.72928545  1
  N  N29  1  0.23652274  0.27038667  0.23121022  1
  N  N30  1  0.73050864  0.74108380  0.27019599  1
  N  N31  1  0.52989362  0.76041593  0.48931622  1
  O  O32  1  0.27412883  0.26161005  0.73007819  1
  O  O33  1  0.76330841  0.72735938  0.77365122  1
  O  O34  1  0.54574520  0.00880091  0.27428496  1
  O  O35  1  0.77069358  0.22440548  0.73495684  1
  O  O36  1  0.27635423  0.52977031  0.54907825  1
  O  O37  1  0.01534070  0.96464493  0.23905926  1
  O  O38  1  0.51283124  0.27357765  0.04495691  1
  O  O39  1  0.23026973  0.78114496  0.26307320  1
