# generated using pymatgen
data_Er2GeO5
_symmetry_space_group_name_H-M   'P 1'
_cell_length_a   7.91697684
_cell_length_b   7.91697684
_cell_length_c   11.14673777
_cell_angle_alpha   86.42754820
_cell_angle_beta   86.42754820
_cell_angle_gamma   88.97172865
_symmetry_Int_Tables_number   1
_chemical_formula_structural   Er2GeO5
_chemical_formula_sum   'Er12 Ge6 O30'
_cell_volume   695.87905735
_cell_formula_units_Z   6
loop_
 _symmetry_equiv_pos_site_id
 _symmetry_equiv_pos_as_xyz
  1  'x, y, z'
loop_
 _atom_site_type_symbol
 _atom_site_label
 _atom_site_symmetry_multiplicity
 _atom_site_fract_x
 _atom_site_fract_y
 _atom_site_fract_z
 _atom_site_occupancy
  Er  Er0  1  0.00477726  0.29815112  0.06383135  1
  Er  Er1  1  0.00017213  0.63843049  0.24885149  1
  Er  Er2  1  0.29815112  0.00477726  0.56383135  1
  Er  Er3  1  0.34499600  0.62544385  0.42992407  1
  Er  Er4  1  0.37455615  0.65500400  0.07007593  1
  Er  Er5  1  0.36156951  0.99982787  0.25114851  1
  Er  Er6  1  0.63843049  0.00017213  0.74885149  1
  Er  Er7  1  0.62544385  0.34499600  0.92992407  1
  Er  Er8  1  0.65500400  0.37455615  0.57007593  1
  Er  Er9  1  0.70184888  0.99522274  0.43616865  1
  Er  Er10  1  0.99982787  0.36156951  0.75114851  1
  Er  Er11  1  0.99522274  0.70184888  0.93616865  1
  Ge  Ge12  1  0.06289729  0.27036557  0.45267562  1
  Ge  Ge13  1  0.27036557  0.06289729  0.95267562  1
  Ge  Ge14  1  0.36078839  0.63921161  0.75000000  1
  Ge  Ge15  1  0.63921161  0.36078839  0.25000000  1
  Ge  Ge16  1  0.72963443  0.93710271  0.04732438  1
  Ge  Ge17  1  0.93710271  0.72963443  0.54732438  1
  O  O18  1  0.12466297  0.54233032  0.07612978  1
  O  O19  1  0.12243494  0.47105790  0.39289441  1
  O  O20  1  0.11296456  0.18791323  0.88438873  1
  O  O21  1  0.14468953  0.59513104  0.78132346  1
  O  O22  1  0.18791323  0.11296456  0.38438873  1
  O  O23  1  0.15333771  0.76972253  0.54446249  1
  O  O24  1  0.13035759  0.22887643  0.60179449  1
  O  O25  1  0.26238453  0.73761547  0.25000000  1
  O  O26  1  0.23027747  0.84666229  0.95553751  1
  O  O27  1  0.22887643  0.13035759  0.10179449  1
  O  O28  1  0.40486896  0.85531047  0.71867654  1
  O  O29  1  0.43720461  0.53807947  0.61914100  1
  O  O30  1  0.45766968  0.87533703  0.42387022  1
  O  O31  1  0.47105790  0.12243494  0.89289441  1
  O  O32  1  0.46192053  0.56279539  0.88085900  1
  O  O33  1  0.53807947  0.43720461  0.11914100  1
  O  O34  1  0.52894210  0.87756506  0.10710559  1
  O  O35  1  0.54233032  0.12466297  0.57612978  1
  O  O36  1  0.56279539  0.46192053  0.38085900  1
  O  O37  1  0.59513104  0.14468953  0.28132346  1
  O  O38  1  0.77112357  0.86964241  0.89820551  1
  O  O39  1  0.76972253  0.15333771  0.04446249  1
  O  O40  1  0.73761547  0.26238453  0.75000000  1
  O  O41  1  0.86964241  0.77112357  0.39820551  1
  O  O42  1  0.84666229  0.23027747  0.45553751  1
  O  O43  1  0.81208677  0.88703544  0.61561127  1
  O  O44  1  0.85531047  0.40486896  0.21867654  1
  O  O45  1  0.88703544  0.81208677  0.11561127  1
  O  O46  1  0.87756506  0.52894210  0.60710559  1
  O  O47  1  0.87533703  0.45766968  0.92387022  1
