# generated using pymatgen
data_InP(H2O3)2
_symmetry_space_group_name_H-M   'P 1'
_cell_length_a   5.38532921
_cell_length_b   10.30002401
_cell_length_c   8.79287992
_cell_angle_alpha   90.00000000
_cell_angle_beta   93.09021399
_cell_angle_gamma   90.00000000
_symmetry_Int_Tables_number   1
_chemical_formula_structural   InP(H2O3)2
_chemical_formula_sum   'In4 P4 H16 O24'
_cell_volume   487.02321821
_cell_formula_units_Z   4
loop_
 _symmetry_equiv_pos_site_id
 _symmetry_equiv_pos_as_xyz
  1  'x, y, z'
loop_
 _atom_site_type_symbol
 _atom_site_label
 _atom_site_symmetry_multiplicity
 _atom_site_fract_x
 _atom_site_fract_y
 _atom_site_fract_z
 _atom_site_occupancy
  In  In0  1  0.08896148  0.82692363  0.20499556  1
  In  In1  1  0.41103852  0.32692363  0.29500444  1
  In  In2  1  0.58896148  0.67307637  0.70499556  1
  In  In3  1  0.91103852  0.17307637  0.79500444  1
  P  P4  1  0.09323838  0.85717086  0.82094029  1
  P  P5  1  0.40676162  0.35717086  0.67905971  1
  P  P6  1  0.59323838  0.64282914  0.32094029  1
  P  P7  1  0.90676162  0.14282914  0.17905971  1
  H  H8  1  0.07442970  0.54711621  0.69974934  1
  H  H9  1  0.12458633  0.18389448  0.53095204  1
  H  H10  1  0.15477009  0.53896334  0.24989450  1
  H  H11  1  0.15438789  0.84513313  0.52543235  1
  H  H12  1  0.34561211  0.34513313  0.97456765  1
  H  H13  1  0.34522991  0.03896334  0.25010550  1
  H  H14  1  0.37541367  0.68389448  0.96904796  1
  H  H15  1  0.42557030  0.04711621  0.80025066  1
  H  H16  1  0.57442970  0.95288379  0.19974934  1
  H  H17  1  0.62458633  0.31610552  0.03095204  1
  H  H18  1  0.65477009  0.96103666  0.74989450  1
  H  H19  1  0.65438789  0.65486687  0.02543235  1
  H  H20  1  0.84561211  0.15486687  0.47456765  1
  H  H21  1  0.84522991  0.46103666  0.75010550  1
  H  H22  1  0.87541367  0.81610552  0.46904796  1
  H  H23  1  0.92557030  0.45288379  0.30025066  1
  O  O24  1  0.02947324  0.86088167  0.44154138  1
  O  O25  1  0.13692983  0.78579356  0.97342731  1
  O  O26  1  0.08991717  0.44862401  0.25553071  1
  O  O27  1  0.13728604  0.00375981  0.84293270  1
  O  O28  1  0.17396796  0.16383299  0.24389937  1
  O  O29  1  0.22516148  0.30232215  0.79208751  1
  O  O30  1  0.27483852  0.80232215  0.70791249  1
  O  O31  1  0.32603204  0.66383299  0.25610063  1
  O  O32  1  0.36271396  0.50375981  0.65706730  1
  O  O33  1  0.36307017  0.28579356  0.52657269  1
  O  O34  1  0.41008283  0.94862401  0.24446929  1
  O  O35  1  0.47052676  0.36088167  0.05845862  1
  O  O36  1  0.52947324  0.63911833  0.94154138  1
  O  O37  1  0.58991717  0.05137599  0.75553071  1
  O  O38  1  0.63692983  0.71420644  0.47342731  1
  O  O39  1  0.63728504  0.49624019  0.34293270  1
  O  O40  1  0.67396796  0.33616701  0.74389937  1
  O  O41  1  0.72516148  0.19767785  0.29208751  1
  O  O42  1  0.77483852  0.69767785  0.20791249  1
  O  O43  1  0.82603204  0.83616701  0.75610063  1
  O  O44  1  0.86271496  0.99624019  0.15706730  1
  O  O45  1  0.91008283  0.55137599  0.74446929  1
  O  O46  1  0.86307017  0.21420644  0.02657269  1
  O  O47  1  0.97052676  0.13911833  0.55845862  1
