# generated using pymatgen
data_Zr2N2O
_symmetry_space_group_name_H-M   'P 1'
_cell_length_a   8.77845845
_cell_length_b   8.78966720
_cell_length_c   8.79170268
_cell_angle_alpha   109.32888170
_cell_angle_beta   109.42708787
_cell_angle_gamma   109.56595185
_symmetry_Int_Tables_number   1
_chemical_formula_structural   Zr2N2O
_chemical_formula_sum   'Zr16 N16 O8'
_cell_volume   522.79463127
_cell_formula_units_Z   8
loop_
 _symmetry_equiv_pos_site_id
 _symmetry_equiv_pos_as_xyz
  1  'x, y, z'
loop_
 _atom_site_type_symbol
 _atom_site_label
 _atom_site_symmetry_multiplicity
 _atom_site_fract_x
 _atom_site_fract_y
 _atom_site_fract_z
 _atom_site_occupancy
  Zr  Zr0  1  0.21338406  0.24864770  0.96304000  1
  Zr  Zr1  1  0.99715642  0.48861585  0.99161209  1
  Zr  Zr2  1  0.75390230  0.96904526  0.71640796  1
  Zr  Zr3  1  0.24247420  0.53007329  0.77975068  1
  Zr  Zr4  1  0.52558061  0.77835963  0.24829755  1
  Zr  Zr5  1  0.02961855  0.28067901  0.25226137  1
  Zr  Zr6  1  0.99824222  0.98815922  0.48999642  1
  Zr  Zr7  1  0.49703660  0.49769269  0.49836720  1
  Zr  Zr8  1  0.50903807  0.01692175  0.01255728  1
  Zr  Zr9  1  0.71446502  0.25754962  0.46650247  1
  Zr  Zr10  1  0.29643690  0.75430046  0.53835955  1
  Zr  Zr11  1  0.47138022  0.21243963  0.75333570  1
  Zr  Zr12  1  0.96190380  0.71400634  0.74324424  1
  Zr  Zr13  1  0.25802215  0.03567809  0.29605701  1
  Zr  Zr14  1  0.74465701  0.46546876  0.21144733  1
  Zr  Zr15  1  0.78445483  0.74939583  0.04072139  1
  N  N16  1  0.27404639  0.53151246  0.04066830  1
  N  N17  1  0.49269388  0.73102567  0.45837406  1
  N  N18  1  0.45172195  0.98190075  0.22437135  1
  N  N19  1  0.25911285  0.48714539  0.53275031  1
  N  N20  1  0.01118231  0.96487976  0.73788809  1
  N  N21  1  0.46418616  0.23838132  0.01261273  1
  N  N22  1  0.22389187  0.95023990  0.48724257  1
  N  N23  1  0.96881320  0.45455725  0.72815723  1
  N  N24  1  0.77246736  0.23110636  0.23913108  1
  N  N25  1  0.99194794  0.03290264  0.25938071  1
  N  N26  1  0.54413535  0.00952320  0.77456008  1
  N  N27  1  0.74097539  0.51772950  0.47092339  1
  N  N28  1  0.75851512  0.73229437  0.27142372  1
  N  N29  1  0.95581358  0.22962206  0.97013681  1
  N  N30  1  0.50687708  0.27315163  0.54192831  1
  N  N31  1  0.73104591  0.46987830  0.95685793  1
  O  O32  1  0.03948239  0.77213572  0.02775757  1
  O  O33  1  0.23591830  0.27110637  0.72641437  1
  O  O34  1  0.22860688  0.77018111  0.76552714  1
  O  O35  1  0.77693825  0.05122865  0.51846099  1
  O  O36  1  0.03654683  0.54921927  0.27228496  1
  O  O37  1  0.27725978  0.26641440  0.22880004  1
  O  O38  1  0.53371595  0.75933671  0.97907385  1
  O  O39  1  0.72635332  0.73748707  0.77331716  1
