# generated using pymatgen
data_Rb3HoO3
_symmetry_space_group_name_H-M   'P 1'
_cell_length_a   7.20335289
_cell_length_b   7.20335289
_cell_length_c   7.19284919
_cell_angle_alpha   85.14949408
_cell_angle_beta   85.14949408
_cell_angle_gamma   115.89868231
_symmetry_Int_Tables_number   1
_chemical_formula_structural   Rb3HoO3
_chemical_formula_sum   'Rb6 Ho2 O6'
_cell_volume   331.45145337
_cell_formula_units_Z   2
loop_
 _symmetry_equiv_pos_site_id
 _symmetry_equiv_pos_as_xyz
  1  'x, y, z'
loop_
 _atom_site_type_symbol
 _atom_site_label
 _atom_site_symmetry_multiplicity
 _atom_site_fract_x
 _atom_site_fract_y
 _atom_site_fract_z
 _atom_site_occupancy
  Rb  Rb0  1  0.63931154  0.63931154  0.63887715  1
  Rb  Rb1  1  0.20455974  0.79544026  0.50000000  1
  Rb  Rb2  1  0.79544026  0.20455974  0.50000000  1
  Rb  Rb3  1  0.74111584  0.25888416  0.00000000  1
  Rb  Rb4  1  0.25888416  0.74111584  0.00000000  1
  Rb  Rb5  1  0.36068846  0.36068846  0.36112285  1
  Ho  Ho6  1  0.82155884  0.82155884  0.14869733  1
  Ho  Ho7  1  0.17844116  0.17844116  0.85130267  1
  O  O8  1  0.89769407  0.89769407  0.84383723  1
  O  O9  1  0.83237111  0.55225312  0.26874730  1
  O  O10  1  0.55225312  0.83237111  0.26874730  1
  O  O11  1  0.44774688  0.16762889  0.73125270  1
  O  O12  1  0.16762889  0.44774688  0.73125270  1
  O  O13  1  0.10230593  0.10230593  0.15616277  1
