# generated using pymatgen
data_Na2Ge2O5
_symmetry_space_group_name_H-M   'P 1'
_cell_length_a   4.88262089
_cell_length_b   8.43779715
_cell_length_c   12.10372383
_cell_angle_alpha   90.00000000
_cell_angle_beta   90.00000000
_cell_angle_gamma   90.00000000
_symmetry_Int_Tables_number   1
_chemical_formula_structural   Na2Ge2O5
_chemical_formula_sum   'Na8 Ge8 O20'
_cell_volume   498.65604848
_cell_formula_units_Z   4
loop_
 _symmetry_equiv_pos_site_id
 _symmetry_equiv_pos_as_xyz
  1  'x, y, z'
loop_
 _atom_site_type_symbol
 _atom_site_label
 _atom_site_symmetry_multiplicity
 _atom_site_fract_x
 _atom_site_fract_y
 _atom_site_fract_z
 _atom_site_occupancy
  Na  Na0  1  0.43238394  0.92683065  0.76673962  1
  Na  Na1  1  0.39658954  0.81363457  0.30457530  1
  Na  Na2  1  0.89658954  0.68636543  0.80457530  1
  Na  Na3  1  0.93238394  0.57316935  0.26673962  1
  Na  Na4  1  0.43238394  0.42683065  0.73326038  1
  Na  Na5  1  0.39658954  0.31363457  0.19542470  1
  Na  Na6  1  0.89658954  0.18636543  0.69542470  1
  Na  Na7  1  0.93238394  0.07316935  0.23326038  1
  Ge  Ge8  1  0.48577527  0.95099299  0.07285090  1
  Ge  Ge9  1  0.85025119  0.88858493  0.47456005  1
  Ge  Ge10  1  0.35025119  0.61141507  0.97456005  1
  Ge  Ge11  1  0.98577527  0.54900701  0.57285090  1
  Ge  Ge12  1  0.48577527  0.45099299  0.42714910  1
  Ge  Ge13  1  0.85025119  0.38858493  0.02543995  1
  Ge  Ge14  1  0.35025119  0.11141507  0.52543995  1
  Ge  Ge15  1  0.98577527  0.04900701  0.92714910  1
  O  O16  1  0.91050057  0.95933794  0.80488536  1
  O  O17  1  0.84559972  0.97154701  0.05067791  1
  O  O18  1  0.49033093  0.92633734  0.48369637  1
  O  O19  1  0.92037379  0.83316253  0.34167592  1
  O  O20  1  0.91902405  0.75482232  0.58420914  1
  O  O21  1  0.41902405  0.74517768  0.08420914  1
  O  O22  1  0.42037379  0.66683747  0.84167592  1
  O  O23  1  0.99033093  0.57366266  0.98369637  1
  O  O24  1  0.34559972  0.52845299  0.55067791  1
  O  O25  1  0.41050057  0.54066206  0.30488536  1
  O  O26  1  0.91050057  0.45933794  0.69511464  1
  O  O27  1  0.84559972  0.47154701  0.44932209  1
  O  O28  1  0.49033093  0.42633734  0.01630363  1
  O  O29  1  0.92037379  0.33316253  0.15832408  1
  O  O30  1  0.91902405  0.25482232  0.91579086  1
  O  O31  1  0.41902405  0.24517768  0.41579086  1
  O  O32  1  0.42037379  0.16683747  0.65832408  1
  O  O33  1  0.99033093  0.07366266  0.51630363  1
  O  O34  1  0.34559972  0.02845299  0.94932209  1
  O  O35  1  0.41050057  0.04066206  0.19511464  1
