# generated using pymatgen
data_Rb2ZrO3
_symmetry_space_group_name_H-M   'P 1'
_cell_length_a   6.53747646
_cell_length_b   6.53747646
_cell_length_c   5.90025790
_cell_angle_alpha   90.00000000
_cell_angle_beta   90.00000000
_cell_angle_gamma   111.33811260
_symmetry_Int_Tables_number   1
_chemical_formula_structural   Rb2ZrO3
_chemical_formula_sum   'Rb4 Zr2 O6'
_cell_volume   234.88243143
_cell_formula_units_Z   2
loop_
 _symmetry_equiv_pos_site_id
 _symmetry_equiv_pos_as_xyz
  1  'x, y, z'
loop_
 _atom_site_type_symbol
 _atom_site_label
 _atom_site_symmetry_multiplicity
 _atom_site_fract_x
 _atom_site_fract_y
 _atom_site_fract_z
 _atom_site_occupancy
  Rb  Rb0  1  0.47951341  0.80515732  0.25570873  1
  Rb  Rb1  1  0.19484268  0.52048659  0.75570873  1
  Rb  Rb2  1  0.52048659  0.19484268  0.75570873  1
  Rb  Rb3  1  0.80515732  0.47951341  0.25570873  1
  Zr  Zr4  1  0.91222360  0.91222360  0.73659975  1
  Zr  Zr5  1  0.08777640  0.08777640  0.23659975  1
  O  O6  1  0.13357222  0.88528619  0.49310763  1
  O  O7  1  0.11471381  0.86642778  0.99310763  1
  O  O8  1  0.65379387  0.65379387  0.70576653  1
  O  O9  1  0.34620613  0.34620613  0.20576653  1
  O  O10  1  0.86642778  0.11471381  0.99310763  1
  O  O11  1  0.88528619  0.13357222  0.49310763  1
