# generated using pymatgen
data_Zr2N2O
_symmetry_space_group_name_H-M   'P 1'
_cell_length_a   8.77053104
_cell_length_b   8.78655031
_cell_length_c   8.79039245
_cell_angle_alpha   109.48624830
_cell_angle_beta   109.36439022
_cell_angle_gamma   109.31893889
_symmetry_Int_Tables_number   1
_chemical_formula_structural   Zr2N2O
_chemical_formula_sum   'Zr16 N16 O8'
_cell_volume   523.03565458
_cell_formula_units_Z   8
loop_
 _symmetry_equiv_pos_site_id
 _symmetry_equiv_pos_as_xyz
  1  'x, y, z'
loop_
 _atom_site_type_symbol
 _atom_site_label
 _atom_site_symmetry_multiplicity
 _atom_site_fract_x
 _atom_site_fract_y
 _atom_site_fract_z
 _atom_site_occupancy
  Zr  Zr0  1  0.98826084  0.48133577  0.99004027  1
  Zr  Zr1  1  0.75952406  0.72281570  0.97498966  1
  Zr  Zr2  1  0.53409089  0.25085631  0.78528635  1
  Zr  Zr3  1  0.96431671  0.74793126  0.71386961  1
  Zr  Zr4  1  0.21876603  0.96985467  0.26005113  1
  Zr  Zr5  1  0.70566843  0.46259014  0.24385782  1
  Zr  Zr6  1  0.25223312  0.78458188  0.54189309  1
  Zr  Zr7  1  0.51171696  0.51241062  0.50216929  1
  Zr  Zr8  1  0.99915173  0.01000310  0.50173642  1
  Zr  Zr9  1  0.48914254  0.00212147  0.00285113  1
  Zr  Zr10  1  0.74630372  0.21222697  0.46934744  1
  Zr  Zr11  1  0.79279672  0.03001755  0.74841887  1
  Zr  Zr12  1  0.27393603  0.53011781  0.74133972  1
  Zr  Zr13  1  0.03747681  0.25271613  0.28542753  1
  Zr  Zr14  1  0.46330284  0.74899811  0.21292418  1
  Zr  Zr15  1  0.24739150  0.28887212  0.02937806  1
  N  N16  1  0.95687350  0.96818263  0.22449530  1
  N  N17  1  0.77602806  0.51872411  0.04884564  1
  N  N18  1  0.27671736  0.04403178  0.53233264  1
  N  N19  1  0.74127037  0.46842342  0.50902148  1
  N  N20  1  0.45928293  0.22534396  0.99051119  1
  N  N21  1  0.75794601  0.27008793  0.72832864  1
  N  N22  1  0.26271778  0.53604662  0.48530796  1
  N  N23  1  0.23070090  0.76395369  0.77443328  1
  N  N24  1  0.72683565  0.95015689  0.46280836  1
  N  N25  1  0.99020049  0.26234587  0.03578360  1
  N  N26  1  0.46242539  0.00877205  0.23350962  1
  N  N27  1  0.03128006  0.27298907  0.54345680  1
  N  N28  1  0.72591239  0.77037494  0.74275061  1
  N  N29  1  0.22853218  0.49146004  0.95623786  1
  N  N30  1  0.51001238  0.54359654  0.27277970  1
  N  N31  1  0.04602416  0.03087323  0.76982382  1
  O  O32  1  0.48468896  0.45444836  0.72954032  1
  O  O33  1  0.27497918  0.22853766  0.26729186  1
  O  O34  1  0.97150009  0.72557978  0.45572655  1
  O  O35  1  0.53307281  0.98677597  0.76231446  1
  O  O36  1  0.01436314  0.73896670  0.96688684  1
  O  O37  1  0.77080586  0.23243254  0.22296740  1
  O  O38  1  0.23708564  0.72909058  0.27055082  1
  O  O39  1  0.54666379  0.77135604  0.01071468  1
