# generated using pymatgen
data_Cr2P4Pb3O16
_symmetry_space_group_name_H-M   'P 1'
_cell_length_a   8.96986891
_cell_length_b   8.96987116
_cell_length_c   16.57823747
_cell_angle_alpha   90.00000000
_cell_angle_beta   90.00000000
_cell_angle_gamma   90.00001392
_symmetry_Int_Tables_number   1
_chemical_formula_structural   Cr2P4Pb3O16
_chemical_formula_sum   'Cr8 P16 Pb12 O64'
_cell_volume   1333.86125417
_cell_formula_units_Z   4
loop_
 _symmetry_equiv_pos_site_id
 _symmetry_equiv_pos_as_xyz
  1  'x, y, z'
loop_
 _atom_site_type_symbol
 _atom_site_label
 _atom_site_symmetry_multiplicity
 _atom_site_fract_x
 _atom_site_fract_y
 _atom_site_fract_z
 _atom_site_occupancy
  Cr  Cr0  1  0.26504424  0.50089822  0.87870214  1
  Cr  Cr1  1  0.99910173  0.76504417  0.12870203  1
  Cr  Cr2  1  0.73495576  0.49910178  0.37870214  1
  Cr  Cr3  1  0.49910182  0.73495578  0.62129789  1
  Cr  Cr4  1  0.50089818  0.26504422  0.12129789  1
  Cr  Cr5  1  0.00089827  0.23495583  0.62870203  1
  Cr  Cr6  1  0.23495581  0.00089822  0.37129796  1
  Cr  Cr7  1  0.76504419  0.99910178  0.87129796  1
  P  P8  1  0.27305586  0.45548233  0.67991625  1
  P  P9  1  0.00468532  0.72517549  0.32831112  1
  P  P10  1  0.77305588  0.04451783  0.07008375  1
  P  P11  1  0.45548230  0.27305581  0.32008373  1
  P  P12  1  0.22517535  0.49531452  0.07831126  1
  P  P13  1  0.72694414  0.54451767  0.17991625  1
  P  P14  1  0.49531455  0.22517531  0.92168874  1
  P  P15  1  0.72517552  0.00468537  0.67168882  1
  P  P16  1  0.22694412  0.95548217  0.57008375  1
  P  P17  1  0.50468545  0.77482469  0.42168874  1
  P  P18  1  0.04451783  0.77305596  0.92991627  1
  P  P19  1  0.54451770  0.72694419  0.82008373  1
  P  P20  1  0.27482448  0.99531463  0.17168882  1
  P  P21  1  0.95548217  0.22694404  0.42991627  1
  P  P22  1  0.99531468  0.27482451  0.82831112  1
  P  P23  1  0.77482465  0.50468548  0.57831126  1
  Pb  Pb24  1  0.65595685  0.92376062  0.23630703  1
  Pb  Pb25  1  0.13428796  0.13428797  0.99999997  1
  Pb  Pb26  1  0.07623937  0.34404312  0.26369294  1
  Pb  Pb27  1  0.84404320  0.42376070  0.01369301  1
  Pb  Pb28  1  0.36571209  0.63428786  0.25000001  1
  Pb  Pb29  1  0.42376073  0.84404322  0.98630693  1
  Pb  Pb30  1  0.92376063  0.65595688  0.76369294  1
  Pb  Pb31  1  0.34404315  0.07623938  0.73630703  1
  Pb  Pb32  1  0.86571204  0.86571203  0.49999997  1
  Pb  Pb33  1  0.57623927  0.15595678  0.48630693  1
  Pb  Pb34  1  0.15595680  0.57623930  0.51369301  1
  Pb  Pb35  1  0.63428791  0.36571214  0.75000001  1
  O  O36  1  0.87923124  0.17680326  0.06527026  1
  O  O37  1  0.41298871  0.13196075  0.36866122  1
  O  O38  1  0.63196058  0.08701135  0.11866120  1
  O  O39  1  0.17308767  0.62720116  0.13196115  1
  O  O40  1  0.38570710  0.09609644  0.93356636  1
  O  O41  1  0.37923127  0.32319677  0.68472966  1
  O  O42  1  0.41682014  0.66373462  0.87270469  1
  O  O43  1  0.12076876  0.82319674  0.56527026  1
  O  O44  1  0.71383862  0.45403307  0.49663707  1
  O  O45  1  0.67680388  0.62076949  0.81527081  1
  O  O46  1  0.14877616  0.92610800  0.12042868  1
  O  O47  1  0.82691233  0.37279884  0.63196115  1
  O  O48  1  0.16373456  0.08317982  0.62270465  1
  O  O49  1  0.54596705  0.28616128  0.00336283  1
  O  O50  1  0.67308778  0.87279888  0.61803883  1
  O  O51  1  0.82319679  0.12076868  0.43472966  1
  O  O52  1  0.61429290  0.90390356  0.43356636  1
  O  O53  1  0.35122376  0.42610774  0.12957131  1
  O  O54  1  0.57389233  0.64877625  0.37042872  1
  O  O55  1  0.17680321  0.87923132  0.93472966  1
  O  O56  1  0.04596732  0.21383801  0.74663705  1
  O  O57  1  0.08701147  0.63196067  0.88133881  1
  O  O58  1  0.90390353  0.61429296  0.56643361  1
  O  O59  1  0.07389197  0.85122376  0.37957134  1
  O  O60  1  0.95403268  0.78616199  0.24663705  1
  O  O61  1  0.78616195  0.95403259  0.75336296  1
  O  O62  1  0.58701129  0.86803925  0.86866122  1
  O  O63  1  0.40390319  0.88570711  0.18356687  1
  O  O64  1  0.98579637  0.73005031  0.01255462  1
  O  O65  1  0.28616138  0.54596693  0.99663707  1
  O  O66  1  0.08317984  0.16373465  0.37729532  1
  O  O67  1  0.58317986  0.33626538  0.37270469  1
  O  O68  1  0.88570717  0.40390314  0.81643316  1
  O  O69  1  0.86803918  0.58701135  0.13133876  1
  O  O70  1  0.66373460  0.41682024  0.12729527  1
  O  O71  1  0.36803942  0.91298865  0.61866120  1
  O  O72  1  0.33626540  0.58317976  0.62729527  1
  O  O73  1  0.12720126  0.32691225  0.88196110  1
  O  O74  1  0.62076873  0.67680323  0.18472966  1
  O  O75  1  0.32319612  0.37923051  0.31527081  1
  O  O76  1  0.48579652  0.76994986  0.73744532  1
  O  O77  1  0.42610767  0.35122375  0.87042872  1
  O  O78  1  0.87279874  0.67308775  0.38196110  1
  O  O79  1  0.62720125  0.17308776  0.86803882  1
  O  O80  1  0.76994978  0.48579648  0.26255473  1
  O  O81  1  0.45403295  0.71383872  0.50336283  1
  O  O82  1  0.73005009  0.98579642  0.98744528  1
  O  O83  1  0.92610803  0.14877624  0.87957134  1
  O  O84  1  0.32691222  0.12720112  0.11803883  1
  O  O85  1  0.91682016  0.83626535  0.87729532  1
  O  O86  1  0.85122384  0.07389200  0.62042868  1
  O  O87  1  0.64877624  0.57389226  0.62957131  1
  O  O88  1  0.59609681  0.11429289  0.68356687  1
  O  O89  1  0.11429283  0.59609686  0.31643316  1
  O  O90  1  0.23005022  0.51420352  0.76255473  1
  O  O91  1  0.13196082  0.41298865  0.63133876  1
  O  O92  1  0.83626544  0.91682018  0.12270465  1
  O  O93  1  0.91298853  0.36803933  0.38133881  1
  O  O94  1  0.21383805  0.04596741  0.25336296  1
  O  O95  1  0.51420348  0.23005014  0.23744532  1
  O  O96  1  0.26994991  0.01420358  0.48744528  1
  O  O97  1  0.09609647  0.38570704  0.06643361  1
  O  O98  1  0.01420363  0.26994969  0.51255462  1
  O  O99  1  0.37279875  0.82691224  0.36803882  1
