# generated using pymatgen
data_TiSn9O20
_symmetry_space_group_name_H-M   'P 1'
_cell_length_a   7.94524744
_cell_length_b   7.94524744
_cell_length_c   7.43360751
_cell_angle_alpha   87.78958658
_cell_angle_beta   87.78958658
_cell_angle_gamma   49.97336468
_symmetry_Int_Tables_number   1
_chemical_formula_structural   TiSn9O20
_chemical_formula_sum   'Ti1 Sn9 O20'
_cell_volume   359.00906967
_cell_formula_units_Z   1
loop_
 _symmetry_equiv_pos_site_id
 _symmetry_equiv_pos_as_xyz
  1  'x, y, z'
loop_
 _atom_site_type_symbol
 _atom_site_label
 _atom_site_symmetry_multiplicity
 _atom_site_fract_x
 _atom_site_fract_y
 _atom_site_fract_z
 _atom_site_occupancy
  Ti  Ti0  1  0.00000000  -0.00000000  -0.00000000  1
  Sn  Sn1  1  0.00000000  -0.00000000  0.50000000  1
  Sn  Sn2  1  0.19765042  0.19765042  0.80118627  1
  Sn  Sn3  1  0.39916249  0.39916249  0.59881623  1
  Sn  Sn4  1  0.59883804  0.59883804  0.90210023  1
  Sn  Sn5  1  0.19938456  0.19938456  0.29842245  1
  Sn  Sn6  1  0.80061544  0.80061544  0.70157755  1
  Sn  Sn7  1  0.40116196  0.40116196  0.09789977  1
  Sn  Sn8  1  0.60083751  0.60083751  0.40118377  1
  Sn  Sn9  1  0.80234958  0.80234958  0.19881373  1
  O  O10  1  0.29856553  0.70143447  -0.00000000  1
  O  O11  1  0.09388640  0.70450947  0.59548475  1
  O  O12  1  0.70143447  0.29856553  -0.00000000  1
  O  O13  1  0.33802454  0.33802454  0.85503610  1
  O  O14  1  0.05659422  0.05659422  0.75296623  1
  O  O15  1  0.86700628  0.86700628  0.94279674  1
  O  O16  1  0.25986613  0.25986613  0.54458054  1
  O  O17  1  0.46174577  0.46174577  0.34328627  1
  O  O18  1  0.70450947  0.09388640  0.59548475  1
  O  O19  1  0.50553579  0.89430878  0.80236906  1
  O  O20  1  0.10569122  0.49446421  0.19763094  1
  O  O21  1  0.29549053  0.90611360  0.40451525  1
  O  O22  1  0.89430878  0.50553579  0.80236906  1
  O  O23  1  0.49446421  0.10569122  0.19763094  1
  O  O24  1  0.53825423  0.53825423  0.65671373  1
  O  O25  1  0.13299372  0.13299372  0.05720326  1
  O  O26  1  0.74013387  0.74013387  0.45541946  1
  O  O27  1  0.94340578  0.94340578  0.24703377  1
  O  O28  1  0.66197546  0.66197546  0.14496390  1
  O  O29  1  0.90611360  0.29549053  0.40451525  1
