# generated using pymatgen
data_Tm6WO12
_symmetry_space_group_name_H-M   'P 1'
_cell_length_a   6.32832029
_cell_length_b   6.32832029
_cell_length_c   6.32832082
_cell_angle_alpha   98.72402745
_cell_angle_beta   98.72402750
_cell_angle_gamma   98.72401934
_symmetry_Int_Tables_number   1
_chemical_formula_structural   Tm6WO12
_chemical_formula_sum   'Tm6 W1 O12'
_cell_volume   243.61418875
_cell_formula_units_Z   1
loop_
 _symmetry_equiv_pos_site_id
 _symmetry_equiv_pos_as_xyz
  1  'x, y, z'
loop_
 _atom_site_type_symbol
 _atom_site_label
 _atom_site_symmetry_multiplicity
 _atom_site_fract_x
 _atom_site_fract_y
 _atom_site_fract_z
 _atom_site_occupancy
  Tm  Tm0  1  0.85597547  0.38861576  0.68220176  1
  Tm  Tm1  1  0.61138424  0.31779824  0.14402453  1
  Tm  Tm2  1  0.31779824  0.14402453  0.61138424  1
  Tm  Tm3  1  0.68220176  0.85597547  0.38861576  1
  Tm  Tm4  1  0.38861576  0.68220176  0.85597547  1
  Tm  Tm5  1  0.14402453  0.61138424  0.31779824  1
  W  W6  1  -0.00000000  -0.00000000  -0.00000000  1
  O  O7  1  0.92080927  0.03527193  0.70092983  1
  O  O8  1  0.96472807  0.29907017  0.07919073  1
  O  O9  1  0.58955833  0.17731206  0.42971366  1
  O  O10  1  0.82268794  0.57028634  0.41044167  1
  O  O11  1  0.29907017  0.07919073  0.96472807  1
  O  O12  1  0.57028634  0.41044167  0.82268794  1
  O  O13  1  0.42971366  0.58955833  0.17731206  1
  O  O14  1  0.70092983  0.92080927  0.03527193  1
  O  O15  1  0.17731206  0.42971366  0.58955833  1
  O  O16  1  0.41044167  0.82268794  0.57028634  1
  O  O17  1  0.03527193  0.70092983  0.92080927  1
  O  O18  1  0.07919073  0.96472807  0.29907017  1
