# generated using pymatgen
data_V2OF5
_symmetry_space_group_name_H-M   'P 1'
_cell_length_a   5.10825781
_cell_length_b   5.31970817
_cell_length_c   12.51840238
_cell_angle_alpha   91.48624745
_cell_angle_beta   90.65457977
_cell_angle_gamma   118.78194910
_symmetry_Int_Tables_number   1
_chemical_formula_structural   V2OF5
_chemical_formula_sum   'V6 O3 F15'
_cell_volume   297.94280448
_cell_formula_units_Z   3
loop_
 _symmetry_equiv_pos_site_id
 _symmetry_equiv_pos_as_xyz
  1  'x, y, z'
loop_
 _atom_site_type_symbol
 _atom_site_label
 _atom_site_symmetry_multiplicity
 _atom_site_fract_x
 _atom_site_fract_y
 _atom_site_fract_z
 _atom_site_occupancy
  V  V0  1  0.65924898  0.33706728  0.32326453  1
  V  V1  1  0.67613008  0.34923304  0.83531420  1
  V  V2  1  0.34282207  0.65095208  0.16754268  1
  V  V3  1  0.32158131  0.68389926  0.65652294  1
  V  V4  1  0.00286627  0.99677992  0.49962636  1
  V  V5  1  0.00304727  0.97273896  0.99459884  1
  O  O6  1  0.91888938  0.68102412  0.91689613  1
  O  O7  1  0.53910025  0.46578669  0.22315316  1
  O  O8  1  0.19832268  0.81290113  0.55903765  1
  F  F9  1  0.87954024  0.15327607  0.88529561  1
  F  F10  1  0.92110283  0.44975370  0.71369844  1
  F  F11  1  0.79203002  0.20198887  0.44755150  1
  F  F12  1  0.72506257  0.66199837  0.41970099  1
  F  F13  1  0.73905335  0.87676354  0.61886912  1
  F  F14  1  0.41399441  0.21258570  0.95444529  1
  F  F15  1  0.59601537  0.80966433  0.04900787  1
  F  F16  1  0.45739445  0.52150939  0.77709797  1
  F  F17  1  0.25635433  0.12048100  0.37976633  1
  F  F18  1  0.61321022  0.99290855  0.24998858  1
  F  F19  1  0.27399530  0.34207712  0.57814252  1
  F  F20  1  0.39011556  -0.01571892  0.75990665  1
  F  F21  1  0.06891287  0.32754905  0.08259287  1
  F  F22  1  0.07832960  0.52898122  0.28622202  1
  F  F23  1  0.13288358  0.86579852  0.12175475  1
