# generated using pymatgen
data_Rb4PbO4
_symmetry_space_group_name_H-M   'P 1'
_cell_length_a   19.37820363
_cell_length_b   6.86440027
_cell_length_c   6.89406536
_cell_angle_alpha   66.92811811
_cell_angle_beta   90.00000000
_cell_angle_gamma   90.00000000
_symmetry_Int_Tables_number   1
_chemical_formula_structural   Rb4PbO4
_chemical_formula_sum   'Rb16 Pb4 O16'
_cell_volume   843.69585087
_cell_formula_units_Z   4
loop_
 _symmetry_equiv_pos_site_id
 _symmetry_equiv_pos_as_xyz
  1  'x, y, z'
loop_
 _atom_site_type_symbol
 _atom_site_label
 _atom_site_symmetry_multiplicity
 _atom_site_fract_x
 _atom_site_fract_y
 _atom_site_fract_z
 _atom_site_occupancy
  Rb  Rb0  1  0.80786178  0.31672145  0.19816919  1
  Rb  Rb1  1  0.01389012  0.25219574  0.22260417  1
  Rb  Rb2  1  0.21711573  0.19342415  0.28837852  1
  Rb  Rb3  1  0.41580501  0.22691370  0.35402352  1
  Rb  Rb4  1  0.69213822  0.81672145  0.19816919  1
  Rb  Rb5  1  0.48610988  0.75219574  0.22260417  1
  Rb  Rb6  1  0.28288427  0.69342415  0.28837852  1
  Rb  Rb7  1  0.08419499  0.72691370  0.35402352  1
  Rb  Rb8  1  0.91580501  0.27308630  0.64597648  1
  Rb  Rb9  1  0.71711573  0.30657585  0.71162148  1
  Rb  Rb10  1  0.51389012  0.24780426  0.77739583  1
  Rb  Rb11  1  0.30786178  0.18327855  0.80183081  1
  Rb  Rb12  1  0.58419499  0.77308630  0.64597648  1
  Rb  Rb13  1  0.78288427  0.80657585  0.71162148  1
  Rb  Rb14  1  0.98610988  0.74780426  0.77739583  1
  Rb  Rb15  1  0.19213822  0.68327855  0.80183081  1
  Pb  Pb16  1  0.62318253  0.30871073  0.25389746  1
  Pb  Pb17  1  0.87681747  0.80871073  0.25389746  1
  Pb  Pb18  1  0.12318253  0.19128927  0.74610254  1
  Pb  Pb19  1  0.37681747  0.69128927  0.74610254  1
  O  O20  1  0.32562207  0.48744184  0.01830555  1
  O  O21  1  0.54363544  0.12960850  0.20423664  1
  O  O22  1  0.90440304  0.98748295  0.42831194  1
  O  O23  1  0.17437793  0.98744184  0.01830555  1
  O  O24  1  0.95636456  0.62960850  0.20423664  1
  O  O25  1  0.69282081  0.08028446  0.44576568  1
  O  O26  1  0.59559696  0.48748295  0.42831194  1
  O  O27  1  0.80717919  0.58028446  0.44576568  1
  O  O28  1  0.19282081  0.41971554  0.55423432  1
  O  O29  1  0.40440304  0.51251705  0.57168806  1
  O  O30  1  0.30717919  0.91971554  0.55423432  1
  O  O31  1  0.04363544  0.37039150  0.79576336  1
  O  O32  1  0.82562207  0.01255816  0.98169445  1
  O  O33  1  0.09559696  0.01251705  0.57168806  1
  O  O34  1  0.45636456  0.87039150  0.79576336  1
  O  O35  1  0.67437793  0.51255816  0.98169445  1
