# generated using pymatgen
data_DySeO3
_symmetry_space_group_name_H-M   'P 1'
_cell_length_a   12.22147792
_cell_length_b   5.93174047
_cell_length_c   8.88506698
_cell_angle_alpha   73.80175795
_cell_angle_beta   89.99950874
_cell_angle_gamma   89.99919490
_symmetry_Int_Tables_number   1
_chemical_formula_structural   DySeO3
_chemical_formula_sum   'Dy8 Se8 O24'
_cell_volume   618.54958410
_cell_formula_units_Z   8
loop_
 _symmetry_equiv_pos_site_id
 _symmetry_equiv_pos_as_xyz
  1  'x, y, z'
loop_
 _atom_site_type_symbol
 _atom_site_label
 _atom_site_symmetry_multiplicity
 _atom_site_fract_x
 _atom_site_fract_y
 _atom_site_fract_z
 _atom_site_occupancy
  Dy  Dy0  1  0.56190149  0.76056715  0.91617068  1
  Dy  Dy1  1  0.93809203  0.76056133  0.41620990  1
  Dy  Dy2  1  0.24284438  0.63734039  0.84101338  1
  Dy  Dy3  1  0.25715922  0.63734525  0.34102036  1
  Dy  Dy4  1  0.74283684  0.36264634  0.65898320  1
  Dy  Dy5  1  0.75715703  0.36267517  0.15898036  1
  Dy  Dy6  1  0.06190729  0.23943986  0.58382513  1
  Dy  Dy7  1  0.43810024  0.23942481  0.08379507  1
  Se  Se8  1  0.84223338  0.95564731  0.01789981  1
  Se  Se9  1  0.65776436  0.95561507  0.51789508  1
  Se  Se10  1  0.98484426  0.63102327  0.82050973  1
  Se  Se11  1  0.51517893  0.63099417  0.32046478  1
  Se  Se12  1  0.48482187  0.36894948  0.67949387  1
  Se  Se13  1  0.01516559  0.36900348  0.17955385  1
  Se  Se14  1  0.34222761  0.04439242  0.48209438  1
  Se  Se15  1  0.15776890  0.04439642  0.98211054  1
  O  O16  1  0.17867947  0.02045079  0.79658185  1
  O  O17  1  0.32134691  0.02039788  0.29657845  1
  O  O18  1  0.98402936  0.86480351  0.64519582  1
  O  O19  1  0.27533508  0.78579076  0.57457775  1
  O  O20  1  0.75306286  0.75013209  0.50849938  1
  O  O21  1  0.51597375  0.86478524  0.14516168  1
  O  O22  1  0.40485539  0.59391532  0.91816123  1
  O  O23  1  0.22466168  0.78577671  0.07459040  1
  O  O24  1  0.74694021  0.75015915  0.00850838  1
  O  O25  1  0.58878820  0.55523237  0.72210275  1
  O  O26  1  0.09514840  0.59391992  0.41818710  1
  O  O27  1  0.08880304  0.44477424  0.77787931  1
  O  O28  1  0.91118913  0.55525735  0.22216218  1
  O  O29  1  0.90484914  0.40608408  0.58184120  1
  O  O30  1  0.41119039  0.44474033  0.27784362  1
  O  O31  1  0.25305592  0.24984121  0.99149867  1
  O  O32  1  0.77534598  0.21422529  0.92541847  1
  O  O33  1  0.59515182  0.40608459  0.08180690  1
  O  O34  1  0.48402926  0.13518302  0.85482200  1
  O  O35  1  0.24693052  0.24985627  0.49146417  1
  O  O36  1  0.72466831  0.21421283  0.42541333  1
  O  O37  1  0.01595880  0.13519985  0.35485298  1
  O  O38  1  0.67867071  0.97954993  0.70341277  1
  O  O39  1  0.82133225  0.97960335  0.20342250  1
