# generated using pymatgen
data_Bi14WO24
_symmetry_space_group_name_H-M   'P 1'
_cell_length_a   8.73715738
_cell_length_b   8.74340068
_cell_length_c   10.56450365
_cell_angle_alpha   114.55212056
_cell_angle_beta   114.02751756
_cell_angle_gamma   89.92095866
_symmetry_Int_Tables_number   1
_chemical_formula_structural   Bi14WO24
_chemical_formula_sum   'Bi14 W1 O24'
_cell_volume   656.64968333
_cell_formula_units_Z   1
loop_
 _symmetry_equiv_pos_site_id
 _symmetry_equiv_pos_as_xyz
  1  'x, y, z'
loop_
 _atom_site_type_symbol
 _atom_site_label
 _atom_site_symmetry_multiplicity
 _atom_site_fract_x
 _atom_site_fract_y
 _atom_site_fract_z
 _atom_site_occupancy
  Bi  Bi0  1  0.06057109  0.87513217  0.34353817  1
  Bi  Bi1  1  0.53390094  0.94744102  0.66550885  1
  Bi  Bi2  1  0.65513001  0.65434837  0.31681851  1
  Bi  Bi3  1  0.13029136  0.73048017  0.66930512  1
  Bi  Bi4  1  0.55520721  0.78913967  0.00471439  1
  Bi  Bi5  1  0.28087499  0.47384026  0.34433056  1
  Bi  Bi6  1  0.72515046  0.54044067  0.66945007  1
  Bi  Bi7  1  0.21143886  0.55797275  0.00091162  1
  Bi  Bi8  1  0.87084365  0.28419310  0.34102972  1
  Bi  Bi9  1  0.34354806  0.34315566  0.68212931  1
  Bi  Bi10  1  0.78467872  0.44627304  0.00114626  1
  Bi  Bi11  1  0.47268391  0.06728160  0.34702702  1
  Bi  Bi12  1  0.94261686  0.13272708  0.66585253  1
  Bi  Bi13  1  0.44090989  0.21221689  0.99703517  1
  W  W14  1  0.02248857  0.00930587  0.03341938  1
  O  O15  1  0.98226336  0.78369425  0.97532515  1
  O  O16  1  0.67081523  0.00297345  0.50141302  1
  O  O17  1  0.45257746  0.76397280  0.15855611  1
  O  O18  1  0.75784310  0.70360384  0.15770254  1
  O  O19  1  0.99665055  0.83179426  0.50064577  1
  O  O20  1  0.37652211  0.88798906  0.76212408  1
  O  O21  1  0.12169726  0.62321052  0.24534926  1
  O  O22  1  0.49728599  0.67450232  0.49279869  1
  O  O23  1  0.39870198  0.45674575  0.15845703  1
  O  O24  1  0.70373182  0.40340189  0.16008781  1
  O  O25  1  0.17892128  0.51423458  0.51466637  1
  O  O26  1  0.81760440  0.50271410  0.49205547  1
  O  O27  1  0.29924762  0.61105855  0.84797482  1
  O  O28  1  0.60231930  0.54818434  0.84550027  1
  O  O29  1  0.82760948  0.08079203  0.96391944  1
  O  O30  1  0.50758716  0.33736264  0.51912788  1
  O  O31  1  0.88351750  0.38604357  0.76053883  1
  O  O32  1  0.62368314  0.12363983  0.24533413  1
  O  O33  1  0.11774427  0.11885354  0.24133160  1
  O  O34  1  0.00189185  0.17911582  0.51000320  1
  O  O35  1  0.24051423  0.29965805  0.84233021  1
  O  O36  1  0.54281329  0.24601557  0.83894754  1
  O  O37  1  0.33061489  0.01298871  0.51338648  1
  O  O38  1  0.16600916  0.05900021  0.96721064  1
