# generated using pymatgen
data_Sm2Cu2O5
_symmetry_space_group_name_H-M   'P 1'
_cell_length_a   3.62527902
_cell_length_b   10.95922043
_cell_length_c   12.65045110
_cell_angle_alpha   90.00000000
_cell_angle_beta   90.00000000
_cell_angle_gamma   90.00000000
_symmetry_Int_Tables_number   1
_chemical_formula_structural   Sm2Cu2O5
_chemical_formula_sum   'Sm8 Cu8 O20'
_cell_volume   502.60535585
_cell_formula_units_Z   4
loop_
 _symmetry_equiv_pos_site_id
 _symmetry_equiv_pos_as_xyz
  1  'x, y, z'
loop_
 _atom_site_type_symbol
 _atom_site_label
 _atom_site_symmetry_multiplicity
 _atom_site_fract_x
 _atom_site_fract_y
 _atom_site_fract_z
 _atom_site_occupancy
  Sm  Sm0  1  0.21708363  0.04427891  0.66973438  1
  Sm  Sm1  1  0.21231544  0.20667354  0.99701599  1
  Sm  Sm2  1  0.71231544  0.29332646  0.49701599  1
  Sm  Sm3  1  0.71708363  0.45572109  0.16973438  1
  Sm  Sm4  1  0.28291637  0.54427891  0.66973438  1
  Sm  Sm5  1  0.28768456  0.70667354  0.99701599  1
  Sm  Sm6  1  0.78768456  0.79332646  0.49701599  1
  Sm  Sm7  1  0.78291637  0.95572109  0.16973438  1
  Cu  Cu8  1  0.33851329  0.01166084  0.38498932  1
  Cu  Cu9  1  0.15746584  0.23658354  0.28355842  1
  Cu  Cu10  1  0.65746584  0.26341646  0.78355842  1
  Cu  Cu11  1  0.83851329  0.48833916  0.88498932  1
  Cu  Cu12  1  0.16148671  0.51166084  0.38498932  1
  Cu  Cu13  1  0.34253416  0.73658354  0.28355842  1
  Cu  Cu14  1  0.84253416  0.76341646  0.78355842  1
  Cu  Cu15  1  0.66148671  0.98833916  0.88498932  1
  O  O16  1  0.27703636  0.07373695  0.23785242  1
  O  O17  1  0.72047259  0.07309014  0.02151185  1
  O  O18  1  0.37133081  0.12518613  0.83349721  1
  O  O19  1  0.72432978  0.17817957  0.64695241  1
  O  O20  1  0.21357446  0.17423643  0.43124001  1
  O  O21  1  0.71357446  0.32576357  0.93124001  1
  O  O22  1  0.22432978  0.32182043  0.14695241  1
  O  O23  1  0.87133081  0.37481387  0.33349721  1
  O  O24  1  0.22047259  0.42690986  0.52151185  1
  O  O25  1  0.77703636  0.42626305  0.73785242  1
  O  O26  1  0.22296364  0.57373695  0.23785242  1
  O  O27  1  0.77952741  0.57309014  0.02151185  1
  O  O28  1  0.12866919  0.62518613  0.83349721  1
  O  O29  1  0.77567022  0.67817957  0.64695241  1
  O  O30  1  0.28642554  0.67423643  0.43124001  1
  O  O31  1  0.78642554  0.82576357  0.93124001  1
  O  O32  1  0.27567022  0.82182043  0.14695241  1
  O  O33  1  0.62866919  0.87481387  0.33349721  1
  O  O34  1  0.27952741  0.92690986  0.52151185  1
  O  O35  1  0.72296364  0.92626305  0.73785242  1
