# generated using pymatgen
data_Sr3CrN4
_symmetry_space_group_name_H-M   'P 1'
_cell_length_a   9.57395428
_cell_length_b   10.18786695
_cell_length_c   11.25507819
_cell_angle_alpha   90.00000000
_cell_angle_beta   90.00000000
_cell_angle_gamma   90.00000000
_symmetry_Int_Tables_number   1
_chemical_formula_structural   Sr3CrN4
_chemical_formula_sum   'Sr24 Cr8 N32'
_cell_volume   1097.79975676
_cell_formula_units_Z   8
loop_
 _symmetry_equiv_pos_site_id
 _symmetry_equiv_pos_as_xyz
  1  'x, y, z'
loop_
 _atom_site_type_symbol
 _atom_site_label
 _atom_site_symmetry_multiplicity
 _atom_site_fract_x
 _atom_site_fract_y
 _atom_site_fract_z
 _atom_site_occupancy
  Sr  Sr0  1  0.52922151  0.37202987  0.39350281  1
  Sr  Sr1  1  0.19781440  0.71906575  0.38650276  1
  Sr  Sr2  1  0.80218560  0.78093425  0.88650276  1
  Sr  Sr3  1  0.30218560  0.21906575  0.61349724  1
  Sr  Sr4  1  0.30218560  0.71906575  0.88650276  1
  Sr  Sr5  1  0.80218560  0.28093425  0.61349724  1
  Sr  Sr6  1  0.19781440  0.21906575  0.11349724  1
  Sr  Sr7  1  0.69781440  0.78093425  0.38650276  1
  Sr  Sr8  1  0.69781440  0.28093425  0.11349724  1
  Sr  Sr9  1  0.02922151  0.62797013  0.10649719  1
  Sr  Sr10  1  0.97077849  0.87202987  0.60649719  1
  Sr  Sr11  1  0.47077849  0.12797013  0.89350281  1
  Sr  Sr12  1  0.47077849  0.62797013  0.60649719  1
  Sr  Sr13  1  0.97077849  0.37202987  0.89350281  1
  Sr  Sr14  1  0.02922151  0.12797013  0.39350281  1
  Sr  Sr15  1  0.52922151  0.87202987  0.10649719  1
  Sr  Sr16  1  0.87270767  0.47276488  0.35571588  1
  Sr  Sr17  1  0.37270767  0.52723512  0.14428412  1
  Sr  Sr18  1  0.62729233  0.97276488  0.64428412  1
  Sr  Sr19  1  0.12729233  0.02723512  0.85571588  1
  Sr  Sr20  1  0.12729233  0.52723512  0.64428412  1
  Sr  Sr21  1  0.62729233  0.47276488  0.85571588  1
  Sr  Sr22  1  0.37270767  0.02723512  0.35571588  1
  Sr  Sr23  1  0.87270767  0.97276488  0.14428412  1
  Cr  Cr24  1  0.69592377  0.09814955  0.38842501  1
  Cr  Cr25  1  0.19592377  0.90185045  0.11157499  1
  Cr  Cr26  1  0.80407623  0.59814955  0.61157499  1
  Cr  Cr27  1  0.30407623  0.40185045  0.88842501  1
  Cr  Cr28  1  0.30407623  0.90185045  0.61157499  1
  Cr  Cr29  1  0.80407623  0.09814955  0.88842501  1
  Cr  Cr30  1  0.19592377  0.40185045  0.38842501  1
  Cr  Cr31  1  0.69592377  0.59814955  0.11157499  1
  N  N32  1  0.78597900  0.23051974  0.32673590  1
  N  N33  1  0.28597900  0.76948026  0.17326410  1
  N  N34  1  0.71402100  0.73051974  0.67326410  1
  N  N35  1  0.21402100  0.26948026  0.82673590  1
  N  N36  1  0.21402100  0.76948026  0.67326410  1
  N  N37  1  0.71402100  0.23051974  0.82673590  1
  N  N38  1  0.28597900  0.26948026  0.32673590  1
  N  N39  1  0.78597900  0.73051974  0.17326410  1
  N  N40  1  0.81177139  0.49780569  0.03308628  1
  N  N41  1  0.31177139  0.50219431  0.46691372  1
  N  N42  1  0.68822861  0.99780569  0.96691372  1
  N  N43  1  0.18822861  0.00219431  0.53308628  1
  N  N44  1  0.18822861  0.50219431  0.96691372  1
  N  N45  1  0.68822861  0.49780569  0.53308628  1
  N  N46  1  0.31177139  0.00219431  0.03308628  1
  N  N47  1  0.62100247  0.00187926  0.27947558  1
  N  N48  1  0.56930283  0.15361232  0.48886940  1
  N  N49  1  0.06930283  0.84638768  0.01113060  1
  N  N50  1  0.93069717  0.65361232  0.51113060  1
  N  N51  1  0.43069717  0.34638768  0.98886940  1
  N  N52  1  0.43069717  0.84638768  0.51113060  1
  N  N53  1  0.93069717  0.15361232  0.98886940  1
  N  N54  1  0.06930283  0.34638768  0.48886940  1
  N  N55  1  0.56930283  0.65361232  0.01113060  1
  N  N56  1  0.62100247  0.50187926  0.22052442  1
  N  N57  1  0.12100247  0.49812074  0.27947558  1
  N  N58  1  0.87899753  0.00187926  0.77947558  1
  N  N59  1  0.37899753  0.99812074  0.72052442  1
  N  N60  1  0.37899753  0.49812074  0.77947558  1
  N  N61  1  0.87899753  0.50187926  0.72052442  1
  N  N62  1  0.12100247  0.99812074  0.22052442  1
  N  N63  1  0.81177139  0.99780569  0.46691372  1
