# generated using pymatgen
data_LiSb(SO4)2
_symmetry_space_group_name_H-M   'P 1'
_cell_length_a   9.70459200
_cell_length_b   9.81985000
_cell_length_c   14.56763187
_cell_angle_alpha   89.79213584
_cell_angle_beta   90.00000000
_cell_angle_gamma   90.00000000
_symmetry_Int_Tables_number   1
_chemical_formula_structural   LiSb(SO4)2
_chemical_formula_sum   'Li8 Sb8 S16 O64'
_cell_volume   1388.25176866
_cell_formula_units_Z   8
loop_
 _symmetry_equiv_pos_site_id
 _symmetry_equiv_pos_as_xyz
  1  'x, y, z'
loop_
 _atom_site_type_symbol
 _atom_site_label
 _atom_site_symmetry_multiplicity
 _atom_site_fract_x
 _atom_site_fract_y
 _atom_site_fract_z
 _atom_site_occupancy
  Li  Li0  1  0.79461600  0.21468400  0.63124500  1
  Li  Li1  1  0.20538400  0.21468400  0.13124500  1
  Li  Li2  1  0.70222900  0.29084400  0.12830800  1
  Li  Li3  1  0.29777100  0.29084400  0.62830800  1
  Li  Li4  1  0.30914600  0.77559800  0.87134100  1
  Li  Li5  1  0.69085400  0.77559800  0.37134100  1
  Li  Li6  1  0.98230300  0.95216100  0.37067800  1
  Li  Li7  1  0.01769700  0.95216100  0.87067800  1
  Sb  Sb8  1  0.63757500  0.13930400  0.87575800  1
  Sb  Sb9  1  0.36242500  0.13930400  0.37575800  1
  Sb  Sb10  1  0.13870400  0.36913000  0.87339700  1
  Sb  Sb11  1  0.86129600  0.36913000  0.37339700  1
  Sb  Sb12  1  0.64949400  0.63911400  0.62828300  1
  Sb  Sb13  1  0.35050600  0.63911400  0.12828300  1
  Sb  Sb14  1  0.15389300  0.85282100  0.61955900  1
  Sb  Sb15  1  0.84610700  0.85282100  0.11955900  1
  S  S16  1  0.68111100  0.06895400  0.26770100  1
  S  S17  1  0.31888900  0.06895400  0.76770100  1
  S  S18  1  0.06173600  0.15495100  0.51330000  1
  S  S19  1  0.93826400  0.15495100  0.01330000  1
  S  S20  1  0.56324200  0.34216800  0.51723800  1
  S  S21  1  0.43675800  0.34216800  0.01723800  1
  S  S22  1  0.82529200  0.42346800  0.76931000  1
  S  S23  1  0.17470800  0.42346800  0.26931000  1
  S  S24  1  0.32553400  0.56981600  0.73163500  1
  S  S25  1  0.67446600  0.56981600  0.23163500  1
  S  S26  1  0.06764400  0.66833300  0.98185400  1
  S  S27  1  0.93235600  0.66833300  0.48185400  1
  S  S28  1  0.56173900  0.84434400  0.98838300  1
  S  S29  1  0.43826100  0.84434400  0.48838300  1
  S  S30  1  0.17239700  0.93048800  0.23171900  1
  S  S31  1  0.82760300  0.93048800  0.73171900  1
  O  O32  1  0.05704100  0.99949600  0.51972700  1
  O  O33  1  0.94295900  0.99949600  0.01972700  1
  O  O34  1  0.77095400  0.02366400  0.66351300  1
  O  O35  1  0.22904600  0.02366400  0.16351300  1
  O  O36  1  0.29307300  0.02249600  0.67066400  1
  O  O37  1  0.70692700  0.02249600  0.17066400  1
  O  O38  1  0.52803500  0.05832100  0.28333900  1
  O  O39  1  0.47196500  0.05832100  0.78333900  1
  O  O40  1  0.00107500  0.18078000  0.92045400  1
  O  O41  1  0.99892500  0.18078000  0.42045400  1
  O  O42  1  0.79128900  0.20126500  0.01223200  1
  O  O43  1  0.20871100  0.20126500  0.51223200  1
  O  O44  1  0.72377500  0.21483500  0.26927300  1
  O  O45  1  0.27622500  0.21483500  0.76927300  1
  O  O46  1  0.98769800  0.21920000  0.58795200  1
  O  O47  1  0.01230200  0.21920000  0.08795200  1
  O  O48  1  0.48876800  0.27758500  0.59290600  1
  O  O49  1  0.51123200  0.27758500  0.09290600  1
  O  O50  1  0.78614600  0.27534200  0.76668400  1
  O  O51  1  0.21385400  0.27534200  0.26668400  1
  O  O52  1  0.70963400  0.29473100  0.51545100  1
  O  O53  1  0.29036600  0.29473100  0.01545100  1
  O  O54  1  0.50070800  0.31037400  0.92553700  1
  O  O55  1  0.49929200  0.31037400  0.42553700  1
  O  O56  1  0.98387200  0.42923300  0.77663700  1
  O  O57  1  0.01612800  0.42923300  0.27663700  1
  O  O58  1  0.20373700  0.47409000  0.17212300  1
  O  O59  1  0.79626300  0.47409000  0.67212300  1
  O  O60  1  0.25811600  0.48315600  0.66440300  1
  O  O61  1  0.74188400  0.48315600  0.16440300  1
  O  O62  1  0.56044800  0.49571100  0.52512500  1
  O  O63  1  0.43955200  0.49571100  0.02512500  1
  O  O64  1  0.05181100  0.51699300  0.96529300  1
  O  O65  1  0.94818900  0.51699300  0.46529300  1
  O  O66  1  0.24191800  0.50044000  0.33943900  1
  O  O67  1  0.75808200  0.50044000  0.83943900  1
  O  O68  1  0.28543400  0.53047700  0.82951700  1
  O  O69  1  0.71456600  0.53047700  0.32951700  1
  O  O70  1  0.47860000  0.56385700  0.72648300  1
  O  O71  1  0.52140000  0.56385700  0.22648300  1
  O  O72  1  0.00468100  0.69206100  0.57068200  1
  O  O73  1  0.99531900  0.69206100  0.07068200  1
  O  O74  1  0.21892700  0.70069300  0.99474200  1
  O  O75  1  0.78107300  0.70069300  0.49474200  1
  O  O76  1  0.28091000  0.71668800  0.72564600  1
  O  O77  1  0.71909000  0.71668800  0.22564600  1
  O  O78  1  0.01566900  0.75027100  0.90593300  1
  O  O79  1  0.98433100  0.75027100  0.40593300  1
  O  O80  1  0.49889600  0.77723500  0.91025900  1
  O  O81  1  0.50110400  0.77723500  0.41025900  1
  O  O82  1  0.22141900  0.78917300  0.21889500  1
  O  O83  1  0.77858100  0.78917300  0.71889500  1
  O  O84  1  0.28989500  0.80113700  0.49897800  1
  O  O85  1  0.71010500  0.80113700  0.99897800  1
  O  O86  1  0.51131000  0.81733800  0.57657200  1
  O  O87  1  0.48869000  0.81733800  0.07657200  1
  O  O88  1  0.01599500  0.93123900  0.23204800  1
  O  O89  1  0.98400500  0.93123900  0.73204800  1
  O  O90  1  0.20798600  0.97407300  0.32934800  1
  O  O91  1  0.79201400  0.97407300  0.82934800  1
  O  O92  1  0.75610400  0.98374300  0.33505300  1
  O  O93  1  0.24389600  0.98374300  0.83505300  1
  O  O94  1  0.55855100  0.99902800  0.97646200  1
  O  O95  1  0.44144900  0.99902800  0.47646200  1
