# generated using pymatgen
data_Na2Cr2O7
_symmetry_space_group_name_H-M   'P 1'
_cell_length_a   7.65476252
_cell_length_b   9.23444125
_cell_length_c   9.88316895
_cell_angle_alpha   76.03373421
_cell_angle_beta   70.88126125
_cell_angle_gamma   70.46964802
_symmetry_Int_Tables_number   1
_chemical_formula_structural   Na2Cr2O7
_chemical_formula_sum   'Na8 Cr8 O28'
_cell_volume   615.24574572
_cell_formula_units_Z   4
loop_
 _symmetry_equiv_pos_site_id
 _symmetry_equiv_pos_as_xyz
  1  'x, y, z'
loop_
 _atom_site_type_symbol
 _atom_site_label
 _atom_site_symmetry_multiplicity
 _atom_site_fract_x
 _atom_site_fract_y
 _atom_site_fract_z
 _atom_site_occupancy
  Na  Na0  1  0.53041578  0.60663545  0.22204560  1
  Na  Na1  1  0.03070574  0.26668168  0.35459058  1
  Na  Na2  1  0.02479027  0.09887785  0.73829163  1
  Na  Na3  1  0.97520973  0.90112215  0.26170837  1
  Na  Na4  1  0.53126253  0.21263614  0.17888429  1
  Na  Na5  1  0.46958422  0.39336455  0.77795440  1
  Na  Na6  1  0.96929426  0.73331832  0.64540942  1
  Na  Na7  1  0.46873747  0.78736386  0.82111571  1
  Cr  Cr8  1  0.32194706  0.91128381  0.44643569  1
  Cr  Cr9  1  0.29752280  0.37314345  0.53326586  1
  Cr  Cr10  1  0.70247720  0.62685655  0.46673414  1
  Cr  Cr11  1  0.17035304  0.59001107  0.08245774  1
  Cr  Cr12  1  0.67805294  0.08871619  0.55356431  1
  Cr  Cr13  1  0.82964696  0.40998893  0.91754226  1
  Cr  Cr14  1  0.79264751  0.84506039  0.00952503  1
  Cr  Cr15  1  0.20735249  0.15493961  0.99047497  1
  O  O16  1  0.29806743  0.59344285  0.91480835  1
  O  O17  1  0.46280624  0.22996343  0.62114300  1
  O  O18  1  0.14404229  0.86378060  0.43207475  1
  O  O19  1  0.90962956  0.87809218  0.84152275  1
  O  O20  1  0.07611324  0.33210377  0.90807065  1
  O  O21  1  0.79510245  0.58640182  0.83554191  1
  O  O22  1  0.33017622  0.07862298  0.35078658  1
  O  O23  1  0.85595771  0.13621940  0.56792525  1
  O  O24  1  0.92388676  0.66789623  0.09192935  1
  O  O25  1  0.75726600  0.47378684  0.39235910  1
  O  O26  1  0.77293544  0.98165577  0.09498933  1
  O  O27  1  0.22706456  0.01834423  0.90501067  1
  O  O28  1  0.88927289  0.68602911  0.44014128  1
  O  O29  1  0.20489755  0.41359818  0.16445809  1
  O  O30  1  0.23294053  0.69456031  0.15874151  1
  O  O31  1  0.70193257  0.40655715  0.08519165  1
  O  O32  1  0.58569132  0.82255009  0.02630190  1
  O  O33  1  0.59814451  0.59620359  0.63707276  1
  O  O34  1  0.76705947  0.30543969  0.84125849  1
  O  O35  1  0.66982378  0.92137702  0.64921342  1
  O  O36  1  0.70627238  0.08253487  0.38578862  1
  O  O37  1  0.53719376  0.77003657  0.37885700  1
  O  O38  1  0.40185549  0.40379641  0.36292724  1
  O  O39  1  0.41430868  0.17744991  0.97369810  1
  O  O40  1  0.11072711  0.31397089  0.55985872  1
  O  O41  1  0.29372762  0.91746513  0.61421138  1
  O  O42  1  0.09037044  0.12190782  0.15847725  1
  O  O43  1  0.24273400  0.52621316  0.60764090  1
