# generated using pymatgen
data_Hf2N2O
_symmetry_space_group_name_H-M   'P 1'
_cell_length_a   8.63019480
_cell_length_b   8.67967010
_cell_length_c   8.68512778
_cell_angle_alpha   109.63151909
_cell_angle_beta   109.38012209
_cell_angle_gamma   109.21985512
_symmetry_Int_Tables_number   1
_chemical_formula_structural   Hf2N2O
_chemical_formula_sum   'Hf16 N16 O8'
_cell_volume   501.93375332
_cell_formula_units_Z   8
loop_
 _symmetry_equiv_pos_site_id
 _symmetry_equiv_pos_as_xyz
  1  'x, y, z'
loop_
 _atom_site_type_symbol
 _atom_site_label
 _atom_site_symmetry_multiplicity
 _atom_site_fract_x
 _atom_site_fract_y
 _atom_site_fract_z
 _atom_site_occupancy
  Hf  Hf0  1  0.99958138  0.50050143  0.99770874  1
  Hf  Hf1  1  0.53739315  0.75081797  0.28491376  1
  Hf  Hf2  1  0.24779245  0.71403094  0.46371204  1
  Hf  Hf3  1  0.25151171  0.21634459  0.96600371  1
  Hf  Hf4  1  0.95736632  0.24351304  0.21563773  1
  Hf  Hf5  1  0.22623746  0.96560856  0.25739993  1
  Hf  Hf6  1  0.49926150  0.00073275  0.00018385  1
  Hf  Hf7  1  0.49966542  0.49014974  0.49716790  1
  Hf  Hf8  1  0.78092448  0.03645187  0.74891108  1
  Hf  Hf9  1  0.71190817  0.47259164  0.26088427  1
  Hf  Hf10  1  0.99904171  0.99904534  0.50929604  1
  Hf  Hf11  1  0.28672970  0.52804265  0.73732074  1
  Hf  Hf12  1  0.04350402  0.76245406  0.78518351  1
  Hf  Hf13  1  0.74699731  0.28324833  0.53363399  1
  Hf  Hf14  1  0.74544979  0.77977134  0.02960580  1
  Hf  Hf15  1  0.46175286  0.24796076  0.70911747  1
  N  N16  1  0.27074059  0.73289411  0.22196574  1
  N  N17  1  0.22288041  0.44963380  0.45984969  1
  N  N18  1  0.26246730  0.77211237  0.72821525  1
  N  N19  1  0.77623801  0.72563778  0.25594882  1
  N  N20  1  0.27428409  0.01308662  0.04773864  1
  N  N21  1  0.45361346  0.46534068  0.22738994  1
  N  N22  1  0.98710221  0.95852645  0.73076217  1
  N  N23  1  0.23749886  0.96445111  0.51107060  1
  N  N24  1  0.22482656  0.27534711  0.74086936  1
  N  N25  1  0.54683610  0.53890501  0.77410739  1
  N  N26  1  0.46733357  0.22711262  0.45578844  1
  N  N27  1  0.72813891  0.98540049  0.95283996  1
  N  N28  1  0.74123457  0.22914179  0.27141035  1
  N  N29  1  0.77658615  0.54884889  0.53793445  1
  N  N30  1  0.75573198  0.03073875  0.48574602  1
  N  N31  1  0.73199864  0.26871940  0.78273610  1
  O  O32  1  0.95499493  0.72524690  0.99105989  1
  O  O33  1  0.96453329  0.50693814  0.23128340  1
  O  O34  1  0.49152010  0.76627052  0.03771601  1
  O  O35  1  0.04565270  0.27812089  0.01154703  1
  O  O36  1  0.01349866  0.04352812  0.26710283  1
  O  O37  1  0.53126636  0.77472829  0.54523887  1
  O  O38  1  0.03832894  0.49445735  0.77155161  1
  O  O39  1  0.50757417  0.23354778  0.96344488  1
