# generated using pymatgen
data_V2OF5
_symmetry_space_group_name_H-M   'P 1'
_cell_length_a   5.09896296
_cell_length_b   5.30072759
_cell_length_c   16.90063914
_cell_angle_alpha   83.35499611
_cell_angle_beta   81.38759012
_cell_angle_gamma   61.46557390
_symmetry_Int_Tables_number   1
_chemical_formula_structural   V2OF5
_chemical_formula_sum   'V8 O4 F20'
_cell_volume   396.26861477
_cell_formula_units_Z   4
loop_
 _symmetry_equiv_pos_site_id
 _symmetry_equiv_pos_as_xyz
  1  'x, y, z'
loop_
 _atom_site_type_symbol
 _atom_site_label
 _atom_site_symmetry_multiplicity
 _atom_site_fract_x
 _atom_site_fract_y
 _atom_site_fract_z
 _atom_site_occupancy
  V  V0  1  0.60151899  0.63853919  0.11718133  1
  V  V1  1  0.14206602  0.14329665  0.62502826  1
  V  V2  1  0.23770688  0.26332629  0.25102328  1
  V  V3  1  0.75714162  0.77472030  0.75402967  1
  V  V4  1  0.89426412  0.84949594  0.36991309  1
  V  V5  1  0.39693747  0.36059609  0.87272451  1
  V  V6  1  0.01512781  0.98919931  0.00037415  1
  V  V7  1  0.49405211  0.48825207  0.50326335  1
  O  O8  1  0.32954273  0.32411631  0.58542020  1
  O  O9  1  0.38371012  0.78695512  0.04209368  1
  O  O10  1  0.12945788  0.57693749  0.31174595  1
  O  O11  1  0.66308993  0.04976765  0.81154665  1
  F  F12  1  0.84153667  0.83843606  0.08908524  1
  F  F13  1  0.92456072  0.31304751  0.06009211  1
  F  F14  1  0.41218433  0.80301028  0.56443256  1
  F  F15  1  0.33474782  0.91847685  0.19251123  1
  F  F16  1  0.62582786  0.05303771  0.28701216  1
  F  F17  1  0.16102955  0.52823268  0.78408138  1
  F  F18  1  0.41728420  0.39307584  0.15883972  1
  F  F19  1  0.91494610  0.91617565  0.65984123  1
  F  F20  1  0.10355516  0.70998630  0.46535704  1
  F  F21  1  0.83622946  0.44005643  0.69255473  1
  F  F22  1  0.08103758  0.09794270  0.33975451  1
  F  F23  1  0.88498240  0.28554830  0.53710977  1
  F  F24  1  0.60271990  0.57922023  0.84105828  1
  F  F25  1  0.60212075  0.21580111  0.96564453  1
  F  F26  1  0.64149204  0.67653173  0.41219833  1
  F  F27  1  0.85996736  0.45385724  0.20760711  1
  F  F28  1  0.36068887  0.95032195  0.71637074  1
  F  F29  1  0.07935355  0.69310072  0.93514972  1
  F  F30  1  0.59084970  0.18596652  0.43531076  1
  F  F31  1  0.15997431  0.16519979  0.91102975  1
