# generated using pymatgen
data_SbH24C6(NCl2)3
_symmetry_space_group_name_H-M   'P 1'
_cell_length_a   9.52702612
_cell_length_b   10.04640605
_cell_length_c   11.06684050
_cell_angle_alpha   66.14451609
_cell_angle_beta   77.76505011
_cell_angle_gamma   77.05302573
_symmetry_Int_Tables_number   1
_chemical_formula_structural   SbH24C6(NCl2)3
_chemical_formula_sum   'Sb2 H48 C12 N6 Cl12'
_cell_volume   935.32919697
_cell_formula_units_Z   2
loop_
 _symmetry_equiv_pos_site_id
 _symmetry_equiv_pos_as_xyz
  1  'x, y, z'
loop_
 _atom_site_type_symbol
 _atom_site_label
 _atom_site_symmetry_multiplicity
 _atom_site_fract_x
 _atom_site_fract_y
 _atom_site_fract_z
 _atom_site_occupancy
  Sb  Sb0  1  0.17421976  0.48635922  0.34807626  1
  Sb  Sb1  1  0.82578024  0.51364078  0.65192374  1
  H  H2  1  0.70084099  0.35260832  0.36563698  1
  H  H3  1  0.29915901  0.64739168  0.63436302  1
  H  H4  1  0.57470162  0.50353834  0.33184234  1
  H  H5  1  0.42529838  0.49646166  0.66815766  1
  H  H6  1  0.74710279  0.51785698  0.32519781  1
  H  H7  1  0.25289721  0.48214302  0.67480219  1
  H  H8  1  0.11231812  0.87434899  0.43187402  1
  H  H9  1  0.88768188  0.12565101  0.56812598  1
  H  H10  1  -0.00008397  0.83287529  0.35819675  1
  H  H11  1  0.00008397  0.16712471  0.64180325  1
  H  H12  1  0.95440214  0.98365943  0.39126255  1
  H  H13  1  0.04559786  0.01634057  0.60873745  1
  H  H14  1  0.52973808  0.11066137  0.57148647  1
  H  H15  1  0.47026192  0.88933863  0.42851353  1
  H  H16  1  0.36436985  0.17210935  0.63876764  1
  H  H17  1  0.63563015  0.82789065  0.36123236  1
  H  H18  1  0.39329783  0.01156548  0.62296607  1
  H  H19  1  0.60670217  0.98843452  0.37703393  1
  H  H20  1  0.82506836  0.44210659  0.14104427  1
  H  H21  1  0.17493164  0.55789341  0.85895573  1
  H  H22  1  0.64730476  0.40865900  0.15163310  1
  H  H23  1  0.35269524  0.59134100  0.84836690  1
  H  H24  1  0.69223788  0.64978393  0.96899712  1
  H  H25  1  0.30776212  0.35021607  0.03100288  1
  H  H26  1  0.72669879  0.71228895  0.08717328  1
  H  H27  1  0.27330121  0.28771105  0.91282672  1
  H  H28  1  0.55033137  0.67541201  0.09423591  1
  H  H29  1  0.44966863  0.32458799  0.90576409  1
  H  H30  1  0.17009460  0.07980198  0.24265660  1
  H  H31  1  0.82990540  0.92019802  0.75734340  1
  H  H32  1  0.20150406  0.92295266  0.19793498  1
  H  H33  1  0.79849594  0.07704734  0.80206502  1
  H  H34  1  0.06605804  0.14492538  0.03171280  1
  H  H35  1  0.93394196  0.85507462  0.96828720  1
  H  H36  1  0.92786570  0.15875299  0.16175422  1
  H  H37  1  0.07213430  0.84124701  0.83824578  1
  H  H38  1  0.95774116  0.00370342  0.11555496  1
  H  H39  1  0.04225884  0.99629658  0.88444504  1
  H  H40  1  0.57575922  0.91592397  0.77481352  1
  H  H41  1  0.42424078  0.08407603  0.22518648  1
  H  H42  1  0.53836688  0.08870392  0.79275198  1
  H  H43  1  0.46163312  0.91129608  0.20724802  1
  H  H44  1  0.40285868  0.90372421  0.98386848  1
  H  H45  1  0.59714132  0.09627579  0.01613152  1
  H  H46  1  0.32007121  0.87312777  0.87152751  1
  H  H47  1  0.67992879  0.12687223  0.12847249  1
  H  H48  1  0.27872160  0.04680257  0.88715917  1
  H  H49  1  0.72127840  0.95319743  0.11284083  1
  C  C50  1  0.70974594  0.48109830  0.16191440  1
  C  C51  1  0.29025406  0.51890170  0.83808560  1
  C  C52  1  0.66680913  0.63990013  0.07294754  1
  C  C53  1  0.33319087  0.36009987  0.92705246  1
  C  C54  1  0.11836929  0.00241327  0.22744885  1
  C  C55  1  0.88163071  0.99758673  0.77255115  1
  C  C56  1  0.01089166  0.08165344  0.12864305  1
  C  C57  1  0.98910834  0.91834656  0.87135695  1
  C  C58  1  0.49075771  0.00745515  0.77912108  1
  C  C59  1  0.50924229  0.99254485  0.22087892  1
  C  C60  1  0.36540590  0.95519033  0.88624928  1
  C  C61  1  0.63459410  0.04480967  0.11375072  1
  N  N62  1  0.68116098  0.46261775  0.30546165  1
  N  N63  1  0.31883902  0.53738225  0.69453835  1
  N  N64  1  0.04276299  0.91733683  0.36087138  1
  N  N65  1  0.95723701  0.08266317  0.63912862  1
  N  N66  1  0.44210437  0.08047137  0.64457267  1
  N  N67  1  0.55789563  0.91952863  0.35542733  1
  Cl  Cl68  1  0.14413879  0.30762651  0.65763797  1
  Cl  Cl69  1  0.85586121  0.69237349  0.34236203  1
  Cl  Cl70  1  0.39078836  0.30896010  0.33315321  1
  Cl  Cl71  1  0.60921164  0.69103990  0.66684679  1
  Cl  Cl72  1  0.36031039  0.64936823  0.36713239  1
  Cl  Cl73  1  0.63968961  0.35063177  0.63286761  1
  Cl  Cl74  1  0.03052016  0.31500854  0.32812011  1
  Cl  Cl75  1  0.96947984  0.68499146  0.67187989  1
  Cl  Cl76  1  0.20221990  0.62539562  0.11003746  1
  Cl  Cl77  1  0.79778010  0.37460438  0.88996254  1
  Cl  Cl78  1  0.73646739  0.10025987  0.43793707  1
  Cl  Cl79  1  0.26353261  0.89974013  0.56206293  1
