# generated using pymatgen
data_Rb2Nb2P2S11
_symmetry_space_group_name_H-M   'P 1'
_cell_length_a   7.14772100
_cell_length_b   7.13492000
_cell_length_c   18.88364577
_cell_angle_alpha   81.40577962
_cell_angle_beta   90.00000000
_cell_angle_gamma   90.00000000
_symmetry_Int_Tables_number   1
_chemical_formula_structural   Rb2Nb2P2S11
_chemical_formula_sum   'Rb4 Nb4 P4 S22'
_cell_volume   952.22256250
_cell_formula_units_Z   2
loop_
 _symmetry_equiv_pos_site_id
 _symmetry_equiv_pos_as_xyz
  1  'x, y, z'
loop_
 _atom_site_type_symbol
 _atom_site_label
 _atom_site_symmetry_multiplicity
 _atom_site_fract_x
 _atom_site_fract_y
 _atom_site_fract_z
 _atom_site_occupancy
  Rb  Rb0  1  0.75165400  0.74186200  0.99556400  1
  Rb  Rb1  1  0.24334200  0.25342500  0.00335000  1
  Rb  Rb2  1  0.75209300  0.77911100  0.50685700  1
  Rb  Rb3  1  0.25237300  0.22932700  0.49461100  1
  Nb  Nb4  1  0.04873300  0.29615600  0.75480000  1
  Nb  Nb5  1  0.55177800  0.69786000  0.24693200  1
  Nb  Nb6  1  0.94660400  0.69237800  0.24385100  1
  Nb  Nb7  1  0.45477100  0.30806600  0.75427100  1
  P  P8  1  0.74939300  0.30952700  0.89022000  1
  P  P9  1  0.75528400  0.20980000  0.62797700  1
  P  P10  1  0.25271800  0.68625900  0.10524900  1
  P  P11  1  0.25652700  0.79155000  0.37261800  1
  S  S12  1  0.25500800  0.59923100  0.73085900  1
  S  S13  1  0.25326600  0.73695700  0.47867600  1
  S  S14  1  0.47870900  0.52580500  0.14364200  1
  S  S15  1  0.75531000  0.93919000  0.18832100  1
  S  S16  1  0.24495300  0.76528300  0.00258000  1
  S  S17  1  0.25158900  0.43789100  0.65140100  1
  S  S18  1  0.74999100  0.55397100  0.34585800  1
  S  S19  1  0.74786100  0.22319400  0.99774200  1
  S  S20  1  0.74968800  0.45681000  0.67341200  1
  S  S21  1  0.24967200  0.88470900  0.17608900  1
  S  S22  1  0.25228400  0.06462000  0.81022300  1
  S  S23  1  0.99027100  0.06221100  0.66756800  1
  S  S24  1  0.01818700  0.51420600  0.14266700  1
  S  S25  1  0.75154600  0.39470800  0.26609900  1
  S  S26  1  0.75610800  0.26523000  0.51982600  1
  S  S27  1  0.51234200  0.06018200  0.66493800  1
  S  S28  1  0.98029900  0.47353000  0.85728700  1
  S  S29  1  0.52064300  0.47387400  0.85910800  1
  S  S30  1  0.01192000  0.94335000  0.33205100  1
  S  S31  1  0.75154400  0.11428800  0.82625500  1
  S  S32  1  0.24490700  0.54951500  0.32257100  1
  S  S33  1  0.47725900  0.94075800  0.33369200  1
