# generated using pymatgen
data_LiCoSnO4
_symmetry_space_group_name_H-M   'P 1'
_cell_length_a   5.94763533
_cell_length_b   5.94736037
_cell_length_c   8.46442766
_cell_angle_alpha   86.90335777
_cell_angle_beta   86.90313601
_cell_angle_gamma   89.08854499
_symmetry_Int_Tables_number   1
_chemical_formula_structural   LiCoSnO4
_chemical_formula_sum   'Li4 Co4 Sn4 O16'
_cell_volume   298.51079023
_cell_formula_units_Z   4
loop_
 _symmetry_equiv_pos_site_id
 _symmetry_equiv_pos_as_xyz
  1  'x, y, z'
loop_
 _atom_site_type_symbol
 _atom_site_label
 _atom_site_symmetry_multiplicity
 _atom_site_fract_x
 _atom_site_fract_y
 _atom_site_fract_z
 _atom_site_occupancy
  Li  Li0  1  0.25232737  0.49753128  0.37489558  1
  Li  Li1  1  0.75246867  0.99764020  0.87504674  1
  Li  Li2  1  0.74782796  0.50219549  0.62501158  1
  Li  Li3  1  0.24763661  0.00236655  0.12502918  1
  Co  Co4  1  0.49996318  0.99994671  0.50000080  1
  Co  Co5  1  0.25007326  0.75002797  0.75000014  1
  Co  Co6  1  0.99996673  0.50000047  0.99999011  1
  Co  Co7  1  0.74999299  0.25002240  0.25000817  1
  Sn  Sn8  1  0.74997126  0.75005004  0.24999987  1
  Sn  Sn9  1  0.25011538  0.25007710  0.74994874  1
  Sn  Sn10  1  0.99991800  0.99989623  0.50004946  1
  Sn  Sn11  1  0.49997734  0.50001119  0.00000085  1
  O  O12  1  0.02487309  0.51518953  0.76957834  1
  O  O13  1  0.52477260  0.01517982  0.26960768  1
  O  O14  1  0.73479631  0.22514671  0.48042583  1
  O  O15  1  0.23481080  0.72521879  0.98039559  1
  O  O16  1  0.26513229  0.77478878  0.51963330  1
  O  O17  1  0.76512105  0.27484621  0.01963150  1
  O  O18  1  0.97513652  0.48488375  0.23036967  1
  O  O19  1  0.47522098  0.98488346  0.73037107  1
  O  O20  1  0.97711217  0.01113479  0.25561366  1
  O  O21  1  0.47724375  0.51115809  0.75556900  1
  O  O22  1  0.73882926  0.77276518  0.49442001  1
  O  O23  1  0.23885511  0.27286474  0.99438338  1
  O  O24  1  0.26105911  0.22711481  0.50554458  1
  O  O25  1  0.76108369  0.72719107  0.00557168  1
  O  O26  1  0.02290845  0.98894525  0.74447224  1
  O  O27  1  0.52280406  0.48892640  0.24443025  1
