# generated using pymatgen
data_Zr2N2O
_symmetry_space_group_name_H-M   'P 1'
_cell_length_a   8.80133199
_cell_length_b   8.79867400
_cell_length_c   8.76717120
_cell_angle_alpha   109.29902883
_cell_angle_beta   109.39104799
_cell_angle_gamma   109.70131326
_symmetry_Int_Tables_number   1
_chemical_formula_structural   Zr2N2O
_chemical_formula_sum   'Zr16 N16 O8'
_cell_volume   522.77899442
_cell_formula_units_Z   8
loop_
 _symmetry_equiv_pos_site_id
 _symmetry_equiv_pos_as_xyz
  1  'x, y, z'
loop_
 _atom_site_type_symbol
 _atom_site_label
 _atom_site_symmetry_multiplicity
 _atom_site_fract_x
 _atom_site_fract_y
 _atom_site_fract_z
 _atom_site_occupancy
  Zr  Zr0  1  0.49916059  0.99844127  0.98662983  1
  Zr  Zr1  1  0.75836098  0.29315125  0.54536100  1
  Zr  Zr2  1  0.72116846  0.47191401  0.25001387  1
  Zr  Zr3  1  0.20984085  0.95988882  0.24407143  1
  Zr  Zr4  1  0.24575087  0.21231113  0.95365030  1
  Zr  Zr5  1  0.02778018  0.74288309  0.77456761  1
  Zr  Zr6  1  0.53104725  0.74746104  0.28816795  1
  Zr  Zr7  1  0.96541154  0.25025873  0.21786755  1
  Zr  Zr8  1  0.50407239  0.50870562  0.51270039  1
  Zr  Zr9  1  0.99971689  0.99855250  0.49880018  1
  Zr  Zr10  1  0.47044811  0.25783211  0.72484578  1
  Zr  Zr11  1  0.99838911  0.50789684  0.99952512  1
  Zr  Zr12  1  0.75770526  0.78850669  0.03911983  1
  Zr  Zr13  1  0.28305076  0.53249642  0.74500232  1
  Zr  Zr14  1  0.78093209  0.03076472  0.75286996  1
  Zr  Zr15  1  0.24801394  0.70665227  0.46276491  1
  N  N16  1  0.72749422  0.99320798  0.95827785  1
  N  N17  1  0.50983696  0.23867711  0.97079255  1
  N  N18  1  0.01551214  0.04628387  0.27623279  1
  N  N19  1  0.76683614  0.72763260  0.26190785  1
  N  N20  1  0.72636920  0.25603033  0.76778757  1
  N  N21  1  0.76786802  0.53722279  0.52709745  1
  N  N22  1  0.27392402  0.74136046  0.22678307  1
  N  N23  1  0.95736141  0.72883561  0.98818622  1
  N  N24  1  0.53846674  0.77059447  0.54164500  1
  N  N25  1  0.98940939  0.95919546  0.73161700  1
  N  N26  1  0.22614726  0.26993902  0.73852545  1
  N  N27  1  0.54684698  0.53267972  0.77320171  1
  N  N28  1  0.23016676  0.45586179  0.46741541  1
  N  N29  1  0.96420169  0.50629296  0.23835401  1
  N  N30  1  0.03213589  0.48425414  0.75836171  1
  N  N31  1  0.26474162  0.77953227  0.73002895  1
  O  O32  1  0.27881410  0.01496387  0.05265741  1
  O  O33  1  0.76090480  0.03339865  0.48159477  1
  O  O34  1  0.73761531  0.21866357  0.27454950  1
  O  O35  1  0.05121286  0.27539819  0.01863255  1
  O  O36  1  0.44480346  0.46477786  0.22358751  1
  O  O37  1  0.23748016  0.96720982  0.50930488  1
  O  O38  1  0.46175556  0.22517712  0.45246451  1
  O  O39  1  0.48924505  0.76509082  0.03503825  1
