# generated using pymatgen
data_Bi10(Pb2O7)3
_symmetry_space_group_name_H-M   'P 1'
_cell_length_a   7.21669499
_cell_length_b   7.50232170
_cell_length_c   14.16040635
_cell_angle_alpha   92.65331336
_cell_angle_beta   97.26974302
_cell_angle_gamma   118.13280575
_symmetry_Int_Tables_number   1
_chemical_formula_structural   Bi10(Pb2O7)3
_chemical_formula_sum   'Bi10 Pb6 O21'
_cell_volume   665.72235451
_cell_formula_units_Z   1
loop_
 _symmetry_equiv_pos_site_id
 _symmetry_equiv_pos_as_xyz
  1  'x, y, z'
loop_
 _atom_site_type_symbol
 _atom_site_label
 _atom_site_symmetry_multiplicity
 _atom_site_fract_x
 _atom_site_fract_y
 _atom_site_fract_z
 _atom_site_occupancy
  Bi  Bi0  1  0.34783077  0.06691175  0.81226167  1
  Bi  Bi1  1  0.51747315  0.23835050  0.54591299  1
  Bi  Bi2  1  0.93480825  0.22794451  0.97488472  1
  Bi  Bi3  1  0.50907760  0.31694090  0.07220394  1
  Bi  Bi4  1  0.74664639  0.51233118  0.32382083  1
  Bi  Bi5  1  0.25335361  0.48766882  0.67617917  1
  Bi  Bi6  1  0.49092240  0.68305910  0.92779606  1
  Bi  Bi7  1  0.06519175  0.77205549  0.02511528  1
  Bi  Bi8  1  0.48252685  0.76164950  0.45408701  1
  Bi  Bi9  1  0.65216923  0.93308825  0.18773833  1
  Pb  Pb10  1  0.27031245  0.01746659  0.29138842  1
  Pb  Pb11  1  0.80741226  0.52321397  0.79342894  1
  Pb  Pb12  1  0.97660473  0.21083492  0.44224469  1
  Pb  Pb13  1  0.02339527  0.78916508  0.55775531  1
  Pb  Pb14  1  0.19258774  0.47678603  0.20657106  1
  Pb  Pb15  1  0.72968755  0.98253341  0.70861158  1
  O  O16  1  0.31009502  0.03598130  0.97324359  1
  O  O17  1  0.48602467  0.08287074  0.67537834  1
  O  O18  1  0.40981687  0.40361586  0.78940344  1
  O  O19  1  0.66463447  0.26072492  0.87955772  1
  O  O20  1  0.71393301  0.05213684  0.53141563  1
  O  O21  1  0.46801384  0.32141947  0.37744570  1
  O  O22  1  0.54258294  0.17698451  0.19494950  1
  O  O23  1  0.80999917  0.74870066  0.89881883  1
  O  O24  1  0.21590008  0.24472357  0.57284063  1
  O  O25  1  0.09864323  0.58980009  0.91738594  1
  O  O26  1  0.00000000  0.50000000  0.50000000  1
  O  O27  1  0.90135677  0.41019991  0.08261406  1
  O  O28  1  0.78409992  0.75527643  0.42715937  1
  O  O29  1  0.19000083  0.25129934  0.10118117  1
  O  O30  1  0.45741706  0.82301549  0.80505050  1
  O  O31  1  0.53198616  0.67858053  0.62255430  1
  O  O32  1  0.28606699  0.94786316  0.46858437  1
  O  O33  1  0.33536553  0.73927508  0.12044228  1
  O  O34  1  0.59018313  0.59638414  0.21059656  1
  O  O35  1  0.51397533  0.91712926  0.32462166  1
  O  O36  1  0.68990498  0.96401870  0.02675641  1
