# generated using pymatgen
data_S
_symmetry_space_group_name_H-M   'P 1'
_cell_length_a   8.49237762
_cell_length_b   8.49237835
_cell_length_c   13.56337165
_cell_angle_alpha   104.57638494
_cell_angle_beta   104.57639188
_cell_angle_gamma   101.30909236
_symmetry_Int_Tables_number   1
_chemical_formula_structural   S
_chemical_formula_sum   S32
_cell_volume   880.39167045
_cell_formula_units_Z   32
loop_
 _symmetry_equiv_pos_site_id
 _symmetry_equiv_pos_as_xyz
  1  'x, y, z'
loop_
 _atom_site_type_symbol
 _atom_site_label
 _atom_site_symmetry_multiplicity
 _atom_site_fract_x
 _atom_site_fract_y
 _atom_site_fract_z
 _atom_site_occupancy
  S  S0  1  0.14526468  0.04792141  0.90493706  1
  S  S1  1  0.14298636  0.74032762  0.59506294  1
  S  S2  1  0.95207859  0.85473532  0.59506294  1
  S  S3  1  0.25967238  0.85701364  0.90493706  1
  S  S4  1  0.85473532  0.95207859  0.09506294  1
  S  S5  1  0.85701364  0.25967238  0.40493706  1
  S  S6  1  0.04792141  0.14526468  0.40493706  1
  S  S7  1  0.74032762  0.14298636  0.09506294  1
  S  S8  1  0.31235407  0.27220567  0.00878780  1
  S  S9  1  0.26341686  0.80356727  0.49121220  1
  S  S10  1  0.72779433  0.68764593  0.49121220  1
  S  S11  1  0.19643273  0.73658314  0.00878780  1
  S  S12  1  0.68764593  0.72779433  0.99121220  1
  S  S13  1  0.73658314  0.19643273  0.50878780  1
  S  S14  1  0.27220567  0.31235407  0.50878780  1
  S  S15  1  0.80356727  0.26341686  0.99121220  1
  S  S16  1  0.26316185  0.31907201  0.15217955  1
  S  S17  1  0.16689246  0.61098030  0.34782045  1
  S  S18  1  0.68092799  0.73683815  0.34782045  1
  S  S19  1  0.38901870  0.83310754  0.15217955  1
  S  S20  1  0.73683815  0.68092799  0.84782045  1
  S  S21  1  0.83310754  0.38901870  0.65217955  1
  S  S22  1  0.31907201  0.26316185  0.65217955  1
  S  S23  1  0.61098030  0.16689246  0.84782045  1
  S  S24  1  0.43233092  0.24772666  0.25707183  1
  S  S25  1  0.99065383  0.67525909  0.24292817  1
  S  S26  1  0.75227334  0.56766908  0.24292817  1
  S  S27  1  0.32474091  0.00934617  0.25707183  1
  S  S28  1  0.56766908  0.75227334  0.74292817  1
  S  S29  1  0.00934617  0.32474091  0.75707183  1
  S  S30  1  0.24772666  0.43233092  0.75707183  1
  S  S31  1  0.67525909  0.99065383  0.74292817  1
