# generated using pymatgen
data_LaBO3
_symmetry_space_group_name_H-M   'P 1'
_cell_length_a   4.17942406
_cell_length_b   5.08865142
_cell_length_c   6.31435532
_cell_angle_alpha   90.00000000
_cell_angle_beta   107.68584388
_cell_angle_gamma   90.00000000
_symmetry_Int_Tables_number   1
_chemical_formula_structural   LaBO3
_chemical_formula_sum   'La2 B2 O6'
_cell_volume   127.94431487
_cell_formula_units_Z   2
loop_
 _symmetry_equiv_pos_site_id
 _symmetry_equiv_pos_as_xyz
  1  'x, y, z'
loop_
 _atom_site_type_symbol
 _atom_site_label
 _atom_site_symmetry_multiplicity
 _atom_site_fract_x
 _atom_site_fract_y
 _atom_site_fract_z
 _atom_site_occupancy
  La  La0  1  0.62066132  0.25000000  0.77560341  1
  La  La1  1  0.37933868  0.75000000  0.22439659  1
  B  B2  1  0.99691267  0.25000000  0.25327063  1
  B  B3  1  0.00308733  0.75000000  0.74672937  1
  O  O4  1  0.84126251  0.01696247  0.17220390  1
  O  O5  1  0.15873749  0.51696247  0.82779610  1
  O  O6  1  0.67323021  0.75000000  0.61642783  1
  O  O7  1  0.32676979  0.25000000  0.38357217  1
  O  O8  1  0.15873749  0.98303753  0.82779610  1
  O  O9  1  0.84126251  0.48303753  0.17220390  1
