# generated using pymatgen
data_Li2Mn2P4H6O17
_symmetry_space_group_name_H-M   'P 1'
_cell_length_a   8.57497260
_cell_length_b   8.95547435
_cell_length_c   9.16247620
_cell_angle_alpha   116.19937302
_cell_angle_beta   100.29452481
_cell_angle_gamma   89.89130218
_symmetry_Int_Tables_number   1
_chemical_formula_structural   Li2Mn2P4H6O17
_chemical_formula_sum   'Li4 Mn4 P8 H12 O34'
_cell_volume   618.79617507
_cell_formula_units_Z   2
loop_
 _symmetry_equiv_pos_site_id
 _symmetry_equiv_pos_as_xyz
  1  'x, y, z'
loop_
 _atom_site_type_symbol
 _atom_site_label
 _atom_site_symmetry_multiplicity
 _atom_site_fract_x
 _atom_site_fract_y
 _atom_site_fract_z
 _atom_site_occupancy
  Li  Li0  1  0.24971733  0.81884474  0.89418075  1
  Li  Li1  1  0.66689384  0.24855878  0.47604118  1
  Li  Li2  1  0.33310616  0.75144122  0.52395882  1
  Li  Li3  1  0.75028267  0.18115526  0.10581925  1
  Mn  Mn4  1  0.13419243  0.29427995  0.74858731  1
  Mn  Mn5  1  0.63385153  0.78574806  0.73633331  1
  Mn  Mn6  1  0.36614847  0.21425194  0.26366669  1
  Mn  Mn7  1  0.86580757  0.70572005  0.25141269  1
  P  P8  1  0.41156647  0.08839665  0.85891275  1
  P  P9  1  0.90681612  0.59306458  0.83943135  1
  P  P10  1  0.44172773  0.45144824  0.70155475  1
  P  P11  1  0.13895946  0.00353164  0.35217176  1
  P  P12  1  0.86104054  0.99646836  0.64782824  1
  P  P13  1  0.55827227  0.54855176  0.29844525  1
  P  P14  1  0.09318388  0.40693542  0.16056865  1
  P  P15  1  0.58843353  0.91160335  0.14108725  1
  H  H16  1  0.95672869  0.20631129  0.94557635  1
  H  H17  1  0.56947236  0.29892406  0.90880968  1
  H  H18  1  0.66959412  0.50298171  0.89662292  1
  H  H19  1  0.69816010  0.97904562  0.43710255  1
  H  H20  1  0.14864540  0.59978756  0.61288347  1
  H  H21  1  0.06570783  0.75039210  0.59370157  1
  H  H22  1  0.93429217  0.24960790  0.40629843  1
  H  H23  1  0.85135460  0.40021244  0.38711653  1
  H  H24  1  0.30183990  0.02095438  0.56289745  1
  H  H25  1  0.33040588  0.49701829  0.10337708  1
  H  H26  1  0.43052764  0.70107594  0.09119032  1
  H  H27  1  0.04327131  0.79368871  0.05442365  1
  O  O28  1  0.33105226  0.06608412  0.98172747  1
  O  O29  1  0.56547941  0.21291391  0.95132956  1
  O  O30  1  0.30821606  0.15815407  0.75152794  1
  O  O31  1  0.82632211  0.58670170  0.97228975  1
  O  O32  1  0.05121038  0.73142022  0.93354025  1
  O  O33  1  0.98770798  0.14004322  0.76609065  1
  O  O34  1  0.56192251  0.43027817  0.84176609  1
  O  O35  1  0.27480411  0.45323298  0.74166725  1
  O  O36  1  0.73633093  0.06962397  0.55238421  1
  O  O37  1  0.07506606  0.15158287  0.47890518  1
  O  O38  1  0.96651667  0.42807173  0.73129767  1
  O  O39  1  0.47698334  0.62512404  0.71715004  1
  O  O40  1  0.45677696  0.31076549  0.53707782  1
  O  O41  1  0.79333144  0.63477337  0.71639520  1
  O  O42  1  0.16548038  0.71681354  0.63961746  1
  O  O43  1  0.45884334  0.92316517  0.73296787  1
  O  O44  1  0.78256420  0.95617398  0.76433054  1
  O  O45  1  0.21743580  0.04382602  0.23566946  1
  O  O46  1  0.54115666  0.07683483  0.26703213  1
  O  O47  1  0.83451962  0.28318646  0.36038254  1
  O  O48  1  0.20666856  0.36522663  0.28360480  1
  O  O49  1  0.54322304  0.68923451  0.46292218  1
  O  O50  1  0.52301666  0.37487596  0.28284996  1
  O  O51  1  0.03348333  0.57192827  0.26870233  1
  O  O52  1  0.92493394  0.84841713  0.52109482  1
  O  O53  1  0.26366907  0.93037603  0.44761579  1
  O  O54  1  0.72519589  0.54676702  0.25833275  1
  O  O55  1  0.43807749  0.56972183  0.15823391  1
  O  O56  1  0.01229202  0.85995678  0.23390935  1
  O  O57  1  0.94878962  0.26857978  0.06645975  1
  O  O58  1  0.17367789  0.41329830  0.02771025  1
  O  O59  1  0.69178394  0.84184593  0.24847206  1
  O  O60  1  0.43452059  0.78708609  0.04867044  1
  O  O61  1  0.66894774  0.93391588  0.01827253  1
