# generated using pymatgen
data_SbO2F
_symmetry_space_group_name_H-M   'P 1'
_cell_length_a   5.00764704
_cell_length_b   5.46092933
_cell_length_c   5.00764799
_cell_angle_alpha   119.04697721
_cell_angle_beta   61.82318801
_cell_angle_gamma   119.04699722
_symmetry_Int_Tables_number   1
_chemical_formula_structural   SbO2F
_chemical_formula_sum   'Sb2 O4 F2'
_cell_volume   99.52400641
_cell_formula_units_Z   2
loop_
 _symmetry_equiv_pos_site_id
 _symmetry_equiv_pos_as_xyz
  1  'x, y, z'
loop_
 _atom_site_type_symbol
 _atom_site_label
 _atom_site_symmetry_multiplicity
 _atom_site_fract_x
 _atom_site_fract_y
 _atom_site_fract_z
 _atom_site_occupancy
  Sb  Sb0  1  0.68977748  0.15074646  0.75122667  1
  Sb  Sb1  1  0.25122667  0.65074646  0.18977748  1
  O  O2  1  0.09447556  0.41370587  0.82687522  1
  O  O3  1  0.45957419  0.40031472  0.11835157  1
  O  O4  1  0.32687522  0.91370587  0.59447556  1
  O  O5  1  0.61835157  0.90031472  0.95957419  1
  F  F6  1  0.84500816  0.39888195  0.45714016  1
  F  F7  1  0.95714016  0.89888195  0.34500816  1
