# generated using pymatgen
data_Zr2N2O
_symmetry_space_group_name_H-M   'P 1'
_cell_length_a   8.77309007
_cell_length_b   8.79658624
_cell_length_c   8.79490131
_cell_angle_alpha   109.40113182
_cell_angle_beta   109.56726459
_cell_angle_gamma   109.36110665
_symmetry_Int_Tables_number   1
_chemical_formula_structural   Zr2N2O
_chemical_formula_sum   'Zr16 N16 O8'
_cell_volume   523.02795238
_cell_formula_units_Z   8
loop_
 _symmetry_equiv_pos_site_id
 _symmetry_equiv_pos_as_xyz
  1  'x, y, z'
loop_
 _atom_site_type_symbol
 _atom_site_label
 _atom_site_symmetry_multiplicity
 _atom_site_fract_x
 _atom_site_fract_y
 _atom_site_fract_z
 _atom_site_occupancy
  Zr  Zr0  1  0.96671086  0.70839011  0.74761581  1
  Zr  Zr1  1  0.99804824  0.49790587  0.99988531  1
  Zr  Zr2  1  0.71960469  0.24800116  0.46886145  1
  Zr  Zr3  1  0.77732530  0.74875052  0.02774399  1
  Zr  Zr4  1  0.73766141  0.95672222  0.70524635  1
  Zr  Zr5  1  0.75832269  0.46493990  0.21336343  1
  Zr  Zr6  1  0.49830183  0.50698672  0.51086671  1
  Zr  Zr7  1  0.53465839  0.78485435  0.25227153  1
  Zr  Zr8  1  0.46657321  0.21592706  0.74262050  1
  Zr  Zr9  1  0.50318922  0.99230526  0.99130555  1
  Zr  Zr10  1  0.25032178  0.03541778  0.29329022  1
  Zr  Zr11  1  0.24965198  0.53637374  0.78688412  1
  Zr  Zr12  1  0.21888496  0.25782264  0.96251497  1
  Zr  Zr13  1  0.28383029  0.74994763  0.53513647  1
  Zr  Zr14  1  0.00756119  0.01085822  0.49947467  1
  Zr  Zr15  1  0.03254379  0.28809930  0.25779569  1
  N  N16  1  0.96238253  0.45889297  0.72833759  1
  N  N17  1  0.76955005  0.04197524  0.50745190  1
  N  N18  1  0.73194875  0.73697487  0.77204745  1
  N  N19  1  0.76943176  0.23043708  0.24094277  1
  N  N20  1  0.72742001  0.47043497  0.95920007  1
  N  N21  1  0.48891171  0.72475830  0.45575037  1
  N  N22  1  0.22768687  0.77888189  0.76423164  1
  N  N23  1  0.27077425  0.52974351  0.04656436  1
  N  N24  1  0.50966874  0.26910427  0.53704431  1
  N  N25  1  0.22482155  0.95264043  0.48369938  1
  N  N26  1  0.53567045  0.76442951  0.99420019  1
  N  N27  1  0.55234609  0.01780467  0.77939484  1
  N  N28  1  0.25951327  0.48256826  0.53208421  1
  N  N29  1  0.23762714  0.26792620  0.72836019  1
  N  N30  1  0.03101696  0.54238076  0.26877825  1
  N  N31  1  0.98898913  0.02991998  0.25783768  1
  O  O32  1  0.76028987  0.72583652  0.27913891  1
  O  O33  1  0.74253601  0.52049943  0.46594198  1
  O  O34  1  0.27282805  0.26160166  0.22375974  1
  O  O35  1  0.96045888  0.22849052  0.96629543  1
  O  O36  1  0.46294140  0.23880068  0.01598462  1
  O  O37  1  0.44655651  0.98088164  0.22172453  1
  O  O38  1  0.05281998  0.77159004  0.03465539  1
  O  O39  1  0.01062121  0.97011710  0.74169846  1
