# generated using pymatgen
data_Li2CoSiO4
_symmetry_space_group_name_H-M   'P 1'
_cell_length_a   5.01490102
_cell_length_b   6.13836838
_cell_length_c   10.72614789
_cell_angle_alpha   90.00000000
_cell_angle_beta   90.00000000
_cell_angle_gamma   90.00000000
_symmetry_Int_Tables_number   1
_chemical_formula_structural   Li2CoSiO4
_chemical_formula_sum   'Li8 Co4 Si4 O16'
_cell_volume   330.18633399
_cell_formula_units_Z   4
loop_
 _symmetry_equiv_pos_site_id
 _symmetry_equiv_pos_as_xyz
  1  'x, y, z'
loop_
 _atom_site_type_symbol
 _atom_site_label
 _atom_site_symmetry_multiplicity
 _atom_site_fract_x
 _atom_site_fract_y
 _atom_site_fract_z
 _atom_site_occupancy
  Li  Li0  1  0.20026514  0.99476548  0.66897871  1
  Li  Li1  1  0.29973486  0.99476548  0.16897871  1
  Li  Li2  1  0.20026514  0.50523452  0.66897871  1
  Li  Li3  1  0.29973486  0.50523452  0.16897871  1
  Li  Li4  1  0.70026514  0.49476548  0.83102129  1
  Li  Li5  1  0.79973486  0.49476548  0.33102129  1
  Li  Li6  1  0.79973486  0.00523452  0.33102129  1
  Li  Li7  1  0.70026514  0.00523452  0.83102129  1
  Co  Co8  1  0.80696471  0.25000000  0.57658920  1
  Co  Co9  1  0.69303529  0.25000000  0.07658920  1
  Co  Co10  1  0.30696471  0.75000000  0.92341080  1
  Co  Co11  1  0.19303529  0.75000000  0.42341080  1
  Si  Si12  1  0.19017073  0.25000000  0.91427304  1
  Si  Si13  1  0.30982927  0.25000000  0.41427304  1
  Si  Si14  1  0.69017073  0.75000000  0.58572696  1
  Si  Si15  1  0.80982927  0.75000000  0.08572696  1
  O  O16  1  0.29945819  0.03440189  0.84018361  1
  O  O17  1  0.20054181  0.03440189  0.34018361  1
  O  O18  1  0.86317741  0.25000000  0.91298469  1
  O  O19  1  0.20795110  0.25000000  0.55903651  1
  O  O20  1  0.29204890  0.25000000  0.05903651  1
  O  O21  1  0.63682259  0.25000000  0.41298469  1
  O  O22  1  0.29945819  0.46559811  0.84018361  1
  O  O23  1  0.20054181  0.46559811  0.34018361  1
  O  O24  1  0.70054181  0.53440189  0.15981639  1
  O  O25  1  0.79945819  0.53440189  0.65981639  1
  O  O26  1  0.70795110  0.75000000  0.94096349  1
  O  O27  1  0.36317741  0.75000000  0.58701531  1
  O  O28  1  0.79204890  0.75000000  0.44096349  1
  O  O29  1  0.13682259  0.75000000  0.08701531  1
  O  O30  1  0.79945819  0.96559811  0.65981639  1
  O  O31  1  0.70054181  0.96559811  0.15981639  1
