# generated using pymatgen
data_SbBrO
_symmetry_space_group_name_H-M   'P 1'
_cell_length_a   11.36396262
_cell_length_b   8.34706592
_cell_length_c   9.71522045
_cell_angle_alpha   76.19193766
_cell_angle_beta   90.00000000
_cell_angle_gamma   90.00000000
_symmetry_Int_Tables_number   1
_chemical_formula_structural   SbBrO
_chemical_formula_sum   'Sb12 Br12 O12'
_cell_volume   894.91248961
_cell_formula_units_Z   12
loop_
 _symmetry_equiv_pos_site_id
 _symmetry_equiv_pos_as_xyz
  1  'x, y, z'
loop_
 _atom_site_type_symbol
 _atom_site_label
 _atom_site_symmetry_multiplicity
 _atom_site_fract_x
 _atom_site_fract_y
 _atom_site_fract_z
 _atom_site_occupancy
  Sb  Sb0  1  0.53054279  0.29196446  0.07075587  1
  Sb  Sb1  1  0.25480786  0.89204525  0.10996362  1
  Sb  Sb2  1  0.17213230  0.47607102  0.24155727  1
  Sb  Sb3  1  0.67213230  0.52392898  0.25844273  1
  Sb  Sb4  1  0.75480786  0.10795475  0.39003638  1
  Sb  Sb5  1  0.03054279  0.70803554  0.42924413  1
  Sb  Sb6  1  0.96945721  0.29196446  0.57075587  1
  Sb  Sb7  1  0.24519214  0.89204525  0.60996362  1
  Sb  Sb8  1  0.32786770  0.47607102  0.74155727  1
  Sb  Sb9  1  0.82786770  0.52392898  0.75844273  1
  Sb  Sb10  1  0.74519214  0.10795475  0.89003638  1
  Sb  Sb11  1  0.46945721  0.70803554  0.92924413  1
  Br  Br12  1  0.90033853  0.12665110  0.07951278  1
  Br  Br13  1  0.86352106  0.60708443  0.11889135  1
  Br  Br14  1  0.60714918  0.89358850  0.15467452  1
  Br  Br15  1  0.10714918  0.10641150  0.34532548  1
  Br  Br16  1  0.36352106  0.39291557  0.38110865  1
  Br  Br17  1  0.40033853  0.87334890  0.42048722  1
  Br  Br18  1  0.59966147  0.12665110  0.57951278  1
  Br  Br19  1  0.63647894  0.60708443  0.61889135  1
  Br  Br20  1  0.89285082  0.89358850  0.65467452  1
  Br  Br21  1  0.39285082  0.10641150  0.84532548  1
  Br  Br22  1  0.13647894  0.39291557  0.88110865  1
  Br  Br23  1  0.09966147  0.87334890  0.92048722  1
  O  O24  1  0.57009343  0.52882367  0.08722461  1
  O  O25  1  0.34302277  0.70376734  0.06834252  1
  O  O26  1  0.66811299  0.28450167  0.24430322  1
  O  O27  1  0.16811299  0.71549833  0.25569678  1
  O  O28  1  0.84302277  0.29623266  0.43165748  1
  O  O29  1  0.07009343  0.47117633  0.41277539  1
  O  O30  1  0.92990657  0.52882367  0.58722461  1
  O  O31  1  0.15697723  0.70376734  0.56834252  1
  O  O32  1  0.83188701  0.28450167  0.74430322  1
  O  O33  1  0.33188701  0.71549833  0.75569678  1
  O  O34  1  0.65697723  0.29623266  0.93165748  1
  O  O35  1  0.42990657  0.47117633  0.91277539  1
