# generated using pymatgen
data_Dy11Y5O24
_symmetry_space_group_name_H-M   'P 1'
_cell_length_a   9.17848172
_cell_length_b   9.17852781
_cell_length_c   9.17706380
_cell_angle_alpha   109.45367319
_cell_angle_beta   109.47087161
_cell_angle_gamma   109.48592452
_symmetry_Int_Tables_number   1
_chemical_formula_structural   Dy11Y5O24
_chemical_formula_sum   'Dy11 Y5 O24'
_cell_volume   595.17245029
_cell_formula_units_Z   1
loop_
 _symmetry_equiv_pos_site_id
 _symmetry_equiv_pos_as_xyz
  1  'x, y, z'
loop_
 _atom_site_type_symbol
 _atom_site_label
 _atom_site_symmetry_multiplicity
 _atom_site_fract_x
 _atom_site_fract_y
 _atom_site_fract_z
 _atom_site_occupancy
  Dy  Dy0  1  0.74997035  0.03227180  0.78237676  1
  Dy  Dy1  1  0.49994213  0.99983864  -0.00000860  1
  Dy  Dy2  1  0.50015062  0.50015952  0.50010183  1
  Dy  Dy3  1  0.75003680  0.53254642  0.28251581  1
  Dy  Dy4  1  0.00004505  0.99994823  0.49992956  1
  Dy  Dy5  1  0.25005135  0.46766742  0.71763755  1
  Dy  Dy6  1  0.28236568  0.75000896  0.53236343  1
  Dy  Dy7  1  0.78246731  0.74999464  0.03252526  1
  Dy  Dy8  1  0.03241177  0.78242164  0.75001331  1
  Dy  Dy9  1  0.46765930  0.71764690  0.25006177  1
  Dy  Dy10  1  0.24996603  0.96750712  0.21749023  1
  Y  Y11  1  -0.00001310  0.50006294  0.00011063  1
  Y  Y12  1  0.53231069  0.28228986  0.74993969  1
  Y  Y13  1  0.96764878  0.21764168  0.25002006  1
  Y  Y14  1  0.71750648  0.24999292  0.46750571  1
  Y  Y15  1  0.21775813  0.25000266  0.96769163  1
  O  O16  1  0.96891650  0.23947750  0.51128122  1
  O  O17  1  0.77162654  0.26034119  0.72935749  1
  O  O18  1  0.98858117  0.72825201  0.95749403  1
  O  O19  1  0.48865715  0.03091673  0.76044343  1
  O  O20  1  0.77085197  0.53179522  0.54291315  1
  O  O21  1  0.27067000  0.22806538  0.73906735  1
  O  O22  1  0.72807962  0.95741422  0.98870527  1
  O  O23  1  0.53122373  0.54257269  0.77065941  1
  O  O24  1  0.73892626  0.27076630  0.22797089  1
  O  O25  1  0.45721116  0.22927860  0.46813711  1
  O  O26  1  0.95748778  0.98867935  0.72810853  1
  O  O27  1  0.23961578  0.51130498  0.96886164  1
  O  O28  1  0.04278594  0.01105518  0.27199005  1
  O  O29  1  0.76074407  0.48895989  0.03168064  1
  O  O30  1  0.54255785  0.77072114  0.53119580  1
  O  O31  1  0.26041266  0.72924032  0.77180547  1
  O  O32  1  0.46899238  0.45767198  0.22953641  1
  O  O33  1  0.27186991  0.04234316  0.01125568  1
  O  O34  1  0.22946692  0.46903558  0.45771059  1
  O  O35  1  0.72936540  0.77194923  0.26056978  1
  O  O36  1  0.01103465  0.27171893  0.04251907  1
  O  O37  1  0.51114094  0.96825002  0.23904902  1
  O  O38  1  0.03124094  0.76057439  0.48865921  1
  O  O39  1  0.22827132  0.73961765  0.27075612  1
