# generated using pymatgen
data_Ba2B2O5
_symmetry_space_group_name_H-M   'P 1'
_cell_length_a   4.38263547
_cell_length_b   10.36685935
_cell_length_c   12.83848963
_cell_angle_alpha   77.91397473
_cell_angle_beta   90.00000000
_cell_angle_gamma   90.00000000
_symmetry_Int_Tables_number   1
_chemical_formula_structural   Ba2B2O5
_chemical_formula_sum   'Ba8 B8 O20'
_cell_volume   570.37669610
_cell_formula_units_Z   4
loop_
 _symmetry_equiv_pos_site_id
 _symmetry_equiv_pos_as_xyz
  1  'x, y, z'
loop_
 _atom_site_type_symbol
 _atom_site_label
 _atom_site_symmetry_multiplicity
 _atom_site_fract_x
 _atom_site_fract_y
 _atom_site_fract_z
 _atom_site_occupancy
  Ba  Ba0  1  0.72221382  0.92612689  0.65760413  1
  Ba  Ba1  1  0.77778618  0.92612689  0.15760413  1
  Ba  Ba2  1  0.20228667  0.58870631  0.61105722  1
  Ba  Ba3  1  0.29771333  0.58870631  0.11105722  1
  Ba  Ba4  1  0.70228667  0.41129369  0.88894278  1
  Ba  Ba5  1  0.79771333  0.41129369  0.38894278  1
  Ba  Ba6  1  0.22221382  0.07387311  0.84239587  1
  Ba  Ba7  1  0.27778618  0.07387311  0.34239587  1
  B  B8  1  0.69550124  0.79201928  0.93753025  1
  B  B9  1  0.80449876  0.79201928  0.43753025  1
  B  B10  1  0.29859811  0.68437798  0.82210168  1
  B  B11  1  0.20140189  0.68437798  0.32210168  1
  B  B12  1  0.79859811  0.31562202  0.67789832  1
  B  B13  1  0.70140189  0.31562202  0.17789832  1
  B  B14  1  0.19550124  0.20798072  0.56246975  1
  B  B15  1  0.30449876  0.20798072  0.06246975  1
  O  O16  1  0.71483332  0.91603395  0.87765058  1
  O  O17  1  0.78516668  0.91603395  0.37765058  1
  O  O18  1  0.51765852  0.69168805  0.90380141  1
  O  O19  1  0.67962298  0.75138036  0.53604395  1
  O  O20  1  0.23419746  0.78773367  0.74159157  1
  O  O21  1  0.98234148  0.69168805  0.40380141  1
  O  O22  1  0.82037702  0.75138036  0.03604395  1
  O  O23  1  0.26580254  0.78773367  0.24159157  1
  O  O24  1  0.18593625  0.56026441  0.82922189  1
  O  O25  1  0.68593625  0.43973559  0.67077811  1
  O  O26  1  0.31406375  0.56026441  0.32922189  1
  O  O27  1  0.81406375  0.43973559  0.17077811  1
  O  O28  1  0.73419746  0.21226633  0.75840843  1
  O  O29  1  0.17962298  0.24861964  0.96395605  1
  O  O30  1  0.01765852  0.30831195  0.59619859  1
  O  O31  1  0.76580254  0.21226633  0.25840843  1
  O  O32  1  0.32037702  0.24861964  0.46395605  1
  O  O33  1  0.48234148  0.30831195  0.09619859  1
  O  O34  1  0.21483332  0.08396605  0.62234942  1
  O  O35  1  0.28516668  0.08396605  0.12234942  1
