# generated using pymatgen
data_SbO2F
_symmetry_space_group_name_H-M   'P 1'
_cell_length_a   5.16376410
_cell_length_b   5.16376410
_cell_length_c   5.25646856
_cell_angle_alpha   63.06235205
_cell_angle_beta   63.06235205
_cell_angle_gamma   56.60923803
_symmetry_Int_Tables_number   1
_chemical_formula_structural   SbO2F
_chemical_formula_sum   'Sb2 O4 F2'
_cell_volume   100.34544304
_cell_formula_units_Z   2
loop_
 _symmetry_equiv_pos_site_id
 _symmetry_equiv_pos_as_xyz
  1  'x, y, z'
loop_
 _atom_site_type_symbol
 _atom_site_label
 _atom_site_symmetry_multiplicity
 _atom_site_fract_x
 _atom_site_fract_y
 _atom_site_fract_z
 _atom_site_occupancy
  Sb  Sb0  1  0.50000000  0.00000000  0.50000000  1
  Sb  Sb1  1  0.00000000  0.50000000  0.00000000  1
  O  O2  1  0.25839611  0.11476882  0.24469037  1
  O  O3  1  0.88523118  0.74160389  0.25530963  1
  O  O4  1  0.11476882  0.25839611  0.74469037  1
  O  O5  1  0.74160389  0.88523118  0.75530963  1
  F  F6  1  0.38398038  0.61601962  0.75000000  1
  F  F7  1  0.61601962  0.38398038  0.25000000  1
