# generated using pymatgen
data_DyInO3
_symmetry_space_group_name_H-M   'P 1'
_cell_length_a   6.28807684
_cell_length_b   6.28807682
_cell_length_c   12.27113037
_cell_angle_alpha   89.99999556
_cell_angle_beta   90.00000379
_cell_angle_gamma   120.00011732
_symmetry_Int_Tables_number   1
_chemical_formula_structural   DyInO3
_chemical_formula_sum   'Dy6 In6 O18'
_cell_volume   420.19450367
_cell_formula_units_Z   6
loop_
 _symmetry_equiv_pos_site_id
 _symmetry_equiv_pos_as_xyz
  1  'x, y, z'
loop_
 _atom_site_type_symbol
 _atom_site_label
 _atom_site_symmetry_multiplicity
 _atom_site_fract_x
 _atom_site_fract_y
 _atom_site_fract_z
 _atom_site_occupancy
  Dy  Dy0  1  0.33333284  0.66666675  0.23020847  1
  Dy  Dy1  1  0.00000056  0.00000012  0.26634686  1
  Dy  Dy2  1  -0.00000020  -0.00000037  0.76634700  1
  Dy  Dy3  1  0.33333318  0.66666563  0.73020837  1
  Dy  Dy4  1  0.66666635  0.33333306  0.73020823  1
  Dy  Dy5  1  0.66666709  0.33333456  0.23020816  1
  In  In6  1  -0.00000041  0.66657907  0.49603410  1
  In  In7  1  0.00000038  0.33342094  0.99603420  1
  In  In8  1  0.33342023  0.33342025  0.49603391  1
  In  In9  1  0.66657970  0.66657968  0.99603407  1
  In  In10  1  0.33342090  0.00000037  0.99603423  1
  In  In11  1  0.66657917  -0.00000042  0.49603408  1
  O  O12  1  0.00000030  0.69545853  0.66751169  1
  O  O13  1  0.00000029  0.63600638  0.32652067  1
  O  O14  1  -0.00000007  0.36399378  0.82652074  1
  O  O15  1  -0.00000028  0.30454151  0.16751167  1
  O  O16  1  0.33333308  0.66666634  0.02562224  1
  O  O17  1  0.00000055  0.00000048  0.46308017  1
  O  O18  1  0.33333349  0.66666682  0.52562231  1
  O  O19  1  -0.00000046  -0.00000051  0.96308015  1
  O  O20  1  0.30454212  0.30454221  0.66751181  1
  O  O21  1  0.36399392  0.36399374  0.32652063  1
  O  O22  1  0.30454111  -0.00000062  0.16751170  1
  O  O23  1  0.63600590  0.63600595  0.82652061  1
  O  O24  1  0.69545808  0.69545758  0.16751172  1
  O  O25  1  0.36399378  -0.00000012  0.82652084  1
  O  O26  1  0.66666704  0.33333375  0.52562236  1
  O  O27  1  0.66666642  0.33333307  0.02562245  1
  O  O28  1  0.63600618  -0.00000001  0.32652088  1
  O  O29  1  0.69545876  0.00000047  0.66751167  1
