# generated using pymatgen
data_InP(H2O3)2
_symmetry_space_group_name_H-M   'P 1'
_cell_length_a   8.76292617
_cell_length_b   10.11894829
_cell_length_c   10.38227891
_cell_angle_alpha   90.00000000
_cell_angle_beta   90.00000000
_cell_angle_gamma   90.00000000
_symmetry_Int_Tables_number   1
_chemical_formula_structural   InP(H2O3)2
_chemical_formula_sum   'In8 P8 H32 O48'
_cell_volume   920.61324920
_cell_formula_units_Z   8
loop_
 _symmetry_equiv_pos_site_id
 _symmetry_equiv_pos_as_xyz
  1  'x, y, z'
loop_
 _atom_site_type_symbol
 _atom_site_label
 _atom_site_symmetry_multiplicity
 _atom_site_fract_x
 _atom_site_fract_y
 _atom_site_fract_z
 _atom_site_occupancy
  In  In0  1  0.65326831  0.67340458  0.63060420  1
  In  In1  1  0.15326831  0.82659542  0.36939580  1
  In  In2  1  0.34673169  0.17340458  0.86939580  1
  In  In3  1  0.84673169  0.32659542  0.13060420  1
  In  In4  1  0.34673169  0.32659542  0.36939580  1
  In  In5  1  0.84673169  0.17340458  0.63060420  1
  In  In6  1  0.65326831  0.82659542  0.13060420  1
  In  In7  1  0.15326831  0.67340458  0.86939580  1
  P  P8  1  0.52834656  0.35963180  0.65152056  1
  P  P9  1  0.02834656  0.14036820  0.34847944  1
  P  P10  1  0.47165344  0.85963180  0.84847944  1
  P  P11  1  0.97165344  0.64036820  0.15152056  1
  P  P12  1  0.47165344  0.64036820  0.34847944  1
  P  P13  1  0.97165344  0.85963180  0.65152056  1
  P  P14  1  0.52834656  0.14036820  0.15152056  1
  P  P15  1  0.02834656  0.35963180  0.84847944  1
  H  H16  1  0.79962709  0.45994358  0.56454396  1
  H  H17  1  0.29962709  0.04005642  0.43545604  1
  H  H18  1  0.20037291  0.95994358  0.93545604  1
  H  H19  1  0.70037291  0.54005642  0.06454396  1
  H  H20  1  0.20037291  0.54005642  0.43545604  1
  H  H21  1  0.70037291  0.95994358  0.56454396  1
  H  H22  1  0.79962709  0.04005642  0.06454396  1
  H  H23  1  0.29962709  0.45994358  0.93545604  1
  H  H24  1  0.86660399  0.56353602  0.46293572  1
  H  H25  1  0.36660399  0.93646398  0.53706428  1
  H  H26  1  0.13339601  0.06353602  0.03706428  1
  H  H27  1  0.63339601  0.43646398  0.96293572  1
  H  H28  1  0.13339601  0.43646398  0.53706428  1
  H  H29  1  0.63339601  0.06353602  0.46293572  1
  H  H30  1  0.86660399  0.93646398  0.96293572  1
  H  H31  1  0.36660399  0.56353602  0.03706428  1
  H  H32  1  0.69324569  0.67021128  0.87868227  1
  H  H33  1  0.19324569  0.82978872  0.12131773  1
  H  H34  1  0.30675431  0.17021128  0.62131773  1
  H  H35  1  0.80675431  0.32978872  0.37868227  1
  H  H36  1  0.30675431  0.32978872  0.12131773  1
  H  H37  1  0.80675431  0.17021128  0.87868227  1
  H  H38  1  0.69324569  0.82978872  0.37868227  1
  H  H39  1  0.19324569  0.67021128  0.62131773  1
  H  H40  1  0.83485642  0.57309774  0.83167378  1
  H  H41  1  0.33485642  0.92690226  0.16832622  1
  H  H42  1  0.16514358  0.07309774  0.66832622  1
  H  H43  1  0.66514358  0.42690226  0.33167378  1
  H  H44  1  0.16514358  0.42690226  0.16832622  1
  H  H45  1  0.66514358  0.07309774  0.83167378  1
  H  H46  1  0.83485642  0.92690226  0.33167378  1
  H  H47  1  0.33485642  0.57309774  0.66832622  1
  O  O48  1  0.84083454  0.55104761  0.55320689  1
  O  O49  1  0.34083454  0.94895239  0.44679311  1
  O  O50  1  0.15916546  0.05104761  0.94679311  1
  O  O51  1  0.65916546  0.44895239  0.05320689  1
  O  O52  1  0.15916546  0.44895239  0.44679311  1
  O  O53  1  0.65916546  0.05104761  0.55320689  1
  O  O54  1  0.84083454  0.94895239  0.05320689  1
  O  O55  1  0.34083454  0.55104761  0.94679311  1
  O  O56  1  0.72734130  0.60208298  0.81638990  1
  O  O57  1  0.22734130  0.89791702  0.18361010  1
  O  O58  1  0.27265870  0.10208298  0.68361010  1
  O  O59  1  0.77265870  0.39791702  0.31638990  1
  O  O60  1  0.27265870  0.39791702  0.18361010  1
  O  O61  1  0.77265870  0.10208298  0.81638990  1
  O  O62  1  0.72734130  0.89791702  0.31638990  1
  O  O63  1  0.22734130  0.60208298  0.68361010  1
  O  O64  1  0.49322692  0.80615873  0.71227958  1
  O  O65  1  0.99322692  0.69384127  0.28772042  1
  O  O66  1  0.50677308  0.30615873  0.78772042  1
  O  O67  1  0.00677308  0.19384127  0.21227958  1
  O  O68  1  0.50677308  0.19384127  0.28772042  1
  O  O69  1  0.00677308  0.30615873  0.71227958  1
  O  O70  1  0.49322692  0.69384127  0.21227958  1
  O  O71  1  0.99322692  0.80615873  0.78772042  1
  O  O72  1  0.58417978  0.71177486  0.43899613  1
  O  O73  1  0.08417978  0.78822514  0.56100387  1
  O  O74  1  0.41582022  0.21177486  0.06100387  1
  O  O75  1  0.91582022  0.28822514  0.93899613  1
  O  O76  1  0.41582022  0.28822514  0.56100387  1
  O  O77  1  0.91582022  0.21177486  0.43899613  1
  O  O78  1  0.58417978  0.78822514  0.93899613  1
  O  O79  1  0.08417978  0.71177486  0.06100387  1
  O  O80  1  0.80590560  0.83625367  0.60709281  1
  O  O81  1  0.30590560  0.66374633  0.39290719  1
  O  O82  1  0.19409440  0.33625367  0.89290719  1
  O  O83  1  0.69409440  0.16374633  0.10709281  1
  O  O84  1  0.19409440  0.16374633  0.39290719  1
  O  O85  1  0.69409440  0.33625367  0.60709281  1
  O  O86  1  0.80590560  0.66374633  0.10709281  1
  O  O87  1  0.30590560  0.83625367  0.89290719  1
  O  O88  1  0.49847458  0.50919594  0.64419851  1
  O  O89  1  0.99847458  0.99080406  0.35580149  1
  O  O90  1  0.50152542  0.00919594  0.85580149  1
  O  O91  1  0.00152542  0.49080406  0.14419851  1
  O  O92  1  0.50152542  0.49080406  0.35580149  1
  O  O93  1  0.00152542  0.00919594  0.64419851  1
  O  O94  1  0.49847458  0.99080406  0.14419851  1
  O  O95  1  0.99847458  0.50919594  0.85580149  1
