# generated using pymatgen
data_La(ClO4)3
_symmetry_space_group_name_H-M   'P 1'
_cell_length_a   9.34820975
_cell_length_b   9.34820909
_cell_length_c   5.95059329
_cell_angle_alpha   89.99998101
_cell_angle_beta   90.00000162
_cell_angle_gamma   120.00039738
_symmetry_Int_Tables_number   1
_chemical_formula_structural   La(ClO4)3
_chemical_formula_sum   'La2 Cl6 O24'
_cell_volume   450.34570653
_cell_formula_units_Z   2
loop_
 _symmetry_equiv_pos_site_id
 _symmetry_equiv_pos_as_xyz
  1  'x, y, z'
loop_
 _atom_site_type_symbol
 _atom_site_label
 _atom_site_symmetry_multiplicity
 _atom_site_fract_x
 _atom_site_fract_y
 _atom_site_fract_z
 _atom_site_occupancy
  La  La0  1  0.33333323  0.66666330  0.74999855  1
  La  La1  1  0.66666822  0.33332031  0.25000066  1
  Cl  Cl2  1  0.09467591  0.71013002  0.25000010  1
  Cl  Cl3  1  0.28987006  0.38454404  0.25000366  1
  Cl  Cl4  1  0.61545584  0.90532090  0.25000372  1
  Cl  Cl5  1  0.38454807  0.09467926  0.74999568  1
  Cl  Cl6  1  0.71012567  0.61545060  0.75000007  1
  Cl  Cl7  1  0.90532441  0.28987240  0.74999845  1
  O  O8  1  0.01607993  0.80456375  0.24999996  1
  O  O9  1  0.02249330  0.46644911  0.75000075  1
  O  O10  1  0.19983025  0.74729563  0.05348965  1
  O  O11  1  0.19983101  0.74729572  0.44650915  1
  O  O12  1  0.44395178  0.97750684  0.74999831  1
  O  O13  1  0.25270252  0.45253055  0.44650797  1
  O  O14  1  0.25270224  0.45253138  0.05348727  1
  O  O15  1  0.19543663  0.21151142  0.24999953  1
  O  O16  1  0.54746268  0.80017009  0.05348829  1
  O  O17  1  0.54746388  0.80017165  0.44650832  1
  O  O18  1  0.21150990  0.01607227  0.74999970  1
  O  O19  1  0.46644413  0.44395197  0.24999990  1
  O  O20  1  0.53355764  0.55605237  0.75000062  1
  O  O21  1  0.78848416  0.98392038  0.24999995  1
  O  O22  1  0.45252981  0.19982714  0.55349157  1
  O  O23  1  0.45253177  0.19982748  0.94651157  1
  O  O24  1  0.80456452  0.78849565  0.75000171  1
  O  O25  1  0.74729474  0.54747106  0.94651351  1
  O  O26  1  0.74729600  0.54747215  0.55348820  1
  O  O27  1  0.55604874  0.02249184  0.25000018  1
  O  O28  1  0.80017297  0.25270619  0.94650934  1
  O  O29  1  0.80017363  0.25270651  0.55349337  1
  O  O30  1  0.97751132  0.53355689  0.24999972  1
  O  O31  1  0.98392504  0.19544016  0.75000057  1
