# generated using pymatgen
data_Sm3TaO7
_symmetry_space_group_name_H-M   'P 1'
_cell_length_a   6.55905785
_cell_length_b   6.55905785
_cell_length_c   7.58815085
_cell_angle_alpha   90.00000000
_cell_angle_beta   90.00000000
_cell_angle_gamma   111.13433094
_symmetry_Int_Tables_number   1
_chemical_formula_structural   Sm3TaO7
_chemical_formula_sum   'Sm6 Ta2 O14'
_cell_volume   304.49375613
_cell_formula_units_Z   2
loop_
 _symmetry_equiv_pos_site_id
 _symmetry_equiv_pos_as_xyz
  1  'x, y, z'
loop_
 _atom_site_type_symbol
 _atom_site_label
 _atom_site_symmetry_multiplicity
 _atom_site_fract_x
 _atom_site_fract_y
 _atom_site_fract_z
 _atom_site_occupancy
  Sm  Sm0  1  0.52176384  0.06715646  0.25000000  1
  Sm  Sm1  1  0.93284354  0.47823616  0.75000000  1
  Sm  Sm2  1  0.00000000  -0.00000000  -0.00000000  1
  Sm  Sm3  1  0.00000000  -0.00000000  0.50000000  1
  Sm  Sm4  1  0.47823616  0.93284354  0.75000000  1
  Sm  Sm5  1  0.06715646  0.52176384  0.25000000  1
  Ta  Ta6  1  0.50000000  0.50000000  -0.00000000  1
  Ta  Ta7  1  0.50000000  0.50000000  0.50000000  1
  O  O8  1  0.89205626  0.15484502  0.25000000  1
  O  O9  1  0.84515498  0.10794374  0.75000000  1
  O  O10  1  0.81642228  0.56154517  0.03622473  1
  O  O11  1  0.81642228  0.56154517  0.46377527  1
  O  O12  1  0.43845483  0.18357772  0.96377527  1
  O  O13  1  0.43845483  0.18357772  0.53622473  1
  O  O14  1  0.57463095  0.57463095  0.75000000  1
  O  O15  1  0.42536905  0.42536905  0.25000000  1
  O  O16  1  0.56154517  0.81642228  0.03622473  1
  O  O17  1  0.18357772  0.43845483  0.53622473  1
  O  O18  1  0.18357772  0.43845483  0.96377527  1
  O  O19  1  0.56154517  0.81642228  0.46377527  1
  O  O20  1  0.10794374  0.84515498  0.75000000  1
  O  O21  1  0.15484502  0.89205626  0.25000000  1
