# generated using pymatgen
data_CdSeO4
_symmetry_space_group_name_H-M   'P 1'
_cell_length_a   5.04132043
_cell_length_b   7.33486766
_cell_length_c   9.55532582
_cell_angle_alpha   90.00000000
_cell_angle_beta   90.00000000
_cell_angle_gamma   90.00000000
_symmetry_Int_Tables_number   1
_chemical_formula_structural   CdSeO4
_chemical_formula_sum   'Cd4 Se4 O16'
_cell_volume   353.33127875
_cell_formula_units_Z   4
loop_
 _symmetry_equiv_pos_site_id
 _symmetry_equiv_pos_as_xyz
  1  'x, y, z'
loop_
 _atom_site_type_symbol
 _atom_site_label
 _atom_site_symmetry_multiplicity
 _atom_site_fract_x
 _atom_site_fract_y
 _atom_site_fract_z
 _atom_site_occupancy
  Cd  Cd0  1  0.00000000  -0.00000000  0.00000000  1
  Cd  Cd1  1  0.00000000  0.50000000  0.00000000  1
  Cd  Cd2  1  0.50000000  -0.00000000  0.50000000  1
  Cd  Cd3  1  0.50000000  0.50000000  0.50000000  1
  Se  Se4  1  0.99478527  0.75000000  0.68236806  1
  Se  Se5  1  0.50521473  0.75000000  0.18236806  1
  Se  Se6  1  0.49478527  0.25000000  0.81763194  1
  Se  Se7  1  0.00521473  0.25000000  0.31763194  1
  O  O8  1  0.97323396  0.75000000  0.85705820  1
  O  O9  1  0.85737881  0.94056026  0.62920479  1
  O  O10  1  0.85737881  0.55943974  0.62920479  1
  O  O11  1  0.80901086  0.25000000  0.87132014  1
  O  O12  1  0.69098914  0.25000000  0.37132014  1
  O  O13  1  0.64262119  0.94056026  0.12920479  1
  O  O14  1  0.64262119  0.55943974  0.12920479  1
  O  O15  1  0.52676604  0.75000000  0.35705820  1
  O  O16  1  0.47323396  0.25000000  0.64294180  1
  O  O17  1  0.35737881  0.44056026  0.87079521  1
  O  O18  1  0.35737881  0.05943974  0.87079521  1
  O  O19  1  0.30901086  0.75000000  0.62867986  1
  O  O20  1  0.19098914  0.75000000  0.12867986  1
  O  O21  1  0.14262119  0.44056026  0.37079521  1
  O  O22  1  0.14262119  0.05943974  0.37079521  1
  O  O23  1  0.02676604  0.25000000  0.14294180  1
