# generated using pymatgen
data_CsNa2(H5O3)3
_symmetry_space_group_name_H-M   'P 1'
_cell_length_a   13.91440141
_cell_length_b   6.08883820
_cell_length_c   12.46508290
_cell_angle_alpha   90.00000000
_cell_angle_beta   90.00000000
_cell_angle_gamma   90.00000000
_symmetry_Int_Tables_number   1
_chemical_formula_structural   CsNa2(H5O3)3
_chemical_formula_sum   'Cs4 Na8 H60 O36'
_cell_volume   1056.07347008
_cell_formula_units_Z   4
loop_
 _symmetry_equiv_pos_site_id
 _symmetry_equiv_pos_as_xyz
  1  'x, y, z'
loop_
 _atom_site_type_symbol
 _atom_site_label
 _atom_site_symmetry_multiplicity
 _atom_site_fract_x
 _atom_site_fract_y
 _atom_site_fract_z
 _atom_site_occupancy
  Cs  Cs0  1  0.09914996  0.58022618  0.49996023  1
  Cs  Cs1  1  0.90085004  0.41977382  0.99996023  1
  Cs  Cs2  1  0.40085004  0.58022618  0.99996023  1
  Cs  Cs3  1  0.59914996  0.41977382  0.49996023  1
  Na  Na4  1  0.16005774  0.73821679  0.17760922  1
  Na  Na5  1  0.83994226  0.26178321  0.67760922  1
  Na  Na6  1  0.33994226  0.73821679  0.67760922  1
  Na  Na7  1  0.66005774  0.26178321  0.17760922  1
  Na  Na8  1  0.14105070  0.24227399  0.15484657  1
  Na  Na9  1  0.85894930  0.75772601  0.65484657  1
  Na  Na10  1  0.35894930  0.24227399  0.65484657  1
  Na  Na11  1  0.64105070  0.75772601  0.15484657  1
  H  H12  1  0.42913005  0.12185910  0.25323670  1
  H  H13  1  0.57086995  0.87814090  0.75323670  1
  H  H14  1  0.07086995  0.12185910  0.75323670  1
  H  H15  1  0.92913005  0.87814090  0.25323670  1
  H  H16  1  0.31123935  0.12208195  0.39956300  1
  H  H17  1  0.68876065  0.87791805  0.89956300  1
  H  H18  1  0.18876065  0.12208195  0.89956300  1
  H  H19  1  0.81123935  0.87791805  0.39956300  1
  H  H20  1  0.88565685  0.17955340  0.32722146  1
  H  H21  1  0.11434315  0.82044660  0.82722146  1
  H  H22  1  0.61434315  0.17955340  0.82722146  1
  H  H23  1  0.38565685  0.82044660  0.32722146  1
  H  H24  1  0.99143546  0.92157416  0.10546105  1
  H  H25  1  0.00856454  0.07842584  0.60546105  1
  H  H26  1  0.50856454  0.92157416  0.60546105  1
  H  H27  1  0.49143546  0.07842584  0.10546105  1
  H  H28  1  0.04870232  0.94180380  0.99177489  1
  H  H29  1  0.95129768  0.05819620  0.49177489  1
  H  H30  1  0.45129768  0.94180380  0.49177489  1
  H  H31  1  0.54870232  0.05819620  0.99177489  1
  H  H32  1  0.32906658  0.06051207  0.13784288  1
  H  H33  1  0.67093342  0.93948793  0.63784288  1
  H  H34  1  0.17093342  0.06051207  0.63784288  1
  H  H35  1  0.82906658  0.93948793  0.13784288  1
  H  H36  1  0.26483841  0.05553332  0.03298015  1
  H  H37  1  0.73516159  0.94446668  0.53298015  1
  H  H38  1  0.23516159  0.05553332  0.53298015  1
  H  H39  1  0.76483841  0.94446668  0.03298015  1
  H  H40  1  0.16724735  0.07211699  0.35975444  1
  H  H41  1  0.83275265  0.92788301  0.85975444  1
  H  H42  1  0.33275265  0.07211699  0.85975444  1
  H  H43  1  0.66724735  0.92788301  0.35975444  1
  H  H44  1  0.05401595  0.04780513  0.33592768  1
  H  H45  1  0.94598405  0.95219487  0.83592768  1
  H  H46  1  0.44598405  0.04780513  0.83592768  1
  H  H47  1  0.55401595  0.95219487  0.33592768  1
  H  H48  1  0.98937278  0.58986755  0.22782993  1
  H  H49  1  0.01062722  0.41013245  0.72782993  1
  H  H50  1  0.51062722  0.58986755  0.72782993  1
  H  H51  1  0.48937278  0.41013245  0.22782993  1
  H  H52  1  0.00066312  0.36650632  0.29518145  1
  H  H53  1  0.99933688  0.63349368  0.79518145  1
  H  H54  1  0.49933688  0.36650632  0.79518145  1
  H  H55  1  0.50066312  0.63349368  0.29518145  1
  H  H56  1  0.17975357  0.41604104  0.97447290  1
  H  H57  1  0.82024643  0.58395896  0.47447290  1
  H  H58  1  0.32024643  0.41604104  0.47447290  1
  H  H59  1  0.67975357  0.58395896  0.97447290  1
  H  H60  1  0.11353625  0.63178253  0.96157436  1
  H  H61  1  0.88646375  0.36821747  0.46157436  1
  H  H62  1  0.38646375  0.63178253  0.46157436  1
  H  H63  1  0.61353625  0.36821747  0.96157436  1
  H  H64  1  0.32541420  0.38269891  0.22022209  1
  H  H65  1  0.67458580  0.61730109  0.72022209  1
  H  H66  1  0.17458580  0.38269891  0.72022209  1
  H  H67  1  0.82541420  0.61730109  0.22022209  1
  H  H68  1  0.25432586  0.38772114  0.31364797  1
  H  H69  1  0.74567414  0.61227886  0.81364797  1
  H  H70  1  0.24567414  0.38772114  0.81364797  1
  H  H71  1  0.75432586  0.61227886  0.31364797  1
  O  O72  1  0.41792593  0.21265338  0.18966645  1
  O  O73  1  0.58207407  0.78734662  0.68966645  1
  O  O74  1  0.08207407  0.21265338  0.68966645  1
  O  O75  1  0.91792593  0.78734662  0.18966645  1
  O  O76  1  0.25614042  0.20916704  0.42321280  1
  O  O77  1  0.74385958  0.79083296  0.92321280  1
  O  O78  1  0.24385958  0.20916704  0.92321280  1
  O  O79  1  0.75614042  0.79083296  0.42321280  1
  O  O80  1  0.94349223  0.18115229  0.37164737  1
  O  O81  1  0.05650777  0.81884771  0.87164737  1
  O  O82  1  0.55650777  0.18115229  0.87164737  1
  O  O83  1  0.44349223  0.81884771  0.37164737  1
  O  O84  1  0.04147336  0.00777608  0.06506398  1
  O  O85  1  0.95852664  0.99222392  0.56506398  1
  O  O86  1  0.45852664  0.00777608  0.56506398  1
  O  O87  1  0.54147336  0.99222392  0.06506398  1
  O  O88  1  0.27348478  0.97975789  0.10426497  1
  O  O89  1  0.72651522  0.02024211  0.60426497  1
  O  O90  1  0.22651522  0.97975789  0.60426497  1
  O  O91  1  0.77348478  0.02024211  0.10426497  1
  O  O92  1  0.11842737  0.99039455  0.31513849  1
  O  O93  1  0.88157263  0.00960545  0.81513849  1
  O  O94  1  0.38157263  0.99039455  0.81513849  1
  O  O95  1  0.61842737  0.00960545  0.31513849  1
  O  O96  1  0.03772258  0.47377904  0.24937683  1
  O  O97  1  0.96227742  0.52622096  0.74937683  1
  O  O98  1  0.46227742  0.47377904  0.74937683  1
  O  O99  1  0.53772258  0.52622096  0.24937683  1
  O  O100  1  0.14274608  0.53084472  0.01583590  1
  O  O101  1  0.85725392  0.46915528  0.51583590  1
  O  O102  1  0.35725392  0.53084472  0.51583590  1
  O  O103  1  0.64274608  0.46915528  0.01583590  1
  O  O104  1  0.26523356  0.46216026  0.24298620  1
  O  O105  1  0.73476644  0.53783974  0.74298620  1
  O  O106  1  0.23476644  0.46216026  0.74298620  1
  O  O107  1  0.76523356  0.53783974  0.24298620  1
