# generated using pymatgen
data_Hf2N2O
_symmetry_space_group_name_H-M   'P 1'
_cell_length_a   8.66894908
_cell_length_b   8.67044718
_cell_length_c   8.67522047
_cell_angle_alpha   109.40738054
_cell_angle_beta   109.52509262
_cell_angle_gamma   109.43445115
_symmetry_Int_Tables_number   1
_chemical_formula_structural   Hf2N2O
_chemical_formula_sum   'Hf16 N16 O8'
_cell_volume   502.24595982
_cell_formula_units_Z   8
loop_
 _symmetry_equiv_pos_site_id
 _symmetry_equiv_pos_as_xyz
  1  'x, y, z'
loop_
 _atom_site_type_symbol
 _atom_site_label
 _atom_site_symmetry_multiplicity
 _atom_site_fract_x
 _atom_site_fract_y
 _atom_site_fract_z
 _atom_site_occupancy
  Hf  Hf0  1  0.21526193  0.96547364  0.25013479  1
  Hf  Hf1  1  0.99658751  0.50754383  0.00591147  1
  Hf  Hf2  1  0.75865704  0.78922078  0.03491998  1
  Hf  Hf3  1  0.24998331  0.71448340  0.46615179  1
  Hf  Hf4  1  0.53153491  0.75476962  0.29521329  1
  Hf  Hf5  1  0.03072852  0.74956548  0.77850435  1
  Hf  Hf6  1  0.99640535  0.00896122  0.50524629  1
  Hf  Hf7  1  0.50539715  0.00575139  0.99513655  1
  Hf  Hf8  1  0.51256128  0.50248381  0.50940869  1
  Hf  Hf9  1  0.72010449  0.45658004  0.24938289  1
  Hf  Hf10  1  0.29124233  0.53803418  0.75087562  1
  Hf  Hf11  1  0.47114173  0.25669884  0.71689526  1
  Hf  Hf12  1  0.95546267  0.24011839  0.21222769  1
  Hf  Hf13  1  0.74300628  0.28048432  0.53344936  1
  Hf  Hf14  1  0.24835963  0.21387284  0.95444228  1
  Hf  Hf15  1  0.77982260  0.03086359  0.74500992  1
  N  N16  1  0.27440220  0.74103427  0.22544175  1
  N  N17  1  0.26067087  0.77037714  0.72778079  1
  N  N18  1  0.01430289  0.04679658  0.27793689  1
  N  N19  1  0.53160018  0.76815845  0.54390977  1
  N  N20  1  0.46288969  0.22559636  0.45155363  1
  N  N21  1  0.96696563  0.51240721  0.23943043  1
  N  N22  1  0.72804917  0.98847053  0.95515450  1
  N  N23  1  0.22186122  0.27378251  0.73572509  1
  N  N24  1  0.99403808  0.95935685  0.73238427  1
  N  N25  1  0.77309967  0.54491812  0.53321370  1
  N  N26  1  0.73723566  0.22280081  0.27094405  1
  N  N27  1  0.54319311  0.53580035  0.77164107  1
  N  N28  1  0.75833460  0.02952703  0.48296187  1
  N  N29  1  0.95416648  0.72653187  0.98473423  1
  N  N30  1  0.73126715  0.26329061  0.77627586  1
  N  N31  1  0.50647419  0.23585914  0.96594590  1
  O  O32  1  0.48771061  0.75711894  0.03351348  1
  O  O33  1  0.05409528  0.27829518  0.01804942  1
  O  O34  1  0.23759982  0.96324080  0.51089000  1
  O  O35  1  0.45099452  0.46488613  0.22509557  1
  O  O36  1  0.22663061  0.45365644  0.46541856  1
  O  O37  1  0.27495209  0.01286111  0.04848188  1
  O  O38  1  0.76575541  0.72264990  0.25676556  1
  O  O39  1  0.03745612  0.48768132  0.76383950  1
