# generated using pymatgen
data_Na5GdO4
_symmetry_space_group_name_H-M   'P 1'
_cell_length_a   15.08398344
_cell_length_b   15.08398344
_cell_length_c   5.54635717
_cell_angle_alpha   90.00000000
_cell_angle_beta   90.00000000
_cell_angle_gamma   90.00000000
_symmetry_Int_Tables_number   1
_chemical_formula_structural   Na5GdO4
_chemical_formula_sum   'Na40 Gd8 O32'
_cell_volume   1261.94354756
_cell_formula_units_Z   8
loop_
 _symmetry_equiv_pos_site_id
 _symmetry_equiv_pos_as_xyz
  1  'x, y, z'
loop_
 _atom_site_type_symbol
 _atom_site_label
 _atom_site_symmetry_multiplicity
 _atom_site_fract_x
 _atom_site_fract_y
 _atom_site_fract_z
 _atom_site_occupancy
  Na  Na0  1  0.98618607  0.01381393  0.25000000  1
  Na  Na1  1  0.01381393  0.98618607  0.75000000  1
  Na  Na2  1  0.98618607  0.48618607  0.25000000  1
  Na  Na3  1  0.01381393  0.51381393  0.75000000  1
  Na  Na4  1  0.10136667  0.35473611  0.81071402  1
  Na  Na5  1  0.10136667  0.14526389  0.81071402  1
  Na  Na6  1  0.12242008  0.62242008  0.25000000  1
  Na  Na7  1  0.12242008  0.87757992  0.25000000  1
  Na  Na8  1  0.14526389  0.10136667  0.31071402  1
  Na  Na9  1  0.14526389  0.39863333  0.31071402  1
  Na  Na10  1  0.25000000  0.25000000  0.37341295  1
  Na  Na11  1  0.25000000  0.75000000  0.75000000  1
  Na  Na12  1  0.25000000  0.75000000  0.25000000  1
  Na  Na13  1  0.25000000  0.25000000  0.87341295  1
  Na  Na14  1  0.35473611  0.10136667  0.31071402  1
  Na  Na15  1  0.35473611  0.39863333  0.31071402  1
  Na  Na16  1  0.37757992  0.62242008  0.25000000  1
  Na  Na17  1  0.37757992  0.87757992  0.25000000  1
  Na  Na18  1  0.39863333  0.14526389  0.81071402  1
  Na  Na19  1  0.39863333  0.35473611  0.81071402  1
  Na  Na20  1  0.51381393  0.01381393  0.25000000  1
  Na  Na21  1  0.48618607  0.98618607  0.75000000  1
  Na  Na22  1  0.51381393  0.48618607  0.25000000  1
  Na  Na23  1  0.48618607  0.51381393  0.75000000  1
  Na  Na24  1  0.60136667  0.64526389  0.18928598  1
  Na  Na25  1  0.60136667  0.85473611  0.18928598  1
  Na  Na26  1  0.62242008  0.12242008  0.75000000  1
  Na  Na27  1  0.62242008  0.37757992  0.75000000  1
  Na  Na28  1  0.64526389  0.60136667  0.68928598  1
  Na  Na29  1  0.64526389  0.89863333  0.68928598  1
  Na  Na30  1  0.75000000  0.25000000  0.25000000  1
  Na  Na31  1  0.75000000  0.25000000  0.75000000  1
  Na  Na32  1  0.75000000  0.75000000  0.12658705  1
  Na  Na33  1  0.75000000  0.75000000  0.62658705  1
  Na  Na34  1  0.85473611  0.60136667  0.68928598  1
  Na  Na35  1  0.85473611  0.89863333  0.68928598  1
  Na  Na36  1  0.87757992  0.12242008  0.75000000  1
  Na  Na37  1  0.87757992  0.37757992  0.75000000  1
  Na  Na38  1  0.89863333  0.64526389  0.18928598  1
  Na  Na39  1  0.89863333  0.85473611  0.18928598  1
  Gd  Gd40  1  0.01469765  0.75000000  0.71470590  1
  Gd  Gd41  1  0.25000000  0.51469765  0.78529410  1
  Gd  Gd42  1  0.25000000  0.98530235  0.78529410  1
  Gd  Gd43  1  0.48530235  0.75000000  0.71470590  1
  Gd  Gd44  1  0.51469765  0.25000000  0.28529410  1
  Gd  Gd45  1  0.75000000  0.01469765  0.21470590  1
  Gd  Gd46  1  0.75000000  0.48530235  0.21470590  1
  Gd  Gd47  1  0.98530235  0.25000000  0.28529410  1
  O  O48  1  0.00638657  0.12738057  0.50114599  1
  O  O49  1  0.00638657  0.37261943  0.50114599  1
  O  O50  1  0.12738057  0.00638657  0.00114599  1
  O  O51  1  0.12738057  0.49361343  0.00114599  1
  O  O52  1  0.12234093  0.25000000  0.11413202  1
  O  O53  1  0.11974230  0.75000000  0.99250505  1
  O  O54  1  0.25000000  0.12234093  0.61413202  1
  O  O55  1  0.25000000  0.61974230  0.50749495  1
  O  O56  1  0.25000000  0.88025770  0.50749495  1
  O  O57  1  0.25000000  0.37765907  0.61413202  1
  O  O58  1  0.38025770  0.75000000  0.99250505  1
  O  O59  1  0.37765907  0.25000000  0.11413202  1
  O  O60  1  0.37261943  0.49361343  0.00114599  1
  O  O61  1  0.37261943  0.00638657  0.00114599  1
  O  O62  1  0.49361343  0.12738057  0.50114599  1
  O  O63  1  0.49361343  0.37261943  0.50114599  1
  O  O64  1  0.50638657  0.62738057  0.49885401  1
  O  O65  1  0.50638657  0.87261943  0.49885401  1
  O  O66  1  0.62738057  0.99361343  0.99885401  1
  O  O67  1  0.62738057  0.50638657  0.99885401  1
  O  O68  1  0.62234093  0.75000000  0.88586798  1
  O  O69  1  0.61974230  0.25000000  0.00749495  1
  O  O70  1  0.75000000  0.11974230  0.49250505  1
  O  O71  1  0.75000000  0.38025770  0.49250505  1
  O  O72  1  0.75000000  0.62234093  0.38586798  1
  O  O73  1  0.75000000  0.87765907  0.38586798  1
  O  O74  1  0.88025770  0.25000000  0.00749495  1
  O  O75  1  0.87765907  0.75000000  0.88586798  1
  O  O76  1  0.87261943  0.99361343  0.99885401  1
  O  O77  1  0.87261943  0.50638657  0.99885401  1
  O  O78  1  0.99361343  0.62738057  0.49885401  1
  O  O79  1  0.99361343  0.87261943  0.49885401  1
