# generated using pymatgen
data_Hf2N2O
_symmetry_space_group_name_H-M   'P 1'
_cell_length_a   8.66176056
_cell_length_b   8.67386627
_cell_length_c   8.67083469
_cell_angle_alpha   109.52708918
_cell_angle_beta   109.31256612
_cell_angle_gamma   109.40315574
_symmetry_Int_Tables_number   1
_chemical_formula_structural   Hf2N2O
_chemical_formula_sum   'Hf16 N16 O8'
_cell_volume   502.53824085
_cell_formula_units_Z   8
loop_
 _symmetry_equiv_pos_site_id
 _symmetry_equiv_pos_as_xyz
  1  'x, y, z'
loop_
 _atom_site_type_symbol
 _atom_site_label
 _atom_site_symmetry_multiplicity
 _atom_site_fract_x
 _atom_site_fract_y
 _atom_site_fract_z
 _atom_site_occupancy
  Hf  Hf0  1  0.98717895  0.49777057  0.98968944  1
  Hf  Hf1  1  0.53483222  0.74960851  0.29141564  1
  Hf  Hf2  1  0.25005292  0.21736357  0.96329182  1
  Hf  Hf3  1  0.24748646  0.72023887  0.47165858  1
  Hf  Hf4  1  0.95645109  0.25176954  0.21442741  1
  Hf  Hf5  1  0.71910158  0.46314580  0.25618599  1
  Hf  Hf6  1  0.21667522  0.96820291  0.25874650  1
  Hf  Hf7  1  0.50999971  0.50230333  0.49981061  1
  Hf  Hf8  1  0.00589195  0.00796625  0.51920136  1
  Hf  Hf9  1  0.28357360  0.53370823  0.74946756  1
  Hf  Hf10  1  0.50661443  0.99793511  0.99663934  1
  Hf  Hf11  1  0.77549586  0.02686308  0.74105440  1
  Hf  Hf12  1  0.03369190  0.74496974  0.78191666  1
  Hf  Hf13  1  0.75156105  0.78000699  0.02452483  1
  Hf  Hf14  1  0.75134648  0.28309771  0.53641387  1
  Hf  Hf15  1  0.46477260  0.25089042  0.70537527  1
  N  N16  1  0.96170746  0.73421628  0.99558476  1
  N  N17  1  0.96939568  0.51287722  0.24005816  1
  N  N18  1  0.52581787  0.77041587  0.54131287  1
  N  N19  1  0.26628759  0.77262406  0.73051271  1
  N  N20  1  0.45534291  0.46587597  0.22339477  1
  N  N21  1  0.03509738  0.48633545  0.76395512  1
  N  N22  1  0.23326386  0.96182794  0.50340867  1
  N  N23  1  0.46278042  0.22735915  0.45062632  1
  N  N24  1  0.77533184  0.54954657  0.53332793  1
  N  N25  1  0.99110767  0.95818015  0.73307259  1
  N  N26  1  0.54451885  0.53816536  0.77357257  1
  N  N27  1  0.73112818  0.98842271  0.95869780  1
  N  N28  1  0.73490197  0.22584873  0.26779031  1
  N  N29  1  0.22888345  0.27225464  0.74244753  1
  N  N30  1  0.72631101  0.26213031  0.77936753  1
  N  N31  1  0.76028987  0.02982649  0.48324205  1
  O  O32  1  0.27785914  0.74262215  0.22155677  1
  O  O33  1  0.48610844  0.76387583  0.03790800  1
  O  O34  1  0.04933996  0.27585670  0.01509005  1
  O  O35  1  0.76973073  0.72750376  0.25292546  1
  O  O36  1  0.01640780  0.05248660  0.27745190  1
  O  O37  1  0.27886646  0.01372355  0.04790896  1
  O  O38  1  0.22045201  0.44432821  0.46529483  1
  O  O39  1  0.50434143  0.22785865  0.96167504  1
