# generated using pymatgen
data_V4OF11
_symmetry_space_group_name_H-M   'P 1'
_cell_length_a   5.07364349
_cell_length_b   5.30645205
_cell_length_c   16.87634189
_cell_angle_alpha   88.14332471
_cell_angle_beta   98.75840583
_cell_angle_gamma   118.04578015
_symmetry_Int_Tables_number   1
_chemical_formula_structural   V4OF11
_chemical_formula_sum   'V8 O2 F22'
_cell_volume   395.93137318
_cell_formula_units_Z   2
loop_
 _symmetry_equiv_pos_site_id
 _symmetry_equiv_pos_as_xyz
  1  'x, y, z'
loop_
 _atom_site_type_symbol
 _atom_site_label
 _atom_site_symmetry_multiplicity
 _atom_site_fract_x
 _atom_site_fract_y
 _atom_site_fract_z
 _atom_site_occupancy
  V  V0  1  0.23481142  0.61506812  0.87748520  1
  V  V1  1  0.25501614  0.12236616  0.37539230  1
  V  V2  1  0.49608451  0.24664423  0.75128297  1
  V  V3  1  0.50685298  0.74606371  0.24491354  1
  V  V4  1  0.75013458  0.87236952  0.62609408  1
  V  V5  1  0.73676674  0.39890842  0.12374063  1
  V  V6  1  0.99099339  0.02861033  0.99537232  1
  V  V7  1  0.00338733  0.49830974  0.50089756  1
  O  O8  1  0.02695880  0.30603289  0.93870034  1
  O  O9  1  0.59405841  0.58717534  0.16242804  1
  F  F10  1  0.06098900  0.83765578  0.90806391  1
  F  F11  1  0.00345223  0.80421705  0.43865009  1
  F  F12  1  0.49310021  0.94278146  0.81492348  1
  F  F13  1  0.05466810  0.02312371  0.71880413  1
  F  F14  1  0.07153378  0.33798905  0.41022355  1
  F  F15  1  0.08260032  0.53751638  0.21173387  1
  F  F16  1  0.55766249  0.78246155  0.96662393  1
  F  F17  1  0.43481187  0.41733814  0.84079323  1
  F  F18  1  0.42322058  0.90080761  0.33993628  1
  F  F19  1  0.44372524  0.72316796  0.53381398  1
  F  F20  1  0.49551704  0.55078351  0.68750951  1
  F  F21  1  0.49597891  0.44332573  0.31148663  1
  F  F22  1  0.56418379  0.08688758  0.66039624  1
  F  F23  1  0.56318293  0.27272195  0.46744925  1
  F  F24  1  0.42639406  0.20495221  0.03339008  1
  F  F25  1  0.93218649  0.65453946  0.59260974  1
  F  F26  1  0.93882628  0.47129128  0.78397767  1
  F  F27  1  0.93258957  0.97157821  0.28482840  1
  F  F28  1  0.52256672  0.06506140  0.18726249  1
  F  F29  1  0.97900792  0.69258016  0.05659324  1
  F  F30  1  0.00340681  0.19201047  0.56388213  1
  F  F31  1  0.92533034  0.16566188  0.09073719  1
