# generated using pymatgen
data_Dy2(SeO4)3
_symmetry_space_group_name_H-M   'P 1'
_cell_length_a   6.73123555
_cell_length_b   6.73123555
_cell_length_c   11.17513951
_cell_angle_alpha   80.47177870
_cell_angle_beta   80.47177870
_cell_angle_gamma   116.86926237
_symmetry_Int_Tables_number   1
_chemical_formula_structural   Dy2(SeO4)3
_chemical_formula_sum   'Dy4 Se6 O24'
_cell_volume   428.49815203
_cell_formula_units_Z   2
loop_
 _symmetry_equiv_pos_site_id
 _symmetry_equiv_pos_as_xyz
  1  'x, y, z'
loop_
 _atom_site_type_symbol
 _atom_site_label
 _atom_site_symmetry_multiplicity
 _atom_site_fract_x
 _atom_site_fract_y
 _atom_site_fract_z
 _atom_site_occupancy
  Dy  Dy0  1  0.70649295  0.95660058  0.59353268  1
  Dy  Dy1  1  0.95660058  0.70649295  0.09353268  1
  Dy  Dy2  1  0.04339942  0.29350705  0.90646732  1
  Dy  Dy3  1  0.29350705  0.04339942  0.40646732  1
  Se  Se4  1  0.52836962  0.78885677  0.92394460  1
  Se  Se5  1  0.78885677  0.52836962  0.42394460  1
  Se  Se6  1  0.11785884  0.88214116  0.75000000  1
  Se  Se7  1  0.88214116  0.11785884  0.25000000  1
  Se  Se8  1  0.21114323  0.47163038  0.57605540  1
  Se  Se9  1  0.47163038  0.21114323  0.07605540  1
  O  O10  1  0.20915778  0.12666627  0.78839144  1
  O  O11  1  0.58209107  0.97409394  0.78976456  1
  O  O12  1  0.07739555  0.68182573  0.87711179  1
  O  O13  1  0.78612196  0.88741226  0.95694631  1
  O  O14  1  0.12666627  0.20915778  0.28839144  1
  O  O15  1  0.46513843  0.57442938  0.60633074  1
  O  O16  1  0.76807774  0.33612118  0.54333545  1
  O  O17  1  0.66387882  0.23192226  0.95666455  1
  O  O18  1  0.42557062  0.53486157  0.89366926  1
  O  O19  1  0.97409394  0.58209107  0.28976456  1
  O  O20  1  0.11258774  0.21387804  0.54305369  1
  O  O21  1  0.31817427  0.92260445  0.62288821  1
  O  O22  1  0.68182573  0.07739555  0.37711179  1
  O  O23  1  0.88741226  0.78612196  0.45694631  1
  O  O24  1  0.02590606  0.41790893  0.71023544  1
  O  O25  1  0.57442938  0.46513843  0.10633074  1
  O  O26  1  0.33612118  0.76807774  0.04333545  1
  O  O27  1  0.23192226  0.66387882  0.45666455  1
  O  O28  1  0.53486157  0.42557062  0.39366926  1
  O  O29  1  0.87333373  0.79084222  0.71160856  1
  O  O30  1  0.21387804  0.11258774  0.04305369  1
  O  O31  1  0.92260445  0.31817427  0.12288821  1
  O  O32  1  0.41790893  0.02590606  0.21023544  1
  O  O33  1  0.79084222  0.87333373  0.21160856  1
