# generated using pymatgen
data_V4O7F5
_symmetry_space_group_name_H-M   'P 1'
_cell_length_a   5.12824631
_cell_length_b   5.28843591
_cell_length_c   8.87211134
_cell_angle_alpha   73.43642371
_cell_angle_beta   90.11155469
_cell_angle_gamma   60.19099315
_symmetry_Int_Tables_number   1
_chemical_formula_structural   V4O7F5
_chemical_formula_sum   'V4 O7 F5'
_cell_volume   197.10713552
_cell_formula_units_Z   1
loop_
 _symmetry_equiv_pos_site_id
 _symmetry_equiv_pos_as_xyz
  1  'x, y, z'
loop_
 _atom_site_type_symbol
 _atom_site_label
 _atom_site_symmetry_multiplicity
 _atom_site_fract_x
 _atom_site_fract_y
 _atom_site_fract_z
 _atom_site_occupancy
  V  V0  1  0.73192178  0.52318513  0.26584430  1
  V  V1  1  0.45695008  0.04042005  0.51202677  1
  V  V2  1  0.24397315  0.54714799  0.75387292  1
  V  V3  1  0.04210261  0.00339082  0.01537756  1
  O  O4  1  0.96485364  0.23244582  0.12038387  1
  O  O5  1  0.55146096  0.74710920  0.36944292  1
  O  O6  1  0.41352621  0.73851726  0.08183057  1
  O  O7  1  0.40567927  0.74529471  0.66133658  1
  O  O8  1  0.45986228  0.23180640  0.62780420  1
  O  O9  1  0.04398103  0.74495770  0.86635635  1
  O  O10  1  0.09445662  0.25406011  0.41202389  1
  F  F11  1  0.92069057  0.72848150  0.58205274  1
  F  F12  1  0.91687495  0.74815215  0.15512477  1
  F  F13  1  0.60153686  0.22882353  0.33616684  1
  F  F14  1  0.57680612  0.23892504  0.91303637  1
  F  F15  1  0.07532386  0.24728558  0.82731635  1
