# generated using pymatgen
data_Na3NdV2O8
_symmetry_space_group_name_H-M   'P 1'
_cell_length_a   5.64669000
_cell_length_b   14.38861604
_cell_length_c   15.05064420
_cell_angle_alpha   91.35350872
_cell_angle_beta   100.80048639
_cell_angle_gamma   89.99567154
_symmetry_Int_Tables_number   1
_chemical_formula_structural   Na3NdV2O8
_chemical_formula_sum   'Na18 Nd6 V12 O48'
_cell_volume   1200.82690228
_cell_formula_units_Z   6
loop_
 _symmetry_equiv_pos_site_id
 _symmetry_equiv_pos_as_xyz
  1  'x, y, z'
loop_
 _atom_site_type_symbol
 _atom_site_label
 _atom_site_symmetry_multiplicity
 _atom_site_fract_x
 _atom_site_fract_y
 _atom_site_fract_z
 _atom_site_occupancy
  Na  Na0  1  0.67795600  0.46882000  0.34016300  1
  Na  Na1  1  0.10168600  0.91368800  0.20308400  1
  Na  Na2  1  0.31199700  0.73267700  0.64283500  1
  Na  Na3  1  0.71287600  0.80982300  0.53834100  1
  Na  Na4  1  0.96510800  0.99693200  0.95436400  1
  Na  Na5  1  0.55980700  0.55986600  0.08418100  1
  Na  Na6  1  0.21589100  0.09118900  0.40297300  1
  Na  Na7  1  0.66825300  0.97013600  0.33936800  1
  Na  Na8  1  0.09365200  0.41296400  0.20238800  1
  Na  Na9  1  0.52580900  0.05968000  0.08418800  1
  Na  Na10  1  0.92591700  0.65091700  0.75487000  1
  Na  Na11  1  0.83095300  0.15125900  0.75456300  1
  Na  Na12  1  0.99251000  0.49579400  0.95630400  1
  Na  Na13  1  0.32625600  0.23196900  0.64171300  1
  Na  Na14  1  0.45439400  0.37839100  0.88042600  1
  Na  Na15  1  0.43292800  0.87846100  0.88179200  1
  Na  Na16  1  0.82381000  0.31045900  0.54016500  1
  Na  Na17  1  0.19215500  0.59124500  0.40153700  1
  Nd  Nd18  1  0.42446700  0.48590500  0.64451400  1
  Nd  Nd19  1  0.61030600  0.71865700  0.29271800  1
  Nd  Nd20  1  0.04231000  0.75099100  0.00101600  1
  Nd  Nd21  1  0.68556300  0.21786900  0.29349900  1
  Nd  Nd22  1  0.21836300  0.98544100  0.64529900  1
  Nd  Nd23  1  0.96095800  0.25110700  0.00068700  1
  V  V24  1  0.40355700  0.12888100  0.86901300  1
  V  V25  1  0.82832400  0.88315000  0.76124900  1
  V  V26  1  0.81037800  0.57928000  0.53048800  1
  V  V27  1  0.71838200  0.07830600  0.53135800  1
  V  V28  1  0.07969300  0.63359700  0.18885700  1
  V  V29  1  0.46699900  0.62850800  0.86972700  1
  V  V30  1  0.18179500  0.83931000  0.42386800  1
  V  V31  1  0.54522900  0.33927100  0.10655200  1
  V  V32  1  0.93142700  0.38393700  0.76070000  1
  V  V33  1  0.24372700  0.33798200  0.42393700  1
  V  V34  1  0.10867500  0.13334100  0.18913400  1
  V  V35  1  0.56157800  0.84031700  0.10593600  1
  O  O36  1  0.96268600  0.81098600  0.69210100  1
  O  O37  1  0.97085100  0.35243200  0.87400900  1
  O  O38  1  0.25068900  0.35942300  0.53961800  1
  O  O39  1  0.77934500  0.64899500  0.89797000  1
  O  O40  1  0.39569000  0.53346400  0.92697100  1
  O  O41  1  0.61869900  0.87053800  0.22075300  1
  O  O42  1  0.75044500  0.39178600  0.04947100  1
  O  O43  1  0.51288300  0.72182700  0.10176900  1
  O  O44  1  0.95584500  0.99204300  0.75426400  1
  O  O45  1  0.89756600  0.85098900  0.87425100  1
  O  O46  1  0.31205800  0.72546900  0.90175400  1
  O  O47  1  0.73440000  0.61059000  0.41751600  1
  O  O48  1  0.83992700  0.59590000  0.23698500  1
  O  O49  1  0.80021400  0.87169500  0.05480300  1
  O  O50  1  0.87279700  0.81181400  0.40154700  1
  O  O51  1  0.23633200  0.93350500  0.36234800  1
  O  O52  1  0.11914900  0.14935500  0.89728300  1
  O  O53  1  0.60898600  0.36933100  0.22145600  1
  O  O54  1  0.58997500  0.22540600  0.90298800  1
  O  O55  1  0.03365600  0.60101400  0.07444900  1
  O  O56  1  0.05338100  0.24211000  0.39306300  1
  O  O57  1  0.04282200  0.10179800  0.07455100  1
  O  O58  1  0.53192900  0.31131300  0.40247200  1
  O  O59  1  0.66306200  0.64589500  0.60030800  1
  O  O60  1  0.34417800  0.74436800  0.39285100  1
  O  O61  1  0.72865900  0.31180800  0.69155600  1
  O  O62  1  0.51096700  0.88508000  0.72893200  1
  O  O63  1  0.36657200  0.61057800  0.75312900  1
  O  O64  1  0.12762400  0.58600100  0.56187800  1
  O  O65  1  0.39751700  0.09657700  0.23736500  1
  O  O66  1  0.53288100  0.03320800  0.92494700  1
  O  O67  1  0.25488800  0.37166700  0.05662700  1
  O  O68  1  0.29918000  0.89310000  0.04942300  1
  O  O69  1  0.38700100  0.11293100  0.75220100  1
  O  O70  1  0.21750900  0.38534800  0.72917400  1
  O  O71  1  0.12695400  0.43184800  0.36216200  1
  O  O72  1  0.68347400  0.11068700  0.41872900  1
  O  O73  1  0.83789900  0.96733000  0.54066500  1
  O  O74  1  0.34219600  0.58522500  0.24867400  1
  O  O75  1  0.79797900  0.49299600  0.75217700  1
  O  O76  1  0.10684900  0.75252100  0.19273200  1
  O  O77  1  0.70292000  0.46808600  0.54058000  1
  O  O78  1  0.93297000  0.14492700  0.60206300  1
  O  O79  1  0.90564100  0.08312300  0.24791200  1
  O  O80  1  0.08027700  0.25203200  0.19461500  1
  O  O81  1  0.28820200  0.86048500  0.53966000  1
  O  O82  1  0.43113900  0.08420000  0.56166000  1
  O  O83  1  0.58489200  0.22082100  0.10164600  1
