# generated using pymatgen
data_Pt3I8
_symmetry_space_group_name_H-M   'P 1'
_cell_length_a   12.00844400
_cell_length_b   12.00844400
_cell_length_c   11.09447100
_cell_angle_alpha   90.00000000
_cell_angle_beta   90.00000000
_cell_angle_gamma   90.00000000
_symmetry_Int_Tables_number   1
_chemical_formula_structural   Pt3I8
_chemical_formula_sum   'Pt12 I32'
_cell_volume   1599.85297616
_cell_formula_units_Z   4
loop_
 _symmetry_equiv_pos_site_id
 _symmetry_equiv_pos_as_xyz
  1  'x, y, z'
loop_
 _atom_site_type_symbol
 _atom_site_label
 _atom_site_symmetry_multiplicity
 _atom_site_fract_x
 _atom_site_fract_y
 _atom_site_fract_z
 _atom_site_occupancy
  Pt  Pt0  1  0.62102600  0.12979500  0.51207200  1
  Pt  Pt1  1  0.37897400  0.87020500  0.01207200  1
  Pt  Pt2  1  0.37020500  0.12102600  0.26207200  1
  Pt  Pt3  1  0.62979500  0.87897400  0.76207200  1
  Pt  Pt4  1  0.12979500  0.62102600  0.48792800  1
  Pt  Pt5  1  0.12102600  0.37020500  0.73792800  1
  Pt  Pt6  1  0.87897400  0.62979500  0.23792800  1
  Pt  Pt7  1  0.87020500  0.37897400  0.98792800  1
  Pt  Pt8  1  0.12554400  0.12554400  0.50000000  1
  Pt  Pt9  1  0.62554400  0.37445600  0.75000000  1
  Pt  Pt10  1  0.37445600  0.62554400  0.25000000  1
  Pt  Pt11  1  0.87445600  0.87445600  0.00000000  1
  I  I12  1  0.35461600  0.12990000  0.49782300  1
  I  I13  1  0.64538400  0.87010000  0.99782300  1
  I  I14  1  0.37010000  0.85461600  0.24782300  1
  I  I15  1  0.62990000  0.14538400  0.74782300  1
  I  I16  1  0.12990000  0.35461600  0.50217700  1
  I  I17  1  0.85461600  0.37010000  0.75217700  1
  I  I18  1  0.14538400  0.62990000  0.25217700  1
  I  I19  1  0.87010000  0.64538400  0.00217700  1
  I  I20  1  0.89820100  0.12581100  0.47653600  1
  I  I21  1  0.10179900  0.87418900  0.97653600  1
  I  I22  1  0.37418900  0.39820100  0.22653600  1
  I  I23  1  0.62581100  0.60179900  0.72653600  1
  I  I24  1  0.09161000  0.37667500  0.97510600  1
  I  I25  1  0.87667500  0.40839000  0.22510600  1
  I  I26  1  0.12332500  0.59161000  0.72510600  1
  I  I27  1  0.90839000  0.62332500  0.47510600  1
  I  I28  1  0.40839000  0.87667500  0.77489400  1
  I  I29  1  0.59161000  0.12332500  0.27489400  1
  I  I30  1  0.37667500  0.09161000  0.02489400  1
  I  I31  1  0.62332500  0.90839000  0.52489400  1
  I  I32  1  0.64976800  0.38284900  0.98968900  1
  I  I33  1  0.88284900  0.85023200  0.23968900  1
  I  I34  1  0.11715100  0.14976800  0.73968900  1
  I  I35  1  0.35023200  0.61715100  0.48968900  1
  I  I36  1  0.85023200  0.88284900  0.76031100  1
  I  I37  1  0.14976800  0.11715100  0.26031100  1
  I  I38  1  0.38284900  0.64976800  0.01031100  1
  I  I39  1  0.61715100  0.35023200  0.51031100  1
  I  I40  1  0.87418900  0.10179900  0.02346400  1
  I  I41  1  0.60179900  0.62581100  0.27346400  1
  I  I42  1  0.39820100  0.37418900  0.77346400  1
  I  I43  1  0.12581100  0.89820100  0.52346400  1
