# generated using pymatgen
data_Tl2Sn2S5
_symmetry_space_group_name_H-M   'P 1'
_cell_length_a   6.84374613
_cell_length_b   6.84374592
_cell_length_c   11.58122040
_cell_angle_alpha   74.85000634
_cell_angle_beta   74.85000342
_cell_angle_gamma   69.49701394
_symmetry_Int_Tables_number   1
_chemical_formula_structural   Tl2Sn2S5
_chemical_formula_sum   'Tl4 Sn4 S10'
_cell_volume   481.68178774
_cell_formula_units_Z   2
loop_
 _symmetry_equiv_pos_site_id
 _symmetry_equiv_pos_as_xyz
  1  'x, y, z'
loop_
 _atom_site_type_symbol
 _atom_site_label
 _atom_site_symmetry_multiplicity
 _atom_site_fract_x
 _atom_site_fract_y
 _atom_site_fract_z
 _atom_site_occupancy
  Tl  Tl0  1  0.89734675  0.54203372  0.18203162  1
  Tl  Tl1  1  0.45796628  0.10265325  0.31796838  1
  Tl  Tl2  1  0.10265325  0.45796628  0.81796838  1
  Tl  Tl3  1  0.54203372  0.89734675  0.68203162  1
  Sn  Sn4  1  0.06191403  0.75002156  0.44176548  1
  Sn  Sn5  1  0.24997844  0.93808597  0.05823452  1
  Sn  Sn6  1  0.93808597  0.24997844  0.55823452  1
  Sn  Sn7  1  0.75002156  0.06191403  0.94176548  1
  S  S8  1  0.68103973  0.31896027  0.75000000  1
  S  S9  1  0.31896027  0.68103973  0.25000000  1
  S  S10  1  0.87440672  0.15045508  0.38553005  1
  S  S11  1  0.84954492  0.12559328  0.11446995  1
  S  S12  1  0.12559328  0.84954492  0.61446995  1
  S  S13  1  0.15045508  0.87440672  0.88553005  1
  S  S14  1  0.25053898  0.35537397  0.53886455  1
  S  S15  1  0.64462603  0.74946102  0.96113545  1
  S  S16  1  0.35537397  0.25053898  0.03886455  1
  S  S17  1  0.74946102  0.64462603  0.46113545  1
