# generated using pymatgen
data_Na3AuO3
_symmetry_space_group_name_H-M   'P 1'
_cell_length_a   9.33766883
_cell_length_b   9.33766883
_cell_length_c   4.50870465
_cell_angle_alpha   90.00000000
_cell_angle_beta   90.00000000
_cell_angle_gamma   90.00000000
_symmetry_Int_Tables_number   1
_chemical_formula_structural   Na3AuO3
_chemical_formula_sum   'Na12 Au4 O12'
_cell_volume   393.12324266
_cell_formula_units_Z   4
loop_
 _symmetry_equiv_pos_site_id
 _symmetry_equiv_pos_as_xyz
  1  'x, y, z'
loop_
 _atom_site_type_symbol
 _atom_site_label
 _atom_site_symmetry_multiplicity
 _atom_site_fract_x
 _atom_site_fract_y
 _atom_site_fract_z
 _atom_site_occupancy
  Na  Na0  1  0.12639688  0.61991024  -0.00000000  1
  Na  Na1  1  0.88008976  0.62639688  0.50000000  1
  Na  Na2  1  0.35657639  0.64342361  0.50000000  1
  Na  Na3  1  0.85657639  0.85657639  0.00000000  1
  Na  Na4  1  0.38008976  0.87360312  -0.00000000  1
  Na  Na5  1  0.62639688  0.88008976  0.50000000  1
  Na  Na6  1  0.37360312  0.11991024  0.50000000  1
  Na  Na7  1  0.61991024  0.12639688  -0.00000000  1
  Na  Na8  1  0.14342361  0.14342361  0.00000000  1
  Na  Na9  1  0.64342361  0.35657639  0.50000000  1
  Na  Na10  1  0.11991024  0.37360312  0.50000000  1
  Na  Na11  1  0.87360312  0.38008976  0.00000000  1
  Au  Au12  1  0.61770095  0.61770095  0.00000000  1
  Au  Au13  1  0.11770095  0.88229905  0.50000000  1
  Au  Au14  1  0.88229905  0.11770095  0.50000000  1
  Au  Au15  1  0.38229905  0.38229905  0.00000000  1
  O  O16  1  0.39675540  0.60324460  0.00000000  1
  O  O17  1  0.83108883  0.61676124  0.00000000  1
  O  O18  1  0.11676124  0.66891117  0.50000000  1
  O  O19  1  0.61676124  0.83108883  0.00000000  1
  O  O20  1  0.33108883  0.88323876  0.50000000  1
  O  O21  1  0.89675540  0.89675540  0.50000000  1
  O  O22  1  0.10324460  0.10324460  0.50000000  1
  O  O23  1  0.66891117  0.11676124  0.50000000  1
  O  O24  1  0.38323876  0.16891117  0.00000000  1
  O  O25  1  0.88323876  0.33108883  0.50000000  1
  O  O26  1  0.16891117  0.38323876  0.00000000  1
  O  O27  1  0.60324460  0.39675540  0.00000000  1
