# generated using pymatgen
data_Li5InO4
_symmetry_space_group_name_H-M   'P 1'
_cell_length_a   9.18152576
_cell_length_b   9.29209946
_cell_length_c   9.45596144
_cell_angle_alpha   90.00000000
_cell_angle_beta   90.00000000
_cell_angle_gamma   90.00000000
_symmetry_Int_Tables_number   1
_chemical_formula_structural   Li5InO4
_chemical_formula_sum   'Li40 In8 O32'
_cell_volume   806.74150189
_cell_formula_units_Z   8
loop_
 _symmetry_equiv_pos_site_id
 _symmetry_equiv_pos_as_xyz
  1  'x, y, z'
loop_
 _atom_site_type_symbol
 _atom_site_label
 _atom_site_symmetry_multiplicity
 _atom_site_fract_x
 _atom_site_fract_y
 _atom_site_fract_z
 _atom_site_occupancy
  Li  Li0  1  0.11418292  0.59695147  0.13756228  1
  Li  Li1  1  0.11418292  0.90304853  0.63756228  1
  Li  Li2  1  0.12177082  0.11280367  0.83997305  1
  Li  Li3  1  0.12177082  0.38719633  0.33997305  1
  Li  Li4  1  0.12806431  0.85949660  0.38652283  1
  Li  Li5  1  0.12806431  0.64050340  0.88652283  1
  Li  Li6  1  0.14668669  0.86510110  0.12126620  1
  Li  Li7  1  0.14668669  0.63489890  0.62126620  1
  Li  Li8  1  0.15908775  0.11643974  0.39942944  1
  Li  Li9  1  0.15908775  0.38356026  0.89942944  1
  Li  Li10  1  0.34091225  0.88356026  0.89942944  1
  Li  Li11  1  0.34091225  0.61643974  0.39942944  1
  Li  Li12  1  0.35331331  0.36510110  0.12126620  1
  Li  Li13  1  0.35331331  0.13489890  0.62126620  1
  Li  Li14  1  0.37193569  0.35949660  0.38652283  1
  Li  Li15  1  0.37193569  0.14050340  0.88652283  1
  Li  Li16  1  0.37822918  0.88719633  0.33997305  1
  Li  Li17  1  0.37822918  0.61280367  0.83997305  1
  Li  Li18  1  0.38581708  0.09695147  0.13756228  1
  Li  Li19  1  0.38581708  0.40304853  0.63756228  1
  Li  Li20  1  0.61418292  0.59695147  0.36243772  1
  Li  Li21  1  0.61418292  0.90304853  0.86243772  1
  Li  Li22  1  0.62177082  0.11280367  0.66002695  1
  Li  Li23  1  0.62177082  0.38719633  0.16002695  1
  Li  Li24  1  0.62806431  0.64050340  0.61347717  1
  Li  Li25  1  0.62806431  0.85949660  0.11347717  1
  Li  Li26  1  0.64668669  0.63489890  0.87873380  1
  Li  Li27  1  0.64668669  0.86510110  0.37873380  1
  Li  Li28  1  0.65908775  0.11643974  0.10057056  1
  Li  Li29  1  0.65908775  0.38356026  0.60057056  1
  Li  Li30  1  0.84091225  0.61643974  0.10057056  1
  Li  Li31  1  0.84091225  0.88356026  0.60057056  1
  Li  Li32  1  0.85331331  0.36510110  0.37873380  1
  Li  Li33  1  0.85331331  0.13489890  0.87873380  1
  Li  Li34  1  0.87193569  0.14050340  0.61347717  1
  Li  Li35  1  0.87193569  0.35949660  0.11347717  1
  Li  Li36  1  0.87822918  0.61280367  0.66002695  1
  Li  Li37  1  0.87822918  0.88719633  0.16002695  1
  Li  Li38  1  0.88581708  0.09695147  0.36243772  1
  Li  Li39  1  0.88581708  0.40304853  0.86243772  1
  In  In40  1  0.09601281  0.14958861  0.12466556  1
  In  In41  1  0.09601281  0.35041139  0.62466556  1
  In  In42  1  0.40398719  0.64958861  0.12466556  1
  In  In43  1  0.40398719  0.85041139  0.62466556  1
  In  In44  1  0.59601281  0.14958861  0.37533444  1
  In  In45  1  0.59601281  0.35041139  0.87533444  1
  In  In46  1  0.90398719  0.64958861  0.37533444  1
  In  In47  1  0.90398719  0.85041139  0.87533444  1
  O  O48  1  0.99408291  0.23820632  0.46972969  1
  O  O49  1  0.99408291  0.26179368  0.96972969  1
  O  O50  1  0.02571606  0.98925697  0.25910161  1
  O  O51  1  0.02571606  0.51074303  0.75910161  1
  O  O52  1  0.23673888  0.02330473  0.00047302  1
  O  O53  1  0.23673888  0.47669527  0.50047302  1
  O  O54  1  0.25107651  0.24555564  0.25486730  1
  O  O55  1  0.25107651  0.25444436  0.75486730  1
  O  O56  1  0.24892349  0.74555564  0.25486730  1
  O  O57  1  0.24892349  0.75444436  0.75486730  1
  O  O58  1  0.26326112  0.52330473  0.00047302  1
  O  O59  1  0.26326112  0.97669527  0.50047302  1
  O  O60  1  0.47428394  0.48925697  0.25910161  1
  O  O61  1  0.47428394  0.01074303  0.75910161  1
  O  O62  1  0.50591709  0.73820632  0.46972969  1
  O  O63  1  0.50591709  0.76179368  0.96972969  1
  O  O64  1  0.49408291  0.23820632  0.03027031  1
  O  O65  1  0.49408291  0.26179368  0.53027031  1
  O  O66  1  0.52571606  0.98925697  0.24089839  1
  O  O67  1  0.52571606  0.51074303  0.74089839  1
  O  O68  1  0.73673888  0.02330473  0.49952698  1
  O  O69  1  0.73673888  0.47669527  0.99952698  1
  O  O70  1  0.75107651  0.24555564  0.24513270  1
  O  O71  1  0.75107651  0.25444436  0.74513270  1
  O  O72  1  0.74892349  0.74555564  0.24513270  1
  O  O73  1  0.74892349  0.75444436  0.74513270  1
  O  O74  1  0.76326112  0.52330473  0.49952698  1
  O  O75  1  0.76326112  0.97669527  0.99952698  1
  O  O76  1  0.97428394  0.48925697  0.24089839  1
  O  O77  1  0.97428394  0.01074303  0.74089839  1
  O  O78  1  0.00591709  0.73820632  0.03027031  1
  O  O79  1  0.00591709  0.76179368  0.53027031  1
