# generated using pymatgen
data_LuHO2
_symmetry_space_group_name_H-M   'P 1'
_cell_length_a   5.30649841
_cell_length_b   4.72908572
_cell_length_c   3.35851049
_cell_angle_alpha   90.00000000
_cell_angle_beta   90.00000000
_cell_angle_gamma   90.00000000
_symmetry_Int_Tables_number   1
_chemical_formula_structural   LuHO2
_chemical_formula_sum   'Lu2 H2 O4'
_cell_volume   84.28143739
_cell_formula_units_Z   2
loop_
 _symmetry_equiv_pos_site_id
 _symmetry_equiv_pos_as_xyz
  1  'x, y, z'
loop_
 _atom_site_type_symbol
 _atom_site_label
 _atom_site_symmetry_multiplicity
 _atom_site_fract_x
 _atom_site_fract_y
 _atom_site_fract_z
 _atom_site_occupancy
  Lu  Lu0  1  0.01587140  0.27854895  0.00000000  1
  Lu  Lu1  1  0.51587140  0.72145105  0.50000000  1
  H  H2  1  0.03828865  0.81231680  0.50000000  1
  H  H3  1  0.53828865  0.18768320  0.00000000  1
  O  O4  1  0.14918318  0.98482973  0.50000000  1
  O  O5  1  0.37388176  0.48448595  0.00000000  1
  O  O6  1  0.64918318  0.01517027  -0.00000000  1
  O  O7  1  0.87388176  0.51551405  0.50000000  1
