# generated using pymatgen
data_SmClO2
_symmetry_space_group_name_H-M   'P 1'
_cell_length_a   4.26030300
_cell_length_b   5.06017100
_cell_length_c   6.55191947
_cell_angle_alpha   108.29986841
_cell_angle_beta   90.00000000
_cell_angle_gamma   90.00000000
_symmetry_Int_Tables_number   1
_chemical_formula_structural   SmClO2
_chemical_formula_sum   'Sm2 Cl2 O4'
_cell_volume   134.10205836
_cell_formula_units_Z   2
loop_
 _symmetry_equiv_pos_site_id
 _symmetry_equiv_pos_as_xyz
  1  'x, y, z'
loop_
 _atom_site_type_symbol
 _atom_site_label
 _atom_site_symmetry_multiplicity
 _atom_site_fract_x
 _atom_site_fract_y
 _atom_site_fract_z
 _atom_site_occupancy
  Sm  Sm0  1  0.25000000  0.82409100  0.16746500  1
  Sm  Sm1  1  0.75000000  0.17590900  0.83253500  1
  Cl  Cl2  1  0.75000000  0.21594300  0.41712800  1
  Cl  Cl3  1  0.25000000  0.78405700  0.58287200  1
  O  O4  1  0.75000000  0.76553100  0.95945200  1
  O  O5  1  0.25000000  0.23446900  0.04054800  1
  O  O6  1  0.75000000  0.61534500  0.12271900  1
  O  O7  1  0.25000000  0.38465500  0.87728100  1
