# generated using pymatgen
data_Tm2WO6
_symmetry_space_group_name_H-M   'P 1'
_cell_length_a   5.14528924
_cell_length_b   8.94552585
_cell_length_c   9.76607228
_cell_angle_alpha   90.00000000
_cell_angle_beta   90.00000000
_cell_angle_gamma   90.00000000
_symmetry_Int_Tables_number   1
_chemical_formula_structural   Tm2WO6
_chemical_formula_sum   'Tm8 W4 O24'
_cell_volume   449.50611349
_cell_formula_units_Z   4
loop_
 _symmetry_equiv_pos_site_id
 _symmetry_equiv_pos_as_xyz
  1  'x, y, z'
loop_
 _atom_site_type_symbol
 _atom_site_label
 _atom_site_symmetry_multiplicity
 _atom_site_fract_x
 _atom_site_fract_y
 _atom_site_fract_z
 _atom_site_occupancy
  Tm  Tm0  1  0.01653352  0.39663282  0.03356908  1
  Tm  Tm1  1  0.03976117  0.28058453  0.62702476  1
  Tm  Tm2  1  0.46023883  0.71941547  0.12702476  1
  Tm  Tm3  1  0.48346648  0.60336718  0.53356908  1
  Tm  Tm4  1  0.51653352  0.10336718  0.96643092  1
  Tm  Tm5  1  0.53976117  0.21941547  0.37297524  1
  Tm  Tm6  1  0.96023883  0.78058453  0.87297524  1
  Tm  Tm7  1  0.98346648  0.89663282  0.46643092  1
  W  W8  1  0.03822070  0.00514973  0.15389821  1
  W  W9  1  0.46177930  0.99485027  0.65389821  1
  W  W10  1  0.53822070  0.49485027  0.84610179  1
  W  W11  1  0.96177930  0.50514973  0.34610179  1
  O  O12  1  0.08842251  0.65807342  0.46918743  1
  O  O13  1  0.17845501  0.54573552  0.19897759  1
  O  O14  1  0.17702120  0.86145622  0.68151362  1
  O  O15  1  0.19659067  0.85829345  0.26548377  1
  O  O16  1  0.23488707  0.38470899  0.43161006  1
  O  O17  1  0.25244178  0.08971831  0.50408888  1
  O  O18  1  0.24755822  0.91028169  0.00408888  1
  O  O19  1  0.26511293  0.61529101  0.93161006  1
  O  O20  1  0.30340933  0.14170655  0.76548377  1
  O  O21  1  0.32297880  0.13854378  0.18151362  1
  O  O22  1  0.32154499  0.45426448  0.69897759  1
  O  O23  1  0.41157749  0.34192658  0.96918743  1
  O  O24  1  0.58842251  0.84192658  0.53081257  1
  O  O25  1  0.67845501  0.95426448  0.80102241  1
  O  O26  1  0.67702120  0.63854378  0.31848638  1
  O  O27  1  0.69659067  0.64170655  0.73451623  1
  O  O28  1  0.73488707  0.11529101  0.56838994  1
  O  O29  1  0.75244178  0.41028169  0.49591112  1
  O  O30  1  0.74755822  0.58971831  0.99591112  1
  O  O31  1  0.76511293  0.88470899  0.06838994  1
  O  O32  1  0.80340933  0.35829345  0.23451623  1
  O  O33  1  0.82297880  0.36145622  0.81848638  1
  O  O34  1  0.82154499  0.04573552  0.30102241  1
  O  O35  1  0.91157749  0.15807342  0.03081257  1
