# generated using pymatgen
data_V4O5F7
_symmetry_space_group_name_H-M   'P 1'
_cell_length_a   5.06681052
_cell_length_b   5.26586130
_cell_length_c   8.91514050
_cell_angle_alpha   73.21420013
_cell_angle_beta   73.70058094
_cell_angle_gamma   61.29543604
_symmetry_Int_Tables_number   1
_chemical_formula_structural   V4O5F7
_chemical_formula_sum   'V4 O5 F7'
_cell_volume   196.86986680
_cell_formula_units_Z   1
loop_
 _symmetry_equiv_pos_site_id
 _symmetry_equiv_pos_as_xyz
  1  'x, y, z'
loop_
 _atom_site_type_symbol
 _atom_site_label
 _atom_site_symmetry_multiplicity
 _atom_site_fract_x
 _atom_site_fract_y
 _atom_site_fract_z
 _atom_site_occupancy
  V  V0  1  0.78776319  0.73009252  0.74313355  1
  V  V1  1  0.52098539  0.50932381  0.49876005  1
  V  V2  1  0.21062444  0.26104040  0.23943678  1
  V  V3  1  0.98471056  0.98921918  0.99630126  1
  O  O4  1  0.84565400  0.84192046  0.91395215  1
  O  O5  1  0.84269607  0.41556613  0.33087697  1
  O  O6  1  0.14965109  0.57478655  0.66190119  1
  O  O7  1  0.17361215  0.16709384  0.08779422  1
  O  O8  1  0.64315011  0.65333448  0.59347489  1
  F  F9  1  0.33881130  0.33659287  0.41286718  1
  F  F10  1  0.33755079  0.93597318  0.83203830  1
  F  F11  1  0.76398675  0.38858396  0.88983795  1
  F  F12  1  0.71856302  0.11651808  0.61829938  1
  F  F13  1  0.28111499  0.88278233  0.37427200  1
  F  F14  1  0.23081905  0.62056355  0.12719964  1
  F  F15  1  0.67031009  0.07660768  0.17985450  1
