# generated using pymatgen
data_Rb4TiO4
_symmetry_space_group_name_H-M   'P 1'
_cell_length_a   6.85250311
_cell_length_b   11.02038918
_cell_length_c   11.07427060
_cell_angle_alpha   67.89774771
_cell_angle_beta   90.00000000
_cell_angle_gamma   90.00000000
_symmetry_Int_Tables_number   1
_chemical_formula_structural   Rb4TiO4
_chemical_formula_sum   'Rb16 Ti4 O16'
_cell_volume   774.84211099
_cell_formula_units_Z   4
loop_
 _symmetry_equiv_pos_site_id
 _symmetry_equiv_pos_as_xyz
  1  'x, y, z'
loop_
 _atom_site_type_symbol
 _atom_site_label
 _atom_site_symmetry_multiplicity
 _atom_site_fract_x
 _atom_site_fract_y
 _atom_site_fract_z
 _atom_site_occupancy
  Rb  Rb0  1  0.68818611  0.28902139  0.07951857  1
  Rb  Rb1  1  0.17634110  0.39192735  0.12505859  1
  Rb  Rb2  1  0.38903131  0.07428826  0.34082168  1
  Rb  Rb3  1  0.81181389  0.78902139  0.07951857  1
  Rb  Rb4  1  0.32365890  0.89192735  0.12505859  1
  Rb  Rb5  1  0.92261238  0.20552451  0.43269210  1
  Rb  Rb6  1  0.11096869  0.57428826  0.34082168  1
  Rb  Rb7  1  0.42261238  0.29447549  0.56730790  1
  Rb  Rb8  1  0.57738762  0.70552451  0.43269210  1
  Rb  Rb9  1  0.88903131  0.42571174  0.65917832  1
  Rb  Rb10  1  0.07738762  0.79447549  0.56730790  1
  Rb  Rb11  1  0.67634110  0.10807265  0.87494141  1
  Rb  Rb12  1  0.18818611  0.21097861  0.92048143  1
  Rb  Rb13  1  0.61096869  0.92571174  0.65917832  1
  Rb  Rb14  1  0.82365890  0.60807265  0.87494141  1
  Rb  Rb15  1  0.31181389  0.71097861  0.92048143  1
  Ti  Ti16  1  0.62540647  0.48783155  0.25996412  1
  Ti  Ti17  1  0.87459353  0.98783155  0.25996412  1
  Ti  Ti18  1  0.12540647  0.01216845  0.74003588  1
  Ti  Ti19  1  0.37459353  0.51216845  0.74003588  1
  O  O20  1  0.03446948  0.13295109  0.18853525  1
  O  O21  1  0.83186672  0.50516625  0.14809621  1
  O  O22  1  0.49293284  0.33480200  0.28737641  1
  O  O23  1  0.46553052  0.63295109  0.18853525  1
  O  O24  1  0.66813328  0.00516625  0.14809621  1
  O  O25  1  0.72633626  0.47782172  0.41566139  1
  O  O26  1  0.22633626  0.02217828  0.58433861  1
  O  O27  1  0.00706716  0.83480200  0.28737641  1
  O  O28  1  0.99293284  0.16519800  0.71262359  1
  O  O29  1  0.77366374  0.97782172  0.41566139  1
  O  O30  1  0.27366374  0.52217828  0.58433861  1
  O  O31  1  0.33186672  0.99483375  0.85190379  1
  O  O32  1  0.53446948  0.36704891  0.81146475  1
  O  O33  1  0.50706716  0.66519800  0.71262359  1
  O  O34  1  0.16813328  0.49483375  0.85190379  1
  O  O35  1  0.96553052  0.86704891  0.81146475  1
