# generated using pymatgen
data_BaSe3
_symmetry_space_group_name_H-M   'P 1'
_cell_length_a   4.29675126
_cell_length_b   7.38597746
_cell_length_c   7.38597746
_cell_angle_alpha   90.00000000
_cell_angle_beta   90.00000000
_cell_angle_gamma   90.00000000
_symmetry_Int_Tables_number   1
_chemical_formula_structural   BaSe3
_chemical_formula_sum   'Ba2 Se6'
_cell_volume   234.39922365
_cell_formula_units_Z   2
loop_
 _symmetry_equiv_pos_site_id
 _symmetry_equiv_pos_as_xyz
  1  'x, y, z'
loop_
 _atom_site_type_symbol
 _atom_site_label
 _atom_site_symmetry_multiplicity
 _atom_site_fract_x
 _atom_site_fract_y
 _atom_site_fract_z
 _atom_site_occupancy
  Ba  Ba0  1  0.00000000  0.50000000  0.50000000  1
  Ba  Ba1  1  0.00000000  0.00000000  -0.00000000  1
  Se  Se2  1  0.48444576  0.80974977  0.30974977  1
  Se  Se3  1  0.51555424  0.30974977  0.19025023  1
  Se  Se4  1  0.17891909  0.00000000  0.50000000  1
  Se  Se5  1  0.82108091  0.50000000  -0.00000000  1
  Se  Se6  1  0.48444576  0.19025023  0.69025023  1
  Se  Se7  1  0.51555424  0.69025023  0.80974977  1
