# generated using pymatgen
data_Zr2N2O
_symmetry_space_group_name_H-M   'P 1'
_cell_length_a   8.77946306
_cell_length_b   8.78593793
_cell_length_c   8.79294210
_cell_angle_alpha   109.37437941
_cell_angle_beta   109.43845277
_cell_angle_gamma   109.51022592
_symmetry_Int_Tables_number   1
_chemical_formula_structural   Zr2N2O
_chemical_formula_sum   'Zr16 N16 O8'
_cell_volume   522.70014202
_cell_formula_units_Z   8
loop_
 _symmetry_equiv_pos_site_id
 _symmetry_equiv_pos_as_xyz
  1  'x, y, z'
loop_
 _atom_site_type_symbol
 _atom_site_label
 _atom_site_symmetry_multiplicity
 _atom_site_fract_x
 _atom_site_fract_y
 _atom_site_fract_z
 _atom_site_occupancy
  Zr  Zr0  1  0.51297233  0.50012914  0.50120057  1
  Zr  Zr1  1  0.20768922  0.74956070  0.46597711  1
  Zr  Zr2  1  0.96462436  0.21606625  0.24960089  1
  Zr  Zr3  1  0.47616517  0.71995018  0.25091959  1
  Zr  Zr4  1  0.29318812  0.24647070  0.03404721  1
  Zr  Zr5  1  0.00061699  0.99871683  0.48937185  1
  Zr  Zr6  1  0.50158316  -0.00011379  0.00108025  1
  Zr  Zr7  1  0.98378226  0.49368351  0.99542834  1
  Zr  Zr8  1  0.24098449  0.53000954  0.78400884  1
  Zr  Zr9  1  0.74814602  0.96573093  0.71547947  1
  Zr  Zr10  1  0.75256708  0.47163076  0.21364804  1
  Zr  Zr11  1  0.25252832  0.03486547  0.28515053  1
  Zr  Zr12  1  0.71874129  0.75863654  0.96992724  1
  Zr  Zr13  1  0.02686177  0.78006757  0.75151529  1
  Zr  Zr14  1  0.53462100  0.28138123  0.74799715  1
  Zr  Zr15  1  0.78692525  0.24965173  0.54124024  1
  N  N16  1  0.76892166  0.72878830  0.73523853  1
  N  N17  1  0.53917816  0.51203900  0.27190996  1
  N  N18  1  0.50506139  0.76650757  0.03976418  1
  N  N19  1  0.95708765  0.72859006  0.47372605  1
  N  N20  1  0.01381181  0.46720781  0.23904565  1
  N  N21  1  0.73727199  0.01526449  0.96774229  1
  N  N22  1  0.99665807  0.53771903  0.76647580  1
  N  N23  1  0.76175812  0.23019992  0.77339818  1
  N  N24  1  0.96958980  0.95641069  0.22732115  1
  N  N25  1  0.25851031  0.98732422  0.03194778  1
  N  N26  1  0.48653885  0.22593069  0.95565016  1
  N  N27  1  0.72600692  0.96431665  0.45751013  1
  N  N28  1  0.77189807  0.54556939  0.01101258  1
  N  N29  1  0.04735111  0.27372971  0.53318117  1
  N  N30  1  0.27273476  0.02899585  0.54209806  1
  N  N31  1  0.53508912  0.26571835  0.48543434  1
  O  O32  1  0.27897285  0.76053676  0.72631708  1
  O  O33  1  0.22888538  0.27308394  0.26470397  1
  O  O34  1  0.46279477  0.73922504  0.51566213  1
  O  O35  1  0.24525195  0.77157206  0.23066873  1
  O  O36  1  0.22294550  0.44830626  0.98379298  1
  O  O37  1  0.45289089  0.48882615  0.72271601  1
  O  O38  1  0.72529980  0.23400862  0.26990117  1
  O  O39  1  0.03350229  0.05369714  0.77818931  1
