# generated using pymatgen
data_K2Mg2O3
_symmetry_space_group_name_H-M   'P 1'
_cell_length_a   6.66151729
_cell_length_b   6.20705139
_cell_length_c   6.30843655
_cell_angle_alpha   90.00000000
_cell_angle_beta   126.42422169
_cell_angle_gamma   90.00000000
_symmetry_Int_Tables_number   1
_chemical_formula_structural   K2Mg2O3
_chemical_formula_sum   'K4 Mg4 O6'
_cell_volume   209.88596603
_cell_formula_units_Z   2
loop_
 _symmetry_equiv_pos_site_id
 _symmetry_equiv_pos_as_xyz
  1  'x, y, z'
loop_
 _atom_site_type_symbol
 _atom_site_label
 _atom_site_symmetry_multiplicity
 _atom_site_fract_x
 _atom_site_fract_y
 _atom_site_fract_z
 _atom_site_occupancy
  K  K0  1  0.17897423  0.36989766  0.25137549  1
  K  K1  1  0.82102577  0.86989766  0.24862451  1
  K  K2  1  0.17897423  0.13010234  0.75137549  1
  K  K3  1  0.82102577  0.63010234  0.74862451  1
  Mg  Mg4  1  0.33717602  0.60847116  0.76154309  1
  Mg  Mg5  1  0.33717602  0.89152884  0.26154309  1
  Mg  Mg6  1  0.66282398  0.10847116  0.73845691  1
  Mg  Mg7  1  0.66282398  0.39152884  0.23845691  1
  O  O8  1  0.00000000  0.50000000  0.50000000  1
  O  O9  1  0.00000000  0.00000000  0.00000000  1
  O  O10  1  0.41653224  0.85853451  0.62280818  1
  O  O11  1  0.58346776  0.35853451  0.87719182  1
  O  O12  1  0.41653224  0.64146549  0.12280818  1
  O  O13  1  0.58346776  0.14146549  0.37719182  1
