# generated using pymatgen
data_Y13Ho3O24
_symmetry_space_group_name_H-M   'P 1'
_cell_length_a   9.17039750
_cell_length_b   9.17109612
_cell_length_c   9.17400289
_cell_angle_alpha   109.47669727
_cell_angle_beta   109.46590802
_cell_angle_gamma   109.45092970
_symmetry_Int_Tables_number   1
_chemical_formula_structural   Y13Ho3O24
_chemical_formula_sum   'Y13 Ho3 O24'
_cell_volume   594.09267816
_cell_formula_units_Z   1
loop_
 _symmetry_equiv_pos_site_id
 _symmetry_equiv_pos_as_xyz
  1  'x, y, z'
loop_
 _atom_site_type_symbol
 _atom_site_label
 _atom_site_symmetry_multiplicity
 _atom_site_fract_x
 _atom_site_fract_y
 _atom_site_fract_z
 _atom_site_occupancy
  Y  Y0  1  0.03193943  0.78171552  0.74987117  1
  Y  Y1  1  0.50021699  0.00026193  0.00044596  1
  Y  Y2  1  0.21731594  0.25020859  0.96785892  1
  Y  Y3  1  0.28238244  0.74945357  0.53218006  1
  Y  Y4  1  0.25033766  0.96771445  0.21800043  1
  Y  Y5  1  0.24987795  0.46741070  0.71739519  1
  Y  Y6  1  0.99948029  0.00004637  0.49995313  1
  Y  Y7  1  0.53299577  0.28288732  0.74960898  1
  Y  Y8  1  0.46727009  0.71738845  0.25021409  1
  Y  Y9  1  0.74973951  0.53204825  0.28233690  1
  Y  Y10  1  0.74992899  0.03283707  0.78216609  1
  Y  Y11  1  0.78266468  0.74978341  0.03210096  1
  Y  Y12  1  0.96759538  0.21797962  0.25010072  1
  Ho  Ho13  1  0.50015802  0.49973442  0.49993743  1
  Ho  Ho14  1  0.99992593  0.49995861  0.99950029  1
  Ho  Ho15  1  0.71746811  0.25056461  0.46769593  1
  O  O16  1  0.23827632  0.51116630  0.96832037  1
  O  O17  1  0.26104336  0.72929856  0.77186592  1
  O  O18  1  0.72841526  0.95770200  0.98900339  1
  O  O19  1  0.03122999  0.76051660  0.48897067  1
  O  O20  1  0.53209449  0.54285338  0.76981207  1
  O  O21  1  0.22701144  0.73778881  0.26981073  1
  O  O22  1  0.54283126  0.76972638  0.53184279  1
  O  O23  1  0.95741304  0.98898098  0.72835425  1
  O  O24  1  0.23037724  0.46782489  0.45725910  1
  O  O25  1  0.98931227  0.72707579  0.95741062  1
  O  O26  1  0.27084206  0.22838553  0.73926630  1
  O  O27  1  0.51244279  0.97010842  0.24131778  1
  O  O28  1  0.72883480  0.77136716  0.26025583  1
  O  O29  1  0.48902116  0.03166729  0.76055020  1
  O  O30  1  0.76966884  0.53040969  0.54239605  1
  O  O31  1  0.01044816  0.27316389  0.04250976  1
  O  O32  1  0.45797954  0.23028568  0.46810521  1
  O  O33  1  0.04267223  0.01115716  0.27201727  1
  O  O34  1  0.77305412  0.26223476  0.72879148  1
  O  O35  1  0.46790896  0.45713671  0.23013455  1
  O  O36  1  0.96738833  0.23949113  0.51105986  1
  O  O37  1  0.27156364  0.04229837  0.01101860  1
  O  O38  1  0.76195673  0.48868531  0.03162016  1
  O  O39  1  0.73891779  0.27068332  0.22893979  1
