# generated using pymatgen
data_V3OF11
_symmetry_space_group_name_H-M   'P 1'
_cell_length_a   5.06473981
_cell_length_b   5.36487879
_cell_length_c   14.10984112
_cell_angle_alpha   80.36822143
_cell_angle_beta   90.00000000
_cell_angle_gamma   90.00000000
_symmetry_Int_Tables_number   1
_chemical_formula_structural   V3OF11
_chemical_formula_sum   'V6 O2 F22'
_cell_volume   377.98410405
_cell_formula_units_Z   2
loop_
 _symmetry_equiv_pos_site_id
 _symmetry_equiv_pos_as_xyz
  1  'x, y, z'
loop_
 _atom_site_type_symbol
 _atom_site_label
 _atom_site_symmetry_multiplicity
 _atom_site_fract_x
 _atom_site_fract_y
 _atom_site_fract_z
 _atom_site_occupancy
  V  V0  1  0.05700443  0.21824944  0.00771773  1
  V  V1  1  0.49750331  0.08604752  0.33339815  1
  V  V2  1  -0.00249669  0.91395248  0.66660185  1
  V  V3  1  0.55700443  0.78175056  0.99228227  1
  V  V4  1  -0.00246916  0.58597512  0.33366881  1
  V  V5  1  0.49753084  0.41402488  0.66633119  1
  O  O6  1  0.73970459  0.03392058  0.96643518  1
  O  O7  1  0.23970459  0.96607942  0.03356482  1
  F  F8  1  0.80414223  0.23031510  0.63653386  1
  F  F9  1  0.30386527  0.09809872  0.69664135  1
  F  F10  1  0.87113985  0.21491339  0.11242838  1
  F  F11  1  0.59726719  0.05149435  0.45285353  1
  F  F12  1  0.88372822  0.88520809  0.78439819  1
  F  F13  1  0.38372822  0.11479191  0.21560181  1
  F  F14  1  0.09726719  0.94850565  0.54714647  1
  F  F15  1  0.37113985  0.78508661  0.88757162  1
  F  F16  1  0.80386527  0.90190128  0.30335865  1
  F  F17  1  0.68907724  0.72720612  0.63660101  1
  F  F18  1  0.78203651  0.54623032  0.96523975  1
  F  F19  1  0.30414223  0.76968490  0.36346614  1
  F  F20  1  0.18908438  0.60153538  0.69627937  1
  F  F21  1  0.60678869  0.70186849  0.11605544  1
  F  F22  1  0.88473377  0.55625412  0.45156142  1
  F  F23  1  0.59639450  0.38080119  0.78579936  1
  F  F24  1  0.09639450  0.61919881  0.21420064  1
  F  F25  1  0.38473377  0.44374588  0.54843858  1
  F  F26  1  0.10678869  0.29813151  0.88394456  1
  F  F27  1  0.68908438  0.39846462  0.30372063  1
  F  F28  1  0.28203651  0.45376968  0.03476025  1
  F  F29  1  0.18907724  0.27279388  0.36339899  1
