# generated using pymatgen
data_Rb3SbO3
_symmetry_space_group_name_H-M   'P 1'
_cell_length_a   8.73024333
_cell_length_b   8.73024333
_cell_length_c   8.73024333
_cell_angle_alpha   90.00000000
_cell_angle_beta   90.00000000
_cell_angle_gamma   90.00000000
_symmetry_Int_Tables_number   1
_chemical_formula_structural   Rb3SbO3
_chemical_formula_sum   'Rb12 Sb4 O12'
_cell_volume   665.39425321
_cell_formula_units_Z   4
loop_
 _symmetry_equiv_pos_site_id
 _symmetry_equiv_pos_as_xyz
  1  'x, y, z'
loop_
 _atom_site_type_symbol
 _atom_site_label
 _atom_site_symmetry_multiplicity
 _atom_site_fract_x
 _atom_site_fract_y
 _atom_site_fract_z
 _atom_site_occupancy
  Rb  Rb0  1  0.02330240  0.02330240  0.02330240  1
  Rb  Rb1  1  0.21423129  0.28576871  0.71423129  1
  Rb  Rb2  1  0.21976848  0.71976848  0.78023152  1
  Rb  Rb3  1  0.28023152  0.28023152  0.28023152  1
  Rb  Rb4  1  0.28576871  0.71423129  0.21423129  1
  Rb  Rb5  1  0.47669760  0.97669760  0.52330240  1
  Rb  Rb6  1  0.52330240  0.47669760  0.97669760  1
  Rb  Rb7  1  0.71423129  0.21423129  0.28576871  1
  Rb  Rb8  1  0.71976848  0.78023152  0.21976848  1
  Rb  Rb9  1  0.78023152  0.21976848  0.71976848  1
  Rb  Rb10  1  0.78576871  0.78576871  0.78576871  1
  Rb  Rb11  1  0.97669760  0.52330240  0.47669760  1
  Sb  Sb12  1  0.01021637  0.98978363  0.48978363  1
  Sb  Sb13  1  0.48978363  0.01021637  0.98978363  1
  Sb  Sb14  1  0.51021637  0.51021637  0.51021637  1
  Sb  Sb15  1  0.98978363  0.48978363  0.01021637  1
  O  O16  1  0.00581655  0.20877745  0.44817081  1
  O  O17  1  0.05182919  0.99418345  0.70877745  1
  O  O18  1  0.20877745  0.44817081  0.00581655  1
  O  O19  1  0.29122255  0.55182919  0.50581655  1
  O  O20  1  0.44817081  0.00581655  0.20877745  1
  O  O21  1  0.49418345  0.79122255  0.94817081  1
  O  O22  1  0.50581655  0.29122255  0.55182919  1
  O  O23  1  0.55182919  0.50581655  0.29122255  1
  O  O24  1  0.70877745  0.05182919  0.99418345  1
  O  O25  1  0.79122255  0.94817081  0.49418345  1
  O  O26  1  0.94817081  0.49418345  0.79122255  1
  O  O27  1  0.99418345  0.70877745  0.05182919  1
