# generated using pymatgen
data_Tm3Sb5O12
_symmetry_space_group_name_H-M   'P 1'
_cell_length_a   9.22358800
_cell_length_b   9.22340685
_cell_length_c   9.22345362
_cell_angle_alpha   109.47042886
_cell_angle_beta   109.47182162
_cell_angle_gamma   109.47134787
_symmetry_Int_Tables_number   1
_chemical_formula_structural   Tm3Sb5O12
_chemical_formula_sum   'Tm6 Sb10 O24'
_cell_volume   604.03663546
_cell_formula_units_Z   2
loop_
 _symmetry_equiv_pos_site_id
 _symmetry_equiv_pos_as_xyz
  1  'x, y, z'
loop_
 _atom_site_type_symbol
 _atom_site_label
 _atom_site_symmetry_multiplicity
 _atom_site_fract_x
 _atom_site_fract_y
 _atom_site_fract_z
 _atom_site_occupancy
  Tm  Tm0  1  0.75004404  0.25001155  0.49999770  1
  Tm  Tm1  1  0.74999633  0.49997149  0.24994483  1
  Tm  Tm2  1  0.49996975  0.24996556  0.74996669  1
  Tm  Tm3  1  0.49998088  0.75003551  0.25001384  1
  Tm  Tm4  1  0.24996245  0.75000096  0.50002623  1
  Tm  Tm5  1  0.25003895  0.50002489  0.75005734  1
  Sb  Sb6  1  0.51951780  -0.00000112  0.00004399  1
  Sb  Sb7  1  0.28181207  0.00000345  0.28188414  1
  Sb  Sb8  1  0.28189912  0.28183129  0.00001647  1
  Sb  Sb9  1  0.71816534  0.00003349  0.71817168  1
  Sb  Sb10  1  0.71816261  0.71817269  0.00001503  1
  Sb  Sb11  1  0.00004693  0.51951786  0.00002966  1
  Sb  Sb12  1  -0.00000405  0.00002722  0.51950914  1
  Sb  Sb13  1  0.48057634  0.48054877  0.48054028  1
  Sb  Sb14  1  -0.00001305  0.28182999  0.28181597  1
  Sb  Sb15  1  0.00002266  0.71815334  0.71815774  1
  O  O16  1  0.48029624  -0.00001360  0.20158351  1
  O  O17  1  0.48030469  0.20160025  -0.00001405  1
  O  O18  1  0.70291305  0.50022102  -0.00000950  1
  O  O19  1  0.70292382  0.00000308  0.50022043  1
  O  O20  1  0.79728981  0.29706432  0.29706451  1
  O  O21  1  0.49980781  0.49979979  0.20271056  1
  O  O22  1  0.49978330  0.20270596  0.49979532  1
  O  O23  1  0.50021115  0.70292416  -0.00001480  1
  O  O24  1  0.50021506  -0.00000862  0.70291922  1
  O  O25  1  0.72129375  0.51969674  0.51970123  1
  O  O26  1  0.79837694  0.27867836  0.79837814  1
  O  O27  1  0.79838400  0.79839332  0.27868510  1
  O  O28  1  0.20158494  0.48029571  -0.00001617  1
  O  O29  1  0.20159426  0.99998646  0.48030223  1
  O  O30  1  0.51970738  0.72131115  0.51970510  1
  O  O31  1  0.51969189  0.51970387  0.72131066  1
  O  O32  1  -0.00002284  0.48029494  0.20159960  1
  O  O33  1  -0.00002113  0.20159298  0.48029366  1
  O  O34  1  0.29706317  0.79728354  0.29706713  1
  O  O35  1  0.29706384  0.29706626  0.79727868  1
  O  O36  1  0.20268428  0.49977226  0.49976480  1
  O  O37  1  -0.00000735  0.70291542  0.50019565  1
  O  O38  1  0.00000259  0.50020735  0.70291913  1
  O  O39  1  0.27868314  0.79838034  0.79837114  1
