# generated using pymatgen
data_Rb2O
_symmetry_space_group_name_H-M   'P 1'
_cell_length_a   13.41911253
_cell_length_b   6.93681805
_cell_length_c   6.74123180
_cell_angle_alpha   90.00000000
_cell_angle_beta   90.00000000
_cell_angle_gamma   90.00000000
_symmetry_Int_Tables_number   1
_chemical_formula_structural   Rb2O
_chemical_formula_sum   'Rb16 O8'
_cell_volume   627.51391243
_cell_formula_units_Z   8
loop_
 _symmetry_equiv_pos_site_id
 _symmetry_equiv_pos_as_xyz
  1  'x, y, z'
loop_
 _atom_site_type_symbol
 _atom_site_label
 _atom_site_symmetry_multiplicity
 _atom_site_fract_x
 _atom_site_fract_y
 _atom_site_fract_z
 _atom_site_occupancy
  Rb  Rb0  1  0.02229457  0.73872305  0.00053218  1
  Rb  Rb1  1  0.02229457  0.76127695  0.50053218  1
  Rb  Rb2  1  0.20336976  0.11640707  0.14834800  1
  Rb  Rb3  1  0.20336976  0.38359293  0.64834800  1
  Rb  Rb4  1  0.29663024  0.88359293  0.64834800  1
  Rb  Rb5  1  0.29663024  0.61640707  0.14834800  1
  Rb  Rb6  1  0.47770543  0.23872305  0.00053218  1
  Rb  Rb7  1  0.47770543  0.26127695  0.50053218  1
  Rb  Rb8  1  0.52229457  0.73872305  0.49946782  1
  Rb  Rb9  1  0.52229457  0.76127695  -0.00053218  1
  Rb  Rb10  1  0.70336976  0.11640707  0.35165200  1
  Rb  Rb11  1  0.70336976  0.38359293  0.85165200  1
  Rb  Rb12  1  0.79663024  0.61640707  0.35165200  1
  Rb  Rb13  1  0.79663024  0.88359293  0.85165200  1
  Rb  Rb14  1  0.97770543  0.23872305  0.49946782  1
  Rb  Rb15  1  0.97770543  0.26127695  -0.00053218  1
  O  O16  1  0.11482335  0.03382814  0.76741391  1
  O  O17  1  0.11482335  0.46617186  0.26741391  1
  O  O18  1  0.38517665  0.96617186  0.26741391  1
  O  O19  1  0.38517665  0.53382814  0.76741391  1
  O  O20  1  0.61482335  0.03382814  0.73258609  1
  O  O21  1  0.61482335  0.46617186  0.23258609  1
  O  O22  1  0.88517665  0.53382814  0.73258609  1
  O  O23  1  0.88517665  0.96617186  0.23258609  1
