# generated using pymatgen
data_MnP2O7
_symmetry_space_group_name_H-M   'P 1'
_cell_length_a   4.78917697
_cell_length_b   13.15448284
_cell_length_c   8.29609941
_cell_angle_alpha   71.63035108
_cell_angle_beta   89.99997203
_cell_angle_gamma   100.48554967
_symmetry_Int_Tables_number   1
_chemical_formula_structural   MnP2O7
_chemical_formula_sum   'Mn4 P8 O28'
_cell_volume   486.80966037
_cell_formula_units_Z   4
loop_
 _symmetry_equiv_pos_site_id
 _symmetry_equiv_pos_as_xyz
  1  'x, y, z'
loop_
 _atom_site_type_symbol
 _atom_site_label
 _atom_site_symmetry_multiplicity
 _atom_site_fract_x
 _atom_site_fract_y
 _atom_site_fract_z
 _atom_site_occupancy
  Mn  Mn0  1  0.50523093  0.01053461  0.49472071  1
  Mn  Mn1  1  0.25536032  0.51056087  0.74469832  1
  Mn  Mn2  1  0.00523101  0.01054648  0.99471743  1
  Mn  Mn3  1  0.75536120  0.51055976  0.24469696  1
  P  P4  1  0.81654936  0.63314570  0.85014738  1
  P  P5  1  0.31654738  0.63314510  0.35014128  1
  P  P6  1  0.94390510  0.88800307  0.72265631  1
  P  P7  1  0.44389781  0.88800690  0.22263337  1
  P  P8  1  0.06658283  0.13316115  0.26677970  1
  P  P9  1  0.56658615  0.13315952  0.76678214  1
  P  P10  1  0.19415053  0.38801559  0.13928880  1
  P  P11  1  0.69414683  0.38801759  0.63928550  1
  O  O12  1  0.88032559  0.76057105  0.78629670  1
  O  O13  1  0.38033556  0.76057492  0.28626535  1
  O  O14  1  0.13031974  0.26058868  0.20312275  1
  O  O15  1  0.63032442  0.26058876  0.70311621  1
  O  O16  1  0.65776207  0.92093839  0.68308887  1
  O  O17  1  0.15775461  0.92094409  0.18307139  1
  O  O18  1  0.49749728  0.60019167  0.84350292  1
  O  O19  1  -0.00250112  0.60019051  0.34349921  1
  O  O20  1  0.91663472  0.60030317  0.02946110  1
  O  O21  1  0.41662533  0.60031128  0.52945234  1
  O  O22  1  0.07703473  0.92091267  0.86904573  1
  O  O23  1  0.57701298  0.92090581  0.36902791  1
  O  O24  1  0.14624696  0.92096370  0.56645566  1
  O  O25  1  0.64624869  0.92098095  0.06643678  1
  O  O26  1  0.86413967  0.10019315  0.42296216  1
  O  O27  1  0.36414616  0.10019344  0.92296942  1
  O  O28  1  0.98603527  0.60016238  0.72693851  1
  O  O29  1  0.48602148  0.60015104  0.22693924  1
  O  O30  1  0.02472172  0.42099637  0.26250852  1
  O  O31  1  0.52471425  0.42099776  0.76250466  1
  O  O32  1  0.09404095  0.42087005  0.95999493  1
  O  O33  1  0.59403758  0.42087413  0.45999379  1
  O  O34  1  0.93363720  0.10025099  0.12035335  1
  O  O35  1  0.43364143  0.10025098  0.62035236  1
  O  O36  1  0.35274869  0.10024781  0.30633426  1
  O  O37  1  0.85274958  0.10024993  0.80634568  1
  O  O38  1  0.51319558  0.42097098  0.14591180  1
  O  O39  1  0.01320445  0.42097700  0.64590552  1
