# generated using pymatgen
data_NaTmO2
_symmetry_space_group_name_H-M   'P 1'
_cell_length_a   3.33224084
_cell_length_b   5.78898896
_cell_length_c   3.33224134
_cell_angle_alpha   106.72680238
_cell_angle_beta   60.00000500
_cell_angle_gamma   106.72680148
_symmetry_Int_Tables_number   1
_chemical_formula_structural   NaTmO2
_chemical_formula_sum   'Na1 Tm1 O2'
_cell_volume   52.50402588
_cell_formula_units_Z   1
loop_
 _symmetry_equiv_pos_site_id
 _symmetry_equiv_pos_as_xyz
  1  'x, y, z'
loop_
 _atom_site_type_symbol
 _atom_site_label
 _atom_site_symmetry_multiplicity
 _atom_site_fract_x
 _atom_site_fract_y
 _atom_site_fract_z
 _atom_site_occupancy
  Na  Na0  1  0.50000000  0.50000000  0.50000000  1
  Tm  Tm1  1  -0.00000000  -0.00000000  -0.00000000  1
  O  O2  1  0.26304552  0.78913556  0.26304552  1
  O  O3  1  0.73695448  0.21086444  0.73695448  1
