# generated using pymatgen
data_LaAlO3
_symmetry_space_group_name_H-M   'P 1'
_cell_length_a   7.09101498
_cell_length_b   7.09101498
_cell_length_c   10.17005618
_cell_angle_alpha   90.00000000
_cell_angle_beta   90.00000000
_cell_angle_gamma   120.05924920
_symmetry_Int_Tables_number   1
_chemical_formula_structural   LaAlO3
_chemical_formula_sum   'La6 Al6 O18'
_cell_volume   442.59977665
_cell_formula_units_Z   6
loop_
 _symmetry_equiv_pos_site_id
 _symmetry_equiv_pos_as_xyz
  1  'x, y, z'
loop_
 _atom_site_type_symbol
 _atom_site_label
 _atom_site_symmetry_multiplicity
 _atom_site_fract_x
 _atom_site_fract_y
 _atom_site_fract_z
 _atom_site_occupancy
  La  La0  1  0.82918827  0.17081173  0.50000000  1
  La  La1  1  0.82918827  0.17081173  0.00000000  1
  La  La2  1  0.17081173  0.82918827  0.50000000  1
  La  La3  1  0.17081173  0.82918827  0.00000000  1
  La  La4  1  0.50000000  0.50000000  0.00000000  1
  La  La5  1  0.50000000  0.50000000  0.50000000  1
  Al  Al6  1  0.57649780  0.83447906  0.25000000  1
  Al  Al7  1  0.16552094  0.42350220  0.75000000  1
  Al  Al8  1  0.83447906  0.57649780  0.25000000  1
  Al  Al9  1  0.42350220  0.16552094  0.75000000  1
  Al  Al10  1  0.90569997  0.90569997  0.75000000  1
  Al  Al11  1  0.09430003  0.09430003  0.25000000  1
  O  O12  1  0.92647861  0.16498439  0.75000000  1
  O  O13  1  0.83501561  0.07352139  0.25000000  1
  O  O14  1  0.47888469  0.83374943  0.40650941  1
  O  O15  1  0.47888469  0.83374943  0.09349059  1
  O  O16  1  0.16625057  0.52111531  0.59349059  1
  O  O17  1  0.16625057  0.52111531  0.90650941  1
  O  O18  1  0.83374943  0.47888469  0.40650941  1
  O  O19  1  0.83374943  0.47888469  0.09349059  1
  O  O20  1  0.52111531  0.16625057  0.59349059  1
  O  O21  1  0.52111531  0.16625057  0.90650941  1
  O  O22  1  0.07352139  0.83501561  0.25000000  1
  O  O23  1  0.16498439  0.92647861  0.75000000  1
  O  O24  1  0.40444156  0.40444156  0.75000000  1
  O  O25  1  0.81152588  0.81152588  0.59093017  1
  O  O26  1  0.81152588  0.81152588  0.90906983  1
  O  O27  1  0.18847412  0.18847412  0.09093017  1
  O  O28  1  0.18847412  0.18847412  0.40906983  1
  O  O29  1  0.59555844  0.59555844  0.25000000  1
