# generated using pymatgen
data_Na2Ti2O5
_symmetry_space_group_name_H-M   'P 1'
_cell_length_a   5.49889412
_cell_length_b   6.60095132
_cell_length_c   16.33449972
_cell_angle_alpha   90.00000000
_cell_angle_beta   90.00000000
_cell_angle_gamma   90.00000000
_symmetry_Int_Tables_number   1
_chemical_formula_structural   Na2Ti2O5
_chemical_formula_sum   'Na8 Ti8 O20'
_cell_volume   592.90856662
_cell_formula_units_Z   4
loop_
 _symmetry_equiv_pos_site_id
 _symmetry_equiv_pos_as_xyz
  1  'x, y, z'
loop_
 _atom_site_type_symbol
 _atom_site_label
 _atom_site_symmetry_multiplicity
 _atom_site_fract_x
 _atom_site_fract_y
 _atom_site_fract_z
 _atom_site_occupancy
  Na  Na0  1  0.79154111  0.09765414  0.94395987  1
  Na  Na1  1  0.20845889  0.09765414  0.44395987  1
  Na  Na2  1  0.29154111  0.40234586  0.94395987  1
  Na  Na3  1  0.70845889  0.40234586  0.44395987  1
  Na  Na4  1  0.29154111  0.59765414  0.55604013  1
  Na  Na5  1  0.70845889  0.59765414  0.05604013  1
  Na  Na6  1  0.79154111  0.90234586  0.55604013  1
  Na  Na7  1  0.20845889  0.90234586  0.05604013  1
  Ti  Ti8  1  0.29672573  0.10225627  0.64831928  1
  Ti  Ti9  1  0.70327427  0.10225627  0.14831928  1
  Ti  Ti10  1  0.79672573  0.39774373  0.64831928  1
  Ti  Ti11  1  0.20327427  0.39774373  0.14831928  1
  Ti  Ti12  1  0.20327427  0.60225627  0.35168072  1
  Ti  Ti13  1  0.79672573  0.60225627  0.85168072  1
  Ti  Ti14  1  0.29672573  0.89774373  0.85168072  1
  Ti  Ti15  1  0.70327427  0.89774373  0.35168072  1
  O  O16  1  0.23227227  -0.00000000  0.75000000  1
  O  O17  1  0.76772773  -0.00000000  0.25000000  1
  O  O18  1  0.21157881  0.06666530  0.92901872  1
  O  O19  1  0.78842119  0.06666530  0.42901872  1
  O  O20  1  0.62458245  0.15849155  0.63321763  1
  O  O21  1  0.37541755  0.15849155  0.13321763  1
  O  O22  1  0.12458245  0.34150845  0.63321763  1
  O  O23  1  0.87541755  0.34150845  0.13321763  1
  O  O24  1  0.71157881  0.43333470  0.92901872  1
  O  O25  1  0.28842119  0.43333470  0.42901872  1
  O  O26  1  0.73227227  0.50000000  0.75000000  1
  O  O27  1  0.26772773  0.50000000  0.25000000  1
  O  O28  1  0.71157881  0.56666530  0.57098128  1
  O  O29  1  0.28842119  0.56666530  0.07098128  1
  O  O30  1  0.12458245  0.65849155  0.86678237  1
  O  O31  1  0.87541755  0.65849155  0.36678237  1
  O  O32  1  0.62458245  0.84150845  0.86678237  1
  O  O33  1  0.37541755  0.84150845  0.36678237  1
  O  O34  1  0.21157881  0.93333470  0.57098128  1
  O  O35  1  0.78842119  0.93333470  0.07098128  1
