# generated using pymatgen
data_V3OF11
_symmetry_space_group_name_H-M   'P 1'
_cell_length_a   5.08883873
_cell_length_b   5.33798520
_cell_length_c   14.02441181
_cell_angle_alpha   99.61146881
_cell_angle_beta   90.01187227
_cell_angle_gamma   89.99798809
_symmetry_Int_Tables_number   1
_chemical_formula_structural   V3OF11
_chemical_formula_sum   'V6 O2 F22'
_cell_volume   375.61346919
_cell_formula_units_Z   2
loop_
 _symmetry_equiv_pos_site_id
 _symmetry_equiv_pos_as_xyz
  1  'x, y, z'
loop_
 _atom_site_type_symbol
 _atom_site_label
 _atom_site_symmetry_multiplicity
 _atom_site_fract_x
 _atom_site_fract_y
 _atom_site_fract_z
 _atom_site_occupancy
  V  V0  1  0.00053098  -0.00233735  -0.00005082  1
  V  V1  1  0.48647373  0.85043660  0.66576438  1
  V  V2  1  0.01323803  0.68346314  0.33329385  1
  V  V3  1  0.50023438  0.49765099  0.00008702  1
  V  V4  1  0.97032434  0.37932714  0.66972792  1
  V  V5  1  0.52946552  0.21210582  0.33701576  1
  O  O6  1  0.79285911  0.63604712  0.69335663  1
  O  O7  1  0.70662573  0.46910896  0.36024934  1
  F  F8  1  0.81061569  0.98740722  0.36241796  1
  F  F9  1  0.68920153  0.81367489  0.02778647  1
  F  F10  1  0.30693771  0.85896641  0.30657755  1
  F  F11  1  0.90145648  0.96062548  0.87954356  1
  F  F12  1  0.59685531  0.78913017  0.54663727  1
  F  F13  1  0.90354960  0.62322123  0.21400250  1
  F  F14  1  0.40300984  0.85777665  0.78662964  1
  F  F15  1  0.09493312  0.68951615  0.45430101  1
  F  F16  1  0.40306489  0.52385858  0.12020973  1
  F  F17  1  0.81155700  0.31404432  0.02774554  1
  F  F18  1  0.19090729  0.67971535  0.97193583  1
  F  F19  1  0.28304393  0.53037322  0.63674438  1
  F  F20  1  0.21630963  0.36309270  0.30430560  1
  F  F21  1  0.59885919  0.46018307  0.87966966  1
  F  F22  1  0.90213934  0.27845184  0.54740804  1
  F  F23  1  0.59593346  0.11057831  0.21461875  1
  F  F24  1  0.09938745  0.35631244  0.78338420  1
  F  F25  1  0.40241030  0.18995319  0.45099095  1
  F  F26  1  0.09666506  0.02720690  0.12030588  1
  F  F27  1  0.69017302  0.15375305  0.69525406  1
  F  F28  1  0.30953186  0.17960665  0.97161960  1
  F  F29  1  0.19370848  0.02675574  0.63846674  1
