# generated using pymatgen
data_Sm3MoO7
_symmetry_space_group_name_H-M   'P 1'
_cell_length_a   7.51331309
_cell_length_b   7.51950812
_cell_length_c   10.71513918
_cell_angle_alpha   90.00000000
_cell_angle_beta   90.00000000
_cell_angle_gamma   90.00000000
_symmetry_Int_Tables_number   1
_chemical_formula_structural   Sm3MoO7
_chemical_formula_sum   'Sm12 Mo4 O28'
_cell_volume   605.36699049
_cell_formula_units_Z   4
loop_
 _symmetry_equiv_pos_site_id
 _symmetry_equiv_pos_as_xyz
  1  'x, y, z'
loop_
 _atom_site_type_symbol
 _atom_site_label
 _atom_site_symmetry_multiplicity
 _atom_site_fract_x
 _atom_site_fract_y
 _atom_site_fract_z
 _atom_site_occupancy
  Sm  Sm0  1  0.23850804  0.71129304  0.00569520  1
  Sm  Sm1  1  0.00012275  0.55354428  0.73063811  1
  Sm  Sm2  1  0.00347841  0.53945796  0.27921097  1
  Sm  Sm3  1  0.49652159  0.46054204  0.77921097  1
  Sm  Sm4  1  0.49987725  0.44645572  0.23063811  1
  Sm  Sm5  1  0.26149196  0.28870696  0.50569520  1
  Sm  Sm6  1  0.76149196  0.21129304  0.49430480  1
  Sm  Sm7  1  -0.00012275  0.05354428  0.76936189  1
  Sm  Sm8  1  0.99652159  0.03945796  0.22078903  1
  Sm  Sm9  1  0.50347841  0.96054204  0.72078903  1
  Sm  Sm10  1  0.50012275  0.94645572  0.26936189  1
  Sm  Sm11  1  0.73850804  0.78870696  0.99430480  1
  Mo  Mo12  1  0.74644656  0.74548301  0.50111064  1
  Mo  Mo13  1  0.75355344  0.25451699  0.00111064  1
  Mo  Mo14  1  0.25355344  0.24548301  0.99888936  1
  Mo  Mo15  1  0.24644656  0.75451699  0.49888936  1
  O  O16  1  0.48549238  0.74149112  0.86811502  1
  O  O17  1  0.50332178  0.71347574  0.13284300  1
  O  O18  1  0.99711242  0.68301248  0.50736217  1
  O  O19  1  0.70495632  0.61340004  0.64763614  1
  O  O20  1  0.28571872  0.56352424  0.62635403  1
  O  O21  1  0.71569073  0.55843093  0.38027242  1
  O  O22  1  0.28520616  0.54013650  0.37933660  1
  O  O23  1  0.21479384  0.45986350  0.87933660  1
  O  O24  1  0.78430927  0.44156907  0.88027242  1
  O  O25  1  0.21428128  0.43647576  0.12635403  1
  O  O26  1  0.79504368  0.38659996  0.14763614  1
  O  O27  1  0.50288758  0.31698752  0.00736217  1
  O  O28  1  0.99667822  0.28652426  0.63284300  1
  O  O29  1  0.01450762  0.25850888  0.36811502  1
  O  O30  1  0.51450762  0.24149112  0.63188498  1
  O  O31  1  0.49667822  0.21347574  0.36715700  1
  O  O32  1  0.00288758  0.18301248  0.99263783  1
  O  O33  1  0.29504368  0.11340004  0.85236386  1
  O  O34  1  0.71428128  0.06352424  0.87364597  1
  O  O35  1  0.28430927  0.05843093  0.11972758  1
  O  O36  1  0.71479384  0.04013650  0.12066340  1
  O  O37  1  0.78520616  0.95986350  0.62066340  1
  O  O38  1  0.21569073  0.94156907  0.61972758  1
  O  O39  1  0.78571872  0.93647576  0.37364597  1
  O  O40  1  0.20495632  0.88659996  0.35236386  1
  O  O41  1  0.49711242  0.81698752  0.49263783  1
  O  O42  1  0.00332178  0.78652426  0.86715700  1
  O  O43  1  0.98549238  0.75850888  0.13188498  1
