# generated using pymatgen
data_Tb3NbO7
_symmetry_space_group_name_H-M   'P 1'
_cell_length_a   6.48788721
_cell_length_b   6.48788721
_cell_length_c   7.47328767
_cell_angle_alpha   90.00000000
_cell_angle_beta   90.00000000
_cell_angle_gamma   108.75952035
_symmetry_Int_Tables_number   1
_chemical_formula_structural   Tb3NbO7
_chemical_formula_sum   'Tb6 Nb2 O14'
_cell_volume   297.85967777
_cell_formula_units_Z   2
loop_
 _symmetry_equiv_pos_site_id
 _symmetry_equiv_pos_as_xyz
  1  'x, y, z'
loop_
 _atom_site_type_symbol
 _atom_site_label
 _atom_site_symmetry_multiplicity
 _atom_site_fract_x
 _atom_site_fract_y
 _atom_site_fract_z
 _atom_site_occupancy
  Tb  Tb0  1  0.46397373  0.00031484  0.26038406  1
  Tb  Tb1  1  -0.00031484  0.53602627  0.23961594  1
  Tb  Tb2  1  0.46453664  0.46453664  -0.00000000  1
  Tb  Tb3  1  0.53546336  0.53546336  0.50000000  1
  Tb  Tb4  1  0.53602627  -0.00031484  0.76038406  1
  Tb  Tb5  1  0.00031484  0.46397373  0.73961594  1
  Nb  Nb6  1  0.00204416  0.00204416  0.50000000  1
  Nb  Nb7  1  0.99795584  0.99795584  -0.00000000  1
  O  O8  1  0.92845937  0.07154063  0.75000000  1
  O  O9  1  0.63894776  0.36105224  0.75000000  1
  O  O10  1  0.30720752  0.05083393  0.54702605  1
  O  O11  1  0.94916607  0.69279248  0.95297395  1
  O  O12  1  0.62913805  0.37086195  0.25000000  1
  O  O13  1  0.91561864  0.66906718  0.52249329  1
  O  O14  1  0.33093282  0.08438136  0.97750671  1
  O  O15  1  0.08438136  0.33093282  0.02249329  1
  O  O16  1  0.66906718  0.91561864  0.47750671  1
  O  O17  1  0.37086195  0.62913805  0.75000000  1
  O  O18  1  0.69279248  0.94916607  0.04702605  1
  O  O19  1  0.05083393  0.30720752  0.45297395  1
  O  O20  1  0.36105224  0.63894776  0.25000000  1
  O  O21  1  0.07154063  0.92845937  0.25000000  1
