# generated using pymatgen
data_V3BO6
_symmetry_space_group_name_H-M   'P 1'
_cell_length_a   4.45232387
_cell_length_b   8.58995910
_cell_length_c   9.94274700
_cell_angle_alpha   90.00000000
_cell_angle_beta   90.00000000
_cell_angle_gamma   90.00000000
_symmetry_Int_Tables_number   1
_chemical_formula_structural   V3BO6
_chemical_formula_sum   'V12 B4 O24'
_cell_volume   380.26314242
_cell_formula_units_Z   4
loop_
 _symmetry_equiv_pos_site_id
 _symmetry_equiv_pos_as_xyz
  1  'x, y, z'
loop_
 _atom_site_type_symbol
 _atom_site_label
 _atom_site_symmetry_multiplicity
 _atom_site_fract_x
 _atom_site_fract_y
 _atom_site_fract_z
 _atom_site_occupancy
  V  V0  1  0.47957445  0.75000000  0.09917471  1
  V  V1  1  0.99259909  0.06725418  0.12289788  1
  V  V2  1  0.99259909  0.43274582  0.12289788  1
  V  V3  1  0.49259909  0.56725418  0.37710212  1
  V  V4  1  0.49259909  0.93274582  0.37710212  1
  V  V5  1  0.97957445  0.25000000  0.40082529  1
  V  V6  1  0.02042555  0.75000000  0.59917471  1
  V  V7  1  0.50740091  0.06725418  0.62289788  1
  V  V8  1  0.50740091  0.43274582  0.62289788  1
  V  V9  1  0.00740091  0.56725418  0.87710212  1
  V  V10  1  0.00740091  0.93274582  0.87710212  1
  V  V11  1  0.52042555  0.25000000  0.90082529  1
  B  B12  1  0.41867959  0.25000000  0.21600473  1
  B  B13  1  0.91867959  0.75000000  0.28399527  1
  B  B14  1  0.08132041  0.25000000  0.71600473  1
  B  B15  1  0.58132041  0.75000000  0.78399527  1
  O  O16  1  0.23826672  0.58761128  0.03398376  1
  O  O17  1  0.23826672  0.91238872  0.03398376  1
  O  O18  1  0.27892264  0.25000000  0.07831616  1
  O  O19  1  0.77560619  0.88873303  0.21603505  1
  O  O20  1  0.77560619  0.61126697  0.21603505  1
  O  O21  1  0.74240139  0.25000000  0.21688652  1
  O  O22  1  0.24240139  0.75000000  0.28311348  1
  O  O23  1  0.27560619  0.11126697  0.28396495  1
  O  O24  1  0.27560619  0.38873303  0.28396495  1
  O  O25  1  0.77892264  0.75000000  0.42168384  1
  O  O26  1  0.73826672  0.08761128  0.46601624  1
  O  O27  1  0.73826672  0.41238872  0.46601624  1
  O  O28  1  0.26173328  0.58761128  0.53398376  1
  O  O29  1  0.26173328  0.91238872  0.53398376  1
  O  O30  1  0.22107736  0.25000000  0.57831616  1
  O  O31  1  0.72439381  0.61126697  0.71603505  1
  O  O32  1  0.72439381  0.88873303  0.71603505  1
  O  O33  1  0.75759861  0.25000000  0.71688652  1
  O  O34  1  0.25759861  0.75000000  0.78311348  1
  O  O35  1  0.22439381  0.11126697  0.78396495  1
  O  O36  1  0.22439381  0.38873303  0.78396495  1
  O  O37  1  0.72107736  0.75000000  0.92168384  1
  O  O38  1  0.76173328  0.08761128  0.96601624  1
  O  O39  1  0.76173328  0.41238872  0.96601624  1
