# generated using pymatgen
data_Tm2TeO6
_symmetry_space_group_name_H-M   'P 1'
_cell_length_a   8.95597639
_cell_length_b   8.95595252
_cell_length_c   5.08253052
_cell_angle_alpha   90.00057531
_cell_angle_beta   89.99934897
_cell_angle_gamma   120.00015060
_symmetry_Int_Tables_number   1
_chemical_formula_structural   Tm2TeO6
_chemical_formula_sum   'Tm6 Te3 O18'
_cell_volume   353.04876001
_cell_formula_units_Z   3
loop_
 _symmetry_equiv_pos_site_id
 _symmetry_equiv_pos_as_xyz
  1  'x, y, z'
loop_
 _atom_site_type_symbol
 _atom_site_label
 _atom_site_symmetry_multiplicity
 _atom_site_fract_x
 _atom_site_fract_y
 _atom_site_fract_z
 _atom_site_occupancy
  Tm  Tm0  1  0.99999575  0.62034315  0.50000486  1
  Tm  Tm1  1  0.00001060  0.28365109  0.99999398  1
  Tm  Tm2  1  0.37966057  0.37965885  0.50000079  1
  Tm  Tm3  1  0.28365120  0.00000950  0.00000380  1
  Tm  Tm4  1  0.71633999  0.71633958  -0.00000079  1
  Tm  Tm5  1  0.62034184  -0.00000417  0.49999691  1
  Te  Te6  1  0.33333091  0.66667056  0.99782030  1
  Te  Te7  1  0.00000438  -0.00000205  0.49999303  1
  Te  Te8  1  0.66666674  0.33333167  0.00214477  1
  O  O9  1  0.07993888  0.87790973  0.28714439  1
  O  O10  1  0.22551660  0.76289357  0.78141727  1
  O  O11  1  0.13115413  0.54391764  0.21321573  1
  O  O12  1  0.41274953  0.86884299  0.21322678  1
  O  O13  1  0.23711232  0.46263671  0.78141634  1
  O  O14  1  0.12209030  0.20202283  0.28713267  1
  O  O15  1  0.20202125  0.12209049  0.71286509  1
  O  O16  1  0.53736792  0.77448242  0.78141926  1
  O  O17  1  0.45607846  0.58724962  0.21322104  1
  O  O18  1  0.79797401  0.92005939  0.28713540  1
  O  O19  1  0.46263745  0.23711283  0.21859370  1
  O  O20  1  0.58724912  0.45607867  0.78678837  1
  O  O21  1  0.54391791  0.13115427  0.78679026  1
  O  O22  1  0.77448050  0.53736805  0.21858760  1
  O  O23  1  0.92006046  0.79797616  0.71286223  1
  O  O24  1  0.76289503  0.22551588  0.21859159  1
  O  O25  1  0.86884627  0.41275117  0.78677760  1
  O  O26  1  0.87790788  0.07993937  0.71285706  1
