# generated using pymatgen
data_Cs3ScO3
_symmetry_space_group_name_H-M   'P 1'
_cell_length_a   7.34589089
_cell_length_b   8.12679066
_cell_length_c   11.78994624
_cell_angle_alpha   83.97703234
_cell_angle_beta   90.00000000
_cell_angle_gamma   90.00000000
_symmetry_Int_Tables_number   1
_chemical_formula_structural   Cs3ScO3
_chemical_formula_sum   'Cs12 Sc4 O12'
_cell_volume   699.95704198
_cell_formula_units_Z   4
loop_
 _symmetry_equiv_pos_site_id
 _symmetry_equiv_pos_as_xyz
  1  'x, y, z'
loop_
 _atom_site_type_symbol
 _atom_site_label
 _atom_site_symmetry_multiplicity
 _atom_site_fract_x
 _atom_site_fract_y
 _atom_site_fract_z
 _atom_site_occupancy
  Cs  Cs0  1  0.33439415  0.34895917  0.07422921  1
  Cs  Cs1  1  0.62073263  0.95020100  0.15535903  1
  Cs  Cs2  1  0.82142406  0.37620310  0.19343564  1
  Cs  Cs3  1  0.32142406  0.62379690  0.30656436  1
  Cs  Cs4  1  0.12073263  0.04979900  0.34464097  1
  Cs  Cs5  1  0.83439415  0.65104083  0.42577079  1
  Cs  Cs6  1  0.16560585  0.34895917  0.57422921  1
  Cs  Cs7  1  0.87926737  0.95020100  0.65535903  1
  Cs  Cs8  1  0.67857594  0.37620310  0.69343564  1
  Cs  Cs9  1  0.17857594  0.62379690  0.80656436  1
  Cs  Cs10  1  0.37926737  0.04979900  0.84464097  1
  Cs  Cs11  1  0.66560585  0.65104083  0.92577079  1
  Sc  Sc12  1  0.08143640  0.84874852  0.06538125  1
  Sc  Sc13  1  0.58143640  0.15125148  0.43461875  1
  Sc  Sc14  1  0.41856360  0.84874852  0.56538125  1
  Sc  Sc15  1  0.91856360  0.15125148  0.93461875  1
  O  O16  1  0.32685846  0.75931118  0.04285028  1
  O  O17  1  0.05691960  0.09735299  0.08500348  1
  O  O18  1  0.94807030  0.71361028  0.18510690  1
  O  O19  1  0.44807030  0.28638972  0.31489310  1
  O  O20  1  0.55691960  0.90264701  0.41499652  1
  O  O21  1  0.82685846  0.24068882  0.45714972  1
  O  O22  1  0.17314154  0.75931118  0.54285028  1
  O  O23  1  0.44308040  0.09735299  0.58500348  1
  O  O24  1  0.55192970  0.71361028  0.68510690  1
  O  O25  1  0.05192970  0.28638972  0.81489310  1
  O  O26  1  0.94308040  0.90264701  0.91499652  1
  O  O27  1  0.67314154  0.24068882  0.95714972  1
