# generated using pymatgen
data_TaCrO4
_symmetry_space_group_name_H-M   'P 1'
_cell_length_a   5.54811512
_cell_length_b   5.54810445
_cell_length_c   5.54799587
_cell_angle_alpha   72.83736326
_cell_angle_beta   107.16276255
_cell_angle_gamma   65.80513669
_symmetry_Int_Tables_number   1
_chemical_formula_structural   TaCrO4
_chemical_formula_sum   'Ta2 Cr2 O8'
_cell_volume   130.78614046
_cell_formula_units_Z   2
loop_
 _symmetry_equiv_pos_site_id
 _symmetry_equiv_pos_as_xyz
  1  'x, y, z'
loop_
 _atom_site_type_symbol
 _atom_site_label
 _atom_site_symmetry_multiplicity
 _atom_site_fract_x
 _atom_site_fract_y
 _atom_site_fract_z
 _atom_site_occupancy
  Ta  Ta0  1  0.26046119  0.23953576  0.50001000  1
  Ta  Ta1  1  0.01047784  0.98952781  0.00001072  1
  Cr  Cr2  1  0.75022253  0.74978169  0.49999861  1
  Cr  Cr3  1  0.50025092  0.49974522  -0.00000221  1
  O  O4  1  0.55383615  0.25047179  0.80428086  1
  O  O5  1  0.04635054  0.75490511  0.80121386  1
  O  O6  1  0.99954199  0.30477155  0.69571340  1
  O  O7  1  0.49512740  0.80611532  0.69878062  1
  O  O8  1  0.99951694  0.69617199  0.30428258  1
  O  O9  1  0.49508718  0.20365658  0.30121503  1
  O  O10  1  0.94523829  0.25045089  0.19571356  1
  O  O11  1  0.44389305  0.75486329  0.19878297  1
