# generated using pymatgen
data_Mn2PO5
_symmetry_space_group_name_H-M   'P 1'
_cell_length_a   7.30761921
_cell_length_b   7.30761921
_cell_length_c   9.74046943
_cell_angle_alpha   62.55562623
_cell_angle_beta   62.55562623
_cell_angle_gamma   52.93347707
_symmetry_Int_Tables_number   1
_chemical_formula_structural   Mn2PO5
_chemical_formula_sum   'Mn8 P4 O20'
_cell_volume   355.81458806
_cell_formula_units_Z   4
loop_
 _symmetry_equiv_pos_site_id
 _symmetry_equiv_pos_as_xyz
  1  'x, y, z'
loop_
 _atom_site_type_symbol
 _atom_site_label
 _atom_site_symmetry_multiplicity
 _atom_site_fract_x
 _atom_site_fract_y
 _atom_site_fract_z
 _atom_site_occupancy
  Mn  Mn0  1  0.74584265  0.52535589  0.16544573  1
  Mn  Mn1  1  0.21718524  0.69770337  0.48341364  1
  Mn  Mn2  1  0.30229663  0.78281476  0.01658636  1
  Mn  Mn3  1  0.52535589  0.74584265  0.66544573  1
  Mn  Mn4  1  0.47464411  0.25415735  0.33455427  1
  Mn  Mn5  1  0.69770337  0.21718524  0.98341364  1
  Mn  Mn6  1  0.78281476  0.30229663  0.51658636  1
  Mn  Mn7  1  0.25415735  0.47464411  0.83455427  1
  P  P8  1  0.73187539  0.90807526  0.80927019  1
  P  P9  1  0.09192474  0.26812461  0.69072981  1
  P  P10  1  0.90807526  0.73187539  0.30927019  1
  P  P11  1  0.26812461  0.09192474  0.19072981  1
  O  O12  1  0.89528793  0.94211729  0.64253362  1
  O  O13  1  0.12568145  0.29287921  0.06819273  1
  O  O14  1  0.41198955  0.85791573  0.14249015  1
  O  O15  1  0.14900936  0.43677319  0.69539648  1
  O  O16  1  0.56322681  0.85099064  0.80460352  1
  O  O17  1  0.58337853  0.38644168  0.38663724  1
  O  O18  1  0.61355832  0.41662147  0.11336276  1
  O  O19  1  0.05788271  0.10471207  0.85746638  1
  O  O20  1  0.29287921  0.12568145  0.56819273  1
  O  O21  1  0.14208427  0.58801045  0.35750985  1
  O  O22  1  0.85791573  0.41198955  0.64249015  1
  O  O23  1  0.70712079  0.87431855  0.43180727  1
  O  O24  1  0.94211729  0.89528793  0.14253362  1
  O  O25  1  0.38644168  0.58337853  0.88663724  1
  O  O26  1  0.41662147  0.61355832  0.61336276  1
  O  O27  1  0.43677319  0.14900936  0.19539648  1
  O  O28  1  0.85099064  0.56322681  0.30460352  1
  O  O29  1  0.58801045  0.14208427  0.85750985  1
  O  O30  1  0.87431855  0.70712079  0.93180727  1
  O  O31  1  0.10471207  0.05788271  0.35746638  1
