# generated using pymatgen
data_Sr5Nb4O15
_symmetry_space_group_name_H-M   'P 1'
_cell_length_a   5.70798068
_cell_length_b   5.70798009
_cell_length_c   23.05444753
_cell_angle_alpha   90.00001273
_cell_angle_beta   90.00000822
_cell_angle_gamma   120.00000096
_symmetry_Int_Tables_number   1
_chemical_formula_structural   Sr5Nb4O15
_chemical_formula_sum   'Sr10 Nb8 O30'
_cell_volume   650.50447811
_cell_formula_units_Z   2
loop_
 _symmetry_equiv_pos_site_id
 _symmetry_equiv_pos_as_xyz
  1  'x, y, z'
loop_
 _atom_site_type_symbol
 _atom_site_label
 _atom_site_symmetry_multiplicity
 _atom_site_fract_x
 _atom_site_fract_y
 _atom_site_fract_z
 _atom_site_occupancy
  Sr  Sr0  1  0.33333287  0.66666673  0.14102422  1
  Sr  Sr1  1  0.33333391  0.66666666  0.47062151  1
  Sr  Sr2  1  0.00000076  0.00000046  0.25000009  1
  Sr  Sr3  1  -0.00000011  -0.00000005  0.75000055  1
  Sr  Sr4  1  0.33333338  0.66666642  0.64101189  1
  Sr  Sr5  1  0.33333321  0.66666657  0.97063903  1
  Sr  Sr6  1  0.66666623  0.33333343  0.02937911  1
  Sr  Sr7  1  0.66666723  0.33333348  0.35897386  1
  Sr  Sr8  1  0.66666685  0.33333360  0.52936170  1
  Sr  Sr9  1  0.66666678  0.33333307  0.85899322  1
  Nb  Nb10  1  0.33333401  0.66666680  0.30283694  1
  Nb  Nb11  1  0.99999597  -0.00000224  0.09038899  1
  Nb  Nb12  1  0.00000054  0.00000005  0.40960487  1
  Nb  Nb13  1  -0.00000001  0.00000006  0.59037624  1
  Nb  Nb14  1  0.00000037  0.00000054  0.90962016  1
  Nb  Nb15  1  0.33333353  0.66666676  0.80284729  1
  Nb  Nb16  1  0.66666629  0.33333306  0.19715915  1
  Nb  Nb17  1  0.66666723  0.33333327  0.69715711  1
  O  O18  1  0.09965018  0.76581935  0.55518295  1
  O  O19  1  0.11524180  0.78444235  0.34627318  1
  O  O20  1  0.00000299  0.54681898  0.75000321  1
  O  O21  1  -0.00000224  0.45317281  0.24999906  1
  O  O22  1  0.21555070  0.88474308  0.84628525  1
  O  O23  1  0.23417933  0.90034091  0.05519765  1
  O  O24  1  0.09965888  0.33383954  0.05519772  1
  O  O25  1  0.11525714  0.33080721  0.84628514  1
  O  O26  1  0.21555844  0.33079943  0.34627312  1
  O  O27  1  0.23418139  0.33383097  0.55518300  1
  O  O28  1  0.33382540  0.23417430  0.94481665  1
  O  O29  1  0.66616863  0.90034982  0.55518298  1
  O  O30  1  0.66920148  0.88475903  0.34627316  1
  O  O31  1  0.33079834  0.21555396  0.15372435  1
  O  O32  1  0.45318254  0.45318554  0.75000296  1
  O  O33  1  0.54682658  0.54682424  0.24999908  1
  O  O34  1  0.66919261  0.78444952  0.84628517  1
  O  O35  1  0.33080859  0.11525877  0.65371850  1
  O  O36  1  0.33384039  0.09965305  0.44480064  1
  O  O37  1  0.66615695  0.76581889  0.05519701  1
  O  O38  1  0.76581336  0.66616077  0.44480065  1
  O  O39  1  0.78445065  0.66919186  0.65371841  1
  O  O40  1  0.45317512  0.00000201  0.24999910  1
  O  O41  1  0.54681529  -0.00000190  0.75000342  1
  O  O42  1  0.88475596  0.66920180  0.15372415  1
  O  O43  1  0.90034873  0.66617492  0.94481649  1
  O  O44  1  0.76582631  0.09965168  0.94481653  1
  O  O45  1  0.78444595  0.11524329  0.15372441  1
  O  O46  1  0.88474168  0.21554937  0.65371851  1
  O  O47  1  0.90034778  0.23418677  0.44480062  1
