# generated using pymatgen
data_Ca19(Mg4H27)2
_symmetry_space_group_name_H-M   'P 1'
_cell_length_a   10.52938490
_cell_length_b   10.52938412
_cell_length_c   10.52938390
_cell_angle_alpha   109.47122030
_cell_angle_beta   109.47120693
_cell_angle_gamma   109.47121997
_symmetry_Int_Tables_number   1
_chemical_formula_structural   Ca19(Mg4H27)2
_chemical_formula_sum   'Ca19 Mg8 H54'
_cell_volume   898.64284112
_cell_formula_units_Z   1
loop_
 _symmetry_equiv_pos_site_id
 _symmetry_equiv_pos_as_xyz
  1  'x, y, z'
loop_
 _atom_site_type_symbol
 _atom_site_label
 _atom_site_symmetry_multiplicity
 _atom_site_fract_x
 _atom_site_fract_y
 _atom_site_fract_z
 _atom_site_occupancy
  Ca  Ca0  1  0.31290156  0.96677070  0.65386792  1
  Ca  Ca1  1  0.68709846  0.03322955  0.34613207  1
  Ca  Ca2  1  0.31290376  0.65903499  0.34613237  1
  Ca  Ca3  1  0.68709616  0.34096505  0.65386768  1
  Ca  Ca4  1  0.65386809  0.31290230  0.96677075  1
  Ca  Ca5  1  0.34613203  0.68709816  0.03322929  1
  Ca  Ca6  1  0.34613276  0.31290387  0.65903510  1
  Ca  Ca7  1  0.65386723  0.68709613  0.34096476  1
  Ca  Ca8  1  0.96677057  0.65386807  0.31290163  1
  Ca  Ca9  1  0.03322952  0.34613167  0.68709834  1
  Ca  Ca10  1  0.65903472  0.34613270  0.31290325  1
  Ca  Ca11  1  0.34096464  0.65386715  0.68709638  1
  Ca  Ca12  1  0.33134568  -0.00000059  0.33134480  1
  Ca  Ca13  1  0.66865431  0.00000099  0.66865512  1
  Ca  Ca14  1  0.33134497  0.33134577  -0.00000078  1
  Ca  Ca15  1  0.66865457  0.66865386  0.00000045  1
  Ca  Ca16  1  -0.00000106  0.33134460  0.33134530  1
  Ca  Ca17  1  0.00000081  0.66865476  0.66865443  1
  Ca  Ca18  1  0.00000030  0.00000012  0.00000013  1
  Mg  Mg19  1  0.31473244  -0.00000248  -0.00000223  1
  Mg  Mg20  1  -0.00000252  -0.00000217  0.31473295  1
  Mg  Mg21  1  -0.00000213  0.31473290  -0.00000253  1
  Mg  Mg22  1  0.68528277  0.68528281  0.68528270  1
  Mg  Mg23  1  0.68526688  0.00000232  0.00000210  1
  Mg  Mg24  1  0.00000249  0.00000229  0.68526708  1
  Mg  Mg25  1  0.00000205  0.68526674  0.00000225  1
  Mg  Mg26  1  0.31471735  0.31471732  0.31471737  1
  H  H27  1  0.42218805  0.94288439  0.14060511  1
  H  H28  1  0.19771772  0.05711881  0.47930170  1
  H  H29  1  0.80228114  0.28158263  0.85939754  1
  H  H30  1  0.57781415  0.71841664  0.52069875  1
  H  H31  1  0.14060495  0.42218785  0.94288432  1
  H  H32  1  0.47930166  0.19771784  0.05711906  1
  H  H33  1  0.85939731  0.80228106  0.28158253  1
  H  H34  1  0.52069880  0.57781403  0.71841647  1
  H  H35  1  0.94288450  0.14060504  0.42218797  1
  H  H36  1  0.05711893  0.47930164  0.19771782  1
  H  H37  1  0.28158258  0.85939741  0.80228119  1
  H  H38  1  0.71841668  0.52069887  0.57781420  1
  H  H39  1  0.57781207  0.05711569  0.85939510  1
  H  H40  1  0.80228239  0.94288136  0.52069824  1
  H  H41  1  0.19771910  0.71841738  0.14060282  1
  H  H42  1  0.42218584  0.28158343  0.47930121  1
  H  H43  1  0.85939496  0.57781191  0.05711558  1
  H  H44  1  0.52069838  0.80228217  0.94288102  1
  H  H45  1  0.14060271  0.19771896  0.71841749  1
  H  H46  1  0.47930115  0.42218590  0.28158344  1
  H  H47  1  0.05711562  0.85939496  0.57781204  1
  H  H48  1  0.94288121  0.52069814  0.80228233  1
  H  H49  1  0.71841740  0.14060260  0.19771885  1
  H  H50  1  0.28158354  0.47930113  0.42218594  1
  H  H51  1  0.39717084  0.21575923  0.81858874  1
  H  H52  1  0.60282921  0.78424087  0.18141130  1
  H  H53  1  0.39717108  0.57858290  0.18141160  1
  H  H54  1  0.60282886  0.42141710  0.81858850  1
  H  H55  1  0.81858866  0.39717088  0.21575933  1
  H  H56  1  0.18141144  0.60282922  0.78424076  1
  H  H57  1  0.18141166  0.39717107  0.57858290  1
  H  H58  1  0.81858843  0.60282901  0.42141709  1
  H  H59  1  0.21575923  0.81858848  0.39717081  1
  H  H60  1  0.78424083  0.18141154  0.60282935  1
  H  H61  1  0.57858287  0.18141167  0.39717117  1
  H  H62  1  0.42141709  0.81858838  0.60282896  1
  H  H63  1  0.17197276  0.06165480  0.88967443  1
  H  H64  1  0.82802738  0.93834515  0.11032559  1
  H  H65  1  0.17197458  0.28229581  0.11032256  1
  H  H66  1  0.82802555  0.71770410  0.88967749  1
  H  H67  1  0.88967453  0.17197271  0.06165490  1
  H  H68  1  0.11032557  0.82802716  0.93834514  1
  H  H69  1  0.11032255  0.17197437  0.28229575  1
  H  H70  1  0.88967755  0.82802553  0.71770420  1
  H  H71  1  0.06165483  0.88967414  0.17197288  1
  H  H72  1  0.93834519  0.11032555  0.82802728  1
  H  H73  1  0.28229575  0.11032244  0.17197458  1
  H  H74  1  0.71770422  0.88967745  0.82802548  1
  H  H75  1  0.61396887  0.49999979  0.11396906  1
  H  H76  1  0.38603111  0.50000031  0.88603090  1
  H  H77  1  0.11396914  0.61396894  0.49999966  1
  H  H78  1  0.88603100  0.38603110  0.50000025  1
  H  H79  1  0.49999972  0.11396908  0.61396888  1
  H  H80  1  0.50000025  0.88603081  0.38603105  1
