# generated using pymatgen
data_AgBH8C4(N2F)4
_symmetry_space_group_name_H-M   'P 1'
_cell_length_a   5.44291109
_cell_length_b   9.48841347
_cell_length_c   11.20335332
_cell_angle_alpha   90.38048464
_cell_angle_beta   101.47169708
_cell_angle_gamma   95.77967406
_symmetry_Int_Tables_number   1
_chemical_formula_structural   AgBH8C4(N2F)4
_chemical_formula_sum   'Ag2 B2 H16 C8 N16 F8'
_cell_volume   563.94051138
_cell_formula_units_Z   2
loop_
 _symmetry_equiv_pos_site_id
 _symmetry_equiv_pos_as_xyz
  1  'x, y, z'
loop_
 _atom_site_type_symbol
 _atom_site_label
 _atom_site_symmetry_multiplicity
 _atom_site_fract_x
 _atom_site_fract_y
 _atom_site_fract_z
 _atom_site_occupancy
  Ag  Ag0  1  0.51351629  0.83933689  0.50645823  1
  Ag  Ag1  1  0.48648371  0.16066311  0.49354177  1
  B  B2  1  0.10866791  0.29521165  0.01925654  1
  B  B3  1  0.89133209  0.70478835  0.98074346  1
  H  H4  1  0.20962699  0.82009352  0.82012267  1
  H  H5  1  0.15627779  0.40321678  0.79463817  1
  H  H6  1  0.50416865  0.84617963  0.91348574  1
  H  H7  1  0.42836219  0.50760680  0.85992974  1
  H  H8  1  0.22461469  0.95079260  0.10015062  1
  H  H9  1  0.32228317  0.82493083  0.20511231  1
  H  H10  1  0.34581229  0.44799729  0.41384025  1
  H  H11  1  0.28052457  0.41025579  0.25694146  1
  H  H12  1  0.71947543  0.58974421  0.74305854  1
  H  H13  1  0.65418771  0.55200271  0.58615975  1
  H  H14  1  0.67771683  0.17506917  0.79488769  1
  H  H15  1  0.77538531  0.04920740  0.89984938  1
  H  H16  1  0.57163781  0.49239320  0.14007026  1
  H  H17  1  0.49583135  0.15382037  0.08651426  1
  H  H18  1  0.84372221  0.59678322  0.20536183  1
  H  H19  1  0.79037301  0.17990648  0.17987733  1
  C  C20  1  0.05050879  0.98050763  0.65542628  1
  C  C21  1  0.03063660  0.33526601  0.57402774  1
  C  C22  1  0.38618237  0.46924815  0.67709906  1
  C  C23  1  0.42457271  0.00268485  0.79205475  1
  C  C24  1  0.57542729  0.99731515  0.20794525  1
  C  C25  1  0.61381763  0.53075185  0.32290094  1
  C  C26  1  0.96936340  0.66473399  0.42597226  1
  C  C27  1  0.94949121  0.01949237  0.34457372  1
  N  N28  1  0.16640946  0.73094443  0.43575393  1
  N  N29  1  0.37820592  0.87881479  0.84312314  1
  N  N30  1  0.31907915  0.45830373  0.78455974  1
  N  N31  1  0.24541270  0.40628741  0.57384204  1
  N  N32  1  0.14751116  0.07709245  0.38908088  1
  N  N33  1  0.26416372  0.05214927  0.69823148  1
  N  N34  1  0.36065474  0.91710036  0.16529872  1
  N  N35  1  0.39915083  0.45489964  0.33182546  1
  N  N36  1  0.60084917  0.54510036  0.66817454  1
  N  N37  1  0.63934526  0.08289964  0.83470128  1
  N  N38  1  0.73583628  0.94785073  0.30176852  1
  N  N39  1  0.85248884  0.92290755  0.61091912  1
  N  N40  1  0.75458730  0.59371259  0.42615796  1
  N  N41  1  0.68092085  0.54169627  0.21544026  1
  N  N42  1  0.62179408  0.12118521  0.15687686  1
  N  N43  1  0.83359054  0.26905557  0.56424607  1
  F  F44  1  0.05011043  0.65669139  0.08250665  1
  F  F45  1  0.02331042  0.32482835  0.12683030  1
  F  F46  1  0.11469189  0.14684981  0.00706652  1
  F  F47  1  0.64387633  0.63911668  0.97044472  1
  F  F48  1  0.35612367  0.36088332  0.02955528  1
  F  F49  1  0.88530811  0.85315019  0.99293348  1
  F  F50  1  0.97668958  0.67517165  0.87316970  1
  F  F51  1  0.94988957  0.34330861  0.91749335  1
