# generated using pymatgen
data_Si3Sb2O9
_symmetry_space_group_name_H-M   'P 1'
_cell_length_a   6.89416180
_cell_length_b   6.89415337
_cell_length_c   9.26685008
_cell_angle_alpha   89.99990796
_cell_angle_beta   89.99998075
_cell_angle_gamma   120.00046385
_symmetry_Int_Tables_number   1
_chemical_formula_structural   Si3Sb2O9
_chemical_formula_sum   'Si6 Sb4 O18'
_cell_volume   381.43729265
_cell_formula_units_Z   2
loop_
 _symmetry_equiv_pos_site_id
 _symmetry_equiv_pos_as_xyz
  1  'x, y, z'
loop_
 _atom_site_type_symbol
 _atom_site_label
 _atom_site_symmetry_multiplicity
 _atom_site_fract_x
 _atom_site_fract_y
 _atom_site_fract_z
 _atom_site_occupancy
  Si  Si0  1  0.20489461  0.92522706  0.25000099  1
  Si  Si1  1  0.07477478  0.27966445  0.25000133  1
  Si  Si2  1  0.27964815  0.20487931  0.74999881  1
  Si  Si3  1  0.72033539  0.79510494  0.24999854  1
  Si  Si4  1  0.92522959  0.72034674  0.75000387  1
  Si  Si5  1  0.79511992  0.07477359  0.75000265  1
  Sb  Sb6  1  0.33332924  0.66666650  0.98459565  1
  Sb  Sb7  1  0.33333551  0.66666597  0.51540648  1
  Sb  Sb8  1  0.66666168  0.33333178  0.48459467  1
  Sb  Sb9  1  0.66667443  0.33335093  0.01538231  1
  O  O10  1  0.18060436  0.93482967  0.75000156  1
  O  O11  1  0.32172373  0.90000873  0.10563675  1
  O  O12  1  0.32172545  0.90000813  0.39436609  1
  O  O13  1  0.09999320  0.42171491  0.10563567  1
  O  O14  1  0.09999036  0.42171292  0.39436573  1
  O  O15  1  0.06516619  0.24577107  0.75000015  1
  O  O16  1  0.24577217  0.18060644  0.25000100  1
  O  O17  1  0.57828586  0.67827573  0.10563578  1
  O  O18  1  0.57828361  0.67827425  0.39436636  1
  O  O19  1  0.42172088  0.32172721  0.60563396  1
  O  O20  1  0.42170506  0.32172631  0.89435902  1
  O  O21  1  0.75423201  0.81939159  0.75000172  1
  O  O22  1  0.93482856  0.75422348  0.25000274  1
  O  O23  1  0.90001403  0.57828719  0.60563754  1
  O  O24  1  0.90000787  0.57828517  0.89436644  1
  O  O25  1  0.67827469  0.09998846  0.60563613  1
  O  O26  1  0.67827204  0.09999076  0.89436493  1
  O  O27  1  0.81939563  0.06516772  0.25000112  1
