# generated using pymatgen
data_SrO
_symmetry_space_group_name_H-M   'P 1'
_cell_length_a   4.27538696
_cell_length_b   4.27554557
_cell_length_c   5.15559499
_cell_angle_alpha   90.00000000
_cell_angle_beta   90.00000000
_cell_angle_gamma   120.00121976
_symmetry_Int_Tables_number   1
_chemical_formula_structural   SrO
_chemical_formula_sum   'Sr2 O2'
_cell_volume   81.61520102
_cell_formula_units_Z   2
loop_
 _symmetry_equiv_pos_site_id
 _symmetry_equiv_pos_as_xyz
  1  'x, y, z'
loop_
 _atom_site_type_symbol
 _atom_site_label
 _atom_site_symmetry_multiplicity
 _atom_site_fract_x
 _atom_site_fract_y
 _atom_site_fract_z
 _atom_site_occupancy
  Sr  Sr0  1  0.33334131  0.66672118  0.93812770  1
  Sr  Sr1  1  0.66665869  0.33337882  0.43812770  1
  O  O2  1  0.33334050  0.66671983  0.43687230  1
  O  O3  1  0.66665950  0.33338017  0.93687230  1
