# generated using pymatgen
data_NdBiO4
_symmetry_space_group_name_H-M   'P 1'
_cell_length_a   7.01833815
_cell_length_b   7.01834248
_cell_length_c   6.77459609
_cell_angle_alpha   131.29327053
_cell_angle_beta   134.61005884
_cell_angle_gamma   71.64619445
_symmetry_Int_Tables_number   1
_chemical_formula_structural   NdBiO4
_chemical_formula_sum   'Nd2 Bi2 O8'
_cell_volume   171.46610025
_cell_formula_units_Z   2
loop_
 _symmetry_equiv_pos_site_id
 _symmetry_equiv_pos_as_xyz
  1  'x, y, z'
loop_
 _atom_site_type_symbol
 _atom_site_label
 _atom_site_symmetry_multiplicity
 _atom_site_fract_x
 _atom_site_fract_y
 _atom_site_fract_z
 _atom_site_occupancy
  Nd  Nd0  1  0.38669457  0.13669443  0.24999920  1
  Nd  Nd1  1  0.61330543  0.86330557  0.75000080  1
  Bi  Bi2  1  0.84785508  0.59785494  0.24999954  1
  Bi  Bi3  1  0.15214492  0.40214506  0.75000046  1
  O  O4  1  0.71687141  0.55047832  0.83513041  1
  O  O5  1  0.78465208  0.11825937  0.33513079  1
  O  O6  1  0.46570519  0.23610320  0.75686160  1
  O  O7  1  0.02075853  0.29115626  0.25686158  1
  O  O8  1  0.97924147  0.70884374  0.74313842  1
  O  O9  1  0.53429481  0.76389680  0.24313840  1
  O  O10  1  0.21534792  0.88174063  0.66486921  1
  O  O11  1  0.28312859  0.44952168  0.16486959  1
