# generated using pymatgen
data_Sm2TiO5
_symmetry_space_group_name_H-M   'P 1'
_cell_length_a   3.78285275
_cell_length_b   10.59855912
_cell_length_c   11.40109648
_cell_angle_alpha   90.00000000
_cell_angle_beta   90.00000000
_cell_angle_gamma   90.00000000
_symmetry_Int_Tables_number   1
_chemical_formula_structural   Sm2TiO5
_chemical_formula_sum   'Sm8 Ti4 O20'
_cell_volume   457.10174999
_cell_formula_units_Z   4
loop_
 _symmetry_equiv_pos_site_id
 _symmetry_equiv_pos_as_xyz
  1  'x, y, z'
loop_
 _atom_site_type_symbol
 _atom_site_label
 _atom_site_symmetry_multiplicity
 _atom_site_fract_x
 _atom_site_fract_y
 _atom_site_fract_z
 _atom_site_occupancy
  Sm  Sm0  1  0.25000000  0.10922947  0.27834560  1
  Sm  Sm1  1  0.25000000  0.13709445  0.94341637  1
  Sm  Sm2  1  0.75000000  0.36290555  0.44341637  1
  Sm  Sm3  1  0.75000000  0.39077053  0.77834560  1
  Sm  Sm4  1  0.25000000  0.60922947  0.22165440  1
  Sm  Sm5  1  0.25000000  0.63709445  0.55658363  1
  Sm  Sm6  1  0.75000000  0.86290555  0.05658363  1
  Sm  Sm7  1  0.75000000  0.89077053  0.72165440  1
  Ti  Ti8  1  0.25000000  0.17949989  0.62177583  1
  Ti  Ti9  1  0.75000000  0.32050011  0.12177583  1
  Ti  Ti10  1  0.25000000  0.67949989  0.87822417  1
  Ti  Ti11  1  0.75000000  0.82050011  0.37822417  1
  O  O12  1  0.75000000  0.00758255  0.89581217  1
  O  O13  1  0.25000000  0.01588902  0.65724336  1
  O  O14  1  0.25000000  0.22340470  0.46074954  1
  O  O15  1  0.75000000  0.23562892  0.61890431  1
  O  O16  1  0.75000000  0.23713319  0.26988956  1
  O  O17  1  0.25000000  0.26286681  0.76988956  1
  O  O18  1  0.25000000  0.26437108  0.11890431  1
  O  O19  1  0.75000000  0.27659530  0.96074954  1
  O  O20  1  0.75000000  0.48411098  0.15724336  1
  O  O21  1  0.25000000  0.49241745  0.39581217  1
  O  O22  1  0.75000000  0.50758255  0.60418783  1
  O  O23  1  0.25000000  0.51588902  0.84275664  1
  O  O24  1  0.25000000  0.72340470  0.03925046  1
  O  O25  1  0.75000000  0.73562892  0.88109569  1
  O  O26  1  0.75000000  0.73713319  0.23011044  1
  O  O27  1  0.25000000  0.76286681  0.73011044  1
  O  O28  1  0.25000000  0.76437108  0.38109569  1
  O  O29  1  0.75000000  0.77659530  0.53925046  1
  O  O30  1  0.75000000  0.98411098  0.34275664  1
  O  O31  1  0.25000000  0.99241745  0.10418783  1
