# generated using pymatgen
data_Zr2N2O
_symmetry_space_group_name_H-M   'P 1'
_cell_length_a   8.79493520
_cell_length_b   8.79290876
_cell_length_c   8.77627205
_cell_angle_alpha   109.24630293
_cell_angle_beta   109.46688678
_cell_angle_gamma   109.65340262
_symmetry_Int_Tables_number   1
_chemical_formula_structural   Zr2N2O
_chemical_formula_sum   'Zr16 N16 O8'
_cell_volume   522.75874021
_cell_formula_units_Z   8
loop_
 _symmetry_equiv_pos_site_id
 _symmetry_equiv_pos_as_xyz
  1  'x, y, z'
loop_
 _atom_site_type_symbol
 _atom_site_label
 _atom_site_symmetry_multiplicity
 _atom_site_fract_x
 _atom_site_fract_y
 _atom_site_fract_z
 _atom_site_occupancy
  Zr  Zr0  1  0.75321791  0.96896256  0.20806020  1
  Zr  Zr1  1  0.99502809  0.98843222  0.98939312  1
  Zr  Zr2  1  0.03302339  0.77605127  0.24543390  1
  Zr  Zr3  1  0.50207824  0.50329694  0.00272630  1
  Zr  Zr4  1  0.52938909  0.27949711  0.24653981  1
  Zr  Zr5  1  0.49850152  0.99211690  0.50104432  1
  Zr  Zr6  1  0.25676995  0.54094720  0.28696926  1
  Zr  Zr7  1  0.29174852  0.26687792  0.55010370  1
  Zr  Zr8  1  0.71407088  0.74488124  0.46070265  1
  Zr  Zr9  1  0.78568692  0.25042866  0.03688176  1
  Zr  Zr10  1  0.20912919  0.74852966  0.96272140  1
  Zr  Zr11  1  0.75502340  0.46403446  0.72420124  1
  Zr  Zr12  1  0.00806859  0.49878773  0.49975634  1
  Zr  Zr13  1  0.46518555  0.71642263  0.74423823  1
  Zr  Zr14  1  0.96525328  0.21793762  0.75019358  1
  Zr  Zr15  1  0.24022847  0.02843193  0.78606701  1
  N  N16  1  0.73230958  0.96836878  0.96115380  1
  N  N17  1  0.75516846  0.22495926  0.27468285  1
  N  N18  1  0.45314545  0.48292477  0.22464752  1
  N  N19  1  0.72324232  0.23566979  0.77166846  1
  N  N20  1  0.77181791  0.73354331  0.24118699  1
  N  N21  1  0.22863285  0.27179380  0.76181356  1
  N  N22  1  0.98676693  0.53117937  0.25664695  1
  N  N23  1  0.51204870  0.77537702  0.54385089  1
  N  N24  1  0.95468674  0.72870051  0.96838378  1
  N  N25  1  0.54494201  0.51216152  0.77385913  1
  N  N26  1  0.22372719  0.45051125  0.48534491  1
  N  N27  1  0.27942337  0.76734850  0.22987967  1
  N  N28  1  0.96295322  0.95121991  0.72650408  1
  N  N29  1  0.24071601  0.77460174  0.72437912  1
  N  N30  1  0.01097371  0.46693349  0.73926029  1
  N  N31  1  0.27225865  0.03809332  0.04521327  1
  O  O32  1  0.53674528  0.26540886  0.99089622  1
  O  O33  1  0.73721551  0.01251026  0.46736350  1
  O  O34  1  0.04339789  0.27149148  0.03003248  1
  O  O35  1  0.76804121  0.54337156  0.51272076  1
  O  O36  1  0.03713546  0.04688060  0.27500590  1
  O  O37  1  0.46756348  0.73930209  0.01310743  1
  O  O38  1  0.26460624  0.99281311  0.53123576  1
  O  O39  1  0.49008082  0.22920167  0.45613086  1
