# generated using pymatgen
data_NbVO5
_symmetry_space_group_name_H-M   'P 1'
_cell_length_a   5.59949120
_cell_length_b   7.03718861
_cell_length_c   11.99087588
_cell_angle_alpha   90.00000000
_cell_angle_beta   90.00000000
_cell_angle_gamma   90.00000000
_symmetry_Int_Tables_number   1
_chemical_formula_structural   NbVO5
_chemical_formula_sum   'Nb4 V4 O20'
_cell_volume   472.49657534
_cell_formula_units_Z   4
loop_
 _symmetry_equiv_pos_site_id
 _symmetry_equiv_pos_as_xyz
  1  'x, y, z'
loop_
 _atom_site_type_symbol
 _atom_site_label
 _atom_site_symmetry_multiplicity
 _atom_site_fract_x
 _atom_site_fract_y
 _atom_site_fract_z
 _atom_site_occupancy
  Nb  Nb0  1  0.75000000  0.84300498  0.05929474  1
  Nb  Nb1  1  0.25000000  0.34300498  0.44070526  1
  Nb  Nb2  1  0.75000000  0.65699502  0.55929474  1
  Nb  Nb3  1  0.25000000  0.15699502  0.94070526  1
  V  V4  1  0.25000000  0.52945648  0.15389015  1
  V  V5  1  0.75000000  0.02945648  0.34610985  1
  V  V6  1  0.25000000  0.97054352  0.65389015  1
  V  V7  1  0.75000000  0.47054352  0.84610985  1
  O  O8  1  -0.00000000  -0.00000000  0.00000000  1
  O  O9  1  0.50000000  -0.00000000  0.00000000  1
  O  O10  1  0.25000000  0.32346491  0.07666787  1
  O  O11  1  0.00135077  0.65732639  0.12398542  1
  O  O12  1  0.49864923  0.65732639  0.12398542  1
  O  O13  1  0.75000000  0.97168252  0.20522551  1
  O  O14  1  0.25000000  0.47168252  0.29477449  1
  O  O15  1  0.99864923  0.15732639  0.37601458  1
  O  O16  1  0.50135077  0.15732639  0.37601458  1
  O  O17  1  0.75000000  0.82346491  0.42333213  1
  O  O18  1  -0.00000000  0.50000000  0.50000000  1
  O  O19  1  0.50000000  0.50000000  0.50000000  1
  O  O20  1  0.25000000  0.17653509  0.57666787  1
  O  O21  1  0.00135077  0.84267361  0.62398542  1
  O  O22  1  0.49864923  0.84267361  0.62398542  1
  O  O23  1  0.75000000  0.52831748  0.70522551  1
  O  O24  1  0.25000000  0.02831748  0.79477449  1
  O  O25  1  0.50135077  0.34267361  0.87601458  1
  O  O26  1  0.99864923  0.34267361  0.87601458  1
  O  O27  1  0.75000000  0.67653509  0.92333213  1
