# generated using pymatgen
data_V2OF5
_symmetry_space_group_name_H-M   'P 1'
_cell_length_a   5.07712179
_cell_length_b   5.28072659
_cell_length_c   11.52982889
_cell_angle_alpha   99.84282711
_cell_angle_beta   102.36909976
_cell_angle_gamma   90.33813268
_symmetry_Int_Tables_number   1
_chemical_formula_structural   V2OF5
_chemical_formula_sum   'V6 O3 F15'
_cell_volume   297.21450083
_cell_formula_units_Z   3
loop_
 _symmetry_equiv_pos_site_id
 _symmetry_equiv_pos_as_xyz
  1  'x, y, z'
loop_
 _atom_site_type_symbol
 _atom_site_label
 _atom_site_symmetry_multiplicity
 _atom_site_fract_x
 _atom_site_fract_y
 _atom_site_fract_z
 _atom_site_occupancy
  V  V0  1  0.17467982  0.17241946  0.33618774  1
  V  V1  1  0.32231077  0.31392781  0.67104060  1
  V  V2  1  0.51880670  0.47718873  0.00384246  1
  V  V3  1  0.65315896  0.64380730  0.33645420  1
  V  V4  1  0.99549606  0.00358416  0.00186387  1
  V  V5  1  0.84269689  0.83800850  0.66777787  1
  O  O6  1  0.14545541  0.06230258  0.69289671  1
  O  O7  1  0.71508324  0.22702618  0.02645410  1
  O  O8  1  0.47644380  0.39264434  0.35865435  1
  F  F9  1  0.81246520  0.91531859  0.83287618  1
  F  F10  1  0.62135706  0.11825155  0.63024218  1
  F  F11  1  0.51164998  0.61032332  0.63262357  1
  F  F12  1  0.52856978  0.42893637  0.83304976  1
  F  F13  1  0.14105554  0.26353325  0.49931634  1
  F  F14  1  0.82406039  0.71902420  0.03865214  1
  F  F15  1  0.95040573  0.44932632  0.29370303  1
  F  F16  1  0.28934973  0.77635533  0.96745415  1
  F  F17  1  0.17830632  0.28357813  0.96207306  1
  F  F18  1  0.84584435  0.94366877  0.30292982  1
  F  F19  1  0.04848733  0.55361794  0.70489206  1
  F  F20  1  0.86063318  0.74484747  0.50082558  1
  F  F21  1  0.47261385  0.59417615  0.16568793  1
  F  F22  1  0.38216582  0.88704709  0.37307272  1
  F  F23  1  0.18890310  0.08108346  0.16742958  1
