# generated using pymatgen
data_Ta2Pb2O7
_symmetry_space_group_name_H-M   'P 1'
_cell_length_a   13.63450404
_cell_length_b   13.63450404
_cell_length_c   5.81820240
_cell_angle_alpha   90.00000000
_cell_angle_beta   90.00000000
_cell_angle_gamma   163.23215470
_symmetry_Int_Tables_number   1
_chemical_formula_structural   Ta2Pb2O7
_chemical_formula_sum   'Ta4 Pb4 O14'
_cell_volume   312.03625093
_cell_formula_units_Z   2
loop_
 _symmetry_equiv_pos_site_id
 _symmetry_equiv_pos_as_xyz
  1  'x, y, z'
loop_
 _atom_site_type_symbol
 _atom_site_label
 _atom_site_symmetry_multiplicity
 _atom_site_fract_x
 _atom_site_fract_y
 _atom_site_fract_z
 _atom_site_occupancy
  Ta  Ta0  1  0.83888137  0.16111863  0.74872298  1
  Ta  Ta1  1  0.94351163  0.05648837  0.25112711  1
  Ta  Ta2  1  0.16111863  0.83888137  0.24872298  1
  Ta  Ta3  1  0.05648837  0.94351163  0.75112711  1
  Pb  Pb4  1  0.71200022  0.28799978  0.75603575  1
  Pb  Pb5  1  0.55597118  0.44402882  0.27337693  1
  Pb  Pb6  1  0.28799978  0.71200022  0.25603575  1
  Pb  Pb7  1  0.44402882  0.55597118  0.77337693  1
  O  O8  1  0.90153301  0.09846699  0.96316533  1
  O  O9  1  0.99848340  0.00151660  0.46742324  1
  O  O10  1  0.79240139  0.20759861  0.98561079  1
  O  O11  1  0.89439257  0.10560743  0.47411650  1
  O  O12  1  0.78794218  0.21205782  0.52435085  1
  O  O13  1  0.65088137  0.34911863  0.24149203  1
  O  O14  1  0.55136293  0.44863707  0.71091549  1
  O  O15  1  0.21205782  0.78794218  0.02435085  1
  O  O16  1  0.44863707  0.55136293  0.21091549  1
  O  O17  1  0.34911863  0.65088137  0.74149203  1
  O  O18  1  0.09846699  0.90153301  0.46316533  1
  O  O19  1  0.10560743  0.89439257  0.97411650  1
  O  O20  1  0.00151660  0.99848340  0.96742324  1
  O  O21  1  0.20759861  0.79240139  0.48561079  1
