# generated using pymatgen
data_VO2F
_symmetry_space_group_name_H-M   'P 1'
_cell_length_a   3.56797636
_cell_length_b   4.23812372
_cell_length_c   12.84255417
_cell_angle_alpha   90.00000000
_cell_angle_beta   90.00000000
_cell_angle_gamma   90.00000000
_symmetry_Int_Tables_number   1
_chemical_formula_structural   VO2F
_chemical_formula_sum   'V4 O8 F4'
_cell_volume   194.19900708
_cell_formula_units_Z   4
loop_
 _symmetry_equiv_pos_site_id
 _symmetry_equiv_pos_as_xyz
  1  'x, y, z'
loop_
 _atom_site_type_symbol
 _atom_site_label
 _atom_site_symmetry_multiplicity
 _atom_site_fract_x
 _atom_site_fract_y
 _atom_site_fract_z
 _atom_site_occupancy
  V  V0  1  0.25000000  0.10903994  0.09089660  1
  V  V1  1  0.75000000  0.60903994  0.40910340  1
  V  V2  1  0.25000000  0.39096006  0.59089660  1
  V  V3  1  0.75000000  0.89096006  0.90910340  1
  O  O4  1  0.75000000  0.00345495  0.06105729  1
  O  O5  1  0.25000000  0.48465381  0.09170750  1
  O  O6  1  0.75000000  0.98465381  0.40829250  1
  O  O7  1  0.25000000  0.50345495  0.43894271  1
  O  O8  1  0.75000000  0.49654505  0.56105729  1
  O  O9  1  0.25000000  0.01534619  0.59170750  1
  O  O10  1  0.75000000  0.51534619  0.90829250  1
  O  O11  1  0.25000000  0.99654505  0.93894271  1
  F  F12  1  0.25000000  0.00243085  0.22166833  1
  F  F13  1  0.75000000  0.50243085  0.27833167  1
  F  F14  1  0.25000000  0.49756915  0.72166833  1
  F  F15  1  0.75000000  0.99756915  0.77833167  1
