# generated using pymatgen
data_Na3CuO2
_symmetry_space_group_name_H-M   'P 1'
_cell_length_a   9.36361486
_cell_length_b   9.36361486
_cell_length_c   4.53007791
_cell_angle_alpha   90.00000000
_cell_angle_beta   90.00000000
_cell_angle_gamma   90.00000000
_symmetry_Int_Tables_number   1
_chemical_formula_structural   Na3CuO2
_chemical_formula_sum   'Na12 Cu4 O8'
_cell_volume   397.18492404
_cell_formula_units_Z   4
loop_
 _symmetry_equiv_pos_site_id
 _symmetry_equiv_pos_as_xyz
  1  'x, y, z'
loop_
 _atom_site_type_symbol
 _atom_site_label
 _atom_site_symmetry_multiplicity
 _atom_site_fract_x
 _atom_site_fract_y
 _atom_site_fract_z
 _atom_site_occupancy
  Na  Na0  1  0.65262626  0.97830025  0.50000000  1
  Na  Na1  1  0.52169975  0.15262626  -0.00000000  1
  Na  Na2  1  0.85285659  0.14714341  -0.00000000  1
  Na  Na3  1  0.35285659  0.35285659  0.50000000  1
  Na  Na4  1  0.02169975  0.34737374  0.50000000  1
  Na  Na5  1  0.15262626  0.52169975  0.00000000  1
  Na  Na6  1  0.84737374  0.47830025  -0.00000000  1
  Na  Na7  1  0.97830025  0.65262626  0.50000000  1
  Na  Na8  1  0.64714341  0.64714341  0.50000000  1
  Na  Na9  1  0.14714341  0.85285659  -0.00000000  1
  Na  Na10  1  0.47830025  0.84737374  0.00000000  1
  Na  Na11  1  0.34737374  0.02169975  0.50000000  1
  Cu  Cu12  1  0.17171951  0.17171951  0.00000000  1
  Cu  Cu13  1  0.67171951  0.32828049  0.50000000  1
  Cu  Cu14  1  0.32828049  0.67171951  0.50000000  1
  Cu  Cu15  1  0.82828049  0.82828049  -0.00000000  1
  O  O16  1  0.30332406  0.03323773  -0.00000000  1
  O  O17  1  0.53323773  0.19667594  0.50000000  1
  O  O18  1  0.03323773  0.30332406  -0.00000000  1
  O  O19  1  0.80332406  0.46676227  0.50000000  1
  O  O20  1  0.19667594  0.53323773  0.50000000  1
  O  O21  1  0.96676227  0.69667594  -0.00000000  1
  O  O22  1  0.46676227  0.80332406  0.50000000  1
  O  O23  1  0.69667594  0.96676227  -0.00000000  1
