# generated using pymatgen
data_Ba2Sb2O5
_symmetry_space_group_name_H-M   'P 1'
_cell_length_a   6.42043683
_cell_length_b   8.12855538
_cell_length_c   14.54756337
_cell_angle_alpha   90.00000000
_cell_angle_beta   90.00000000
_cell_angle_gamma   90.00000000
_symmetry_Int_Tables_number   1
_chemical_formula_structural   Ba2Sb2O5
_chemical_formula_sum   'Ba8 Sb8 O20'
_cell_volume   759.22098571
_cell_formula_units_Z   4
loop_
 _symmetry_equiv_pos_site_id
 _symmetry_equiv_pos_as_xyz
  1  'x, y, z'
loop_
 _atom_site_type_symbol
 _atom_site_label
 _atom_site_symmetry_multiplicity
 _atom_site_fract_x
 _atom_site_fract_y
 _atom_site_fract_z
 _atom_site_occupancy
  Ba  Ba0  1  0.25000000  0.62551939  0.07482986  1
  Ba  Ba1  1  0.75000000  0.62466555  0.42943421  1
  Ba  Ba2  1  0.75000000  0.87533445  0.92943421  1
  Ba  Ba3  1  0.25000000  0.87448061  0.57482986  1
  Ba  Ba4  1  0.25000000  0.12466555  0.07056579  1
  Ba  Ba5  1  0.75000000  0.12551939  0.42517014  1
  Ba  Ba6  1  0.25000000  0.37533445  0.57056579  1
  Ba  Ba7  1  0.75000000  0.37448061  0.92517014  1
  Sb  Sb8  1  0.25000000  0.63337254  0.82073592  1
  Sb  Sb9  1  0.75000000  0.61416005  0.68247743  1
  Sb  Sb10  1  0.25000000  0.86662746  0.32073592  1
  Sb  Sb11  1  0.75000000  0.88583995  0.18247743  1
  Sb  Sb12  1  0.25000000  0.11416005  0.81752257  1
  Sb  Sb13  1  0.75000000  0.13337254  0.67926408  1
  Sb  Sb14  1  0.25000000  0.38583995  0.31752257  1
  Sb  Sb15  1  0.75000000  0.36662746  0.17926408  1
  O  O16  1  0.25000000  0.62692363  0.28395377  1
  O  O17  1  0.02725348  0.62950152  0.90998841  1
  O  O18  1  0.47274652  0.62950152  0.90998841  1
  O  O19  1  0.52758886  0.62102737  0.59317514  1
  O  O20  1  0.97241114  0.62102737  0.59317514  1
  O  O21  1  0.47274652  0.87049848  0.40998841  1
  O  O22  1  0.25000000  0.87307637  0.78395377  1
  O  O23  1  0.52758886  0.87897263  0.09317514  1
  O  O24  1  0.02725348  0.87049848  0.40998841  1
  O  O25  1  0.97241114  0.87897263  0.09317514  1
  O  O26  1  0.75000000  0.12692363  0.21604623  1
  O  O27  1  0.52725348  0.12950152  0.59001159  1
  O  O28  1  0.97274652  0.12950152  0.59001159  1
  O  O29  1  0.02758886  0.12102737  0.90682486  1
  O  O30  1  0.47241114  0.12102737  0.90682486  1
  O  O31  1  0.75000000  0.37307637  0.71604623  1
  O  O32  1  0.02758886  0.37897263  0.40682486  1
  O  O33  1  0.47241114  0.37897263  0.40682486  1
  O  O34  1  0.52725348  0.37049848  0.09001159  1
  O  O35  1  0.97274652  0.37049848  0.09001159  1
