# generated using pymatgen
data_Tm2Ti2O7
_symmetry_space_group_name_H-M   'P 1'
_cell_length_a   5.23691261
_cell_length_b   7.40753788
_cell_length_c   13.01844549
_cell_angle_alpha   81.66514657
_cell_angle_beta   90.00000000
_cell_angle_gamma   90.00000000
_symmetry_Int_Tables_number   1
_chemical_formula_structural   Tm2Ti2O7
_chemical_formula_sum   'Tm8 Ti8 O28'
_cell_volume   499.68559726
_cell_formula_units_Z   4
loop_
 _symmetry_equiv_pos_site_id
 _symmetry_equiv_pos_as_xyz
  1  'x, y, z'
loop_
 _atom_site_type_symbol
 _atom_site_label
 _atom_site_symmetry_multiplicity
 _atom_site_fract_x
 _atom_site_fract_y
 _atom_site_fract_z
 _atom_site_occupancy
  Tm  Tm0  1  0.77490918  0.76444684  0.92712312  1
  Tm  Tm1  1  0.35585383  0.85958512  0.56115961  1
  Tm  Tm2  1  0.24558844  0.71395751  0.13522752  1
  Tm  Tm3  1  0.77798445  0.64397166  0.38787494  1
  Tm  Tm4  1  0.27798445  0.35602834  0.61212506  1
  Tm  Tm5  1  0.74558844  0.28604249  0.86477248  1
  Tm  Tm6  1  0.85585383  0.14041488  0.43884039  1
  Tm  Tm7  1  0.27490918  0.23555316  0.07287688  1
  Ti  Ti8  1  0.28127558  0.92892690  0.32073393  1
  Ti  Ti9  1  0.76752510  0.97074013  0.12182866  1
  Ti  Ti10  1  0.79249448  0.59048433  0.67183058  1
  Ti  Ti11  1  0.26769911  0.53146400  0.87325996  1
  Ti  Ti12  1  0.76769911  0.46853600  0.12674004  1
  Ti  Ti13  1  0.29249448  0.40951567  0.32816942  1
  Ti  Ti14  1  0.26752510  0.02925987  0.87817134  1
  Ti  Ti15  1  0.78127558  0.07107310  0.67926607  1
  O  O16  1  0.42981176  0.99561418  0.17793471  1
  O  O17  1  0.56439374  0.92728349  0.40905426  1
  O  O18  1  0.66398255  0.82852015  0.68151028  1
  O  O19  1  0.36086071  0.77880799  0.88244136  1
  O  O20  1  0.06408394  0.85589834  0.43236780  1
  O  O21  1  0.04624686  0.93608996  0.02502640  1
  O  O22  1  0.95412453  0.86887684  0.23348469  1
  O  O23  1  0.10227803  0.63608310  0.61843213  1
  O  O24  1  0.92769665  0.58096512  0.82335998  1
  O  O25  1  0.38672454  0.67413254  0.30372640  1
  O  O26  1  0.64631453  0.72765285  0.08997606  1
  O  O27  1  0.58896510  0.58541573  0.55053328  1
  O  O28  1  0.54276347  0.45035674  0.97286975  1
  O  O29  1  0.45676842  0.48335893  0.76291453  1
  O  O30  1  0.95676842  0.51664107  0.23708547  1
  O  O31  1  0.04276347  0.54964326  0.02713025  1
  O  O32  1  0.08896510  0.41458427  0.44946672  1
  O  O33  1  0.14631453  0.27234715  0.91002394  1
  O  O34  1  0.88672454  0.32586746  0.69627360  1
  O  O35  1  0.42769665  0.41903488  0.17664002  1
  O  O36  1  0.60227803  0.36391690  0.38156787  1
  O  O37  1  0.45412453  0.13112316  0.76651531  1
  O  O38  1  0.54624686  0.06391004  0.97497360  1
  O  O39  1  0.56408394  0.14410166  0.56763220  1
  O  O40  1  0.86086071  0.22119201  0.11755864  1
  O  O41  1  0.16398255  0.17147985  0.31848972  1
  O  O42  1  0.06439374  0.07271651  0.59094574  1
  O  O43  1  0.92981176  0.00438582  0.82206529  1
