# generated using pymatgen
data_SnGeO3
_symmetry_space_group_name_H-M   'P 1'
_cell_length_a   7.15438283
_cell_length_b   11.74797256
_cell_length_c   13.32631948
_cell_angle_alpha   60.08063355
_cell_angle_beta   90.00000000
_cell_angle_gamma   90.00000000
_symmetry_Int_Tables_number   1
_chemical_formula_structural   SnGeO3
_chemical_formula_sum   'Sn12 Ge12 O36'
_cell_volume   970.79660697
_cell_formula_units_Z   12
loop_
 _symmetry_equiv_pos_site_id
 _symmetry_equiv_pos_as_xyz
  1  'x, y, z'
loop_
 _atom_site_type_symbol
 _atom_site_label
 _atom_site_symmetry_multiplicity
 _atom_site_fract_x
 _atom_site_fract_y
 _atom_site_fract_z
 _atom_site_occupancy
  Sn  Sn0  1  0.68327731  0.78515088  0.89734251  1
  Sn  Sn1  1  0.03428714  0.87183032  0.67852477  1
  Sn  Sn2  1  0.31672269  0.78515088  0.39734251  1
  Sn  Sn3  1  0.96571286  0.87183032  0.17852477  1
  Sn  Sn4  1  0.37610355  0.58072530  0.83256495  1
  Sn  Sn5  1  0.62389645  0.58072530  0.33256495  1
  Sn  Sn6  1  0.37610355  0.41927470  0.66743505  1
  Sn  Sn7  1  0.62389645  0.41927470  0.16743505  1
  Sn  Sn8  1  0.03428714  0.12816968  0.82147523  1
  Sn  Sn9  1  0.68327731  0.21484912  0.60265749  1
  Sn  Sn10  1  0.96571286  0.12816968  0.32147523  1
  Sn  Sn11  1  0.31672269  0.21484912  0.10265749  1
  Ge  Ge12  1  0.17058357  0.74622262  0.95548095  1
  Ge  Ge13  1  0.59287701  0.85350419  0.60861219  1
  Ge  Ge14  1  0.82941643  0.74622262  0.45548095  1
  Ge  Ge15  1  0.87626654  0.54637788  0.84388489  1
  Ge  Ge16  1  0.40712299  0.85350419  0.10861219  1
  Ge  Ge17  1  0.87626654  0.45362212  0.65611511  1
  Ge  Ge18  1  0.12373346  0.54637788  0.34388489  1
  Ge  Ge19  1  0.59287701  0.14649581  0.89138781  1
  Ge  Ge20  1  0.12373346  0.45362212  0.15611511  1
  Ge  Ge21  1  0.17058357  0.25377738  0.54451905  1
  Ge  Ge22  1  0.40712299  0.14649581  0.39138781  1
  Ge  Ge23  1  0.82941643  0.25377738  0.04451905  1
  O  O24  1  0.01577462  0.85242635  0.84797640  1
  O  O25  1  0.50000000  0.00000000  0.50000000  1
  O  O26  1  0.72670514  0.87968485  0.70738209  1
  O  O27  1  0.37152434  0.72039660  0.89482533  1
  O  O28  1  0.78069089  0.80907719  0.54794717  1
  O  O29  1  0.41685342  0.74065867  0.66939577  1
  O  O30  1  0.98422538  0.85242635  0.34797640  1
  O  O31  1  0.50000000  0.00000000  0.00000000  1
  O  O32  1  0.68938856  0.61242876  0.88265565  1
  O  O33  1  0.06018666  0.65705941  0.77977195  1
  O  O34  1  0.27329486  0.87968485  0.20738209  1
  O  O35  1  0.62847566  0.72039660  0.39482533  1
  O  O36  1  0.96047102  0.60015615  0.53630743  1
  O  O37  1  0.21930911  0.80907719  0.04794717  1
  O  O38  1  0.76916996  0.50000000  0.75000000  1
  O  O39  1  0.58314658  0.74065867  0.16939577  1
  O  O40  1  0.96047102  0.39984385  0.96369257  1
  O  O41  1  0.31061144  0.61242876  0.38265565  1
  O  O42  1  0.93981334  0.65705941  0.27977195  1
  O  O43  1  0.06018666  0.34294059  0.72022805  1
  O  O44  1  0.68938856  0.38757124  0.61734435  1
  O  O45  1  0.03952898  0.60015615  0.03630743  1
  O  O46  1  0.41685342  0.25934133  0.83060423  1
  O  O47  1  0.23083004  0.50000000  0.25000000  1
  O  O48  1  0.78069089  0.19092281  0.95205283  1
  O  O49  1  0.03952898  0.39984385  0.46369257  1
  O  O50  1  0.37152434  0.27960340  0.60517467  1
  O  O51  1  0.72670514  0.12031515  0.79261791  1
  O  O52  1  0.93981334  0.34294059  0.22022805  1
  O  O53  1  0.31061144  0.38757124  0.11734435  1
  O  O54  1  0.01577462  0.14757365  0.65202360  1
  O  O55  1  0.58314658  0.25934133  0.33060423  1
  O  O56  1  0.21930911  0.19092281  0.45205283  1
  O  O57  1  0.62847566  0.27960340  0.10517467  1
  O  O58  1  0.27329486  0.12031515  0.29261791  1
  O  O59  1  0.98422538  0.14757365  0.15202360  1
