# generated using pymatgen
data_Li4Mn3OF8
_symmetry_space_group_name_H-M   'P 1'
_cell_length_a   5.06022854
_cell_length_b   10.25239477
_cell_length_c   10.33620093
_cell_angle_alpha   82.80792108
_cell_angle_beta   90.26755920
_cell_angle_gamma   88.51203955
_symmetry_Int_Tables_number   1
_chemical_formula_structural   Li4Mn3OF8
_chemical_formula_sum   'Li12 Mn9 O3 F24'
_cell_volume   531.82107559
_cell_formula_units_Z   3
loop_
 _symmetry_equiv_pos_site_id
 _symmetry_equiv_pos_as_xyz
  1  'x, y, z'
loop_
 _atom_site_type_symbol
 _atom_site_label
 _atom_site_symmetry_multiplicity
 _atom_site_fract_x
 _atom_site_fract_y
 _atom_site_fract_z
 _atom_site_occupancy
  Li  Li0  1  0.49304934  0.78771998  0.99208085  1
  Li  Li1  1  0.49950043  0.99217464  0.19464731  1
  Li  Li2  1  0.44055995  0.87402142  0.46159784  1
  Li  Li3  1  0.40127209  0.54519409  0.13025870  1
  Li  Li4  1  0.37623908  0.60545131  0.39279597  1
  Li  Li5  1  0.49280153  0.73363641  0.72048785  1
  Li  Li6  1  0.45415035  0.26875669  0.26562847  1
  Li  Li7  1  0.39493034  0.38745781  0.63406995  1
  Li  Li8  1  0.45214907  0.49223572  0.87845227  1
  Li  Li9  1  0.43922743  0.13603503  0.54346737  1
  Li  Li10  1  0.49788285  0.21100233  0.98512223  1
  Li  Li11  1  0.51240276  0.01263921  0.79052564  1
  Mn  Mn12  1  0.98877087  0.80082355  0.25095375  1
  Mn  Mn13  1  0.97904661  0.90585194  0.66544538  1
  Mn  Mn14  1  0.93462299  0.33957693  0.10385781  1
  Mn  Mn15  1  0.95625171  0.61734408  0.59425621  1
  Mn  Mn16  1  0.00033539  0.99548707  0.00745070  1
  Mn  Mn17  1  0.88662028  0.38354938  0.40669345  1
  Mn  Mn18  1  0.95861339  0.65699638  0.89035735  1
  Mn  Mn19  1  0.97050023  0.09273716  0.32407398  1
  Mn  Mn20  1  0.95294424  0.26543058  0.77976917  1
  O  O21  1  0.13883911  0.98027459  0.19321437  1
  O  O22  1  0.09529634  0.28175844  0.28087838  1
  O  O23  1  0.13454784  0.72593074  0.72311432  1
  F  F24  1  0.67883191  0.87499108  0.10248252  1
  F  F25  1  0.13433877  0.79046224  0.00676328  1
  F  F26  1  0.69380541  0.93152485  0.34301383  1
  F  F27  1  0.61727445  0.61749814  0.00005554  1
  F  F28  1  0.19838457  0.00845010  0.49924028  1
  F  F29  1  0.18366811  0.75295830  0.43764447  1
  F  F30  1  0.20375421  0.63110991  0.23627031  1
  F  F31  1  0.73237254  0.57791812  0.42326368  1
  F  F32  1  0.62790755  0.42322827  0.21850132  1
  F  F33  1  0.67880748  0.79074754  0.57564166  1
  F  F34  1  0.20495846  0.47955563  0.49874006  1
  F  F35  1  0.65395119  0.84053687  0.83386041  1
  F  F36  1  0.63131371  0.16455871  0.15062109  1
  F  F37  1  0.64511894  0.20708014  0.41021884  1
  F  F38  1  0.67501306  0.57556621  0.75064779  1
  F  F39  1  0.75198792  0.35674381  0.61186227  1
  F  F40  1  0.18832523  0.43602530  0.76897801  1
  F  F41  1  0.24795010  0.22415370  0.65266400  1
  F  F42  1  0.15885857  0.49530403  0.01173766  1
  F  F43  1  0.69582469  0.04940894  0.64188242  1
  F  F44  1  0.69155663  0.35589488  0.93252539  1
  F  F45  1  0.14159801  0.21119865  0.97388767  1
  F  F46  1  0.15901566  0.00320951  0.81901677  1
  F  F47  1  0.70006563  0.10979460  0.89128540  1
