# generated using pymatgen
data_Li8TiS6
_symmetry_space_group_name_H-M   'P 1'
_cell_length_a   6.85220410
_cell_length_b   6.85220430
_cell_length_c   13.33450914
_cell_angle_alpha   89.99999439
_cell_angle_beta   89.99998281
_cell_angle_gamma   120.00217462
_symmetry_Int_Tables_number   1
_chemical_formula_structural   Li8TiS6
_chemical_formula_sum   'Li16 Ti2 S12'
_cell_volume   542.19903634
_cell_formula_units_Z   2
loop_
 _symmetry_equiv_pos_site_id
 _symmetry_equiv_pos_as_xyz
  1  'x, y, z'
loop_
 _atom_site_type_symbol
 _atom_site_label
 _atom_site_symmetry_multiplicity
 _atom_site_fract_x
 _atom_site_fract_y
 _atom_site_fract_z
 _atom_site_occupancy
  Li  Li0  1  0.00009766  0.68190869  0.76600771  1
  Li  Li1  1  -0.00001579  0.61983132  0.13047770  1
  Li  Li2  1  0.00001458  0.38016960  0.63047553  1
  Li  Li3  1  -0.00009818  0.31808949  0.26600732  1
  Li  Li4  1  0.33335223  0.66668471  0.40173386  1
  Li  Li5  1  0.33331584  0.66664890  0.90173554  1
  Li  Li6  1  0.31819707  0.31819718  0.76601135  1
  Li  Li7  1  0.38016682  0.38016692  0.13047153  1
  Li  Li8  1  0.61983351  0.61983365  0.63046851  1
  Li  Li9  1  0.31808937  -0.00009791  0.26600745  1
  Li  Li10  1  0.68180358  0.68180354  0.26601057  1
  Li  Li11  1  0.38016958  0.00001484  0.63047560  1
  Li  Li12  1  0.66664883  0.33331578  0.90173555  1
  Li  Li13  1  0.66668581  0.33335348  0.40173490  1
  Li  Li14  1  0.61983124  -0.00001563  0.13047752  1
  Li  Li15  1  0.68190880  0.00009753  0.76600775  1
  Ti  Ti16  1  -0.00000758  -0.00000887  0.99838446  1
  Ti  Ti17  1  0.00000848  0.00000790  0.49837930  1
  S  S18  1  -0.00000793  0.68545428  0.95022843  1
  S  S19  1  0.00000800  0.31454307  0.45022534  1
  S  S20  1  0.33331868  0.66665039  0.21642270  1
  S  S21  1  -0.00001187  -0.00001190  0.17083086  1
  S  S22  1  0.00001202  0.00001194  0.67082695  1
  S  S23  1  0.33334885  0.66668082  0.71642248  1
  S  S24  1  0.31454317  0.31454300  0.95022909  1
  S  S25  1  0.31454332  0.00000819  0.45022546  1
  S  S26  1  0.68545940  0.68545947  0.45022605  1
  S  S27  1  0.66668070  0.33334889  0.71642245  1
  S  S28  1  0.66665068  0.33331899  0.21642269  1
  S  S29  1  0.68545414  -0.00000823  0.95022837  1
