# generated using pymatgen
data_Fe2O3
_symmetry_space_group_name_H-M   'P 1'
_cell_length_a   8.09470828
_cell_length_b   8.09740431
_cell_length_c   8.09084063
_cell_angle_alpha   71.21244636
_cell_angle_beta   109.58068467
_cell_angle_gamma   70.11662549
_symmetry_Int_Tables_number   1
_chemical_formula_structural   Fe2O3
_chemical_formula_sum   'Fe16 O24'
_cell_volume   409.02754945
_cell_formula_units_Z   8
loop_
 _symmetry_equiv_pos_site_id
 _symmetry_equiv_pos_as_xyz
  1  'x, y, z'
loop_
 _atom_site_type_symbol
 _atom_site_label
 _atom_site_symmetry_multiplicity
 _atom_site_fract_x
 _atom_site_fract_y
 _atom_site_fract_z
 _atom_site_occupancy
  Fe  Fe0  1  0.78221751  0.97167969  0.24950866  1
  Fe  Fe1  1  0.46749738  0.75193281  0.21810672  1
  Fe  Fe2  1  0.21639041  0.03264030  0.75222294  1
  Fe  Fe3  1  0.24803561  0.77927155  0.47133303  1
  Fe  Fe4  1  0.28657787  0.46632881  0.24968746  1
  Fe  Fe5  1  0.75188635  0.21930420  0.53335939  1
  Fe  Fe6  1  0.24687011  0.28398320  0.96724889  1
  Fe  Fe7  1  0.74919534  0.72074011  0.03021320  1
  Fe  Fe8  1  0.71782847  0.53294575  0.74843959  1
  Fe  Fe9  1  0.03821038  0.24850104  0.28447761  1
  Fe  Fe10  1  0.96595760  0.74885477  0.71705037  1
  Fe  Fe11  1  0.53172406  0.25216403  0.78089957  1
  Fe  Fe12  1  0.99834121  0.50044933  0.49413981  1
  Fe  Fe13  1  0.00132947  0.99686001  0.00209902  1
  Fe  Fe14  1  0.50348590  0.49871829  0.00189662  1
  Fe  Fe15  1  0.50034775  0.99783535  0.50123513  1
  O  O16  1  0.98414918  0.04910940  0.22929448  1
  O  O17  1  0.22066828  0.73069454  0.23243822  1
  O  O18  1  0.73597832  0.77721146  0.77524166  1
  O  O19  1  0.72217341  0.00891247  0.45203829  1
  O  O20  1  0.22992168  0.03863393  0.01157818  1
  O  O21  1  0.95059883  0.27580952  0.48665133  1
  O  O22  1  0.55044733  0.46237361  0.27037804  1
  O  O23  1  0.46069536  0.77151573  0.95181225  1
  O  O24  1  0.76142659  0.96445237  0.98648652  1
  O  O25  1  0.04176129  0.50919310  0.26729285  1
  O  O26  1  0.22257466  0.54769142  0.96596846  1
  O  O27  1  0.48545314  0.24379998  0.53229602  1
  O  O28  1  0.27646029  0.98869990  0.54831884  1
  O  O29  1  0.51444762  0.75785755  0.46464807  1
  O  O30  1  0.77371465  0.27433821  0.75911290  1
  O  O31  1  0.44908250  0.53922870  0.72350348  1
  O  O32  1  0.53829122  0.23010432  0.04713685  1
  O  O33  1  0.96586658  0.48454985  0.74057801  1
  O  O34  1  0.77702212  0.45663825  0.03497324  1
  O  O35  1  0.27756403  0.25577902  0.73060520  1
  O  O36  1  0.04995493  0.72263734  0.51504824  1
  O  O37  1  0.72883488  0.73513747  0.27602539  1
  O  O38  1  0.01195674  0.95204552  0.76990072  1
  O  O39  1  0.26506096  0.22137112  0.22675573  1
