# generated using pymatgen
data_Rb3LuO3
_symmetry_space_group_name_H-M   'P 1'
_cell_length_a   7.24481456
_cell_length_b   7.71862640
_cell_length_c   11.54512992
_cell_angle_alpha   86.07086219
_cell_angle_beta   90.00190102
_cell_angle_gamma   89.99082527
_symmetry_Int_Tables_number   1
_chemical_formula_structural   Rb3LuO3
_chemical_formula_sum   'Rb12 Lu4 O12'
_cell_volume   644.08639852
_cell_formula_units_Z   4
loop_
 _symmetry_equiv_pos_site_id
 _symmetry_equiv_pos_as_xyz
  1  'x, y, z'
loop_
 _atom_site_type_symbol
 _atom_site_label
 _atom_site_symmetry_multiplicity
 _atom_site_fract_x
 _atom_site_fract_y
 _atom_site_fract_z
 _atom_site_occupancy
  Rb  Rb0  1  0.33610719  0.35862414  0.07796176  1
  Rb  Rb1  1  0.62195499  0.93368843  0.15707249  1
  Rb  Rb2  1  0.80497828  0.37539563  0.18978576  1
  Rb  Rb3  1  0.30498683  0.62459774  0.31022359  1
  Rb  Rb4  1  0.12217242  0.06632006  0.34299890  1
  Rb  Rb5  1  0.83621911  0.64140724  0.42203511  1
  Rb  Rb6  1  0.16378089  0.35859276  0.57796489  1
  Rb  Rb7  1  0.87782758  0.93367994  0.65700110  1
  Rb  Rb8  1  0.69501317  0.37540226  0.68977641  1
  Rb  Rb9  1  0.19502172  0.62460437  0.81021424  1
  Rb  Rb10  1  0.37804501  0.06631157  0.84292751  1
  Rb  Rb11  1  0.66389281  0.64137586  0.92203824  1
  Lu  Lu12  1  0.08796799  0.84154453  0.06836639  1
  Lu  Lu13  1  0.58797214  0.15847686  0.43160733  1
  Lu  Lu14  1  0.41202786  0.84152314  0.56839267  1
  Lu  Lu15  1  0.91203201  0.15845547  0.93163361  1
  O  O16  1  0.34972598  0.74707395  0.04625267  1
  O  O17  1  0.05112377  0.11083612  0.09212375  1
  O  O18  1  0.94503749  0.69874900  0.19288514  1
  O  O19  1  0.44492583  0.30122189  0.30710780  1
  O  O20  1  0.55115662  0.88911465  0.40788504  1
  O  O21  1  0.84973974  0.25295815  0.45382637  1
  O  O22  1  0.15026026  0.74704185  0.54617363  1
  O  O23  1  0.44884338  0.11088535  0.59211496  1
  O  O24  1  0.55507417  0.69877811  0.69289220  1
  O  O25  1  0.05496251  0.30125100  0.80711486  1
  O  O26  1  0.94887623  0.88916388  0.90787625  1
  O  O27  1  0.65027402  0.25292605  0.95374733  1
