# generated using pymatgen
data_Hf2N2O
_symmetry_space_group_name_H-M   'P 1'
_cell_length_a   8.66571353
_cell_length_b   8.67855104
_cell_length_c   8.66291604
_cell_angle_alpha   109.28511801
_cell_angle_beta   109.43053440
_cell_angle_gamma   109.58379954
_symmetry_Int_Tables_number   1
_chemical_formula_structural   Hf2N2O
_chemical_formula_sum   'Hf16 N16 O8'
_cell_volume   502.22945912
_cell_formula_units_Z   8
loop_
 _symmetry_equiv_pos_site_id
 _symmetry_equiv_pos_as_xyz
  1  'x, y, z'
loop_
 _atom_site_type_symbol
 _atom_site_label
 _atom_site_symmetry_multiplicity
 _atom_site_fract_x
 _atom_site_fract_y
 _atom_site_fract_z
 _atom_site_occupancy
  Hf  Hf0  1  0.75186812  0.96772716  0.20829936  1
  Hf  Hf1  1  0.99565711  0.98866971  0.99014413  1
  Hf  Hf2  1  0.02969587  0.77554522  0.24389218  1
  Hf  Hf3  1  0.52813626  0.27866053  0.25348566  1
  Hf  Hf4  1  0.50208177  0.50249749  0.00303189  1
  Hf  Hf5  1  0.48965003  0.99177686  0.48918161  1
  Hf  Hf6  1  0.25850816  0.54127835  0.28916490  1
  Hf  Hf7  1  0.29651123  0.26614799  0.54695325  1
  Hf  Hf8  1  0.71268307  0.74655699  0.46207703  1
  Hf  Hf9  1  0.78533293  0.25107167  0.04386235  1
  Hf  Hf10  1  0.20688918  0.74777590  0.96055781  1
  Hf  Hf11  1  0.74994753  0.46276339  0.71606716  1
  Hf  Hf12  1  0.00962647  0.49897402  0.50085729  1
  Hf  Hf13  1  0.97303684  0.21685708  0.75027969  1
  Hf  Hf14  1  0.46636987  0.71662026  0.74413161  1
  Hf  Hf15  1  0.24107903  0.02797399  0.78654291  1
  N  N16  1  0.73166801  0.96865344  0.96088444  1
  N  N17  1  0.75697064  0.22613754  0.27434942  1
  N  N18  1  0.45236661  0.48168349  0.22471722  1
  N  N19  1  0.77220467  0.73475004  0.24165284  1
  N  N20  1  0.49307679  0.22904178  0.46045495  1
  N  N21  1  0.22889248  0.27087829  0.76372906  1
  N  N22  1  0.98613064  0.53145242  0.25657947  1
  N  N23  1  0.51305962  0.77703219  0.54533569  1
  N  N24  1  0.95329750  0.72925701  0.96744260  1
  N  N25  1  0.54842908  0.51515260  0.77842700  1
  N  N26  1  0.22477657  0.44944598  0.48400517  1
  N  N27  1  0.27945565  0.76739238  0.22825036  1
  N  N28  1  0.96157049  0.95050257  0.72574378  1
  N  N29  1  0.24033186  0.77311835  0.72460104  1
  N  N30  1  0.00645934  0.46282307  0.73733406  1
  N  N31  1  0.27239692  0.03746557  0.04303360  1
  O  O32  1  0.53925030  0.26432132  0.98359044  1
  O  O33  1  0.73898318  0.01672782  0.46967145  1
  O  O34  1  0.04127119  0.27320620  0.02762166  1
  O  O35  1  0.72483430  0.23501527  0.77516026  1
  O  O36  1  0.77297963  0.54959563  0.51636671  1
  O  O37  1  0.03709077  0.04794223  0.27641001  1
  O  O38  1  0.46611348  0.73920688  0.01458866  1
  O  O39  1  0.26131578  0.98830232  0.53151828  1
