# generated using pymatgen
data_LiCrSnO4
_symmetry_space_group_name_H-M   'P 1'
_cell_length_a   5.93697079
_cell_length_b   6.22117005
_cell_length_c   8.53263922
_cell_angle_alpha   89.99999553
_cell_angle_beta   90.00010214
_cell_angle_gamma   89.99998099
_symmetry_Int_Tables_number   1
_chemical_formula_structural   LiCrSnO4
_chemical_formula_sum   'Li4 Cr4 Sn4 O16'
_cell_volume   315.15221784
_cell_formula_units_Z   4
loop_
 _symmetry_equiv_pos_site_id
 _symmetry_equiv_pos_as_xyz
  1  'x, y, z'
loop_
 _atom_site_type_symbol
 _atom_site_label
 _atom_site_symmetry_multiplicity
 _atom_site_fract_x
 _atom_site_fract_y
 _atom_site_fract_z
 _atom_site_occupancy
  Li  Li0  1  0.00000588  0.25000078  0.12659410  1
  Li  Li1  1  0.49998643  0.75000079  0.62660953  1
  Li  Li2  1  0.99999603  0.75000144  0.87339037  1
  Li  Li3  1  0.50000401  0.25000071  0.37340475  1
  Cr  Cr4  1  0.75000156  0.24999848  0.74999999  1
  Cr  Cr5  1  0.25000041  0.24999645  0.74999910  1
  Cr  Cr6  1  0.25000024  0.74999926  0.24999830  1
  Cr  Cr7  1  0.74999870  0.74999667  0.24999982  1
  Sn  Sn8  1  0.00000190  0.49997954  0.50001386  1
  Sn  Sn9  1  0.50000226  0.00002158  -0.00000552  1
  Sn  Sn10  1  0.99999830  0.00002365  0.50000676  1
  Sn  Sn11  1  0.49999847  0.49998142  -0.00001342  1
  O  O12  1  0.00000052  0.53216495  0.25957485  1
  O  O13  1  0.50000253  0.03215356  0.75958846  1
  O  O14  1  0.99999864  0.96783369  0.25956905  1
  O  O15  1  0.50000035  0.46784331  0.75958170  1
  O  O16  1  0.00000060  0.03215353  0.74041220  1
  O  O17  1  0.49999770  0.53216509  0.24042422  1
  O  O18  1  0.00000240  0.46784360  0.74041784  1
  O  O19  1  0.49999991  0.96783422  0.24043094  1
  O  O20  1  0.23392474  0.75000224  0.48711573  1
  O  O21  1  0.73390264  0.25000215  0.98712185  1
  O  O22  1  0.76607416  0.74999990  0.48711723  1
  O  O23  1  0.26609778  0.25000012  0.98712090  1
  O  O24  1  0.76609998  0.25000201  0.51287959  1
  O  O25  1  0.26607555  0.75000229  0.01288285  1
  O  O26  1  0.23390235  0.24999997  0.51287890  1
  O  O27  1  0.73392494  0.74999960  0.01288407  1
