# generated using pymatgen
data_GdErO3
_symmetry_space_group_name_H-M   'P 1'
_cell_length_a   9.20397404
_cell_length_b   9.20519626
_cell_length_c   10.62369703
_cell_angle_alpha   54.72360345
_cell_angle_beta   54.73550363
_cell_angle_gamma   70.51267689
_symmetry_Int_Tables_number   1
_chemical_formula_structural   GdErO3
_chemical_formula_sum   'Gd8 Er8 O24'
_cell_volume   599.96774346
_cell_formula_units_Z   8
loop_
 _symmetry_equiv_pos_site_id
 _symmetry_equiv_pos_as_xyz
  1  'x, y, z'
loop_
 _atom_site_type_symbol
 _atom_site_label
 _atom_site_symmetry_multiplicity
 _atom_site_fract_x
 _atom_site_fract_y
 _atom_site_fract_z
 _atom_site_occupancy
  Gd  Gd0  1  0.50148885  0.50142895  0.74917606  1
  Gd  Gd1  1  0.52993538  0.03095390  0.97008666  1
  Gd  Gd2  1  0.96923566  0.47019865  0.02977395  1
  Gd  Gd3  1  0.27996870  0.72005301  0.49997759  1
  Gd  Gd4  1  0.78127275  0.21817059  0.50012166  1
  Gd  Gd5  1  0.99624763  0.99813983  0.24980083  1
  Gd  Gd6  1  0.49851446  0.49835609  0.25097773  1
  Gd  Gd7  1  0.00196318  0.00379352  0.75011862  1
  Er  Er8  1  0.24819888  0.24876617  0.78166077  1
  Er  Er9  1  0.25092791  0.25176853  0.28192406  1
  Er  Er10  1  0.75135718  0.75182204  0.21826721  1
  Er  Er11  1  0.21884940  0.78113167  -0.00001602  1
  Er  Er12  1  0.71722271  0.28274055  0.00000569  1
  Er  Er13  1  0.03065877  0.53144320  0.46850373  1
  Er  Er14  1  0.46830660  0.96931506  0.53163355  1
  Er  Er15  1  0.74824509  0.74878544  0.71817236  1
  O  O16  1  0.73022601  0.47557324  0.29090042  1
  O  O17  1  0.52428727  0.27005650  0.70932881  1
  O  O18  1  0.77453968  0.48633489  0.71960407  1
  O  O19  1  0.26836085  0.98599933  0.01979016  1
  O  O20  1  0.99137409  0.27499259  0.51896431  1
  O  O21  1  0.49142101  0.76873629  0.22076421  1
  O  O22  1  0.77017633  0.03040513  0.99617008  1
  O  O23  1  0.96956483  0.23006400  0.00361405  1
  O  O24  1  0.04777587  0.23825200  0.23755841  1
  O  O25  1  0.25248906  0.45296324  0.52556102  1
  O  O26  1  0.54712411  0.74770595  0.47432350  1
  O  O27  1  0.76221199  0.95279620  0.76171354  1
  O  O28  1  0.95814007  0.75300411  0.26284202  1
  O  O29  1  0.45811705  0.26203000  0.02414793  1
  O  O30  1  0.24677613  0.04189252  0.73719135  1
  O  O31  1  0.73779113  0.54202687  0.97593381  1
  O  O32  1  0.23169763  0.97564414  0.50618060  1
  O  O33  1  0.02434831  0.76801490  0.49403938  1
  O  O34  1  0.01391793  0.73190486  0.98000073  1
  O  O35  1  0.51376717  0.22537748  0.28041601  1
  O  O36  1  0.72466868  0.00852028  0.48143618  1
  O  O37  1  0.23119770  0.50864460  0.77919009  1
  O  O38  1  0.26840503  0.53065223  0.20703103  1
  O  O39  1  0.46925191  0.73151943  0.79311184  1
