# generated using pymatgen
data_LaMg2H7
_symmetry_space_group_name_H-M   'P 1'
_cell_length_a   6.33773359
_cell_length_b   6.33773359
_cell_length_c   9.53622980
_cell_angle_alpha   90.00000000
_cell_angle_beta   90.00000000
_cell_angle_gamma   90.00000000
_symmetry_Int_Tables_number   1
_chemical_formula_structural   LaMg2H7
_chemical_formula_sum   'La4 Mg8 H28'
_cell_volume   383.04047461
_cell_formula_units_Z   4
loop_
 _symmetry_equiv_pos_site_id
 _symmetry_equiv_pos_as_xyz
  1  'x, y, z'
loop_
 _atom_site_type_symbol
 _atom_site_label
 _atom_site_symmetry_multiplicity
 _atom_site_fract_x
 _atom_site_fract_y
 _atom_site_fract_z
 _atom_site_occupancy
  La  La0  1  0.77077018  0.22922982  0.75000000  1
  La  La1  1  0.22922982  0.77077018  0.25000000  1
  La  La2  1  0.72922982  0.72922982  0.50000000  1
  La  La3  1  0.27077018  0.27077018  -0.00000000  1
  Mg  Mg4  1  0.52397345  0.23751680  0.39728218  1
  Mg  Mg5  1  0.47602655  0.76248320  0.89728218  1
  Mg  Mg6  1  0.73751680  0.97602655  0.14728218  1
  Mg  Mg7  1  0.26248320  0.02397345  0.64728218  1
  Mg  Mg8  1  0.76248320  0.47602655  0.10271782  1
  Mg  Mg9  1  0.23751680  0.52397345  0.60271782  1
  Mg  Mg10  1  0.97602655  0.73751680  0.85271782  1
  Mg  Mg11  1  0.02397345  0.26248320  0.35271782  1
  H  H12  1  0.53234457  0.46808624  0.62133077  1
  H  H13  1  0.46765543  0.53191376  0.12133077  1
  H  H14  1  0.96808624  0.96765543  0.37133077  1
  H  H15  1  0.03191376  0.03234457  0.87133077  1
  H  H16  1  0.53191376  0.46765543  0.87866923  1
  H  H17  1  0.46808624  0.53234457  0.37866923  1
  H  H18  1  0.96765543  0.96808624  0.62866923  1
  H  H19  1  0.03234457  0.03191376  0.12866923  1
  H  H20  1  0.56823312  0.06481681  0.57127083  1
  H  H21  1  0.43176688  0.93518319  0.07127083  1
  H  H22  1  0.56481681  0.93176688  0.32127083  1
  H  H23  1  0.43518319  0.06823312  0.82127083  1
  H  H24  1  0.93518319  0.43176688  0.92872917  1
  H  H25  1  0.06481681  0.56823312  0.42872917  1
  H  H26  1  0.93176688  0.56481681  0.67872917  1
  H  H27  1  0.06823312  0.43518319  0.17872917  1
  H  H28  1  0.80114884  0.33626153  0.49396394  1
  H  H29  1  0.19885116  0.66373847  0.99396394  1
  H  H30  1  0.83626153  0.69885116  0.24396394  1
  H  H31  1  0.16373847  0.30114884  0.74396394  1
  H  H32  1  0.66373847  0.19885116  0.00603606  1
  H  H33  1  0.33626153  0.80114884  0.50603606  1
  H  H34  1  0.69885116  0.83626153  0.75603606  1
  H  H35  1  0.30114884  0.16373847  0.25603606  1
  H  H36  1  0.25804665  0.74195335  0.75000000  1
  H  H37  1  0.74195335  0.25804665  0.25000000  1
  H  H38  1  0.24195335  0.24195335  0.50000000  1
  H  H39  1  0.75804665  0.75804665  -0.00000000  1
