# generated using pymatgen
data_Cs4GeO4
_symmetry_space_group_name_H-M   'P 1'
_cell_length_a   19.09958205
_cell_length_b   7.14090987
_cell_length_c   7.12764343
_cell_angle_alpha   65.52818820
_cell_angle_beta   90.00000000
_cell_angle_gamma   90.00000000
_symmetry_Int_Tables_number   1
_chemical_formula_structural   Cs4GeO4
_chemical_formula_sum   'Cs16 Ge4 O16'
_cell_volume   884.79691141
_cell_formula_units_Z   4
loop_
 _symmetry_equiv_pos_site_id
 _symmetry_equiv_pos_as_xyz
  1  'x, y, z'
loop_
 _atom_site_type_symbol
 _atom_site_label
 _atom_site_symmetry_multiplicity
 _atom_site_fract_x
 _atom_site_fract_y
 _atom_site_fract_z
 _atom_site_occupancy
  Cs  Cs0  1  0.81346334  0.84069477  0.70903567  1
  Cs  Cs1  1  0.01310874  0.78411371  0.78232043  1
  Cs  Cs2  1  0.21001380  0.66760837  0.80578253  1
  Cs  Cs3  1  0.42663538  0.66741495  0.80994660  1
  Cs  Cs4  1  0.68653666  0.84069477  0.20903567  1
  Cs  Cs5  1  0.48689126  0.78411371  0.28232043  1
  Cs  Cs6  1  0.28998620  0.66760837  0.30578253  1
  Cs  Cs7  1  0.07336462  0.66741495  0.30994660  1
  Cs  Cs8  1  0.92663538  0.33258505  0.69005340  1
  Cs  Cs9  1  0.71001380  0.33239163  0.69421747  1
  Cs  Cs10  1  0.51310874  0.21588629  0.71767957  1
  Cs  Cs11  1  0.31346334  0.15930523  0.79096433  1
  Cs  Cs12  1  0.57336462  0.33258505  0.19005340  1
  Cs  Cs13  1  0.78998620  0.33239163  0.19421747  1
  Cs  Cs14  1  0.98689126  0.21588629  0.21767957  1
  Cs  Cs15  1  0.18653666  0.15930523  0.29096433  1
  Ge  Ge16  1  0.62413847  0.76026944  0.75112849  1
  Ge  Ge17  1  0.87586153  0.76026944  0.25112849  1
  Ge  Ge18  1  0.12413847  0.23973056  0.74887151  1
  Ge  Ge19  1  0.37586153  0.23973056  0.24887151  1
  O  O20  1  0.65708384  0.00054994  0.56963873  1
  O  O21  1  0.56241959  0.79444202  0.92260831  1
  O  O22  1  0.84291616  0.00054994  0.06963873  1
  O  O23  1  0.93758041  0.79444202  0.42260831  1
  O  O24  1  0.69257447  0.60320761  0.91309865  1
  O  O25  1  0.58502489  0.61469052  0.62650663  1
  O  O26  1  0.08502489  0.38530948  0.87349337  1
  O  O27  1  0.80742553  0.60320761  0.41309865  1
  O  O28  1  0.19257447  0.39679239  0.58690135  1
  O  O29  1  0.91497511  0.61469052  0.12650663  1
  O  O30  1  0.41497511  0.38530948  0.37349337  1
  O  O31  1  0.30742553  0.39679239  0.08690135  1
  O  O32  1  0.06241959  0.20555798  0.57739169  1
  O  O33  1  0.15708384  0.99945006  0.93036127  1
  O  O34  1  0.43758041  0.20555798  0.07739169  1
  O  O35  1  0.34291616  0.99945006  0.43036127  1
