# generated using pymatgen
data_LiNiPO4
_symmetry_space_group_name_H-M   'P 1'
_cell_length_a   9.93612100
_cell_length_b   9.95946341
_cell_length_c   17.22362729
_cell_angle_alpha   73.40256503
_cell_angle_beta   73.33251031
_cell_angle_gamma   60.10791270
_symmetry_Int_Tables_number   1
_chemical_formula_structural   LiNiPO4
_chemical_formula_sum   'Li16 Ni16 P16 O64'
_cell_volume   1394.53959231
_cell_formula_units_Z   16
loop_
 _symmetry_equiv_pos_site_id
 _symmetry_equiv_pos_as_xyz
  1  'x, y, z'
loop_
 _atom_site_type_symbol
 _atom_site_label
 _atom_site_symmetry_multiplicity
 _atom_site_fract_x
 _atom_site_fract_y
 _atom_site_fract_z
 _atom_site_occupancy
  Li  Li0  1  0.37867500  0.32126300  0.06263600  1
  Li  Li1  1  0.87667900  0.81905900  0.06252400  1
  Li  Li2  1  0.13295300  0.55280900  0.31363900  1
  Li  Li3  1  0.05998700  0.48836200  0.81373300  1
  Li  Li4  1  0.23967800  0.82214000  0.56236300  1
  Li  Li5  1  0.23864400  0.32016600  0.56190700  1
  Li  Li6  1  0.74097900  0.87805300  0.56193500  1
  Li  Li7  1  0.55838300  0.99615400  0.81420100  1
  Li  Li8  1  0.63509000  0.98980700  0.31361400  1
  Li  Li9  1  0.12524100  0.06087400  0.31438800  1
  Li  Li10  1  0.49992200  0.56198800  0.81313300  1
  Li  Li11  1  0.74093800  0.37814200  0.56404300  1
  Li  Li12  1  0.00346400  0.05098200  0.81405600  1
  Li  Li13  1  0.31662900  0.87714100  0.06466500  1
  Li  Li14  1  0.63072500  0.49684900  0.31532900  1
  Li  Li15  1  0.82036600  0.37810100  0.06327800  1
  Ni  Ni16  1  0.75898000  0.67681400  0.43956300  1
  Ni  Ni17  1  0.26164500  0.12194300  0.43837100  1
  Ni  Ni18  1  0.62419300  0.67293300  0.93938900  1
  Ni  Ni19  1  0.87180400  0.94629400  0.68523900  1
  Ni  Ni20  1  0.26004100  0.62149900  0.43973500  1
  Ni  Ni21  1  0.17875300  0.62139300  0.93850100  1
  Ni  Ni22  1  0.86674300  0.45325400  0.68437300  1
  Ni  Ni23  1  0.12582600  0.17636500  0.94063700  1
  Ni  Ni24  1  0.37013900  0.49707800  0.68414700  1
  Ni  Ni25  1  0.99587400  0.95321500  0.18525800  1
  Ni  Ni26  1  0.76460700  0.17381600  0.43935800  1
  Ni  Ni27  1  0.94675200  0.50073300  0.18620800  1
  Ni  Ni28  1  0.36676100  0.00089800  0.68527300  1
  Ni  Ni29  1  0.49527600  0.44919700  0.18416300  1
  Ni  Ni30  1  0.44828700  0.99828800  0.18440100  1
  Ni  Ni31  1  0.67961800  0.12081000  0.93895300  1
  P  P32  1  0.37070900  0.31604800  0.87382200  1
  P  P33  1  0.81657800  0.36685900  0.87459900  1
  P  P34  1  0.31421300  0.87127400  0.87637100  1
  P  P35  1  0.12699700  0.18433000  0.12974900  1
  P  P36  1  0.06144500  0.12794200  0.62732800  1
  P  P37  1  0.68371100  0.12721100  0.12721500  1
  P  P38  1  0.43857000  0.81694200  0.37352700  1
  P  P39  1  0.56308700  0.18112600  0.62770500  1
  P  P40  1  0.94282500  0.86788200  0.37471500  1
  P  P41  1  0.62801900  0.68090700  0.12891300  1
  P  P42  1  0.06391200  0.62548700  0.62699200  1
  P  P43  1  0.56092900  0.68454000  0.62861900  1
  P  P44  1  0.94065100  0.37171600  0.37611100  1
  P  P45  1  0.18076400  0.62921400  0.12724500  1
  P  P46  1  0.44256800  0.31405400  0.37387700  1
  P  P47  1  0.86999300  0.81249400  0.87395800  1
  O  O48  1  0.37409000  0.42001400  0.29512300  1
  O  O49  1  0.86367500  0.42286500  0.29901500  1
  O  O50  1  0.55058700  0.34702300  0.61629300  1
  O  O51  1  0.32532800  0.39251200  0.95106200  1
  O  O52  1  0.60809500  0.79690000  0.36202700  1
  O  O53  1  0.60833300  0.30095900  0.36558800  1
  O  O54  1  0.39709100  0.82658300  0.95089900  1
  O  O55  1  0.04421700  0.49166200  0.61055600  1
  O  O56  1  0.72774700  0.79787700  0.86360100  1
  O  O57  1  0.13974600  0.57200900  0.70466000  1
  O  O58  1  0.01112500  0.64631400  0.88650800  1
  O  O59  1  0.33085300  0.89302200  0.45087300  1
  O  O60  1  0.44888200  0.65194400  0.38415100  1
  O  O61  1  0.58788200  0.56896100  0.20411600  1
  O  O62  1  0.16859100  0.10482400  0.05464600  1
  O  O63  1  0.63433800  0.58057000  0.70625500  1
  O  O64  1  0.10727700  0.72360300  0.36431900  1
  O  O65  1  0.91176000  0.91924900  0.79598500  1
  O  O66  1  0.60413900  0.16898700  0.05206600  1
  O  O67  1  0.83043200  0.32469000  0.45099500  1
  O  O68  1  0.87352100  0.91527700  0.29523900  1
  O  O69  1  0.85285400  0.99125800  0.11227500  1
  O  O70  1  0.89983300  0.77022400  0.63927800  1
  O  O71  1  0.39606300  0.19470900  0.63957400  1
  O  O72  1  0.27071800  0.19538600  0.14092000  1
  O  O73  1  0.63974000  0.07060600  0.70352100  1
  O  O74  1  0.10720200  0.23073900  0.36231100  1
  O  O75  1  0.08097600  0.07942000  0.20721200  1
  O  O76  1  0.48537200  0.84630500  0.11782700  1
  O  O77  1  0.07991600  0.57900400  0.20564500  1
  O  O78  1  0.14570100  0.00815700  0.89216900  1
  O  O79  1  0.18799900  0.77355900  0.14010000  1
  O  O80  1  0.91692400  0.41403500  0.79486900  1
  O  O81  1  0.36191200  0.93013000  0.29847400  1
  O  O82  1  0.45583900  0.14763000  0.38638700  1
  O  O83  1  0.82828300  0.89298400  0.94917200  1
  O  O84  1  0.54521600  0.85252900  0.61472600  1
  O  O85  1  0.17392000  0.16888900  0.55224500  1
  O  O86  1  0.98766600  0.35146200  0.11609800  1
  O  O87  1  0.17781900  0.66782300  0.55302000  1
  O  O88  1  0.39578400  0.69363700  0.63986000  1
  O  O89  1  0.64735900  0.50310000  0.89011000  1
  O  O90  1  0.04336100  0.99223100  0.61154400  1
  O  O91  1  0.23181900  0.29722200  0.86215200  1
  O  O92  1  0.69096200  0.27185800  0.13955500  1
  O  O93  1  0.32595400  0.39489100  0.44844000  1
  O  O94  1  0.58102700  0.07646100  0.20432400  1
  O  O95  1  0.67186500  0.60639200  0.05152200  1
  O  O96  1  0.67161900  0.10598100  0.55072700  1
  O  O97  1  0.10159100  0.66924000  0.05232400  1
  O  O98  1  0.96015400  0.00362400  0.39070300  1
  O  O99  1  0.80743900  0.22174500  0.86486100  1
  O  O100  1  0.41068500  0.42802800  0.79856100  1
  O  O101  1  0.89945200  0.32965100  0.94803400  1
  O  O102  1  0.41588500  0.92091000  0.79841300  1
  O  O103  1  0.82521300  0.82881000  0.44819600  1
  O  O104  1  0.30242600  0.72888200  0.86424800  1
  O  O105  1  0.67434800  0.60494500  0.55369300  1
  O  O106  1  0.95632800  0.50836800  0.39204900  1
  O  O107  1  0.51327100  0.15046400  0.88548200  1
  O  O108  1  0.76919800  0.69497700  0.14110100  1
  O  O109  1  0.34983200  0.49349100  0.11151100  1
  O  O110  1  0.89719900  0.27237800  0.64083500  1
  O  O111  1  0.13616600  0.07599600  0.70539800  1
