# generated using pymatgen
data_Li3As
_symmetry_space_group_name_H-M   'P 1'
_cell_length_a   4.34147100
_cell_length_b   4.34147196
_cell_length_c   7.74560900
_cell_angle_alpha   90.00000000
_cell_angle_beta   90.00000000
_cell_angle_gamma   120.00000028
_symmetry_Int_Tables_number   1
_chemical_formula_structural   Li3As
_chemical_formula_sum   'Li6 As2'
_cell_volume   126.43290178
_cell_formula_units_Z   2
loop_
 _symmetry_equiv_pos_site_id
 _symmetry_equiv_pos_as_xyz
  1  'x, y, z'
loop_
 _atom_site_type_symbol
 _atom_site_label
 _atom_site_symmetry_multiplicity
 _atom_site_fract_x
 _atom_site_fract_y
 _atom_site_fract_z
 _atom_site_occupancy
  Li  Li0  1  0.00000000  0.00000000  0.25000000  1
  Li  Li1  1  0.00000000  0.00000000  0.75000000  1
  Li  Li2  1  0.33333300  0.66666700  0.58521500  1
  Li  Li3  1  0.66666700  0.33333300  0.08521500  1
  Li  Li4  1  0.66666700  0.33333300  0.41478500  1
  Li  Li5  1  0.33333300  0.66666700  0.91478500  1
  As  As6  1  0.33333300  0.66666700  0.25000000  1
  As  As7  1  0.66666700  0.33333300  0.75000000  1
