# generated using pymatgen
data_TbCrO3
_symmetry_space_group_name_H-M   'P 1'
_cell_length_a   5.25593727
_cell_length_b   5.54415288
_cell_length_c   7.56498891
_cell_angle_alpha   90.00000000
_cell_angle_beta   90.00000000
_cell_angle_gamma   90.00000000
_symmetry_Int_Tables_number   1
_chemical_formula_structural   TbCrO3
_chemical_formula_sum   'Tb4 Cr4 O12'
_cell_volume   220.44165677
_cell_formula_units_Z   4
loop_
 _symmetry_equiv_pos_site_id
 _symmetry_equiv_pos_as_xyz
  1  'x, y, z'
loop_
 _atom_site_type_symbol
 _atom_site_label
 _atom_site_symmetry_multiplicity
 _atom_site_fract_x
 _atom_site_fract_y
 _atom_site_fract_z
 _atom_site_occupancy
  Tb  Tb0  1  0.51827099  0.56701858  0.25000000  1
  Tb  Tb1  1  0.98172901  0.06701858  0.25000000  1
  Tb  Tb2  1  0.48172901  0.43298142  0.75000000  1
  Tb  Tb3  1  0.01827099  0.93298142  0.75000000  1
  Cr  Cr4  1  0.50000000  0.00000000  -0.00000000  1
  Cr  Cr5  1  -0.00000000  0.50000000  0.50000000  1
  Cr  Cr6  1  0.50000000  0.00000000  0.50000000  1
  Cr  Cr7  1  -0.00000000  0.50000000  -0.00000000  1
  O  O8  1  0.39433317  0.96576476  0.25000000  1
  O  O9  1  0.10566683  0.46576476  0.25000000  1
  O  O10  1  0.60566683  0.03423524  0.75000000  1
  O  O11  1  0.89433317  0.53423524  0.75000000  1
  O  O12  1  0.80579437  0.80144035  0.05430265  1
  O  O13  1  0.69420563  0.30144035  0.44569735  1
  O  O14  1  0.19420563  0.19855965  0.55430265  1
  O  O15  1  0.30579437  0.69855965  0.94569735  1
  O  O16  1  0.19420563  0.19855965  0.94569735  1
  O  O17  1  0.30579437  0.69855965  0.55430265  1
  O  O18  1  0.80579437  0.80144035  0.44569735  1
  O  O19  1  0.69420563  0.30144035  0.05430265  1
