# generated using pymatgen
data_RbInBP2HO9
_symmetry_space_group_name_H-M   'P 1'
_cell_length_a   5.34312819
_cell_length_b   8.41881146
_cell_length_c   8.42305353
_cell_angle_alpha   87.89338148
_cell_angle_beta   80.03337587
_cell_angle_gamma   86.98010135
_symmetry_Int_Tables_number   1
_chemical_formula_structural   RbInBP2HO9
_chemical_formula_sum   'Rb2 In2 B2 P4 H2 O18'
_cell_volume   372.50905209
_cell_formula_units_Z   2
loop_
 _symmetry_equiv_pos_site_id
 _symmetry_equiv_pos_as_xyz
  1  'x, y, z'
loop_
 _atom_site_type_symbol
 _atom_site_label
 _atom_site_symmetry_multiplicity
 _atom_site_fract_x
 _atom_site_fract_y
 _atom_site_fract_z
 _atom_site_occupancy
  Rb  Rb0  1  0.27661437  0.17194261  0.38165306  1
  Rb  Rb1  1  0.72338563  0.82805739  0.61834694  1
  In  In2  1  0.28202408  0.68901964  0.29359543  1
  In  In3  1  0.71797592  0.31098036  0.70640457  1
  B  B4  1  0.10753978  0.77257655  0.93622501  1
  B  B5  1  0.89246022  0.22742345  0.06377499  1
  P  P6  1  0.19142351  0.08084326  0.80460758  1
  P  P7  1  0.21540801  0.56386879  0.69143895  1
  P  P8  1  0.78459199  0.43613121  0.30856105  1
  P  P9  1  0.80857649  0.91915674  0.19539242  1
  H  H10  1  0.39600882  0.61778433  0.96999732  1
  H  H11  1  0.60399118  0.38221567  0.03000268  1
  O  O12  1  0.02960507  0.90085018  0.28798902  1
  O  O13  1  0.07255476  0.42441292  0.65304399  1
  O  O14  1  0.03647308  0.65907573  0.82618747  1
  O  O15  1  0.28022333  0.69215490  0.03576735  1
  O  O16  1  0.12733166  0.16817665  0.96631400  1
  O  O17  1  0.28106962  0.67802211  0.54656327  1
  O  O18  1  0.24754631  0.90216045  0.84166318  1
  O  O19  1  0.54101913  0.48651443  0.24088246  1
  O  O20  1  0.43661618  0.13882803  0.70844084  1
  O  O21  1  0.56338382  0.86117197  0.29155916  1
  O  O22  1  0.45898087  0.51348557  0.75911754  1
  O  O23  1  0.75245369  0.09783955  0.15833682  1
  O  O24  1  0.71893038  0.32197789  0.45343673  1
  O  O25  1  0.87266834  0.83182335  0.03368600  1
  O  O26  1  0.71977667  0.30784510  0.96423265  1
  O  O27  1  0.96352692  0.34092427  0.17381253  1
  O  O28  1  0.92744524  0.57558708  0.34695601  1
  O  O29  1  0.97039493  0.09914982  0.71201098  1
