# generated using pymatgen
data_Hf2N2O
_symmetry_space_group_name_H-M   'P 1'
_cell_length_a   8.65289637
_cell_length_b   8.66827898
_cell_length_c   8.67710667
_cell_angle_alpha   109.32614285
_cell_angle_beta   109.45911997
_cell_angle_gamma   109.39117679
_symmetry_Int_Tables_number   1
_chemical_formula_structural   Hf2N2O
_chemical_formula_sum   'Hf16 N16 O8'
_cell_volume   502.47211379
_cell_formula_units_Z   8
loop_
 _symmetry_equiv_pos_site_id
 _symmetry_equiv_pos_as_xyz
  1  'x, y, z'
loop_
 _atom_site_type_symbol
 _atom_site_label
 _atom_site_symmetry_multiplicity
 _atom_site_fract_x
 _atom_site_fract_y
 _atom_site_fract_z
 _atom_site_occupancy
  Hf  Hf0  1  0.49580236  0.00246956  0.00756473  1
  Hf  Hf1  1  0.28176174  0.24245745  0.02606868  1
  Hf  Hf2  1  0.24375876  0.02701337  0.28341313  1
  Hf  Hf3  1  0.75107034  0.45700911  0.21333698  1
  Hf  Hf4  1  0.52302567  0.27870723  0.74650068  1
  Hf  Hf5  1  0.03361768  0.78819625  0.75676597  1
  Hf  Hf6  1  0.50577339  0.51298010  0.51604142  1
  Hf  Hf7  1  0.01411123  0.50565433  0.00339142  1
  Hf  Hf8  1  0.79159346  0.25164000  0.53229338  1
  Hf  Hf9  1  0.00123445  0.00821707  0.50054877  1
  Hf  Hf10  1  0.21698363  0.74706261  0.45736863  1
  Hf  Hf11  1  0.46521211  0.71826506  0.24923943  1
  Hf  Hf12  1  0.96525445  0.21755134  0.25472793  1
  Hf  Hf13  1  0.25065175  0.53382444  0.79005247  1
  Hf  Hf14  1  0.75015666  0.96232176  0.70774784  1
  Hf  Hf15  1  0.71453627  0.75114950  0.96597903  1
  N  N16  1  0.27359702  0.03115940  0.54513803  1
  N  N17  1  0.49278111  0.23335406  0.95869823  1
  N  N18  1  0.00802847  0.46359143  0.23519007  1
  N  N19  1  0.03468993  0.04543605  0.77098857  1
  N  N20  1  0.22988198  0.45469410  0.99207354  1
  N  N21  1  0.96544685  0.95311759  0.22214048  1
  N  N22  1  0.46207667  0.73349959  0.51094068  1
  N  N23  1  0.72450252  0.23553378  0.27126971  1
  N  N24  1  0.98739485  0.53288548  0.76122482  1
  N  N25  1  0.77105437  0.72921261  0.73814955  1
  N  N26  1  0.23749895  0.77128771  0.22431158  1
  N  N27  1  0.04791466  0.27333466  0.53147438  1
  N  N28  1  0.45383577  0.48314005  0.72493948  1
  N  N29  1  0.26136000  0.98734809  0.03439720  1
  N  N30  1  0.72754511  0.96873531  0.45738488  1
  N  N31  1  0.51261342  0.77536385  0.04274644  1
  O  O32  1  0.73695054  0.01397263  0.96195908  1
  O  O33  1  0.55153000  0.51226760  0.27953883  1
  O  O34  1  0.75510447  0.22686799  0.77351261  1
  O  O35  1  0.95018840  0.72226315  0.46473157  1
  O  O36  1  0.23297104  0.27571633  0.26357558  1
  O  O37  1  0.77339105  0.54638845  0.01167974  1
  O  O38  1  0.53479861  0.26173564  0.48725966  1
  O  O39  1  0.27030424  0.76457425  0.72564182  1
