# generated using pymatgen
data_Hf2N2O
_symmetry_space_group_name_H-M   'P 1'
_cell_length_a   8.65493571
_cell_length_b   8.66826430
_cell_length_c   8.67608579
_cell_angle_alpha   109.27070322
_cell_angle_beta   109.52923704
_cell_angle_gamma   109.38542402
_symmetry_Int_Tables_number   1
_chemical_formula_structural   Hf2N2O
_chemical_formula_sum   'Hf16 N16 O8'
_cell_volume   502.47434120
_cell_formula_units_Z   8
loop_
 _symmetry_equiv_pos_site_id
 _symmetry_equiv_pos_as_xyz
  1  'x, y, z'
loop_
 _atom_site_type_symbol
 _atom_site_label
 _atom_site_symmetry_multiplicity
 _atom_site_fract_x
 _atom_site_fract_y
 _atom_site_fract_z
 _atom_site_occupancy
  Hf  Hf0  1  0.97100732  0.74865342  0.72545473  1
  Hf  Hf1  1  0.50118682  0.50836407  0.51059610  1
  Hf  Hf2  1  0.78084789  0.53129692  0.24438811  1
  Hf  Hf3  1  0.71324521  0.96383454  0.74871954  1
  Hf  Hf4  1  0.25878554  0.21826272  0.96172694  1
  Hf  Hf5  1  0.24977811  0.70703775  0.46399135  1
  Hf  Hf6  1  0.99646673  0.00761152  0.49739815  1
  Hf  Hf7  1  0.53472091  0.25112032  0.78369000  1
  Hf  Hf8  1  0.47297974  0.74761713  0.21435910  1
  Hf  Hf9  1  0.00262512  0.48948379  0.99268552  1
  Hf  Hf10  1  0.74230104  0.78869800  0.02866018  1
  Hf  Hf11  1  0.74879005  0.28165386  0.53935440  1
  Hf  Hf12  1  0.29303646  0.03828958  0.25222020  1
  Hf  Hf13  1  0.21486564  0.46343198  0.75019652  1
  Hf  Hf14  1  0.50192618  0.00014983  0.01140910  1
  Hf  Hf15  1  0.03051406  0.25672891  0.28622699  1
  N  N16  1  0.53799143  0.27643672  0.04749870  1
  N  N17  1  0.99036370  0.46238885  0.23043398  1
  N  N18  1  0.50752015  0.74138569  0.46685105  1
  N  N19  1  0.74227173  0.72351901  0.77185430  1
  N  N20  1  0.22480268  0.95964931  0.96746183  1
  N  N21  1  0.26781820  0.22967102  0.72385814  1
  N  N22  1  0.00872357  0.54313002  0.77117632  1
  N  N23  1  0.48902095  0.26491423  0.53355473  1
  N  N24  1  0.73274006  0.76002594  0.27137327  1
  N  N25  1  0.46594993  0.72655895  0.94991981  1
  N  N26  1  0.77396414  0.22590811  0.76469906  1
  N  N27  1  0.23898996  0.46454016  0.01734462  1
  N  N28  1  0.95006043  0.22158337  0.48205114  1
  N  N29  1  0.54228394  0.03051217  0.27210107  1
  N  N30  1  0.27389451  0.51238302  0.54449188  1
  N  N31  1  0.77393822  0.04511064  0.03270451  1
  O  O32  1  0.44945017  0.96607499  0.72400458  1
  O  O33  1  0.05052360  0.77589779  0.52084066  1
  O  O34  1  0.04071618  0.99063669  0.26694037  1
  O  O35  1  0.72936158  0.49203741  0.45172890  1
  O  O36  1  0.25864661  0.26966324  0.22813697  1
  O  O37  1  0.95901944  0.00679850  0.72862987  1
  O  O38  1  0.21885425  0.77564880  0.23612863  1
  O  O39  1  0.76001975  0.53329002  0.98514068  1
