# generated using pymatgen
data_Mg2Te3O8
_symmetry_space_group_name_H-M   'P 1'
_cell_length_a   6.81827072
_cell_length_b   6.81827072
_cell_length_c   11.58384128
_cell_angle_alpha   82.21593110
_cell_angle_beta   82.21593110
_cell_angle_gamma   45.00609778
_symmetry_Int_Tables_number   1
_chemical_formula_structural   Mg2Te3O8
_chemical_formula_sum   'Mg4 Te6 O16'
_cell_volume   376.71630757
_cell_formula_units_Z   2
loop_
 _symmetry_equiv_pos_site_id
 _symmetry_equiv_pos_as_xyz
  1  'x, y, z'
loop_
 _atom_site_type_symbol
 _atom_site_label
 _atom_site_symmetry_multiplicity
 _atom_site_fract_x
 _atom_site_fract_y
 _atom_site_fract_z
 _atom_site_occupancy
  Mg  Mg0  1  0.57559067  0.96016078  0.85250792  1
  Mg  Mg1  1  0.03983922  0.42440933  0.64749208  1
  Mg  Mg2  1  0.42440933  0.03983922  0.14749208  1
  Mg  Mg3  1  0.96016078  0.57559067  0.35250792  1
  Te  Te4  1  0.16142116  0.83857884  0.75000000  1
  Te  Te5  1  0.83857884  0.16142116  0.25000000  1
  Te  Te6  1  0.94633460  0.32556494  0.94383736  1
  Te  Te7  1  0.67443506  0.05366540  0.55616264  1
  Te  Te8  1  0.05366540  0.67443506  0.05616264  1
  Te  Te9  1  0.32556494  0.94633460  0.44383736  1
  O  O10  1  0.25365281  0.27268554  0.97327599  1
  O  O11  1  0.72731446  0.74634719  0.52672401  1
  O  O12  1  0.74634719  0.72731446  0.02672401  1
  O  O13  1  0.27268554  0.25365281  0.47327599  1
  O  O14  1  0.24694914  0.98180415  0.86388971  1
  O  O15  1  0.01819585  0.75305086  0.63611029  1
  O  O16  1  0.75305086  0.01819585  0.13611029  1
  O  O17  1  0.98180415  0.24694914  0.36388971  1
  O  O18  1  0.01546078  0.14518392  0.64691779  1
  O  O19  1  0.85481608  0.98453922  0.85308221  1
  O  O20  1  0.98453922  0.85481608  0.35308221  1
  O  O21  1  0.14518392  0.01546078  0.14691779  1
  O  O22  1  0.84394992  0.55520607  0.80751712  1
  O  O23  1  0.44479393  0.15605008  0.69248288  1
  O  O24  1  0.15605008  0.44479393  0.19248288  1
  O  O25  1  0.55520607  0.84394992  0.30751712  1
