# generated using pymatgen
data_Y2GeO5
_symmetry_space_group_name_H-M   'P 1'
_cell_length_a   6.92273925
_cell_length_b   6.76157492
_cell_length_c   9.31830165
_cell_angle_alpha   80.69413633
_cell_angle_beta   90.00000000
_cell_angle_gamma   90.00000000
_symmetry_Int_Tables_number   1
_chemical_formula_structural   Y2GeO5
_chemical_formula_sum   'Y8 Ge4 O20'
_cell_volume   430.43639374
_cell_formula_units_Z   4
loop_
 _symmetry_equiv_pos_site_id
 _symmetry_equiv_pos_as_xyz
  1  'x, y, z'
loop_
 _atom_site_type_symbol
 _atom_site_label
 _atom_site_symmetry_multiplicity
 _atom_site_fract_x
 _atom_site_fract_y
 _atom_site_fract_z
 _atom_site_occupancy
  Y  Y0  1  0.64219775  0.98782902  0.15055144  1
  Y  Y1  1  0.85780225  0.48782902  0.15055144  1
  Y  Y2  1  0.61950755  0.22991987  0.47032193  1
  Y  Y3  1  0.11950755  0.27008013  0.52967807  1
  Y  Y4  1  0.88049245  0.72991987  0.47032193  1
  Y  Y5  1  0.38049245  0.77008013  0.52967807  1
  Y  Y6  1  0.14219775  0.51217098  0.84944856  1
  Y  Y7  1  0.35780225  0.01217098  0.84944856  1
  Ge  Ge8  1  0.10096352  0.98913091  0.20011162  1
  Ge  Ge9  1  0.39903648  0.48913091  0.20011162  1
  Ge  Ge10  1  0.60096352  0.51086909  0.79988838  1
  Ge  Ge11  1  0.89903648  0.01086909  0.79988838  1
  O  O12  1  0.31034718  0.98971547  0.09854910  1
  O  O13  1  0.92793917  0.16966070  0.13635891  1
  O  O14  1  0.18965282  0.48971547  0.09854910  1
  O  O15  1  0.56739973  0.28516370  0.21882947  1
  O  O16  1  0.57206083  0.66966070  0.13635891  1
  O  O17  1  0.93260027  0.78516370  0.21882947  1
  O  O18  1  0.87951729  0.41657041  0.39522841  1
  O  O19  1  0.35400825  0.47487115  0.39066588  1
  O  O20  1  0.62048271  0.91657041  0.39522841  1
  O  O21  1  0.14599175  0.97487115  0.39066588  1
  O  O22  1  0.85400825  0.02512885  0.60933412  1
  O  O23  1  0.37951729  0.08342959  0.60477159  1
  O  O24  1  0.64599175  0.52512885  0.60933412  1
  O  O25  1  0.12048271  0.58342959  0.60477159  1
  O  O26  1  0.06739973  0.21483630  0.78117053  1
  O  O27  1  0.42793917  0.33033930  0.86364109  1
  O  O28  1  0.43260027  0.71483630  0.78117053  1
  O  O29  1  0.81034718  0.51028453  0.90145090  1
  O  O30  1  0.07206083  0.83033930  0.86364109  1
  O  O31  1  0.68965282  0.01028453  0.90145090  1
