# generated using pymatgen
data_Na5TlO4
_symmetry_space_group_name_H-M   'P 1'
_cell_length_a   10.67914988
_cell_length_b   10.70631357
_cell_length_c   10.73647636
_cell_angle_alpha   90.00000000
_cell_angle_beta   90.00000000
_cell_angle_gamma   90.00000000
_symmetry_Int_Tables_number   1
_chemical_formula_structural   Na5TlO4
_chemical_formula_sum   'Na40 Tl8 O32'
_cell_volume   1227.54780194
_cell_formula_units_Z   8
loop_
 _symmetry_equiv_pos_site_id
 _symmetry_equiv_pos_as_xyz
  1  'x, y, z'
loop_
 _atom_site_type_symbol
 _atom_site_label
 _atom_site_symmetry_multiplicity
 _atom_site_fract_x
 _atom_site_fract_y
 _atom_site_fract_z
 _atom_site_occupancy
  Na  Na0  1  0.10429010  0.11783158  0.34034148  1
  Na  Na1  1  0.60429010  0.88216842  0.15965852  1
  Na  Na2  1  0.39570990  0.61783158  0.65965852  1
  Na  Na3  1  0.89570990  0.38216842  0.84034148  1
  Na  Na4  1  0.89570990  0.88216842  0.65965852  1
  Na  Na5  1  0.39570990  0.11783158  0.84034148  1
  Na  Na6  1  0.60429010  0.38216842  0.34034148  1
  Na  Na7  1  0.10429010  0.61783158  0.15965852  1
  Na  Na8  1  0.12666801  0.85009904  0.38170555  1
  Na  Na9  1  0.62666801  0.14990096  0.11829445  1
  Na  Na10  1  0.37333199  0.35009904  0.61829445  1
  Na  Na11  1  0.87333199  0.64990096  0.88170555  1
  Na  Na12  1  0.87333199  0.14990096  0.61829445  1
  Na  Na13  1  0.37333199  0.85009904  0.88170555  1
  Na  Na14  1  0.62666801  0.64990096  0.38170555  1
  Na  Na15  1  0.12666801  0.35009904  0.11829445  1
  Na  Na16  1  0.66222089  0.10805189  0.38266097  1
  Na  Na17  1  0.16222089  0.89194811  0.11733903  1
  Na  Na18  1  0.83777911  0.60805189  0.61733903  1
  Na  Na19  1  0.33777911  0.39194811  0.88266097  1
  Na  Na20  1  0.33777911  0.89194811  0.61733903  1
  Na  Na21  1  0.83777911  0.10805189  0.88266097  1
  Na  Na22  1  0.16222089  0.39194811  0.38266097  1
  Na  Na23  1  0.66222089  0.60805189  0.11733903  1
  Na  Na24  1  0.89778818  0.62299078  0.34940116  1
  Na  Na25  1  0.39778818  0.37700922  0.15059884  1
  Na  Na26  1  0.60221182  0.12299078  0.65059884  1
  Na  Na27  1  0.10221182  0.87700922  0.84940116  1
  Na  Na28  1  0.10221182  0.37700922  0.65059884  1
  Na  Na29  1  0.60221182  0.62299078  0.84940116  1
  Na  Na30  1  0.39778818  0.87700922  0.34940116  1
  Na  Na31  1  0.89778818  0.12299078  0.15059884  1
  Na  Na32  1  0.85425090  0.88888411  0.39143918  1
  Na  Na33  1  0.35425090  0.11111589  0.10856082  1
  Na  Na34  1  0.64574910  0.38888411  0.60856082  1
  Na  Na35  1  0.14574910  0.61111589  0.89143918  1
  Na  Na36  1  0.14574910  0.11111589  0.60856082  1
  Na  Na37  1  0.64574910  0.88888411  0.89143918  1
  Na  Na38  1  0.35425090  0.61111589  0.39143918  1
  Na  Na39  1  0.85425090  0.38888411  0.10856082  1
  Tl  Tl40  1  0.88314099  0.34902611  0.38597468  1
  Tl  Tl41  1  0.38314099  0.65097389  0.11402532  1
  Tl  Tl42  1  0.61685901  0.84902611  0.61402532  1
  Tl  Tl43  1  0.11685901  0.15097389  0.88597468  1
  Tl  Tl44  1  0.11685901  0.65097389  0.61402532  1
  Tl  Tl45  1  0.61685901  0.34902611  0.88597468  1
  Tl  Tl46  1  0.38314099  0.15097389  0.38597468  1
  Tl  Tl47  1  0.88314099  0.84902611  0.11402532  1
  O  O48  1  0.52031790  0.24982056  0.49417054  1
  O  O49  1  0.02031790  0.75017944  0.00582946  1
  O  O50  1  0.97968210  0.74982056  0.50582946  1
  O  O51  1  0.47968210  0.25017944  0.99417054  1
  O  O52  1  0.47968210  0.75017944  0.50582946  1
  O  O53  1  0.97968210  0.24982056  0.99417054  1
  O  O54  1  0.02031790  0.25017944  0.49417054  1
  O  O55  1  0.52031790  0.74982056  0.00582946  1
  O  O56  1  0.76009578  0.25246962  0.25413318  1
  O  O57  1  0.26009578  0.74753038  0.24586682  1
  O  O58  1  0.73990422  0.75246962  0.74586682  1
  O  O59  1  0.23990422  0.24753038  0.75413318  1
  O  O60  1  0.23990422  0.74753038  0.74586682  1
  O  O61  1  0.73990422  0.25246962  0.75413318  1
  O  O62  1  0.26009578  0.24753038  0.25413318  1
  O  O63  1  0.76009578  0.75246962  0.24586682  1
  O  O64  1  0.99946519  0.46025407  0.25518551  1
  O  O65  1  0.49946519  0.53974593  0.24481449  1
  O  O66  1  0.50053481  0.96025407  0.74481449  1
  O  O67  1  0.00053481  0.03974593  0.75518551  1
  O  O68  1  0.00053481  0.53974593  0.74481449  1
  O  O69  1  0.50053481  0.46025407  0.75518551  1
  O  O70  1  0.49946519  0.03974593  0.25518551  1
  O  O71  1  0.99946519  0.96025407  0.24481449  1
  O  O72  1  0.75571527  0.49190532  0.45854288  1
  O  O73  1  0.25571527  0.50809468  0.04145712  1
  O  O74  1  0.74428473  0.99190532  0.54145712  1
  O  O75  1  0.24428473  0.00809468  0.95854288  1
  O  O76  1  0.24428473  0.50809468  0.54145712  1
  O  O77  1  0.74428473  0.49190532  0.95854288  1
  O  O78  1  0.25571527  0.00809468  0.45854288  1
  O  O79  1  0.75571527  0.99190532  0.04145712  1
