# generated using pymatgen
data_Cs2ZnH12(SO7)2
_symmetry_space_group_name_H-M   'P 1'
_cell_length_a   12.74632254
_cell_length_b   6.33550645
_cell_length_c   9.23591418
_cell_angle_alpha   72.93820023
_cell_angle_beta   90.00000000
_cell_angle_gamma   90.00000000
_symmetry_Int_Tables_number   1
_chemical_formula_structural   Cs2ZnH12(SO7)2
_chemical_formula_sum   'Cs4 Zn2 H24 S4 O28'
_cell_volume   713.01547277
_cell_formula_units_Z   2
loop_
 _symmetry_equiv_pos_site_id
 _symmetry_equiv_pos_as_xyz
  1  'x, y, z'
loop_
 _atom_site_type_symbol
 _atom_site_label
 _atom_site_symmetry_multiplicity
 _atom_site_fract_x
 _atom_site_fract_y
 _atom_site_fract_z
 _atom_site_occupancy
  Cs  Cs0  1  0.35546854  0.64304168  0.13026929  1
  Cs  Cs1  1  0.85546854  0.35695832  0.36973071  1
  Cs  Cs2  1  0.14453146  0.64304168  0.63026929  1
  Cs  Cs3  1  0.64453146  0.35695832  0.86973071  1
  Zn  Zn4  1  -0.00000000  0.00000000  0.00000000  1
  Zn  Zn5  1  0.50000000  0.00000000  0.50000000  1
  H  H6  1  0.05944214  0.33744905  0.09566707  1
  H  H7  1  0.86021507  0.68905291  0.02468091  1
  H  H8  1  0.40406099  0.07398127  0.22093435  1
  H  H9  1  0.63067885  0.08621792  0.26379618  1
  H  H10  1  0.10011945  0.68105226  0.20936167  1
  H  H11  1  0.31689802  0.01522585  0.34704039  1
  H  H12  1  0.81689802  0.98477415  0.15295961  1
  H  H13  1  0.60011945  0.31894774  0.29063833  1
  H  H14  1  0.13067885  0.91378208  0.23620382  1
  H  H15  1  0.90406099  0.92601873  0.27906565  1
  H  H16  1  0.36021507  0.31094709  0.47531909  1
  H  H17  1  0.55944214  0.66255095  0.40433293  1
  H  H18  1  0.44055786  0.33744905  0.59566707  1
  H  H19  1  0.63978493  0.68905291  0.52468091  1
  H  H20  1  0.09593901  0.07398127  0.72093435  1
  H  H21  1  0.86932115  0.08621792  0.76379618  1
  H  H22  1  0.39988055  0.68105226  0.70936167  1
  H  H23  1  0.18310198  0.01522585  0.84704039  1
  H  H24  1  0.68310198  0.98477415  0.65295961  1
  H  H25  1  0.89988055  0.31894774  0.79063833  1
  H  H26  1  0.36932115  0.91378208  0.73620382  1
  H  H27  1  0.59593901  0.92601873  0.77906565  1
  H  H28  1  0.13978493  0.31094709  0.97531909  1
  H  H29  1  0.94055786  0.66255095  0.90433293  1
  S  S30  1  0.64576846  0.74195688  0.10501733  1
  S  S31  1  0.14576846  0.25804312  0.39498267  1
  S  S32  1  0.85423154  0.74195688  0.60501733  1
  S  S33  1  0.35423154  0.25804312  0.89498267  1
  O  O34  1  0.06438713  0.29772023  0.00070016  1
  O  O35  1  0.42155031  0.19732445  0.03043179  1
  O  O36  1  0.89100674  0.01081725  0.17280807  1
  O  O37  1  0.73734364  0.61452643  0.08010181  1
  O  O38  1  0.68229988  0.94265055  0.14207372  1
  O  O39  1  0.11381900  0.83897306  0.15981194  1
  O  O40  1  0.08423545  0.39822437  0.26575841  1
  O  O41  1  0.58423545  0.60177563  0.23424159  1
  O  O42  1  0.61381900  0.16102694  0.34018806  1
  O  O43  1  0.18229988  0.05734945  0.35792628  1
  O  O44  1  0.23734364  0.38547357  0.41989819  1
  O  O45  1  0.39100674  0.98918275  0.32719193  1
  O  O46  1  0.43561287  0.29772023  0.50070016  1
  O  O47  1  0.07844969  0.19732445  0.53043179  1
  O  O48  1  0.92155031  0.80267555  0.46956821  1
  O  O49  1  0.56438713  0.70227977  0.49929984  1
  O  O50  1  0.60899326  0.01081725  0.67280807  1
  O  O51  1  0.76265636  0.61452643  0.58010181  1
  O  O52  1  0.81770012  0.94265055  0.64207372  1
  O  O53  1  0.38618100  0.83897306  0.65981194  1
  O  O54  1  0.41576455  0.39822437  0.76575841  1
  O  O55  1  0.91576455  0.60177563  0.73424159  1
  O  O56  1  0.88618100  0.16102694  0.84018806  1
  O  O57  1  0.31770012  0.05734945  0.85792628  1
  O  O58  1  0.26265636  0.38547357  0.91989819  1
  O  O59  1  0.10899326  0.98918275  0.82719193  1
  O  O60  1  0.57844969  0.80267555  0.96956821  1
  O  O61  1  0.93561287  0.70227977  0.99929984  1
