# generated using pymatgen
data_Lu2TeO6
_symmetry_space_group_name_H-M   'P 1'
_cell_length_a   8.91675481
_cell_length_b   8.91676162
_cell_length_c   5.01541329
_cell_angle_alpha   89.99954505
_cell_angle_beta   90.00023007
_cell_angle_gamma   120.00009642
_symmetry_Int_Tables_number   1
_chemical_formula_structural   Lu2TeO6
_chemical_formula_sum   'Lu6 Te3 O18'
_cell_volume   345.34320665
_cell_formula_units_Z   3
loop_
 _symmetry_equiv_pos_site_id
 _symmetry_equiv_pos_as_xyz
  1  'x, y, z'
loop_
 _atom_site_type_symbol
 _atom_site_label
 _atom_site_symmetry_multiplicity
 _atom_site_fract_x
 _atom_site_fract_y
 _atom_site_fract_z
 _atom_site_occupancy
  Lu  Lu0  1  0.00000290  0.62279959  0.00000288  1
  Lu  Lu1  1  0.00001578  0.28637734  0.49999665  1
  Lu  Lu2  1  0.37718210  0.37718215  -0.00000039  1
  Lu  Lu3  1  0.28638862  0.00001612  0.50000335  1
  Lu  Lu4  1  0.71360500  0.71361638  0.50001115  1
  Lu  Lu5  1  0.62280712  0.00001055  -0.00000160  1
  Te  Te6  1  0.33333395  0.66667063  0.49928327  1
  Te  Te7  1  0.00001992  0.00001462  0.00000445  1
  Te  Te8  1  0.66667070  0.33334475  0.50070994  1
  O  O9  1  0.08272085  0.87902114  0.78586869  1
  O  O10  1  0.22440911  0.76308508  0.28124482  1
  O  O11  1  0.12979794  0.54375047  0.71643525  1
  O  O12  1  0.41396510  0.87020698  0.71643933  1
  O  O13  1  0.23692126  0.46132219  0.28123971  1
  O  O14  1  0.12098740  0.20369807  0.78585291  1
  O  O15  1  0.20369429  0.12097550  0.21415893  1
  O  O16  1  0.53867268  0.77559631  0.28125296  1
  O  O17  1  0.45621831  0.58601518  0.71644331  1
  O  O18  1  0.79629867  0.91728131  0.78586737  1
  O  O19  1  0.46132512  0.23692185  0.71876770  1
  O  O20  1  0.58601975  0.45622974  0.28356091  1
  O  O21  1  0.54375623  0.12980530  0.28356579  1
  O  O22  1  0.77559966  0.53867658  0.71874461  1
  O  O23  1  0.91727308  0.79629149  0.21411596  1
  O  O24  1  0.76308620  0.22441140  0.71874321  1
  O  O25  1  0.87020373  0.41395963  0.28355196  1
  O  O26  1  0.87902552  0.08272066  0.21413586  1
