# generated using pymatgen
data_Er2TiO5
_symmetry_space_group_name_H-M   'P 1'
_cell_length_a   3.64017650
_cell_length_b   10.23969930
_cell_length_c   11.17245154
_cell_angle_alpha   90.00000000
_cell_angle_beta   90.00000000
_cell_angle_gamma   90.00000000
_symmetry_Int_Tables_number   1
_chemical_formula_structural   Er2TiO5
_chemical_formula_sum   'Er8 Ti4 O20'
_cell_volume   416.44545299
_cell_formula_units_Z   4
loop_
 _symmetry_equiv_pos_site_id
 _symmetry_equiv_pos_as_xyz
  1  'x, y, z'
loop_
 _atom_site_type_symbol
 _atom_site_label
 _atom_site_symmetry_multiplicity
 _atom_site_fract_x
 _atom_site_fract_y
 _atom_site_fract_z
 _atom_site_occupancy
  Er  Er0  1  0.25000000  0.11819270  0.27546739  1
  Er  Er1  1  0.25000000  0.13576042  0.94345437  1
  Er  Er2  1  0.75000000  0.36423958  0.44345437  1
  Er  Er3  1  0.75000000  0.38180730  0.77546739  1
  Er  Er4  1  0.25000000  0.61819270  0.22453261  1
  Er  Er5  1  0.25000000  0.63576042  0.55654563  1
  Er  Er6  1  0.75000000  0.86423958  0.05654563  1
  Er  Er7  1  0.75000000  0.88180730  0.72453261  1
  Ti  Ti8  1  0.25000000  0.17140470  0.61767310  1
  Ti  Ti9  1  0.75000000  0.32859530  0.11767310  1
  Ti  Ti10  1  0.25000000  0.67140470  0.88232690  1
  Ti  Ti11  1  0.75000000  0.82859530  0.38232690  1
  O  O12  1  0.75000000  0.00603058  0.89478206  1
  O  O13  1  0.25000000  0.00195597  0.65372851  1
  O  O14  1  0.25000000  0.22438495  0.45479911  1
  O  O15  1  0.75000000  0.24671641  0.27051278  1
  O  O16  1  0.75000000  0.23731709  0.61497470  1
  O  O17  1  0.25000000  0.26268291  0.11497470  1
  O  O18  1  0.25000000  0.25328359  0.77051278  1
  O  O19  1  0.75000000  0.27561505  0.95479911  1
  O  O20  1  0.75000000  0.49804403  0.15372851  1
  O  O21  1  0.25000000  0.49396942  0.39478206  1
  O  O22  1  0.75000000  0.50603058  0.60521794  1
  O  O23  1  0.25000000  0.50195597  0.84627149  1
  O  O24  1  0.25000000  0.72438495  0.04520089  1
  O  O25  1  0.75000000  0.74671641  0.22948722  1
  O  O26  1  0.75000000  0.73731709  0.88502530  1
  O  O27  1  0.25000000  0.76268291  0.38502530  1
  O  O28  1  0.25000000  0.75328359  0.72948722  1
  O  O29  1  0.75000000  0.77561505  0.54520089  1
  O  O30  1  0.75000000  0.99804403  0.34627149  1
  O  O31  1  0.25000000  0.99396942  0.10521794  1
