# generated using pymatgen
data_ErInO3
_symmetry_space_group_name_H-M   'P 1'
_cell_length_a   6.23832989
_cell_length_b   6.23832799
_cell_length_c   12.21741889
_cell_angle_alpha   90.00000063
_cell_angle_beta   89.99999774
_cell_angle_gamma   120.00008823
_symmetry_Int_Tables_number   1
_chemical_formula_structural   ErInO3
_chemical_formula_sum   'Er6 In6 O18'
_cell_volume   411.76198769
_cell_formula_units_Z   6
loop_
 _symmetry_equiv_pos_site_id
 _symmetry_equiv_pos_as_xyz
  1  'x, y, z'
loop_
 _atom_site_type_symbol
 _atom_site_label
 _atom_site_symmetry_multiplicity
 _atom_site_fract_x
 _atom_site_fract_y
 _atom_site_fract_z
 _atom_site_occupancy
  Er  Er0  1  0.33333577  0.66666745  0.23009571  1
  Er  Er1  1  0.00000109  0.00000040  0.26573107  1
  Er  Er2  1  0.99999971  0.00000102  0.76573216  1
  Er  Er3  1  0.33333022  0.66666179  0.73009542  1
  Er  Er4  1  0.66666236  0.33332977  0.73009579  1
  Er  Er5  1  0.66666303  0.33332848  0.23009596  1
  In  In6  1  -0.00000044  0.66660957  0.49589654  1
  In  In7  1  0.00000125  0.33339237  0.99589574  1
  In  In8  1  0.33339063  0.33339087  0.49589596  1
  In  In9  1  0.66660955  0.66660965  0.99589498  1
  In  In10  1  0.33339190  0.00000100  0.99589514  1
  In  In11  1  0.66660899  -0.00000034  0.49589605  1
  O  O12  1  0.00000030  0.69620291  0.66837202  1
  O  O13  1  0.00000047  0.63466929  0.32561751  1
  O  O14  1  0.00000023  0.36533130  0.82561744  1
  O  O15  1  0.00000043  0.30379855  0.16837321  1
  O  O16  1  0.33333322  0.66666671  0.02739787  1
  O  O17  1  0.00000168  0.00000316  0.46088014  1
  O  O18  1  -0.00000018  -0.00000016  0.96088271  1
  O  O19  1  0.33333377  0.66666763  0.52739704  1
  O  O20  1  0.30379777  0.30379806  0.66837253  1
  O  O21  1  0.36533270  0.36533229  0.32561724  1
  O  O22  1  0.30379927  0.00000101  0.16837320  1
  O  O23  1  0.63466838  0.63466876  0.82561755  1
  O  O24  1  0.69620163  0.69620196  0.16837303  1
  O  O25  1  0.36533136  0.00000067  0.82561758  1
  O  O26  1  0.66666740  0.33333423  0.52739715  1
  O  O27  1  0.66666625  0.33333301  0.02739782  1
  O  O28  1  0.63466763  0.00000023  0.32561726  1
  O  O29  1  0.69620264  0.00000035  0.66837217  1
