# generated using pymatgen
data_Sm3NbO7
_symmetry_space_group_name_H-M   'P 1'
_cell_length_a   6.59918369
_cell_length_b   6.59918369
_cell_length_c   7.60518265
_cell_angle_alpha   90.00000000
_cell_angle_beta   90.00000000
_cell_angle_gamma   108.85585622
_symmetry_Int_Tables_number   1
_chemical_formula_structural   Sm3NbO7
_chemical_formula_sum   'Sm6 Nb2 O14'
_cell_volume   313.42585633
_cell_formula_units_Z   2
loop_
 _symmetry_equiv_pos_site_id
 _symmetry_equiv_pos_as_xyz
  1  'x, y, z'
loop_
 _atom_site_type_symbol
 _atom_site_label
 _atom_site_symmetry_multiplicity
 _atom_site_fract_x
 _atom_site_fract_y
 _atom_site_fract_z
 _atom_site_occupancy
  Sm  Sm0  1  0.46331146  0.00123711  0.26009439  1
  Sm  Sm1  1  0.99876289  0.53668854  0.23990561  1
  Sm  Sm2  1  0.46607731  0.46607731  0.00000000  1
  Sm  Sm3  1  0.53392269  0.53392269  0.50000000  1
  Sm  Sm4  1  0.53668854  0.99876289  0.76009439  1
  Sm  Sm5  1  0.00123711  0.46331146  0.73990561  1
  Nb  Nb6  1  0.00168458  0.00168458  0.50000000  1
  Nb  Nb7  1  0.99831542  0.99831542  0.00000000  1
  O  O8  1  0.93375836  0.06624164  0.75000000  1
  O  O9  1  0.63794521  0.36205479  0.75000000  1
  O  O10  1  0.30347953  0.04994688  0.54425507  1
  O  O11  1  0.95005312  0.69652047  0.95574493  1
  O  O12  1  0.62914125  0.37085875  0.25000000  1
  O  O13  1  0.91775132  0.67342372  0.52186810  1
  O  O14  1  0.32657628  0.08224868  0.97813190  1
  O  O15  1  0.08224868  0.32657628  0.02186810  1
  O  O16  1  0.67342372  0.91775132  0.47813190  1
  O  O17  1  0.37085875  0.62914125  0.75000000  1
  O  O18  1  0.69652047  0.95005312  0.04425507  1
  O  O19  1  0.04994688  0.30347953  0.45574493  1
  O  O20  1  0.36205479  0.63794521  0.25000000  1
  O  O21  1  0.06624164  0.93375836  0.25000000  1
