# generated using pymatgen
data_Na10Zn7Sn7H24(S13O6)2
_symmetry_space_group_name_H-M   'P 1'
_cell_length_a   12.58142430
_cell_length_b   12.58142430
_cell_length_c   12.58142431
_cell_angle_alpha   59.96418079
_cell_angle_beta   59.96418077
_cell_angle_gamma   59.96418100
_symmetry_Int_Tables_number   1
_chemical_formula_structural   Na10Zn7Sn7H24(S13O6)2
_chemical_formula_sum   'Na10 Zn7 Sn7 H24 S26 O12'
_cell_volume   1407.08881792
_cell_formula_units_Z   1
loop_
 _symmetry_equiv_pos_site_id
 _symmetry_equiv_pos_as_xyz
  1  'x, y, z'
loop_
 _atom_site_type_symbol
 _atom_site_label
 _atom_site_symmetry_multiplicity
 _atom_site_fract_x
 _atom_site_fract_y
 _atom_site_fract_z
 _atom_site_occupancy
  Na  Na0  1  0.74912237  0.74912237  0.74912237  1
  Na  Na1  1  0.64573248  0.64573248  0.64573248  1
  Na  Na2  1  0.65226304  0.65297183  0.05233922  1
  Na  Na3  1  0.65297183  0.05233922  0.65226304  1
  Na  Na4  1  0.05233922  0.65226304  0.65297183  1
  Na  Na5  1  0.56189129  0.14266572  0.14346732  1
  Na  Na6  1  0.14266572  0.14346732  0.56189129  1
  Na  Na7  1  0.24917818  0.24917818  0.24917818  1
  Na  Na8  1  0.14346732  0.56189129  0.14266572  1
  Na  Na9  1  0.14757467  0.14757467  0.14757467  1
  Zn  Zn10  1  0.92372411  0.92372411  0.92372411  1
  Zn  Zn11  1  0.92215150  0.92384411  0.22513393  1
  Zn  Zn12  1  0.92384411  0.22513393  0.92215150  1
  Zn  Zn13  1  0.22513393  0.92215150  0.92384411  1
  Zn  Zn14  1  0.74197780  0.41931475  0.42130259  1
  Zn  Zn15  1  0.42130259  0.74197780  0.41931475  1
  Zn  Zn16  1  0.41931475  0.42130259  0.74197780  1
  Sn  Sn17  1  0.74930020  0.75163366  0.24912573  1
  Sn  Sn18  1  0.75163366  0.24912573  0.74930020  1
  Sn  Sn19  1  0.24912573  0.74930020  0.75163366  1
  Sn  Sn20  1  0.76325672  0.24969251  0.23870295  1
  Sn  Sn21  1  0.42864249  0.42864249  0.42864249  1
  Sn  Sn22  1  0.23870295  0.76325672  0.24969251  1
  Sn  Sn23  1  0.24969251  0.23870295  0.76325672  1
  H  H24  1  0.92769702  0.90217768  0.64774197  1
  H  H25  1  0.90217768  0.64774197  0.92769702  1
  H  H26  1  0.92702980  0.52624152  0.90320512  1
  H  H27  1  0.90320512  0.92702980  0.52624152  1
  H  H28  1  0.64774197  0.92769702  0.90217768  1
  H  H29  1  0.92791997  0.64416555  0.52507237  1
  H  H30  1  0.90070921  0.52316572  0.64655547  1
  H  H31  1  0.52624152  0.90320512  0.92702980  1
  H  H32  1  0.64416555  0.52507237  0.92791997  1
  H  H33  1  0.64655547  0.90070921  0.52316572  1
  H  H34  1  0.52507237  0.92791997  0.64416555  1
  H  H35  1  0.52316572  0.64655547  0.90070921  1
  H  H36  1  0.42346903  0.14151779  0.40654405  1
  H  H37  1  0.40654405  0.42346903  0.14151779  1
  H  H38  1  0.42923414  0.39922585  0.02158522  1
  H  H39  1  0.39922585  0.02158522  0.42923414  1
  H  H40  1  0.14151779  0.40654405  0.42346903  1
  H  H41  1  0.42815496  0.02300370  0.14518701  1
  H  H42  1  0.40523284  0.14384688  0.02341665  1
  H  H43  1  0.02158522  0.42923414  0.39922585  1
  H  H44  1  0.14518701  0.42815496  0.02300370  1
  H  H45  1  0.14384688  0.02341665  0.40523284  1
  H  H46  1  0.02300370  0.14518701  0.42815496  1
  H  H47  1  0.02341665  0.40523284  0.14384688  1
  S  S48  1  0.99932842  0.99932842  0.99932842  1
  S  S49  1  0.92732744  0.30605593  0.71059500  1
  S  S50  1  0.71059500  0.92732744  0.30605593  1
  S  S51  1  0.92471990  0.71261860  0.05605253  1
  S  S52  1  0.80513875  0.55807002  0.42664896  1
  S  S53  1  0.71261860  0.05605253  0.92471990  1
  S  S54  1  0.80546650  0.21047048  0.55592157  1
  S  S55  1  0.55807002  0.42664896  0.80513875  1
  S  S56  1  0.30605593  0.71059500  0.92732744  1
  S  S57  1  0.80068033  0.43162060  0.21105594  1
  S  S58  1  0.42664896  0.80513875  0.55807002  1
  S  S59  1  0.92825988  0.05289587  0.30497755  1
  S  S60  1  0.55592157  0.80546650  0.21047048  1
  S  S61  1  0.50615088  0.50615088  0.50615088  1
  S  S62  1  0.43162060  0.21105594  0.80068033  1
  S  S63  1  0.71161995  0.30403108  0.05573746  1
  S  S64  1  0.21047048  0.55592157  0.80546650  1
  S  S65  1  0.56309501  0.21142779  0.42457122  1
  S  S66  1  0.05605253  0.92471990  0.71261860  1
  S  S67  1  0.21105594  0.80068033  0.43162060  1
  S  S68  1  0.42457122  0.56309501  0.21142779  1
  S  S69  1  0.30497755  0.92825988  0.05289587  1
  S  S70  1  0.21142779  0.42457122  0.56309501  1
  S  S71  1  0.30403108  0.05573746  0.71161995  1
  S  S72  1  0.05289587  0.30497755  0.92825988  1
  S  S73  1  0.05573746  0.71161995  0.30403108  1
  O  O74  1  0.88118159  0.62057388  0.88133301  1
  O  O75  1  0.88133301  0.88118159  0.62057388  1
  O  O76  1  0.88437705  0.61663329  0.61985082  1
  O  O77  1  0.62057388  0.88133301  0.88118159  1
  O  O78  1  0.61985082  0.88437705  0.61663329  1
  O  O79  1  0.61663329  0.61985082  0.88437705  1
  O  O80  1  0.38289642  0.37864801  0.11611852  1
  O  O81  1  0.37864801  0.11611852  0.38289642  1
  O  O82  1  0.11611852  0.38289642  0.37864801  1
  O  O83  1  0.38137177  0.11736054  0.11800672  1
  O  O84  1  0.11736054  0.11800672  0.38137177  1
  O  O85  1  0.11800672  0.38137177  0.11736054  1
