# generated using pymatgen
data_RbSmGeSe4
_symmetry_space_group_name_H-M   'P 1'
_cell_length_a   6.85565100
_cell_length_b   7.12173600
_cell_length_c   18.12534600
_cell_angle_alpha   90.00000000
_cell_angle_beta   90.00000000
_cell_angle_gamma   90.00000000
_symmetry_Int_Tables_number   1
_chemical_formula_structural   RbSmGeSe4
_chemical_formula_sum   'Rb4 Sm4 Ge4 Se16'
_cell_volume   884.95436776
_cell_formula_units_Z   4
loop_
 _symmetry_equiv_pos_site_id
 _symmetry_equiv_pos_as_xyz
  1  'x, y, z'
loop_
 _atom_site_type_symbol
 _atom_site_label
 _atom_site_symmetry_multiplicity
 _atom_site_fract_x
 _atom_site_fract_y
 _atom_site_fract_z
 _atom_site_occupancy
  Rb  Rb0  1  0.51700400  0.99377000  0.53128400  1
  Rb  Rb1  1  0.99583300  0.00251600  0.03291100  1
  Rb  Rb2  1  0.00602800  0.49896100  0.46885500  1
  Rb  Rb3  1  0.49614500  0.49762000  0.96732400  1
  Sm  Sm4  1  0.78917900  0.01779200  0.77635000  1
  Sm  Sm5  1  0.29145200  0.47243600  0.22626200  1
  Sm  Sm6  1  0.21295200  0.52432700  0.72472700  1
  Sm  Sm7  1  0.70167300  0.98282100  0.27528600  1
  Ge  Ge8  1  0.79625500  0.51286400  0.16493100  1
  Ge  Ge9  1  0.21610800  0.01474700  0.33787000  1
  Ge  Ge10  1  0.70677200  0.48017700  0.66423800  1
  Ge  Ge11  1  0.28656700  0.98131100  0.83473300  1
  Se  Se12  1  0.10668100  0.08293000  0.21425700  1
  Se  Se13  1  0.45164000  0.25545600  0.35650900  1
  Se  Se14  1  0.55966200  0.98369400  0.91303700  1
  Se  Se15  1  0.08965400  0.26619700  0.85118700  1
  Se  Se16  1  0.94268000  0.24100900  0.64400600  1
  Se  Se17  1  0.39776700  0.73902700  0.35209400  1
  Se  Se18  1  0.59365200  0.23370100  0.15125100  1
  Se  Se19  1  0.40730000  0.91498800  0.71542200  1
  Se  Se20  1  0.90141500  0.58117900  0.28778000  1
  Se  Se21  1  0.59831900  0.41179400  0.78700100  1
  Se  Se22  1  0.43990700  0.49341600  0.58482400  1
  Se  Se23  1  0.90929900  0.76650500  0.64789500  1
  Se  Se24  1  0.93911900  0.00649900  0.41455300  1
  Se  Se25  1  0.55269000  0.76205900  0.14208300  1
  Se  Se26  1  0.06588100  0.50678500  0.08436600  1
  Se  Se27  1  0.05023300  0.74044000  0.85655200  1
