# generated using pymatgen
data_NaMnPCO7
_symmetry_space_group_name_H-M   'P 1'
_cell_length_a   6.06094972
_cell_length_b   4.99049453
_cell_length_c   18.52811662
_cell_angle_alpha   91.06487734
_cell_angle_beta   90.00000000
_cell_angle_gamma   90.00000000
_symmetry_Int_Tables_number   1
_chemical_formula_structural   NaMnPCO7
_chemical_formula_sum   'Na4 Mn4 P4 C4 O28'
_cell_volume   560.32568171
_cell_formula_units_Z   4
loop_
 _symmetry_equiv_pos_site_id
 _symmetry_equiv_pos_as_xyz
  1  'x, y, z'
loop_
 _atom_site_type_symbol
 _atom_site_label
 _atom_site_symmetry_multiplicity
 _atom_site_fract_x
 _atom_site_fract_y
 _atom_site_fract_z
 _atom_site_occupancy
  Na  Na0  1  0.54048096  0.78031681  0.63788489  1
  Na  Na1  1  0.45951904  0.21968319  0.36211511  1
  Na  Na2  1  0.95951904  0.78031681  0.13788489  1
  Na  Na3  1  0.04048096  0.21968319  0.86211511  1
  Mn  Mn4  1  0.24146792  0.22603912  0.57614210  1
  Mn  Mn5  1  0.75853208  0.77396088  0.42385790  1
  Mn  Mn6  1  0.25853208  0.22603912  0.07614210  1
  Mn  Mn7  1  0.74146792  0.77396088  0.92385790  1
  P  P8  1  0.74018637  0.28566503  0.53140848  1
  P  P9  1  0.25981363  0.71433497  0.46859152  1
  P  P10  1  0.75981363  0.28566503  0.03140848  1
  P  P11  1  0.24018637  0.71433497  0.96859152  1
  C  C12  1  0.20887913  0.33169928  0.69954945  1
  C  C13  1  0.79112087  0.66830072  0.30045055  1
  C  C14  1  0.29112087  0.33169928  0.19954945  1
  C  C15  1  0.70887913  0.66830072  0.80045055  1
  O  O16  1  0.68598652  0.61233202  0.73669116  1
  O  O17  1  0.24236440  0.08879260  0.67131796  1
  O  O18  1  0.20324665  0.50535144  0.64568297  1
  O  O19  1  0.93850602  0.16932657  0.57072933  1
  O  O20  1  0.55154844  0.27211281  0.58725602  1
  O  O21  1  0.76596629  0.58179052  0.51184240  1
  O  O22  1  0.31157613  0.87977554  0.53658073  1
  O  O23  1  0.68842387  0.12022446  0.46341927  1
  O  O24  1  0.23403371  0.41820948  0.48815760  1
  O  O25  1  0.44845156  0.72788719  0.41274398  1
  O  O26  1  0.06149398  0.83067343  0.42927067  1
  O  O27  1  0.79675335  0.49464856  0.35431703  1
  O  O28  1  0.75763560  0.91120740  0.32868204  1
  O  O29  1  0.31401348  0.38766798  0.26330884  1
  O  O30  1  0.81401348  0.61233202  0.23669116  1
  O  O31  1  0.25763560  0.08879260  0.17131796  1
  O  O32  1  0.29675335  0.50535144  0.14568297  1
  O  O33  1  0.94845156  0.27211281  0.08725602  1
  O  O34  1  0.56149398  0.16932657  0.07072933  1
  O  O35  1  0.73403371  0.58179052  0.01184240  1
  O  O36  1  0.18842387  0.87977554  0.03658073  1
  O  O37  1  0.81157613  0.12022446  0.96341927  1
  O  O38  1  0.26596629  0.41820948  0.98815760  1
  O  O39  1  0.43850602  0.83067343  0.92927067  1
  O  O40  1  0.05154844  0.72788719  0.91274398  1
  O  O41  1  0.70324665  0.49464856  0.85431703  1
  O  O42  1  0.74236440  0.91120740  0.82868204  1
  O  O43  1  0.18598652  0.38766798  0.76330884  1
