# generated using pymatgen
data_Ho2TiO5
_symmetry_space_group_name_H-M   'P 1'
_cell_length_a   3.66336532
_cell_length_b   10.28715041
_cell_length_c   11.20216640
_cell_angle_alpha   90.00000000
_cell_angle_beta   90.00000000
_cell_angle_gamma   90.00000000
_symmetry_Int_Tables_number   1
_chemical_formula_structural   Ho2TiO5
_chemical_formula_sum   'Ho8 Ti4 O20'
_cell_volume   422.16025066
_cell_formula_units_Z   4
loop_
 _symmetry_equiv_pos_site_id
 _symmetry_equiv_pos_as_xyz
  1  'x, y, z'
loop_
 _atom_site_type_symbol
 _atom_site_label
 _atom_site_symmetry_multiplicity
 _atom_site_fract_x
 _atom_site_fract_y
 _atom_site_fract_z
 _atom_site_occupancy
  Ho  Ho0  1  0.25000000  0.11758713  0.27585219  1
  Ho  Ho1  1  0.25000000  0.13578955  0.94373596  1
  Ho  Ho2  1  0.75000000  0.36421045  0.44373596  1
  Ho  Ho3  1  0.75000000  0.38241287  0.77585219  1
  Ho  Ho4  1  0.25000000  0.61758713  0.22414781  1
  Ho  Ho5  1  0.25000000  0.63578955  0.55626404  1
  Ho  Ho6  1  0.75000000  0.86421045  0.05626404  1
  Ho  Ho7  1  0.75000000  0.88241287  0.72414781  1
  Ti  Ti8  1  0.25000000  0.17214851  0.61808842  1
  Ti  Ti9  1  0.75000000  0.32785149  0.11808842  1
  Ti  Ti10  1  0.25000000  0.67214851  0.88191158  1
  Ti  Ti11  1  0.75000000  0.82785149  0.38191158  1
  O  O12  1  0.75000000  0.00547814  0.89464190  1
  O  O13  1  0.25000000  0.00334539  0.65347417  1
  O  O14  1  0.25000000  0.22520059  0.45570348  1
  O  O15  1  0.75000000  0.23593074  0.61557542  1
  O  O16  1  0.75000000  0.24569841  0.27030312  1
  O  O17  1  0.25000000  0.25430159  0.77030312  1
  O  O18  1  0.25000000  0.26406926  0.11557542  1
  O  O19  1  0.75000000  0.27479941  0.95570348  1
  O  O20  1  0.75000000  0.49665461  0.15347417  1
  O  O21  1  0.25000000  0.49452186  0.39464190  1
  O  O22  1  0.75000000  0.50547814  0.60535810  1
  O  O23  1  0.25000000  0.50334539  0.84652583  1
  O  O24  1  0.25000000  0.72520059  0.04429652  1
  O  O25  1  0.75000000  0.73593074  0.88442458  1
  O  O26  1  0.75000000  0.74569841  0.22969688  1
  O  O27  1  0.25000000  0.75430159  0.72969688  1
  O  O28  1  0.25000000  0.76406926  0.38442458  1
  O  O29  1  0.75000000  0.77479941  0.54429652  1
  O  O30  1  0.75000000  0.99665461  0.34652583  1
  O  O31  1  0.25000000  0.99452186  0.10535810  1
