# generated using pymatgen
data_DyTaO4
_symmetry_space_group_name_H-M   'P 1'
_cell_length_a   5.11541751
_cell_length_b   5.30521357
_cell_length_c   5.44655199
_cell_angle_alpha   90.00000000
_cell_angle_beta   90.00000000
_cell_angle_gamma   96.46487770
_symmetry_Int_Tables_number   1
_chemical_formula_structural   DyTaO4
_chemical_formula_sum   'Dy2 Ta2 O8'
_cell_volume   146.87069218
_cell_formula_units_Z   2
loop_
 _symmetry_equiv_pos_site_id
 _symmetry_equiv_pos_as_xyz
  1  'x, y, z'
loop_
 _atom_site_type_symbol
 _atom_site_label
 _atom_site_symmetry_multiplicity
 _atom_site_fract_x
 _atom_site_fract_y
 _atom_site_fract_z
 _atom_site_occupancy
  Dy  Dy0  1  -0.00000000  0.75000000  0.76584587  1
  Dy  Dy1  1  -0.00000000  0.25000000  0.23415413  1
  Ta  Ta2  1  0.50000000  0.25000000  0.69549096  1
  Ta  Ta3  1  0.50000000  0.75000000  0.30450904  1
  O  O4  1  0.73263839  0.00842218  0.56242750  1
  O  O5  1  0.26736161  0.49157782  0.56242750  1
  O  O6  1  0.26736161  0.99157782  0.43757250  1
  O  O7  1  0.73263839  0.50842218  0.43757250  1
  O  O8  1  0.25066681  0.59857837  0.08212888  1
  O  O9  1  0.74933319  0.90142163  0.08212888  1
  O  O10  1  0.74933319  0.40142163  0.91787112  1
  O  O11  1  0.25066681  0.09857837  0.91787112  1
