# generated using pymatgen
data_V2O3F
_symmetry_space_group_name_H-M   'P 1'
_cell_length_a   4.59690667
_cell_length_b   4.59690671
_cell_length_c   11.75372599
_cell_angle_alpha   90.00224823
_cell_angle_beta   89.99777524
_cell_angle_gamma   92.90833486
_symmetry_Int_Tables_number   1
_chemical_formula_structural   V2O3F
_chemical_formula_sum   'V8 O12 F4'
_cell_volume   248.05455154
_cell_formula_units_Z   4
loop_
 _symmetry_equiv_pos_site_id
 _symmetry_equiv_pos_as_xyz
  1  'x, y, z'
loop_
 _atom_site_type_symbol
 _atom_site_label
 _atom_site_symmetry_multiplicity
 _atom_site_fract_x
 _atom_site_fract_y
 _atom_site_fract_z
 _atom_site_occupancy
  V  V0  1  0.00001880  0.99998212  0.00001064  1
  V  V1  1  0.97979241  0.02020699  0.25003379  1
  V  V2  1  -0.00001206  0.00001252  0.49998729  1
  V  V3  1  0.02018705  0.97981340  0.74997563  1
  V  V4  1  0.52694312  0.47305731  0.12599582  1
  V  V5  1  0.47303149  0.52696934  0.62600307  1
  V  V6  1  0.47305539  0.52694489  0.87398308  1
  V  V7  1  0.52690917  0.47309038  0.37401302  1
  O  O8  1  0.19601307  0.80398248  0.87466591  1
  O  O9  1  0.19601710  0.80398213  0.62530380  1
  O  O10  1  0.29984287  0.29990058  0.00005496  1
  O  O11  1  0.30271357  0.29284449  0.25001024  1
  O  O12  1  0.29985658  0.29982062  0.49993739  1
  O  O13  1  0.29286454  0.30268719  0.74999423  1
  O  O14  1  0.70009937  0.70015639  0.00005499  1
  O  O15  1  0.70715693  0.69728533  0.25001030  1
  O  O16  1  0.70017915  0.70014398  0.49993724  1
  O  O17  1  0.69731256  0.70713706  0.74999428  1
  O  O18  1  0.80397084  0.19602855  0.12535163  1
  O  O19  1  0.80398852  0.19601060  0.37467825  1
  F  F20  1  0.20327748  0.79672348  0.12532960  1
  F  F21  1  0.20327371  0.79672684  0.37470069  1
  F  F22  1  0.79673769  0.20326318  0.62526919  1
  F  F23  1  0.79676965  0.20323114  0.87470697  1
