# generated using pymatgen
data_Cs3TmO3
_symmetry_space_group_name_H-M   'P 1'
_cell_length_a   7.50596177
_cell_length_b   8.17679439
_cell_length_c   12.06166113
_cell_angle_alpha   84.64509345
_cell_angle_beta   90.00000000
_cell_angle_gamma   90.00000000
_symmetry_Int_Tables_number   1
_chemical_formula_structural   Cs3TmO3
_chemical_formula_sum   'Cs12 Tm4 O12'
_cell_volume   737.05011541
_cell_formula_units_Z   4
loop_
 _symmetry_equiv_pos_site_id
 _symmetry_equiv_pos_as_xyz
  1  'x, y, z'
loop_
 _atom_site_type_symbol
 _atom_site_label
 _atom_site_symmetry_multiplicity
 _atom_site_fract_x
 _atom_site_fract_y
 _atom_site_fract_z
 _atom_site_occupancy
  Cs  Cs0  1  0.33890698  0.35156045  0.07662885  1
  Cs  Cs1  1  0.62155686  0.94216302  0.15596257  1
  Cs  Cs2  1  0.81880434  0.37875733  0.19050827  1
  Cs  Cs3  1  0.31880434  0.62124267  0.30949173  1
  Cs  Cs4  1  0.12155686  0.05783698  0.34403743  1
  Cs  Cs5  1  0.83890698  0.64843955  0.42337115  1
  Cs  Cs6  1  0.16109302  0.35156045  0.57662885  1
  Cs  Cs7  1  0.87844314  0.94216302  0.65596257  1
  Cs  Cs8  1  0.68119566  0.37875733  0.69050827  1
  Cs  Cs9  1  0.18119566  0.62124267  0.80949173  1
  Cs  Cs10  1  0.37844314  0.05783698  0.84403743  1
  Cs  Cs11  1  0.66109302  0.64843955  0.92337115  1
  Tm  Tm12  1  0.08646844  0.84531046  0.06828159  1
  Tm  Tm13  1  0.58646844  0.15468954  0.43171841  1
  Tm  Tm14  1  0.41353156  0.84531046  0.56828159  1
  Tm  Tm15  1  0.91353156  0.15468954  0.93171841  1
  O  O16  1  0.34235261  0.75477061  0.04721610  1
  O  O17  1  0.05364938  0.10385916  0.08629502  1
  O  O18  1  0.94677865  0.70627403  0.19114652  1
  O  O19  1  0.44677865  0.29372597  0.30885348  1
  O  O20  1  0.55364938  0.89614084  0.41370498  1
  O  O21  1  0.84235261  0.24522939  0.45278390  1
  O  O22  1  0.15764739  0.75477061  0.54721610  1
  O  O23  1  0.44635062  0.10385916  0.58629502  1
  O  O24  1  0.55322135  0.70627403  0.69114652  1
  O  O25  1  0.05322135  0.29372597  0.80885348  1
  O  O26  1  0.94635062  0.89614084  0.91370498  1
  O  O27  1  0.65764739  0.24522939  0.95278390  1
