# generated using pymatgen
data_Cs3ScO3
_symmetry_space_group_name_H-M   'P 1'
_cell_length_a   7.32418222
_cell_length_b   7.32418222
_cell_length_c   7.44391154
_cell_angle_alpha   83.17073300
_cell_angle_beta   83.17073300
_cell_angle_gamma   115.61349048
_symmetry_Int_Tables_number   1
_chemical_formula_structural   Cs3ScO3
_chemical_formula_sum   'Cs6 Sc2 O6'
_cell_volume   350.99472875
_cell_formula_units_Z   2
loop_
 _symmetry_equiv_pos_site_id
 _symmetry_equiv_pos_as_xyz
  1  'x, y, z'
loop_
 _atom_site_type_symbol
 _atom_site_label
 _atom_site_symmetry_multiplicity
 _atom_site_fract_x
 _atom_site_fract_y
 _atom_site_fract_z
 _atom_site_occupancy
  Cs  Cs0  1  0.63837407  0.63837407  0.65262309  1
  Cs  Cs1  1  0.79357651  0.20642349  0.50000000  1
  Cs  Cs2  1  0.20642349  0.79357651  0.50000000  1
  Cs  Cs3  1  0.73545538  0.26454462  0.00000000  1
  Cs  Cs4  1  0.26454462  0.73545538  0.00000000  1
  Cs  Cs5  1  0.36162593  0.36162593  0.34737691  1
  Sc  Sc6  1  0.83744821  0.83744821  0.14980964  1
  Sc  Sc7  1  0.16255179  0.16255179  0.85019036  1
  O  O8  1  0.89818064  0.89818064  0.86694027  1
  O  O9  1  0.58697843  0.84737095  0.26661301  1
  O  O10  1  0.84737095  0.58697843  0.26661301  1
  O  O11  1  0.15262905  0.41302157  0.73338699  1
  O  O12  1  0.41302157  0.15262905  0.73338699  1
  O  O13  1  0.10181936  0.10181936  0.13305973  1
