# generated using pymatgen
data_Sr2Tl2O5
_symmetry_space_group_name_H-M   'P 1'
_cell_length_a   13.96583265
_cell_length_b   6.03794457
_cell_length_c   7.01483229
_cell_angle_alpha   73.59885924
_cell_angle_beta   90.00000000
_cell_angle_gamma   90.00000000
_symmetry_Int_Tables_number   1
_chemical_formula_structural   Sr2Tl2O5
_chemical_formula_sum   'Sr8 Tl8 O20'
_cell_volume   567.45506071
_cell_formula_units_Z   4
loop_
 _symmetry_equiv_pos_site_id
 _symmetry_equiv_pos_as_xyz
  1  'x, y, z'
loop_
 _atom_site_type_symbol
 _atom_site_label
 _atom_site_symmetry_multiplicity
 _atom_site_fract_x
 _atom_site_fract_y
 _atom_site_fract_z
 _atom_site_occupancy
  Sr  Sr0  1  0.11365472  0.54956831  0.86318374  1
  Sr  Sr1  1  0.76252500  0.93475876  0.76038083  1
  Sr  Sr2  1  0.88634528  0.45043169  0.13681626  1
  Sr  Sr3  1  0.23747500  0.06524124  0.23961917  1
  Sr  Sr4  1  0.38634528  0.54956831  0.36318374  1
  Sr  Sr5  1  0.73747500  0.93475876  0.26038083  1
  Sr  Sr6  1  0.26252500  0.06524124  0.73961917  1
  Sr  Sr7  1  0.61365472  0.45043169  0.63681626  1
  Tl  Tl8  1  0.39428786  0.54659188  0.86057213  1
  Tl  Tl9  1  -0.00000000  0.00000000  0.00000000  1
  Tl  Tl10  1  0.60571214  0.45340812  0.13942787  1
  Tl  Tl11  1  0.50000000  0.00000000  0.00000000  1
  Tl  Tl12  1  0.10571214  0.54659188  0.36057213  1
  Tl  Tl13  1  0.50000000  0.00000000  0.50000000  1
  Tl  Tl14  1  0.89428786  0.45340812  0.63942787  1
  Tl  Tl15  1  -0.00000000  0.00000000  0.50000000  1
  O  O16  1  0.63777085  0.15959010  0.96447008  1
  O  O17  1  0.26693383  0.36638920  0.92052538  1
  O  O18  1  0.94541453  0.73215630  0.81583972  1
  O  O19  1  0.86057927  0.14592112  0.96263673  1
  O  O20  1  0.53427197  0.70734226  0.82270883  1
  O  O21  1  0.36222915  0.84040990  0.03552992  1
  O  O22  1  0.05458547  0.26784370  0.18416028  1
  O  O23  1  0.13942073  0.85407888  0.03736327  1
  O  O24  1  0.46572803  0.29265774  0.17729117  1
  O  O25  1  0.73306617  0.63361080  0.07947462  1
  O  O26  1  0.63942073  0.14592112  0.46263673  1
  O  O27  1  0.86222915  0.15959010  0.46447008  1
  O  O28  1  0.23306617  0.36638920  0.42052538  1
  O  O29  1  0.55458547  0.73215630  0.31583972  1
  O  O30  1  0.96572803  0.70734226  0.32270883  1
  O  O31  1  0.03427197  0.29265774  0.67729117  1
  O  O32  1  0.44541453  0.26784370  0.68416028  1
  O  O33  1  0.76693383  0.63361080  0.57947462  1
  O  O34  1  0.13777085  0.84040990  0.53552992  1
  O  O35  1  0.36057927  0.85407888  0.53736327  1
