# generated using pymatgen
data_CrH10S2(NO2)4
_symmetry_space_group_name_H-M   'P 1'
_cell_length_a   7.34797800
_cell_length_b   5.53645940
_cell_length_c   5.80444064
_cell_angle_alpha   97.49830279
_cell_angle_beta   91.81301760
_cell_angle_gamma   103.36727990
_symmetry_Int_Tables_number   1
_chemical_formula_structural   CrH10S2(NO2)4
_chemical_formula_sum   'Cr1 H10 S2 N4 O8'
_cell_volume   227.30500497
_cell_formula_units_Z   1
loop_
 _symmetry_equiv_pos_site_id
 _symmetry_equiv_pos_as_xyz
  1  'x, y, z'
loop_
 _atom_site_type_symbol
 _atom_site_label
 _atom_site_symmetry_multiplicity
 _atom_site_fract_x
 _atom_site_fract_y
 _atom_site_fract_z
 _atom_site_occupancy
  Cr  Cr0  1  0.00000000  0.00000000  0.00000000  1
  H  H1  1  0.70890300  0.26849800  0.91719600  1
  H  H2  1  0.55495600  0.16921400  0.24402800  1
  H  H3  1  0.78926900  0.28547000  0.44341300  1
  H  H4  1  0.92909000  0.37583400  0.12329600  1
  H  H5  1  0.59659400  0.40750300  0.29210800  1
  H  H6  1  0.40340600  0.59249700  0.70789200  1
  H  H7  1  0.07091000  0.62416600  0.87670400  1
  H  H8  1  0.21073100  0.71453000  0.55658700  1
  H  H9  1  0.44504400  0.83078600  0.75597200  1
  H  H10  1  0.29109700  0.73150200  0.08280400  1
  S  S11  1  0.25088800  0.22660100  0.65579300  1
  S  S12  1  0.74911200  0.77339900  0.34420700  1
  N  N13  1  0.67767600  0.28034000  0.27639000  1
  N  N14  1  0.81876500  0.25655100  0.07521700  1
  N  N15  1  0.18123500  0.74344900  0.92478300  1
  N  N16  1  0.32232400  0.71966000  0.72361000  1
  O  O17  1  0.26790300  0.11998700  0.86093600  1
  O  O18  1  0.23970800  0.09402300  0.40844700  1
  O  O19  1  0.46587300  0.35515900  0.70688500  1
  O  O20  1  0.04149000  0.33911200  0.67063100  1
  O  O21  1  0.95851000  0.66088800  0.32936900  1
  O  O22  1  0.53412700  0.64484100  0.29311500  1
  O  O23  1  0.76029200  0.90597700  0.59155300  1
  O  O24  1  0.73209700  0.88001300  0.13906400  1
