# generated using pymatgen
data_SmY15O24
_symmetry_space_group_name_H-M   'P 1'
_cell_length_a   9.19759507
_cell_length_b   9.19759507
_cell_length_c   10.62540560
_cell_angle_alpha   54.80516243
_cell_angle_beta   54.80516243
_cell_angle_gamma   70.60749733
_symmetry_Int_Tables_number   1
_chemical_formula_structural   SmY15O24
_chemical_formula_sum   'Sm1 Y15 O24'
_cell_volume   600.27108795
_cell_formula_units_Z   1
loop_
 _symmetry_equiv_pos_site_id
 _symmetry_equiv_pos_as_xyz
  1  'x, y, z'
loop_
 _atom_site_type_symbol
 _atom_site_label
 _atom_site_symmetry_multiplicity
 _atom_site_fract_x
 _atom_site_fract_y
 _atom_site_fract_z
 _atom_site_occupancy
  Sm  Sm0  1  0.03160256  0.96839744  0.50000000  1
  Y  Y1  1  0.96761022  0.03238978  0.00000000  1
  Y  Y2  1  0.99999321  0.49849755  0.75091032  1
  Y  Y3  1  0.71635997  0.21836314  0.78344491  1
  Y  Y4  1  0.78163686  0.28364003  0.21655509  1
  Y  Y5  1  0.25044079  0.25145813  0.03078835  1
  Y  Y6  1  0.25058620  0.25030383  0.53275222  1
  Y  Y7  1  0.50150245  0.00000679  0.24908968  1
  Y  Y8  1  0.99987930  0.50193992  0.24839470  1
  Y  Y9  1  0.49806008  0.00012070  0.75160530  1
  Y  Y10  1  0.53267254  0.46732746  0.50000000  1
  Y  Y11  1  0.46733187  0.53266813  0.00000000  1
  Y  Y12  1  0.74969617  0.74941380  0.46724778  1
  Y  Y13  1  0.74854187  0.74955921  0.96921165  1
  Y  Y14  1  0.21780316  0.71623852  0.28237060  1
  Y  Y15  1  0.28376148  0.78219684  0.71762940  1
  O  O16  1  0.45673921  0.24034269  0.78139280  1
  O  O17  1  0.04223976  0.26075158  0.97808429  1
  O  O18  1  0.03093863  0.72469393  0.76590165  1
  O  O19  1  0.72901564  0.03153085  0.26062440  1
  O  O20  1  0.53216701  0.22800289  0.47964941  1
  O  O21  1  0.22960005  0.53247854  0.97877935  1
  O  O22  1  0.75965731  0.54326079  0.21860720  1
  O  O23  1  0.73924842  0.95776024  0.02191571  1
  O  O24  1  0.22887519  0.98924495  0.79283416  1
  O  O25  1  0.98901114  0.23498799  0.28723841  1
  O  O26  1  0.51069410  0.27090223  0.01129997  1
  O  O27  1  0.27090201  0.51063696  0.51120172  1
  O  O28  1  0.01075505  0.77112481  0.20716584  1
  O  O29  1  0.48936304  0.72909799  0.48879828  1
  O  O30  1  0.76501201  0.01098886  0.71276159  1
  O  O31  1  0.72909777  0.48930590  0.98870003  1
  O  O32  1  0.23843019  0.45673549  0.28234407  1
  O  O33  1  0.26643217  0.04222772  0.47748379  1
  O  O34  1  0.77199711  0.46783299  0.52035059  1
  O  O35  1  0.46752146  0.77039995  0.02122065  1
  O  O36  1  0.27530607  0.96906137  0.23409835  1
  O  O37  1  0.96846915  0.27098436  0.73937560  1
  O  O38  1  0.54326451  0.76156981  0.71765593  1
  O  O39  1  0.95777228  0.73356783  0.52251621  1
