# generated using pymatgen
data_Zr2N2O
_symmetry_space_group_name_H-M   'P 1'
_cell_length_a   8.77521326
_cell_length_b   8.78085956
_cell_length_c   8.79932431
_cell_angle_alpha   109.42557726
_cell_angle_beta   109.42335304
_cell_angle_gamma   109.43094456
_symmetry_Int_Tables_number   1
_chemical_formula_structural   Zr2N2O
_chemical_formula_sum   'Zr16 N16 O8'
_cell_volume   522.80188592
_cell_formula_units_Z   8
loop_
 _symmetry_equiv_pos_site_id
 _symmetry_equiv_pos_as_xyz
  1  'x, y, z'
loop_
 _atom_site_type_symbol
 _atom_site_label
 _atom_site_symmetry_multiplicity
 _atom_site_fract_x
 _atom_site_fract_y
 _atom_site_fract_z
 _atom_site_occupancy
  Zr  Zr0  1  0.51238688  0.49871410  0.50098492  1
  Zr  Zr1  1  0.21292062  0.75715055  0.46466724  1
  Zr  Zr2  1  0.96470333  0.21481273  0.25810170  1
  Zr  Zr3  1  0.47021825  0.72071758  0.24751446  1
  Zr  Zr4  1  0.29145275  0.24811010  0.03433844  1
  Zr  Zr5  1  0.25267119  0.02956028  0.28601974  1
  Zr  Zr6  1  0.24547712  0.53426704  0.78453588  1
  Zr  Zr7  1  0.74770031  0.96626384  0.70815782  1
  Zr  Zr8  1  0.50038702  0.00788529  0.01113308  1
  Zr  Zr9  1  0.99123179  0.50371355  0.99477676  1
  Zr  Zr10  1  0.74427695  0.46535887  0.21545800  1
  Zr  Zr11  1  0.99942825  0.99613553  0.48948964  1
  Zr  Zr12  1  0.71815128  0.75061260  0.96870393  1
  Zr  Zr13  1  0.53827346  0.28164647  0.75012871  1
  Zr  Zr14  1  0.02753187  0.77976933  0.74912346  1
  Zr  Zr15  1  0.78599194  0.24956068  0.53579727  1
  N  N16  1  0.77007570  0.72985105  0.73741309  1
  N  N17  1  0.53863480  0.51000545  0.27166707  1
  N  N18  1  0.50804537  0.76674093  0.03923956  1
  N  N19  1  0.24077422  0.76832573  0.22957747  1
  N  N20  1  0.95870893  0.72655053  0.47037633  1
  N  N21  1  0.72835041  0.23620604  0.26854796  1
  N  N22  1  0.05144144  0.27485558  0.53454111  1
  N  N23  1  0.76282797  0.22716006  0.77817452  1
  N  N24  1  0.96644469  0.95920421  0.22686045  1
  N  N25  1  0.25870323  0.98978226  0.03052521  1
  N  N26  1  0.48370320  0.22509771  0.95328019  1
  N  N27  1  0.77295991  0.54591113  0.01134591  1
  N  N28  1  0.99558176  0.53707767  0.76616160  1
  N  N29  1  0.72674802  0.96399821  0.45863978  1
  N  N30  1  0.27236290  0.03074127  0.54579581  1
  N  N31  1  0.53325099  0.26484122  0.48817305  1
  O  O32  1  0.27788462  0.75823834  0.72535952  1
  O  O33  1  0.22724316  0.27938693  0.26417119  1
  O  O34  1  0.46478911  0.73998211  0.51996114  1
  O  O35  1  0.03229235  0.05157283  0.77553641  1
  O  O36  1  0.73681079  0.01143701  0.96515505  1
  O  O37  1  0.22224490  0.44652699  0.98053844  1
  O  O38  1  0.01357464  0.46308499  0.23637891  1
  O  O39  1  0.45374988  0.48915026  0.72365419  1
