# generated using pymatgen
data_Mg2Mn3O8
_symmetry_space_group_name_H-M   'P 1'
_cell_length_a   4.88049741
_cell_length_b   5.74694276
_cell_length_c   9.37741753
_cell_angle_alpha   90.00000000
_cell_angle_beta   90.00000000
_cell_angle_gamma   90.00000000
_symmetry_Int_Tables_number   1
_chemical_formula_structural   Mg2Mn3O8
_chemical_formula_sum   'Mg4 Mn6 O16'
_cell_volume   263.01723726
_cell_formula_units_Z   2
loop_
 _symmetry_equiv_pos_site_id
 _symmetry_equiv_pos_as_xyz
  1  'x, y, z'
loop_
 _atom_site_type_symbol
 _atom_site_label
 _atom_site_symmetry_multiplicity
 _atom_site_fract_x
 _atom_site_fract_y
 _atom_site_fract_z
 _atom_site_occupancy
  Mg  Mg0  1  0.81467538  0.50000000  0.22083696  1
  Mg  Mg1  1  0.82162731  0.50000000  0.81507357  1
  Mg  Mg2  1  0.17837269  -0.00000000  0.31507357  1
  Mg  Mg3  1  0.18532462  -0.00000000  0.72083696  1
  Mn  Mn4  1  0.18436482  0.50000000  0.49759665  1
  Mn  Mn5  1  0.32333696  0.74007677  0.00035920  1
  Mn  Mn6  1  0.67666304  0.75992323  0.50035920  1
  Mn  Mn7  1  0.81563518  -0.00000000  0.99759665  1
  Mn  Mn8  1  0.67666304  0.24007677  0.50035920  1
  Mn  Mn9  1  0.32333696  0.25992323  0.00035920  1
  O  O10  1  0.17765596  0.50000000  0.10750466  1
  O  O11  1  0.85087704  0.50000000  0.60533652  1
  O  O12  1  0.51540005  0.50000000  0.39164232  1
  O  O13  1  0.44791147  0.50000000  0.88741151  1
  O  O14  1  0.99207820  0.72074414  0.38125897  1
  O  O15  1  0.35294743  0.73679709  0.60277123  1
  O  O16  1  0.64705257  0.76320291  0.10277123  1
  O  O17  1  0.00792180  0.77925586  0.88125897  1
  O  O18  1  0.14912296  -0.00000000  0.10533652  1
  O  O19  1  0.48459995  -0.00000000  0.89164232  1
  O  O20  1  0.82234404  -0.00000000  0.60750466  1
  O  O21  1  0.55208853  -0.00000000  0.38741151  1
  O  O22  1  0.00792180  0.22074414  0.88125897  1
  O  O23  1  0.64705257  0.23679709  0.10277123  1
  O  O24  1  0.35294743  0.26320291  0.60277123  1
  O  O25  1  0.99207820  0.27925586  0.38125897  1
