# generated using pymatgen
data_Al2H12(SeO5)3
_symmetry_space_group_name_H-M   'P 1'
_cell_length_a   8.71890682
_cell_length_b   8.71890682
_cell_length_c   10.73997703
_cell_angle_alpha   90.00000000
_cell_angle_beta   90.00000000
_cell_angle_gamma   119.99999347
_symmetry_Int_Tables_number   1
_chemical_formula_structural   Al2H12(SeO5)3
_chemical_formula_sum   'Al4 H24 Se6 O30'
_cell_volume   707.06295734
_cell_formula_units_Z   2
loop_
 _symmetry_equiv_pos_site_id
 _symmetry_equiv_pos_as_xyz
  1  'x, y, z'
loop_
 _atom_site_type_symbol
 _atom_site_label
 _atom_site_symmetry_multiplicity
 _atom_site_fract_x
 _atom_site_fract_y
 _atom_site_fract_z
 _atom_site_occupancy
  Al  Al0  1  0.33333300  0.66666700  0.96892541  1
  Al  Al1  1  0.33333300  0.66666700  0.53107459  1
  Al  Al2  1  0.66666700  0.33333300  0.46892541  1
  Al  Al3  1  0.66666700  0.33333300  0.03107459  1
  H  H4  1  0.80153383  0.22383388  0.63735832  1
  H  H5  1  0.77616612  0.57770094  0.63735832  1
  H  H6  1  0.42229906  0.19846617  0.63735832  1
  H  H7  1  0.80153383  0.22383388  0.86264168  1
  H  H8  1  0.77616612  0.57770094  0.86264168  1
  H  H9  1  0.42229906  0.19846617  0.86264168  1
  H  H10  1  0.22383388  0.80153383  0.13735832  1
  H  H11  1  0.57770094  0.77616612  0.13735832  1
  H  H12  1  0.19846617  0.42229906  0.13735832  1
  H  H13  1  0.22383388  0.80153383  0.36264168  1
  H  H14  1  0.57770094  0.77616612  0.36264168  1
  H  H15  1  0.19846617  0.42229906  0.36264168  1
  H  H16  1  0.94493399  0.42543702  0.59610953  1
  H  H17  1  0.57456298  0.51949697  0.59610953  1
  H  H18  1  0.48050303  0.05506601  0.59610953  1
  H  H19  1  0.94493399  0.42543702  0.90389047  1
  H  H20  1  0.57456298  0.51949697  0.90389047  1
  H  H21  1  0.48050303  0.05506601  0.90389047  1
  H  H22  1  0.42543702  0.94493399  0.09610953  1
  H  H23  1  0.51949697  0.57456298  0.09610953  1
  H  H24  1  0.05506601  0.48050303  0.09610953  1
  H  H25  1  0.42543702  0.94493399  0.40389047  1
  H  H26  1  0.51949697  0.57456298  0.40389047  1
  H  H27  1  0.05506601  0.48050303  0.40389047  1
  Se  Se28  1  0.61964058  0.87661960  0.75000000  1
  Se  Se29  1  0.12338040  0.74301998  0.75000000  1
  Se  Se30  1  0.25698002  0.38035942  0.75000000  1
  Se  Se31  1  0.87661960  0.61964058  0.25000000  1
  Se  Se32  1  0.74301998  0.12338040  0.25000000  1
  Se  Se33  1  0.38035942  0.25698002  0.25000000  1
  O  O34  1  0.48183984  0.16524740  0.57163727  1
  O  O35  1  0.83475260  0.31659343  0.57163727  1
  O  O36  1  0.68340657  0.51816016  0.57163727  1
  O  O37  1  0.48183984  0.16524740  0.92836273  1
  O  O38  1  0.83475260  0.31659343  0.92836273  1
  O  O39  1  0.68340657  0.51816016  0.92836273  1
  O  O40  1  0.16524740  0.48183984  0.07163727  1
  O  O41  1  0.31659343  0.83475260  0.07163727  1
  O  O42  1  0.51816016  0.68340657  0.07163727  1
  O  O43  1  0.16524740  0.48183984  0.42836273  1
  O  O44  1  0.31659343  0.83475260  0.42836273  1
  O  O45  1  0.51816016  0.68340657  0.42836273  1
  O  O46  1  0.38083286  0.51342073  0.87262231  1
  O  O47  1  0.48657927  0.86741214  0.87262231  1
  O  O48  1  0.13258786  0.61916714  0.87262231  1
  O  O49  1  0.38083286  0.51342073  0.62737769  1
  O  O50  1  0.48657927  0.86741214  0.62737769  1
  O  O51  1  0.13258786  0.61916714  0.62737769  1
  O  O52  1  0.51342073  0.38083286  0.37262231  1
  O  O53  1  0.86741214  0.48657927  0.37262231  1
  O  O54  1  0.61916714  0.13258786  0.37262231  1
  O  O55  1  0.51342073  0.38083286  0.12737769  1
  O  O56  1  0.86741214  0.48657927  0.12737769  1
  O  O57  1  0.61916714  0.13258786  0.12737769  1
  O  O58  1  0.76733881  0.09363495  0.75000000  1
  O  O59  1  0.90636505  0.67370386  0.75000000  1
  O  O60  1  0.32629614  0.23266119  0.75000000  1
  O  O61  1  0.09363495  0.76733881  0.25000000  1
  O  O62  1  0.67370386  0.90636505  0.25000000  1
  O  O63  1  0.23266119  0.32629614  0.25000000  1
