# generated using pymatgen
data_Na5CoHO4
_symmetry_space_group_name_H-M   'P 1'
_cell_length_a   9.94047200
_cell_length_b   10.11242600
_cell_length_c   11.99203000
_cell_angle_alpha   90.00000000
_cell_angle_beta   90.00000000
_cell_angle_gamma   90.00000000
_symmetry_Int_Tables_number   1
_chemical_formula_structural   Na5CoHO4
_chemical_formula_sum   'Na40 Co8 H8 O32'
_cell_volume   1205.46628743
_cell_formula_units_Z   8
loop_
 _symmetry_equiv_pos_site_id
 _symmetry_equiv_pos_as_xyz
  1  'x, y, z'
loop_
 _atom_site_type_symbol
 _atom_site_label
 _atom_site_symmetry_multiplicity
 _atom_site_fract_x
 _atom_site_fract_y
 _atom_site_fract_z
 _atom_site_occupancy
  Na  Na0  1  0.98093300  0.59017500  0.20955100  1
  Na  Na1  1  0.98093300  0.90982500  0.20955100  1
  Na  Na2  1  0.07319500  0.06705400  0.41365000  1
  Na  Na3  1  0.07319500  0.43294600  0.41365000  1
  Na  Na4  1  0.08086700  0.75000000  0.44607600  1
  Na  Na5  1  0.11735600  0.25000000  0.98370100  1
  Na  Na6  1  0.13128400  0.56679200  0.99043300  1
  Na  Na7  1  0.13128400  0.93320800  0.99043300  1
  Na  Na8  1  0.21831700  0.57972100  0.67816300  1
  Na  Na9  1  0.21831700  0.92027900  0.67816300  1
  Na  Na10  1  0.28168300  0.07972100  0.17816300  1
  Na  Na11  1  0.28168300  0.42027900  0.17816300  1
  Na  Na12  1  0.36871600  0.06679200  0.49043300  1
  Na  Na13  1  0.36871600  0.43320800  0.49043300  1
  Na  Na14  1  0.38264400  0.75000000  0.48370100  1
  Na  Na15  1  0.41913300  0.25000000  0.94607600  1
  Na  Na16  1  0.42680500  0.56705400  0.91365000  1
  Na  Na17  1  0.42680500  0.93294600  0.91365000  1
  Na  Na18  1  0.51906700  0.09017500  0.70955100  1
  Na  Na19  1  0.51906700  0.40982500  0.70955100  1
  Na  Na20  1  0.48093300  0.59017500  0.29044900  1
  Na  Na21  1  0.48093300  0.90982500  0.29044900  1
  Na  Na22  1  0.57319500  0.06705400  0.08635000  1
  Na  Na23  1  0.57319500  0.43294600  0.08635000  1
  Na  Na24  1  0.58086700  0.75000000  0.05392400  1
  Na  Na25  1  0.61735600  0.25000000  0.51629900  1
  Na  Na26  1  0.63128400  0.56679200  0.50956700  1
  Na  Na27  1  0.63128400  0.93320800  0.50956700  1
  Na  Na28  1  0.71831700  0.57972100  0.82183700  1
  Na  Na29  1  0.71831700  0.92027900  0.82183700  1
  Na  Na30  1  0.78168300  0.07972100  0.32183700  1
  Na  Na31  1  0.78168300  0.42027900  0.32183700  1
  Na  Na32  1  0.86871600  0.06679200  0.00956700  1
  Na  Na33  1  0.86871600  0.43320800  0.00956700  1
  Na  Na34  1  0.88264400  0.75000000  0.01629900  1
  Na  Na35  1  0.91913300  0.25000000  0.55392400  1
  Na  Na36  1  0.92680500  0.93294600  0.58635000  1
  Na  Na37  1  0.92680500  0.56705400  0.58635000  1
  Na  Na38  1  0.01906700  0.09017500  0.79044900  1
  Na  Na39  1  0.01906700  0.40982500  0.79044900  1
  Co  Co40  1  0.01251300  0.25000000  0.21064000  1
  Co  Co41  1  0.20858100  0.25000000  0.61893100  1
  Co  Co42  1  0.29141900  0.75000000  0.11893100  1
  Co  Co43  1  0.48748700  0.75000000  0.71064000  1
  Co  Co44  1  0.51251300  0.25000000  0.28936000  1
  Co  Co45  1  0.70858100  0.25000000  0.88106900  1
  Co  Co46  1  0.79141900  0.75000000  0.38106900  1
  Co  Co47  1  0.98748700  0.75000000  0.78936000  1
  H  H48  1  0.22694200  0.62466200  0.30992200  1
  H  H49  1  0.22694200  0.87533800  0.30992200  1
  H  H50  1  0.27305800  0.12466200  0.80992200  1
  H  H51  1  0.27305800  0.37533800  0.80992200  1
  H  H52  1  0.72694200  0.62466200  0.19007800  1
  H  H53  1  0.72694200  0.87533800  0.19007800  1
  H  H54  1  0.77305800  0.12466200  0.69007800  1
  H  H55  1  0.77305800  0.37533800  0.69007800  1
  O  O56  1  0.05895100  0.75000000  0.64912400  1
  O  O57  1  0.05970600  0.09919500  0.12483300  1
  O  O58  1  0.05970600  0.40080500  0.12483300  1
  O  O59  1  0.09567000  0.09936100  0.60681700  1
  O  O60  1  0.09567000  0.40063900  0.60681700  1
  O  O61  1  0.10809200  0.75000000  0.11867900  1
  O  O62  1  0.24676500  0.08042000  0.87845500  1
  O  O63  1  0.24676500  0.41958000  0.87845500  1
  O  O64  1  0.25323500  0.58042000  0.37845500  1
  O  O65  1  0.25323500  0.91958000  0.37845500  1
  O  O66  1  0.39190800  0.25000000  0.61867900  1
  O  O67  1  0.40433000  0.59936100  0.10681700  1
  O  O68  1  0.40433000  0.90063900  0.10681700  1
  O  O69  1  0.44029400  0.59919500  0.62483300  1
  O  O70  1  0.44029400  0.90080500  0.62483300  1
  O  O71  1  0.44104900  0.25000000  0.14912400  1
  O  O72  1  0.55895100  0.75000000  0.85087600  1
  O  O73  1  0.55970600  0.09919500  0.37516700  1
  O  O74  1  0.55970600  0.40080500  0.37516700  1
  O  O75  1  0.59567000  0.09936100  0.89318300  1
  O  O76  1  0.59567000  0.40063900  0.89318300  1
  O  O77  1  0.60809200  0.75000000  0.38132100  1
  O  O78  1  0.74676500  0.08042000  0.62154500  1
  O  O79  1  0.74676500  0.41958000  0.62154500  1
  O  O80  1  0.75323500  0.58042000  0.12154500  1
  O  O81  1  0.75323500  0.91958000  0.12154500  1
  O  O82  1  0.89190800  0.25000000  0.88132100  1
  O  O83  1  0.90433000  0.90063900  0.39318300  1
  O  O84  1  0.90433000  0.59936100  0.39318300  1
  O  O85  1  0.94029400  0.90080500  0.87516700  1
  O  O86  1  0.94029400  0.59919500  0.87516700  1
  O  O87  1  0.94104900  0.25000000  0.35087600  1
