# generated using pymatgen
data_P4WO12
_symmetry_space_group_name_H-M   'P 1'
_cell_length_a   13.56568543
_cell_length_b   5.30695791
_cell_length_c   7.28300378
_cell_angle_alpha   80.14021715
_cell_angle_beta   90.00000000
_cell_angle_gamma   90.00000000
_symmetry_Int_Tables_number   1
_chemical_formula_structural   P4WO12
_chemical_formula_sum   'P8 W2 O24'
_cell_volume   516.57744995
_cell_formula_units_Z   2
loop_
 _symmetry_equiv_pos_site_id
 _symmetry_equiv_pos_as_xyz
  1  'x, y, z'
loop_
 _atom_site_type_symbol
 _atom_site_label
 _atom_site_symmetry_multiplicity
 _atom_site_fract_x
 _atom_site_fract_y
 _atom_site_fract_z
 _atom_site_occupancy
  P  P0  1  0.86966290  0.97854655  0.56546492  1
  P  P1  1  0.09286417  0.97445831  0.57406733  1
  P  P2  1  0.67955963  0.88209508  0.08917351  1
  P  P3  1  0.32537540  0.78435548  0.11800140  1
  P  P4  1  0.82537540  0.21564452  0.88199860  1
  P  P5  1  0.17955963  0.11790492  0.91082649  1
  P  P6  1  0.59286417  0.02554169  0.42593267  1
  P  P7  1  0.36966290  0.02145345  0.43453508  1
  W  W8  1  0.73078560  0.50262282  0.49342668  1
  W  W9  1  0.23078560  0.49737718  0.50657332  1
  O  O10  1  0.84976030  0.97199015  0.77735398  1
  O  O11  1  0.27239127  0.92714054  0.93679516  1
  O  O12  1  0.10752651  0.96587638  0.78823987  1
  O  O13  1  0.48196827  0.95683254  0.46363349  1
  O  O14  1  0.63341799  0.84605814  0.91716167  1
  O  O15  1  0.65135955  0.81594244  0.53645326  1
  O  O16  1  0.31480166  0.80809736  0.55174374  1
  O  O17  1  0.85297140  0.71793938  0.51655376  1
  O  O18  1  0.10941027  0.71127803  0.52806908  1
  O  O19  1  0.71971122  0.65230526  0.22433964  1
  O  O20  1  0.41362167  0.64837437  0.08098966  1
  O  O21  1  0.24437920  0.63527781  0.23830073  1
  O  O22  1  0.74437920  0.36472219  0.76169927  1
  O  O23  1  0.91362167  0.35162563  0.91901034  1
  O  O24  1  0.21971122  0.34769474  0.77566036  1
  O  O25  1  0.60941027  0.28872197  0.47193092  1
  O  O26  1  0.35297140  0.28206062  0.48344624  1
  O  O27  1  0.81480166  0.19190264  0.44825626  1
  O  O28  1  0.15135955  0.18405756  0.46354674  1
  O  O29  1  0.13341799  0.15394186  0.08283833  1
  O  O30  1  0.98196827  0.04316746  0.53636651  1
  O  O31  1  0.60752651  0.03412362  0.21176013  1
  O  O32  1  0.77239127  0.07285946  0.06320484  1
  O  O33  1  0.34976030  0.02800985  0.22264602  1
