# generated using pymatgen
data_Y2HfO5
_symmetry_space_group_name_H-M   'P 1'
_cell_length_a   3.73437528
_cell_length_b   7.46130828
_cell_length_c   15.65011004
_cell_angle_alpha   90.00000000
_cell_angle_beta   90.00000000
_cell_angle_gamma   90.00000000
_symmetry_Int_Tables_number   1
_chemical_formula_structural   Y2HfO5
_chemical_formula_sum   'Y8 Hf4 O20'
_cell_volume   436.06410542
_cell_formula_units_Z   4
loop_
 _symmetry_equiv_pos_site_id
 _symmetry_equiv_pos_as_xyz
  1  'x, y, z'
loop_
 _atom_site_type_symbol
 _atom_site_label
 _atom_site_symmetry_multiplicity
 _atom_site_fract_x
 _atom_site_fract_y
 _atom_site_fract_z
 _atom_site_occupancy
  Y  Y0  1  0.25000000  0.09438999  0.08896727  1
  Y  Y1  1  0.25000000  0.14121767  0.73992875  1
  Y  Y2  1  0.75000000  0.35878233  0.23992875  1
  Y  Y3  1  0.75000000  0.40561001  0.58896727  1
  Y  Y4  1  0.25000000  0.59438999  0.41103273  1
  Y  Y5  1  0.25000000  0.64121767  0.76007125  1
  Y  Y6  1  0.75000000  0.85878233  0.26007125  1
  Y  Y7  1  0.75000000  0.90561001  0.91103273  1
  Hf  Hf8  1  0.25000000  0.12382332  0.42836216  1
  Hf  Hf9  1  0.75000000  0.37617668  0.92836216  1
  Hf  Hf10  1  0.25000000  0.62382332  0.07163784  1
  Hf  Hf11  1  0.75000000  0.87617668  0.57163784  1
  O  O12  1  0.75000000  0.09659162  0.17911526  1
  O  O13  1  0.75000000  0.08998705  0.46630252  1
  O  O14  1  0.75000000  0.09736241  0.65341897  1
  O  O15  1  0.75000000  0.14336797  0.00370887  1
  O  O16  1  0.25000000  0.29839462  0.33011232  1
  O  O17  1  0.75000000  0.20160538  0.83011232  1
  O  O18  1  0.25000000  0.35663203  0.50370887  1
  O  O19  1  0.25000000  0.40263759  0.15341897  1
  O  O20  1  0.25000000  0.41001295  0.96630252  1
  O  O21  1  0.25000000  0.40340838  0.67911526  1
  O  O22  1  0.75000000  0.59659162  0.32088474  1
  O  O23  1  0.75000000  0.58998705  0.03369748  1
  O  O24  1  0.75000000  0.59736241  0.84658103  1
  O  O25  1  0.75000000  0.64336797  0.49629113  1
  O  O26  1  0.25000000  0.79839462  0.16988768  1
  O  O27  1  0.75000000  0.70160538  0.66988768  1
  O  O28  1  0.25000000  0.85663203  0.99629113  1
  O  O29  1  0.25000000  0.90263759  0.34658103  1
  O  O30  1  0.25000000  0.91001295  0.53369748  1
  O  O31  1  0.25000000  0.90340838  0.82088474  1
