# generated using pymatgen
data_Sb4I2O5
_symmetry_space_group_name_H-M   'P 1'
_cell_length_a   5.21555723
_cell_length_b   7.25330584
_cell_length_c   13.49450630
_cell_angle_alpha   82.41276757
_cell_angle_beta   90.00000000
_cell_angle_gamma   90.00000000
_symmetry_Int_Tables_number   1
_chemical_formula_structural   Sb4I2O5
_chemical_formula_sum   'Sb8 I4 O10'
_cell_volume   506.02818793
_cell_formula_units_Z   2
loop_
 _symmetry_equiv_pos_site_id
 _symmetry_equiv_pos_as_xyz
  1  'x, y, z'
loop_
 _atom_site_type_symbol
 _atom_site_label
 _atom_site_symmetry_multiplicity
 _atom_site_fract_x
 _atom_site_fract_y
 _atom_site_fract_z
 _atom_site_occupancy
  Sb  Sb0  1  0.61403627  0.81894346  0.29717565  1
  Sb  Sb1  1  0.11403627  0.18105654  0.20282435  1
  Sb  Sb2  1  0.38596373  0.18105654  0.70282435  1
  Sb  Sb3  1  0.88596373  0.81894346  0.79717565  1
  Sb  Sb4  1  0.72315086  0.15715275  0.44427979  1
  Sb  Sb5  1  0.22315086  0.84284725  0.05572021  1
  Sb  Sb6  1  0.27684914  0.84284725  0.55572021  1
  Sb  Sb7  1  0.77684914  0.15715275  0.94427979  1
  I  I8  1  0.71134849  0.48334877  0.12135794  1
  I  I9  1  0.21134849  0.51665123  0.37864206  1
  I  I10  1  0.28865151  0.51665123  0.87864206  1
  I  I11  1  0.78865151  0.48334877  0.62135794  1
  O  O12  1  0.50527205  0.06453142  0.58180387  1
  O  O13  1  0.00527205  0.93546858  0.91819613  1
  O  O14  1  0.49472795  0.93546858  0.41819613  1
  O  O15  1  0.99472795  0.06453142  0.08180387  1
  O  O16  1  0.83566078  0.06472226  0.29179710  1
  O  O17  1  0.33566078  0.93527774  0.20820290  1
  O  O18  1  0.16433922  0.93527774  0.70820290  1
  O  O19  1  0.66433922  0.06472226  0.79179710  1
  O  O20  1  0.50000000  0.00000000  0.00000000  1
  O  O21  1  0.00000000  0.00000000  0.50000000  1
