# generated using pymatgen
data_K2AgAs
_symmetry_space_group_name_H-M   'P 1'
_cell_length_a   6.01103224
_cell_length_b   6.38253075
_cell_length_c   6.38253030
_cell_angle_alpha   103.48437049
_cell_angle_beta   90.00000000
_cell_angle_gamma   90.00000000
_symmetry_Int_Tables_number   1
_chemical_formula_structural   K2AgAs
_chemical_formula_sum   'K4 Ag2 As2'
_cell_volume   238.11941049
_cell_formula_units_Z   2
loop_
 _symmetry_equiv_pos_site_id
 _symmetry_equiv_pos_as_xyz
  1  'x, y, z'
loop_
 _atom_site_type_symbol
 _atom_site_label
 _atom_site_symmetry_multiplicity
 _atom_site_fract_x
 _atom_site_fract_y
 _atom_site_fract_z
 _atom_site_occupancy
  K  K0  1  0.24975459  0.68513489  0.02765353  1
  K  K1  1  0.74975459  0.31486511  0.97234647  1
  K  K2  1  0.25024541  0.02765353  0.68513489  1
  K  K3  1  0.75024541  0.97234647  0.31486511  1
  Ag  Ag4  1  0.50000000  0.50000097  0.49999903  1
  Ag  Ag5  1  0.00000000  0.49999903  0.50000097  1
  As  As6  1  0.75000000  0.75905858  0.75905858  1
  As  As7  1  0.25000000  0.24094142  0.24094142  1
