# generated using pymatgen
data_Ba2GeO4
_symmetry_space_group_name_H-M   'P 1'
_cell_length_a   6.03894903
_cell_length_b   10.47970203
_cell_length_c   15.26717564
_cell_angle_alpha   90.00000000
_cell_angle_beta   90.00000000
_cell_angle_gamma   90.00000000
_symmetry_Int_Tables_number   1
_chemical_formula_structural   Ba2GeO4
_chemical_formula_sum   'Ba16 Ge8 O32'
_cell_volume   966.20437692
_cell_formula_units_Z   8
loop_
 _symmetry_equiv_pos_site_id
 _symmetry_equiv_pos_as_xyz
  1  'x, y, z'
loop_
 _atom_site_type_symbol
 _atom_site_label
 _atom_site_symmetry_multiplicity
 _atom_site_fract_x
 _atom_site_fract_y
 _atom_site_fract_z
 _atom_site_occupancy
  Ba  Ba0  1  0.73580188  0.78650347  0.04621899  1
  Ba  Ba1  1  0.72765970  0.40547246  0.12552524  1
  Ba  Ba2  1  0.23468432  0.01237565  0.12509073  1
  Ba  Ba3  1  0.23036383  0.62634183  0.20324834  1
  Ba  Ba4  1  0.73036383  0.12634183  0.29675166  1
  Ba  Ba5  1  0.73468432  0.51237565  0.37490927  1
  Ba  Ba6  1  0.22765970  0.90547246  0.37447476  1
  Ba  Ba7  1  0.23580188  0.28650347  0.45378101  1
  Ba  Ba8  1  0.76419812  0.78650347  0.54621899  1
  Ba  Ba9  1  0.77234030  0.40547246  0.62552524  1
  Ba  Ba10  1  0.26531568  0.01237565  0.62509073  1
  Ba  Ba11  1  0.26963617  0.62634183  0.70324834  1
  Ba  Ba12  1  0.76963617  0.12634183  0.79675166  1
  Ba  Ba13  1  0.76531568  0.51237565  0.87490927  1
  Ba  Ba14  1  0.27234030  0.90547246  0.87447476  1
  Ba  Ba15  1  0.26419812  0.28650347  0.95378101  1
  Ge  Ge16  1  0.76065968  0.12792571  0.01509176  1
  Ge  Ge17  1  0.23978897  0.29165372  0.23582261  1
  Ge  Ge18  1  0.73978897  0.79165372  0.26417739  1
  Ge  Ge19  1  0.26065968  0.62792571  0.48490824  1
  Ge  Ge20  1  0.73934032  0.12792571  0.51509176  1
  Ge  Ge21  1  0.26021103  0.29165372  0.73582261  1
  Ge  Ge22  1  0.76021103  0.79165372  0.76417739  1
  Ge  Ge23  1  0.23934032  0.62792571  0.98490824  1
  O  O24  1  0.52377780  0.04075982  0.98538662  1
  O  O25  1  -0.00002956  0.55806236  0.03158004  1
  O  O26  1  0.26564684  0.78025213  0.03563468  1
  O  O27  1  0.28253469  0.27989894  0.12254185  1
  O  O28  1  0.79297540  0.13907936  0.12887963  1
  O  O29  1  0.69064729  0.64157221  0.21288749  1
  O  O30  1  0.98865490  0.84754771  0.21636122  1
  O  O31  1  0.52161179  0.89539164  0.23666449  1
  O  O32  1  0.02161179  0.39539164  0.26333551  1
  O  O33  1  0.48865490  0.34754771  0.28363878  1
  O  O34  1  0.19064729  0.14157221  0.28711251  1
  O  O35  1  0.29297540  0.63907936  0.37112037  1
  O  O36  1  0.78253469  0.77989894  0.37745815  1
  O  O37  1  0.76564684  0.28025213  0.46436532  1
  O  O38  1  0.49997044  0.05806236  0.46841996  1
  O  O39  1  0.02377780  0.54075982  0.51461338  1
  O  O40  1  0.97622220  0.04075982  0.48538662  1
  O  O41  1  0.50002956  0.55806236  0.53158004  1
  O  O42  1  0.23435316  0.78025213  0.53563468  1
  O  O43  1  0.21746531  0.27989894  0.62254185  1
  O  O44  1  0.70702460  0.13907936  0.62887963  1
  O  O45  1  0.80935271  0.64157221  0.71288749  1
  O  O46  1  0.51134510  0.84754771  0.71636122  1
  O  O47  1  0.97838821  0.89539164  0.73666449  1
  O  O48  1  0.47838821  0.39539164  0.76333551  1
  O  O49  1  0.01134510  0.34754771  0.78363878  1
  O  O50  1  0.30935271  0.14157221  0.78711251  1
  O  O51  1  0.20702460  0.63907936  0.87112037  1
  O  O52  1  0.71746531  0.77989894  0.87745815  1
  O  O53  1  0.73435316  0.28025213  0.96436532  1
  O  O54  1  0.00002956  0.05806236  0.96841996  1
  O  O55  1  0.47622220  0.54075982  0.01461338  1
