# generated using pymatgen
data_Ho3Sb5O12
_symmetry_space_group_name_H-M   'P 1'
_cell_length_a   9.28336122
_cell_length_b   9.28336447
_cell_length_c   9.28331399
_cell_angle_alpha   109.47180885
_cell_angle_beta   109.47099006
_cell_angle_gamma   109.47081542
_symmetry_Int_Tables_number   1
_chemical_formula_structural   Ho3Sb5O12
_chemical_formula_sum   'Ho6 Sb10 O24'
_cell_volume   615.87426168
_cell_formula_units_Z   2
loop_
 _symmetry_equiv_pos_site_id
 _symmetry_equiv_pos_as_xyz
  1  'x, y, z'
loop_
 _atom_site_type_symbol
 _atom_site_label
 _atom_site_symmetry_multiplicity
 _atom_site_fract_x
 _atom_site_fract_y
 _atom_site_fract_z
 _atom_site_occupancy
  Ho  Ho0  1  0.75000768  0.25000243  0.50000751  1
  Ho  Ho1  1  0.74999938  0.49999957  0.24999935  1
  Ho  Ho2  1  0.49999720  0.24999941  0.74999737  1
  Ho  Ho3  1  0.49999646  0.74999813  0.24999942  1
  Ho  Ho4  1  0.25000172  0.75000346  0.50000493  1
  Ho  Ho5  1  0.24999970  0.50000071  0.74999920  1
  Sb  Sb6  1  0.51715533  -0.00000864  -0.00001145  1
  Sb  Sb7  1  0.28129904  -0.00003984  0.28130968  1
  Sb  Sb8  1  0.28133316  0.28134389  0.00002444  1
  Sb  Sb9  1  0.71867108  -0.00002075  0.71866155  1
  Sb  Sb10  1  0.71868448  0.71866226  0.00000765  1
  Sb  Sb11  1  0.00000337  0.51717641  0.00001047  1
  Sb  Sb12  1  0.99999254  -0.00001421  0.51716188  1
  Sb  Sb13  1  0.48281849  0.48283333  0.48282303  1
  Sb  Sb14  1  0.00005283  0.28136311  0.28135034  1
  Sb  Sb15  1  0.00000362  0.71869951  0.71865757  1
  O  O16  1  0.47837998  0.99998923  0.20038526  1
  O  O17  1  0.47839171  0.20039209  0.00000523  1
  O  O18  1  0.70387685  0.50231508  -0.00000094  1
  O  O19  1  0.70388547  -0.00000236  0.50231723  1
  O  O20  1  0.79843992  0.29611682  0.29612309  1
  O  O21  1  0.49767632  0.49768148  0.20156849  1
  O  O22  1  0.49768175  0.20155446  0.49767811  1
  O  O23  1  0.50230544  0.70388465  -0.00000372  1
  O  O24  1  0.50231961  0.00000358  0.70388444  1
  O  O25  1  0.72200210  0.52161708  0.52161454  1
  O  O26  1  0.79961657  0.27799995  0.79960805  1
  O  O27  1  0.79960236  0.79960723  0.27798591  1
  O  O28  1  0.20039613  0.47838675  0.00000455  1
  O  O29  1  0.20038875  -0.00000199  0.47838464  1
  O  O30  1  0.52161670  0.72201273  0.52162183  1
  O  O31  1  0.52160383  0.52160672  0.72199731  1
  O  O32  1  -0.00000119  0.47837735  0.20039064  1
  O  O33  1  0.00000806  0.20039533  0.47839808  1
  O  O34  1  0.29610683  0.79842758  0.29610951  1
  O  O35  1  0.29612311  0.29611998  0.79843594  1
  O  O36  1  0.20157234  0.49768588  0.49768646  1
  O  O37  1  -0.00000427  0.70388571  0.50231373  1
  O  O38  1  0.00000385  0.50232606  0.70388394  1
  O  O39  1  0.27799571  0.79961883  0.79960374  1
