# generated using pymatgen
data_VZnHPbO5
_symmetry_space_group_name_H-M   'P 1'
_cell_length_a   6.07115658
_cell_length_b   7.57827178
_cell_length_c   9.41225566
_cell_angle_alpha   90.00000000
_cell_angle_beta   90.00000000
_cell_angle_gamma   90.00000000
_symmetry_Int_Tables_number   1
_chemical_formula_structural   VZnHPbO5
_chemical_formula_sum   'V4 Zn4 H4 Pb4 O20'
_cell_volume   433.04729020
_cell_formula_units_Z   4
loop_
 _symmetry_equiv_pos_site_id
 _symmetry_equiv_pos_as_xyz
  1  'x, y, z'
loop_
 _atom_site_type_symbol
 _atom_site_label
 _atom_site_symmetry_multiplicity
 _atom_site_fract_x
 _atom_site_fract_y
 _atom_site_fract_z
 _atom_site_occupancy
  V  V0  1  0.75000000  0.86778262  0.18778042  1
  V  V1  1  0.75000000  0.36778262  0.31221958  1
  V  V2  1  0.25000000  0.13221738  0.81221958  1
  V  V3  1  0.25000000  0.63221738  0.68778042  1
  Zn  Zn4  1  0.00000000  0.50000000  -0.00000000  1
  Zn  Zn5  1  0.50000000  0.00000000  0.50000000  1
  Zn  Zn6  1  0.50000000  0.50000000  -0.00000000  1
  Zn  Zn7  1  0.00000000  0.00000000  0.50000000  1
  H  H8  1  0.25000000  0.76022772  0.01583428  1
  H  H9  1  0.25000000  0.26022772  0.48416572  1
  H  H10  1  0.75000000  0.23977228  0.98416572  1
  H  H11  1  0.75000000  0.73977228  0.51583428  1
  Pb  Pb12  1  0.25000000  0.62872763  0.32418563  1
  Pb  Pb13  1  0.25000000  0.12872763  0.17581437  1
  Pb  Pb14  1  0.75000000  0.37127237  0.67581437  1
  Pb  Pb15  1  0.75000000  0.87127237  0.82418563  1
  O  O16  1  0.75000000  0.68774821  0.07243529  1
  O  O17  1  0.75000000  0.18774821  0.42756471  1
  O  O18  1  0.25000000  0.31225179  0.92756471  1
  O  O19  1  0.25000000  0.81225179  0.57243529  1
  O  O20  1  0.75000000  0.04687417  0.08167377  1
  O  O21  1  0.75000000  0.54687417  0.41832623  1
  O  O22  1  0.25000000  0.95312583  0.91832623  1
  O  O23  1  0.25000000  0.45312583  0.58167377  1
  O  O24  1  0.98947110  0.87664151  0.29093292  1
  O  O25  1  0.51052890  0.37664151  0.20906708  1
  O  O26  1  0.48947110  0.12335849  0.70906708  1
  O  O27  1  0.01052890  0.62335849  0.79093292  1
  O  O28  1  0.01052890  0.12335849  0.70906708  1
  O  O29  1  0.48947110  0.62335849  0.79093292  1
  O  O30  1  0.51052890  0.87664151  0.29093292  1
  O  O31  1  0.98947110  0.37664151  0.20906708  1
  O  O32  1  0.25000000  0.64672377  0.06727655  1
  O  O33  1  0.25000000  0.14672377  0.43272345  1
  O  O34  1  0.75000000  0.35327623  0.93272345  1
  O  O35  1  0.75000000  0.85327623  0.56727655  1
