# generated using pymatgen
data_V2SiO4
_symmetry_space_group_name_H-M   'P 1'
_cell_length_a   4.80626165
_cell_length_b   10.48884434
_cell_length_c   6.16002550
_cell_angle_alpha   90.00461350
_cell_angle_beta   89.99998170
_cell_angle_gamma   90.00000861
_symmetry_Int_Tables_number   1
_chemical_formula_structural   V2SiO4
_chemical_formula_sum   'V8 Si4 O16'
_cell_volume   310.54000707
_cell_formula_units_Z   4
loop_
 _symmetry_equiv_pos_site_id
 _symmetry_equiv_pos_as_xyz
  1  'x, y, z'
loop_
 _atom_site_type_symbol
 _atom_site_label
 _atom_site_symmetry_multiplicity
 _atom_site_fract_x
 _atom_site_fract_y
 _atom_site_fract_z
 _atom_site_occupancy
  V  V0  1  -0.00000085  0.00000019  0.49999952  1
  V  V1  1  0.49999954  0.49999965  0.50000049  1
  V  V2  1  -0.00000045  0.00000051  -0.00000071  1
  V  V3  1  0.50000044  0.49999924  0.00000107  1
  V  V4  1  0.00599579  0.72532759  0.74997715  1
  V  V5  1  0.49400044  0.22532690  0.74997649  1
  V  V6  1  0.50599624  0.77467212  0.25002346  1
  V  V7  1  0.99400019  0.27467318  0.25002320  1
  Si  Si8  1  0.07143536  0.59578935  0.25001812  1
  Si  Si9  1  0.42857165  0.09578936  0.25001662  1
  Si  Si10  1  0.57143230  0.90421005  0.74998278  1
  Si  Si11  1  0.92856536  0.40421027  0.74998417  1
  O  O12  1  0.20957329  0.45099570  0.24998528  1
  O  O13  1  0.29042515  0.95099323  0.24998438  1
  O  O14  1  0.70957303  0.04900476  0.75001487  1
  O  O15  1  0.79042456  0.54900622  0.75001582  1
  O  O16  1  0.26549594  0.40523717  0.75000274  1
  O  O17  1  0.23450849  0.90523769  0.75000042  1
  O  O18  1  0.76549347  0.09476279  0.24999708  1
  O  O19  1  0.73450927  0.59476231  0.24999997  1
  O  O20  1  0.22073656  0.66232369  0.03749325  1
  O  O21  1  0.22085061  0.66234051  0.46243838  1
  O  O22  1  0.27926240  0.16232435  0.03748773  1
  O  O23  1  0.27914952  0.16234118  0.46244207  1
  O  O24  1  0.72073642  0.83767613  0.96250803  1
  O  O25  1  0.72085079  0.83765808  0.53756121  1
  O  O26  1  0.77926283  0.33767575  0.96251083  1
  O  O27  1  0.77914966  0.33765902  0.53755857  1
