# generated using pymatgen
data_MnO2
_symmetry_space_group_name_H-M   'P 1'
_cell_length_a   5.64613353
_cell_length_b   5.64663882
_cell_length_c   8.66033658
_cell_angle_alpha   90.00026488
_cell_angle_beta   90.00238299
_cell_angle_gamma   119.99333353
_symmetry_Int_Tables_number   1
_chemical_formula_structural   MnO2
_chemical_formula_sum   'Mn8 O16'
_cell_volume   239.13091604
_cell_formula_units_Z   8
loop_
 _symmetry_equiv_pos_site_id
 _symmetry_equiv_pos_as_xyz
  1  'x, y, z'
loop_
 _atom_site_type_symbol
 _atom_site_label
 _atom_site_symmetry_multiplicity
 _atom_site_fract_x
 _atom_site_fract_y
 _atom_site_fract_z
 _atom_site_occupancy
  Mn  Mn0  1  0.16591902  0.83043595  0.21088088  1
  Mn  Mn1  1  0.33134215  0.66428069  0.48512985  1
  Mn  Mn2  1  0.16582541  0.33248790  0.21091074  1
  Mn  Mn3  1  0.66370557  0.83039682  0.21097173  1
  Mn  Mn4  1  0.33226468  0.16464308  0.71095593  1
  Mn  Mn5  1  0.66500972  0.33107572  0.98513020  1
  Mn  Mn6  1  0.83024224  0.66242929  0.71084957  1
  Mn  Mn7  1  0.83026561  0.16468067  0.71087682  1
  O  O8  1  0.16414727  0.83093299  0.59921383  1
  O  O9  1  0.03782944  0.51752856  0.34060136  1
  O  O10  1  0.33192129  0.66452117  0.10026932  1
  O  O11  1  0.99854833  0.99782524  0.31862086  1
  O  O12  1  0.99753464  0.99717362  0.81859249  1
  O  O13  1  0.16402769  0.33004015  0.59909982  1
  O  O14  1  0.47860368  0.95812495  0.34079231  1
  O  O15  1  0.47859999  0.51756484  0.34075856  1
  O  O16  1  0.33132671  0.16426136  0.09925266  1
  O  O17  1  0.66502840  0.83097068  0.59917039  1
  O  O18  1  0.51759716  0.47757068  0.84071584  1
  O  O19  1  0.51760590  0.03704132  0.84079610  1
  O  O20  1  0.66419122  0.33052669  0.60024285  1
  O  O21  1  0.83220125  0.66521952  0.09908540  1
  O  O22  1  0.95834113  0.47761457  0.84056126  1
  O  O23  1  0.83206151  0.16423254  0.09922922  1
