# generated using pymatgen
data_Li5Co2(PO4)3
_symmetry_space_group_name_H-M   'P 1'
_cell_length_a   8.69997800
_cell_length_b   8.79296027
_cell_length_c   12.41254123
_cell_angle_alpha   90.02394419
_cell_angle_beta   90.69837956
_cell_angle_gamma   90.06844510
_symmetry_Int_Tables_number   1
_chemical_formula_structural   Li5Co2(PO4)3
_chemical_formula_sum   'Li20 Co8 P12 O48'
_cell_volume   949.47023845
_cell_formula_units_Z   4
loop_
 _symmetry_equiv_pos_site_id
 _symmetry_equiv_pos_as_xyz
  1  'x, y, z'
loop_
 _atom_site_type_symbol
 _atom_site_label
 _atom_site_symmetry_multiplicity
 _atom_site_fract_x
 _atom_site_fract_y
 _atom_site_fract_z
 _atom_site_occupancy
  Li  Li0  1  0.93237900  0.47925600  0.64970800  1
  Li  Li1  1  0.92764800  0.90643800  0.30430000  1
  Li  Li2  1  0.85697500  0.26748700  0.25315400  1
  Li  Li3  1  0.90461000  0.34290600  0.02528000  1
  Li  Li4  1  0.79720100  0.22995300  0.81587900  1
  Li  Li5  1  0.70277900  0.73083900  0.68381900  1
  Li  Li6  1  0.59540500  0.84456200  0.47558100  1
  Li  Li7  1  0.64298700  0.76781600  0.24674800  1
  Li  Li8  1  0.57234500  0.40635500  0.19552500  1
  Li  Li9  1  0.56878600  0.97924900  0.85021200  1
  Li  Li10  1  0.44579700  0.01299100  0.15828200  1
  Li  Li11  1  0.42385300  0.59415000  0.80613100  1
  Li  Li12  1  0.37398900  0.22836400  0.74345600  1
  Li  Li13  1  0.34669600  0.31855400  0.50700000  1
  Li  Li14  1  0.30040900  0.26163900  0.30414100  1
  Li  Li15  1  0.19941300  0.76204300  0.19627900  1
  Li  Li16  1  0.15208600  0.81746200  0.99341000  1
  Li  Li17  1  0.12612800  0.72811600  0.75615500  1
  Li  Li18  1  0.07520600  0.09412500  0.69330100  1
  Li  Li19  1  0.05466600  0.51321000  0.34173900  1
  Co  Co20  1  0.74132400  0.46938500  0.40133700  1
  Co  Co21  1  0.75797600  0.96906500  0.09889600  1
  Co  Co22  1  0.75025900  0.54977600  0.88984100  1
  Co  Co23  1  0.75004000  0.04905500  0.60966400  1
  Co  Co24  1  0.25000500  0.95530700  0.39837500  1
  Co  Co25  1  0.24860600  0.45498400  0.10135500  1
  Co  Co26  1  0.25554900  0.05594000  0.89227400  1
  Co  Co27  1  0.24514600  0.55629600  0.60762100  1
  P  P28  1  0.95022000  0.75263700  0.50668800  1
  P  P29  1  0.89221000  0.60646600  0.15041300  1
  P  P30  1  0.89225600  0.89965500  0.84396600  1
  P  P31  1  0.60759100  0.10651400  0.34956300  1
  P  P32  1  0.60796300  0.39958900  0.65629100  1
  P  P33  1  0.55042700  0.25232600  0.99332100  1
  P  P34  1  0.45228300  0.75211900  0.00924800  1
  P  P35  1  0.39745600  0.60059300  0.35166500  1
  P  P36  1  0.39523200  0.89212600  0.65223600  1
  P  P37  1  0.10267800  0.10018500  0.14829400  1
  P  P38  1  0.10464000  0.39169800  0.84740200  1
  P  P39  1  0.04750900  0.25208600  0.49049200  1
  O  O40  1  0.95786000  0.13834800  0.55838200  1
  O  O41  1  0.92730400  0.13643100  0.13038900  1
  O  O42  1  0.95541000  0.31953500  0.39355500  1
  O  O43  1  0.93367800  0.41068700  0.80904100  1
  O  O44  1  0.90954100  0.62643300  0.42379600  1
  O  O45  1  0.84925000  0.77311000  0.18162700  1
  O  O46  1  0.87474700  0.57891200  0.02945400  1
  O  O47  1  0.87191900  0.02440900  0.75568700  1
  O  O48  1  0.83745700  0.74145500  0.80573200  1
  O  O49  1  0.79763700  0.82089700  0.55110100  1
  O  O50  1  0.79582600  0.95248000  0.94030600  1
  O  O51  1  0.79146900  0.48955200  0.21347500  1
  O  O52  1  0.70831700  0.98984600  0.28637900  1
  O  O53  1  0.70436500  0.45247900  0.55988000  1
  O  O54  1  0.70310500  0.32029500  0.94924100  1
  O  O55  1  0.66258100  0.24168000  0.69436200  1
  O  O56  1  0.62547700  0.07865600  0.47054300  1
  O  O57  1  0.62806000  0.52450700  0.74458400  1
  O  O58  1  0.65082700  0.27312800  0.31849600  1
  O  O59  1  0.59031000  0.12630900  0.07638200  1
  O  O60  1  0.54469900  0.81973500  0.10625000  1
  O  O61  1  0.57284000  0.63704100  0.36980200  1
  O  O62  1  0.56653100  0.91150800  0.69043900  1
  O  O63  1  0.54186200  0.63878000  0.94119400  1
  O  O64  1  0.45807400  0.37181400  0.05597100  1
  O  O65  1  0.43631400  0.08133300  0.31264000  1
  O  O66  1  0.43029800  0.38635800  0.63628600  1
  O  O67  1  0.46000900  0.18412100  0.89438500  1
  O  O68  1  0.39958900  0.88010000  0.92988600  1
  O  O69  1  0.33970800  0.73351800  0.69397400  1
  O  O70  1  0.37895100  0.48061400  0.25952600  1
  O  O71  1  0.38599200  0.89124900  0.52868800  1
  O  O72  1  0.31870600  0.75161900  0.32113300  1
  O  O73  1  0.30023200  0.68235600  0.05648300  1
  O  O74  1  0.32222400  0.52669400  0.45105400  1
  O  O75  1  0.29791100  0.01924000  0.70502600  1
  O  O76  1  0.20195500  0.51920500  0.79505400  1
  O  O77  1  0.17751700  0.02658300  0.04885900  1
  O  O78  1  0.19966100  0.18221000  0.44367700  1
  O  O79  1  0.18075400  0.25219100  0.17913500  1
  O  O80  1  0.12142100  0.98053600  0.24035600  1
  O  O81  1  0.11369700  0.39137100  0.97139800  1
  O  O82  1  0.16052100  0.23318100  0.80624400  1
  O  O83  1  0.10082400  0.37988200  0.57006200  1
  O  O84  1  0.06359000  0.58171500  0.18750100  1
  O  O85  1  0.04045600  0.68441100  0.60556500  1
  O  O86  1  0.06978900  0.88617100  0.86381700  1
  O  O87  1  0.04198400  0.87210400  0.44413400  1
