# generated using pymatgen
data_SbOF
_symmetry_space_group_name_H-M   'P 1'
_cell_length_a   4.07475367
_cell_length_b   5.48479474
_cell_length_c   8.86716388
_cell_angle_alpha   90.00000000
_cell_angle_beta   90.00000000
_cell_angle_gamma   90.00000000
_symmetry_Int_Tables_number   1
_chemical_formula_structural   SbOF
_chemical_formula_sum   'Sb4 O4 F4'
_cell_volume   198.17390811
_cell_formula_units_Z   4
loop_
 _symmetry_equiv_pos_site_id
 _symmetry_equiv_pos_as_xyz
  1  'x, y, z'
loop_
 _atom_site_type_symbol
 _atom_site_label
 _atom_site_symmetry_multiplicity
 _atom_site_fract_x
 _atom_site_fract_y
 _atom_site_fract_z
 _atom_site_occupancy
  Sb  Sb0  1  0.25000000  0.28433474  0.56996571  1
  Sb  Sb1  1  0.75000000  0.71566526  0.43003429  1
  Sb  Sb2  1  0.75000000  0.78433474  0.93003429  1
  Sb  Sb3  1  0.25000000  0.21566526  0.06996571  1
  O  O4  1  0.25000000  0.58959164  0.44427642  1
  O  O5  1  0.25000000  0.91040836  0.94427642  1
  O  O6  1  0.75000000  0.08959164  0.05572358  1
  O  O7  1  0.75000000  0.41040836  0.55572358  1
  F  F8  1  0.75000000  0.95097967  0.73341078  1
  F  F9  1  0.75000000  0.54902033  0.23341078  1
  F  F10  1  0.25000000  0.45097967  0.76658922  1
  F  F11  1  0.25000000  0.04902033  0.26658922  1
