# generated using pymatgen
data_V11NiO18
_symmetry_space_group_name_H-M   'P 1'
_cell_length_a   5.45855273
_cell_length_b   8.62732844
_cell_length_c   7.39948086
_cell_angle_alpha   67.27472974
_cell_angle_beta   97.76914099
_cell_angle_gamma   75.07036077
_symmetry_Int_Tables_number   1
_chemical_formula_structural   V11NiO18
_chemical_formula_sum   'V11 Ni1 O18'
_cell_volume   299.59708479
_cell_formula_units_Z   1
loop_
 _symmetry_equiv_pos_site_id
 _symmetry_equiv_pos_as_xyz
  1  'x, y, z'
loop_
 _atom_site_type_symbol
 _atom_site_label
 _atom_site_symmetry_multiplicity
 _atom_site_fract_x
 _atom_site_fract_y
 _atom_site_fract_z
 _atom_site_occupancy
  V  V0  1  0.30936596  0.00045035  0.35286165  1
  V  V1  1  0.69415058  0.00291709  0.14894482  1
  V  V2  1  0.63654196  0.33040861  0.18579454  1
  V  V3  1  0.30684794  0.00244992  0.84786732  1
  V  V4  1  0.69832484  -0.00520637  0.65247789  1
  V  V5  1  0.64306504  0.33667045  0.67740903  1
  V  V6  1  0.36813737  0.66565941  0.31946445  1
  V  V7  1  0.96740972  0.66377463  0.01624391  1
  V  V8  1  0.01710361  0.33745298  0.97957617  1
  V  V9  1  0.97818185  0.66353793  0.51450392  1
  V  V10  1  0.35675771  0.66646582  0.81777763  1
  Ni  Ni11  1  0.03420509  0.33178230  0.48467088  1
  O  O12  1  0.39022246  0.20816999  0.14615871  1
  O  O13  1  0.29822512  0.09640764  0.54796393  1
  O  O14  1  0.93811850  0.12610054  0.18699893  1
  O  O15  1  0.37411054  0.56259938  0.12489392  1
  O  O16  1  0.04062167  0.22769658  0.79608660  1
  O  O17  1  0.72099210  0.22744550  0.48038332  1
  O  O18  1  0.93251055  0.43640783  0.18173768  1
  O  O19  1  0.60705411  0.10707475  0.85005308  1
  O  O20  1  0.27917187  0.46095318  0.52343635  1
  O  O21  1  0.73073872  0.54355211  0.48080363  1
  O  O22  1  0.39440441  0.90002903  0.14519853  1
  O  O23  1  0.05742235  0.56440033  0.80926953  1
  O  O24  1  0.27242656  0.77234188  0.51844812  1
  O  O25  1  0.95918792  0.77070015  0.20904384  1
  O  O26  1  0.61822535  0.43858972  0.87584380  1
  O  O27  1  0.71343537  0.89593495  0.45492513  1
  O  O28  1  0.06275119  0.87439071  0.81477150  1
  O  O29  1  0.60029455  0.79083962  0.85638921  1
