# generated using pymatgen
data_RbNO2
_symmetry_space_group_name_H-M   'P 1'
_cell_length_a   5.61857806
_cell_length_b   5.61857817
_cell_length_c   7.53880335
_cell_angle_alpha   90.00000000
_cell_angle_beta   90.00000000
_cell_angle_gamma   119.99998756
_symmetry_Int_Tables_number   1
_chemical_formula_structural   RbNO2
_chemical_formula_sum   'Rb3 N3 O6'
_cell_volume   206.10377558
_cell_formula_units_Z   3
loop_
 _symmetry_equiv_pos_site_id
 _symmetry_equiv_pos_as_xyz
  1  'x, y, z'
loop_
 _atom_site_type_symbol
 _atom_site_label
 _atom_site_symmetry_multiplicity
 _atom_site_fract_x
 _atom_site_fract_y
 _atom_site_fract_z
 _atom_site_occupancy
  Rb  Rb0  1  -0.00000000  0.69628418  0.66666700  1
  Rb  Rb1  1  0.30371582  0.30371582  -0.00000000  1
  Rb  Rb2  1  0.69628418  -0.00000000  0.33333300  1
  N  N3  1  0.00000000  0.69501462  0.16666700  1
  N  N4  1  0.30498538  0.30498538  0.50000000  1
  N  N5  1  0.69501462  0.00000000  0.83333300  1
  O  O6  1  0.10814720  0.62777300  0.28952351  1
  O  O7  1  0.51962479  0.89185280  0.95619051  1
  O  O8  1  0.37222700  0.48037521  0.62285651  1
  O  O9  1  0.48037521  0.37222700  0.37714349  1
  O  O10  1  0.62777300  0.10814720  0.71047649  1
  O  O11  1  0.89185280  0.51962479  0.04380949  1
