# generated using pymatgen
data_YScO3
_symmetry_space_group_name_H-M   'P 1'
_cell_length_a   6.17402580
_cell_length_b   6.17402566
_cell_length_c   12.19474075
_cell_angle_alpha   89.99999271
_cell_angle_beta   90.00000341
_cell_angle_gamma   120.00005297
_symmetry_Int_Tables_number   1
_chemical_formula_structural   YScO3
_chemical_formula_sum   'Y6 Sc6 O18'
_cell_volume   402.56854914
_cell_formula_units_Z   6
loop_
 _symmetry_equiv_pos_site_id
 _symmetry_equiv_pos_as_xyz
  1  'x, y, z'
loop_
 _atom_site_type_symbol
 _atom_site_label
 _atom_site_symmetry_multiplicity
 _atom_site_fract_x
 _atom_site_fract_y
 _atom_site_fract_z
 _atom_site_occupancy
  Y  Y0  1  0.33333353  0.66666689  0.23613702  1
  Y  Y1  1  -0.00000001  -0.00000033  0.27450084  1
  Y  Y2  1  -0.00000012  0.00000005  0.77450049  1
  Y  Y3  1  0.33333341  0.66666682  0.73613739  1
  Y  Y4  1  0.66666664  0.33333330  0.73613728  1
  Y  Y5  1  0.66666677  0.33333324  0.23613731  1
  Sc  Sc6  1  0.00000054  0.66634868  0.50192688  1
  Sc  Sc7  1  0.99999956  0.33365132  0.00192685  1
  Sc  Sc8  1  0.33365235  0.33365251  0.50192666  1
  Sc  Sc9  1  0.66634738  0.66634778  0.00192674  1
  Sc  Sc10  1  0.33365128  -0.00000026  0.00192682  1
  Sc  Sc11  1  0.66634886  0.00000046  0.50192706  1
  O  O12  1  -0.00000008  0.69227379  0.66979280  1
  O  O13  1  -0.00000006  0.64074353  0.33514679  1
  O  O14  1  0.00000015  0.35925619  0.83514671  1
  O  O15  1  -0.00000009  0.30772607  0.16979273  1
  O  O16  1  0.33333342  0.66666687  0.02201149  1
  O  O17  1  -0.00000004  -0.00000002  0.47624287  1
  O  O18  1  0.00000001  0.00000008  0.97624275  1
  O  O19  1  0.33333305  0.66666651  0.52201164  1
  O  O20  1  0.30772622  0.30772601  0.66979278  1
  O  O21  1  0.35925627  0.35925615  0.33514670  1
  O  O22  1  0.30772599  -0.00000001  0.16979272  1
  O  O23  1  0.64074378  0.64074361  0.83514668  1
  O  O24  1  0.69227391  0.69227400  0.16979263  1
  O  O25  1  0.35925640  0.00000020  0.83514672  1
  O  O26  1  0.66666679  0.33333321  0.52201169  1
  O  O27  1  0.66666668  0.33333359  0.02201144  1
  O  O28  1  0.64074360  -0.00000010  0.33514667  1
  O  O29  1  0.69227381  -0.00000016  0.66979283  1
