# generated using pymatgen
data_V2(OF)3
_symmetry_space_group_name_H-M   'P 1'
_cell_length_a   5.08676056
_cell_length_b   5.13568418
_cell_length_c   12.95472755
_cell_angle_alpha   89.33099146
_cell_angle_beta   89.61477070
_cell_angle_gamma   60.28893595
_symmetry_Int_Tables_number   1
_chemical_formula_structural   V2(OF)3
_chemical_formula_sum   'V6 O9 F9'
_cell_volume   293.91771698
_cell_formula_units_Z   3
loop_
 _symmetry_equiv_pos_site_id
 _symmetry_equiv_pos_as_xyz
  1  'x, y, z'
loop_
 _atom_site_type_symbol
 _atom_site_label
 _atom_site_symmetry_multiplicity
 _atom_site_fract_x
 _atom_site_fract_y
 _atom_site_fract_z
 _atom_site_occupancy
  V  V0  1  0.97290572  0.03757737  0.48715270  1
  V  V1  1  0.97647171  0.00024441  0.00275194  1
  V  V2  1  0.37244909  0.34164458  0.83064315  1
  V  V3  1  0.68551047  0.70447428  0.66854059  1
  V  V4  1  0.35896713  0.33439599  0.32815386  1
  V  V5  1  0.64101238  0.67278827  0.15735497  1
  O  O6  1  0.57478689  0.99201241  0.74974374  1
  O  O7  1  0.66211122  0.09446742  0.42121356  1
  O  O8  1  0.66300913  0.24205761  0.91468140  1
  O  O9  1  0.90996278  0.74880913  0.58731211  1
  O  O10  1  0.56665508  0.42277785  0.25033459  1
  O  O11  1  0.41782042  0.56201393  0.74904025  1
  O  O12  1  0.08298784  0.24046634  0.41995321  1
  O  O13  1  0.78313019  0.90548375  0.08594949  1
  O  O14  1  0.35826270  0.75206003  0.07801639  1
  F  F15  1  0.98919921  0.41137731  0.75313102  1
  F  F16  1  0.94404023  0.32961501  0.08381553  1
  F  F17  1  0.76111777  0.31932922  0.58994142  1
  F  F18  1  0.39932740  0.00005975  0.25090289  1
  F  F19  1  0.98168202  0.58839798  0.25585889  1
  F  F20  1  0.23939254  0.07977003  0.91432551  1
  F  F21  1  0.24837568  0.66831584  0.42190726  1
  F  F22  1  0.07104054  0.65729750  0.91416578  1
  F  F23  1  0.33978387  0.89457000  0.58511175  1
