# generated using pymatgen
data_Hf2N2O
_symmetry_space_group_name_H-M   'P 1'
_cell_length_a   8.64742078
_cell_length_b   8.67010164
_cell_length_c   8.68902345
_cell_angle_alpha   109.52160885
_cell_angle_beta   109.42631288
_cell_angle_gamma   109.32468777
_symmetry_Int_Tables_number   1
_chemical_formula_structural   Hf2N2O
_chemical_formula_sum   'Hf16 N16 O8'
_cell_volume   502.35717468
_cell_formula_units_Z   8
loop_
 _symmetry_equiv_pos_site_id
 _symmetry_equiv_pos_as_xyz
  1  'x, y, z'
loop_
 _atom_site_type_symbol
 _atom_site_label
 _atom_site_symmetry_multiplicity
 _atom_site_fract_x
 _atom_site_fract_y
 _atom_site_fract_z
 _atom_site_occupancy
  Hf  Hf0  1  0.21910436  0.25813268  0.97710584  1
  Hf  Hf1  1  0.99575375  0.48888346  0.99152591  1
  Hf  Hf2  1  0.75290952  0.97239934  0.72163189  1
  Hf  Hf3  1  0.24493561  0.53173180  0.78362972  1
  Hf  Hf4  1  0.53783775  0.78343665  0.25219947  1
  Hf  Hf5  1  0.03843928  0.28191820  0.25288077  1
  Hf  Hf6  1  0.51221485  0.01906985  0.00582760  1
  Hf  Hf7  1  0.72285900  0.25569316  0.47044984  1
  Hf  Hf8  1  0.49974860  0.49039984  0.50189915  1
  Hf  Hf9  1  0.28849381  0.75330283  0.54128019  1
  Hf  Hf10  1  0.98909189  0.99070750  0.48366940  1
  Hf  Hf11  1  0.46651061  0.21025739  0.74798935  1
  Hf  Hf12  1  0.95268660  0.70985000  0.74065796  1
  Hf  Hf13  1  0.25090911  0.03877963  0.29174048  1
  Hf  Hf14  1  0.74361538  0.46219060  0.20920076  1
  Hf  Hf15  1  0.78538299  0.74737200  0.03179453  1
  N  N16  1  0.27674255  0.53540632  0.04807358  1
  N  N17  1  0.26100186  0.49242663  0.53799449  1
  N  N18  1  0.76940917  0.04353027  0.51307082  1
  N  N19  1  0.27586058  0.26188187  0.22883675  1
  N  N20  1  0.46410259  0.23656053  0.00695120  1
  N  N21  1  0.97025606  0.46107337  0.72985158  1
  N  N22  1  0.22254134  0.94949259  0.48909011  1
  N  N23  1  0.73051083  0.74312604  0.77530038  1
  N  N24  1  0.77147139  0.22678171  0.23716004  1
  N  N25  1  0.98980379  0.03220289  0.26100971  1
  N  N26  1  0.54195096  0.00413022  0.77125542  1
  N  N27  1  0.74197128  0.51919639  0.46746956  1
  N  N28  1  0.75579957  0.72709858  0.26967744  1
  N  N29  1  0.95419598  0.22740167  0.96504504  1
  N  N30  1  0.51109633  0.26897639  0.54216365  1
  N  N31  1  0.73093691  0.46780646  0.95342486  1
  O  O32  1  0.48137705  0.72651485  0.45020207  1
  O  O33  1  0.05005671  0.77445109  0.03759636  1
  O  O34  1  0.23433391  0.27216763  0.72565355  1
  O  O35  1  0.44729789  0.98079942  0.21735691  1
  O  O36  1  0.22908481  0.77637305  0.76761437  1
  O  O37  1  0.01998269  0.96699762  0.74023620  1
  O  O38  1  0.53215412  0.76375961  0.98936515  1
  O  O39  1  0.03756250  0.54771490  0.27211391  1
