# generated using pymatgen
data_WOF4
_symmetry_space_group_name_H-M   'P 1'
_cell_length_a   5.01868437
_cell_length_b   5.01868437
_cell_length_c   5.01868437
_cell_angle_alpha   98.88663397
_cell_angle_beta   98.88663397
_cell_angle_gamma   133.71250469
_symmetry_Int_Tables_number   1
_chemical_formula_structural   WOF4
_chemical_formula_sum   'W1 O1 F4'
_cell_volume   84.01553192
_cell_formula_units_Z   1
loop_
 _symmetry_equiv_pos_site_id
 _symmetry_equiv_pos_as_xyz
  1  'x, y, z'
loop_
 _atom_site_type_symbol
 _atom_site_label
 _atom_site_symmetry_multiplicity
 _atom_site_fract_x
 _atom_site_fract_y
 _atom_site_fract_z
 _atom_site_occupancy
  W  W0  1  -0.00141683  -0.00141683  0.00000000  1
  O  O1  1  0.55934026  0.55934026  -0.00000000  1
  F  F2  1  0.34378534  -0.00898889  0.18330466  1
  F  F3  1  -0.00898889  0.80770645  0.64722577  1
  F  F4  1  0.16048068  0.34378534  0.35277423  1
  F  F5  1  0.80770645  0.16048068  0.81669534  1
