# generated using pymatgen
data_K2Ti8O17
_symmetry_space_group_name_H-M   'P 1'
_cell_length_a   8.09953259
_cell_length_b   8.09953259
_cell_length_c   12.02089944
_cell_angle_alpha   84.52390570
_cell_angle_beta   84.52390570
_cell_angle_gamma   26.98026688
_symmetry_Int_Tables_number   1
_chemical_formula_structural   K2Ti8O17
_chemical_formula_sum   'K2 Ti8 O17'
_cell_volume   356.04792865
_cell_formula_units_Z   1
loop_
 _symmetry_equiv_pos_site_id
 _symmetry_equiv_pos_as_xyz
  1  'x, y, z'
loop_
 _atom_site_type_symbol
 _atom_site_label
 _atom_site_symmetry_multiplicity
 _atom_site_fract_x
 _atom_site_fract_y
 _atom_site_fract_z
 _atom_site_occupancy
  K  K0  1  0.44492458  0.44492458  0.80518969  1
  K  K1  1  0.55507542  0.55507542  0.19481031  1
  Ti  Ti2  1  0.88988333  0.88988333  0.07053046  1
  Ti  Ti3  1  0.84863063  0.84863063  0.32776543  1
  Ti  Ti4  1  0.80542711  0.80542711  0.57599019  1
  Ti  Ti5  1  0.75777831  0.75777831  0.83139994  1
  Ti  Ti6  1  0.24222169  0.24222169  0.16860006  1
  Ti  Ti7  1  0.19457289  0.19457289  0.42400981  1
  Ti  Ti8  1  0.15136937  0.15136937  0.67223457  1
  Ti  Ti9  1  0.11011667  0.11011667  0.92946954  1
  O  O10  1  0.93473503  0.93473503  0.21807755  1
  O  O11  1  0.89268002  0.89268002  0.46305783  1
  O  O12  1  0.84807302  0.84807302  0.71072367  1
  O  O13  1  0.82962768  0.82962768  0.93607192  1
  O  O14  1  0.36243505  0.36243505  0.08493471  1
  O  O15  1  0.31373502  0.31373502  0.32232878  1
  O  O16  1  0.27161591  0.27161591  0.56776671  1
  O  O17  1  0.22792847  0.22792847  0.81834582  1
  O  O18  1  0.77207153  0.77207153  0.18165418  1
  O  O19  1  0.72838409  0.72838409  0.43223329  1
  O  O20  1  0.68626498  0.68626498  0.67767122  1
  O  O21  1  0.63756495  0.63756495  0.91506529  1
  O  O22  1  0.17037232  0.17037232  0.06392808  1
  O  O23  1  0.15192698  0.15192698  0.28927633  1
  O  O24  1  0.10731998  0.10731998  0.53694217  1
  O  O25  1  0.06526497  0.06526497  0.78192245  1
  O  O26  1  -0.00000000  -0.00000000  0.00000000  1
