# generated using pymatgen
data_DyHO2
_symmetry_space_group_name_H-M   'P 1'
_cell_length_a   5.03901479
_cell_length_b   10.80742086
_cell_length_c   3.51879475
_cell_angle_alpha   90.00000000
_cell_angle_beta   90.00000000
_cell_angle_gamma   90.00000000
_symmetry_Int_Tables_number   1
_chemical_formula_structural   DyHO2
_chemical_formula_sum   'Dy4 H4 O8'
_cell_volume   191.62917610
_cell_formula_units_Z   4
loop_
 _symmetry_equiv_pos_site_id
 _symmetry_equiv_pos_as_xyz
  1  'x, y, z'
loop_
 _atom_site_type_symbol
 _atom_site_label
 _atom_site_symmetry_multiplicity
 _atom_site_fract_x
 _atom_site_fract_y
 _atom_site_fract_z
 _atom_site_occupancy
  Dy  Dy0  1  0.10661175  0.85550100  0.25000000  1
  Dy  Dy1  1  0.39338825  0.35550100  0.25000000  1
  Dy  Dy2  1  0.60661175  0.64449900  0.75000000  1
  Dy  Dy3  1  0.89338825  0.14449900  0.75000000  1
  H  H4  1  0.14352646  0.60051185  0.25000000  1
  H  H5  1  0.35647354  0.10051185  0.25000000  1
  H  H6  1  0.64352646  0.89948815  0.75000000  1
  H  H7  1  0.85647354  0.39948815  0.75000000  1
  O  O8  1  0.17171019  0.06892425  0.25000000  1
  O  O9  1  0.14707774  0.31094450  0.75000000  1
  O  O10  1  0.35292226  0.81094450  0.75000000  1
  O  O11  1  0.32828981  0.56892425  0.25000000  1
  O  O12  1  0.67171019  0.43107575  0.75000000  1
  O  O13  1  0.64707774  0.18905550  0.25000000  1
  O  O14  1  0.85292226  0.68905550  0.25000000  1
  O  O15  1  0.82828981  0.93107575  0.75000000  1
