# generated using pymatgen
data_Ba3SrI8
_symmetry_space_group_name_H-M   'P 1'
_cell_length_a   8.27683435
_cell_length_b   10.13253565
_cell_length_c   8.27683435
_cell_angle_alpha   65.89384099
_cell_angle_beta   90.00000000
_cell_angle_gamma   114.10615901
_symmetry_Int_Tables_number   1
_chemical_formula_structural   Ba3SrI8
_chemical_formula_sum   'Ba3 Sr1 I8'
_cell_volume   566.63721978
_cell_formula_units_Z   1
loop_
 _symmetry_equiv_pos_site_id
 _symmetry_equiv_pos_as_xyz
  1  'x, y, z'
loop_
 _atom_site_type_symbol
 _atom_site_label
 _atom_site_symmetry_multiplicity
 _atom_site_fract_x
 _atom_site_fract_y
 _atom_site_fract_z
 _atom_site_occupancy
  Ba  Ba0  1  0.25000000  0.50000000  0.25000000  1
  Ba  Ba1  1  0.50000000  -0.00000000  0.50000000  1
  Ba  Ba2  1  0.75000000  0.50000000  0.75000000  1
  Sr  Sr3  1  -0.00000000  -0.00000000  0.00000000  1
  I  I4  1  0.87748391  0.24568540  0.12251609  1
  I  I5  1  0.36820049  0.24568540  0.12251609  1
  I  I6  1  0.63179951  0.75431560  0.36820049  1
  I  I7  1  0.12251609  0.75431560  0.36820049  1
  I  I8  1  0.87748391  0.24568540  0.63179951  1
  I  I9  1  0.36820049  0.24568540  0.63179951  1
  I  I10  1  0.12251609  0.75431560  0.87748391  1
  I  I11  1  0.63179951  0.75431560  0.87748391  1
