# generated using pymatgen
data_Li9V14O35
_symmetry_space_group_name_H-M   'P 1'
_cell_length_a   15.00741282
_cell_length_b   4.82687399
_cell_length_c   20.75236043
_cell_angle_alpha   90.00000000
_cell_angle_beta   108.12781519
_cell_angle_gamma   90.00000000
_symmetry_Int_Tables_number   1
_chemical_formula_structural   Li9V14O35
_chemical_formula_sum   'Li18 V28 O70'
_cell_volume   1428.66245895
_cell_formula_units_Z   2
loop_
 _symmetry_equiv_pos_site_id
 _symmetry_equiv_pos_as_xyz
  1  'x, y, z'
loop_
 _atom_site_type_symbol
 _atom_site_label
 _atom_site_symmetry_multiplicity
 _atom_site_fract_x
 _atom_site_fract_y
 _atom_site_fract_z
 _atom_site_occupancy
  Li  Li0  1  0.00000000  0.39032712  0.75000000  1
  Li  Li1  1  0.13665575  0.34858328  0.92496025  1
  Li  Li2  1  0.00000000  0.60967288  0.25000000  1
  Li  Li3  1  0.22150184  0.36626308  0.69909238  1
  Li  Li4  1  0.13665575  0.65141672  0.42496025  1
  Li  Li5  1  0.35063357  0.36214257  0.88732792  1
  Li  Li6  1  0.22150184  0.63373692  0.19909238  1
  Li  Li7  1  0.42650964  0.35635316  0.64569932  1
  Li  Li8  1  0.35063357  0.63785743  0.38732792  1
  Li  Li9  1  0.57349036  0.35635316  0.85430068  1
  Li  Li10  1  0.42650964  0.64364684  0.14569932  1
  Li  Li11  1  0.64936643  0.36214257  0.61267208  1
  Li  Li12  1  0.57349036  0.64364684  0.35430068  1
  Li  Li13  1  0.77849816  0.36626308  0.80090762  1
  Li  Li14  1  0.64936643  0.63785743  0.11267208  1
  Li  Li15  1  0.86334425  0.34858328  0.57503975  1
  Li  Li16  1  0.77849816  0.63373692  0.30090762  1
  Li  Li17  1  0.86334425  0.65141672  0.07503975  1
  V  V18  1  0.06639322  0.92199661  0.65269778  1
  V  V19  1  0.14489600  0.93112188  0.81669829  1
  V  V20  1  0.09158094  0.12471928  0.51878716  1
  V  V21  1  0.30118267  0.89289512  0.97460117  1
  V  V22  1  0.06639322  0.07800339  0.15269778  1
  V  V23  1  0.14489600  0.06887812  0.31669829  1
  V  V24  1  0.27788706  0.89555490  0.60816710  1
  V  V25  1  0.40064658  0.84024898  0.76884367  1
  V  V26  1  0.09158094  0.87528072  0.01878716  1
  V  V27  1  0.30118267  0.10710488  0.47460117  1
  V  V28  1  0.51060969  0.89545850  0.93289365  1
  V  V29  1  0.27788706  0.10444510  0.10816710  1
  V  V30  1  0.48939031  0.89545850  0.56710635  1
  V  V31  1  0.59935342  0.84024898  0.73115633  1
  V  V32  1  0.40064658  0.15975102  0.26884367  1
  V  V33  1  0.51060969  0.10454150  0.43289365  1
  V  V34  1  0.72211294  0.89555490  0.89183290  1
  V  V35  1  0.48939031  0.10454150  0.06710635  1
  V  V36  1  0.69881733  0.89289512  0.52539883  1
  V  V37  1  0.90841906  0.12471928  0.98121284  1
  V  V38  1  0.59935342  0.15975102  0.23115633  1
  V  V39  1  0.72211294  0.10444510  0.39183290  1
  V  V40  1  0.85510400  0.93112188  0.68330171  1
  V  V41  1  0.93360678  0.92199661  0.84730222  1
  V  V42  1  0.69881733  0.10710488  0.02539883  1
  V  V43  1  0.90841906  0.87528072  0.48121284  1
  V  V44  1  0.85510400  0.06887812  0.18330171  1
  V  V45  1  0.93360678  0.07800339  0.34730222  1
  O  O46  1  0.00875766  0.04429303  0.94114977  1
  O  O47  1  0.03975616  0.07546520  0.82354214  1
  O  O48  1  0.07140086  0.57868073  0.66019049  1
  O  O49  1  0.13084358  0.58694447  0.82022107  1
  O  O50  1  0.00875766  0.95570697  0.44114977  1
  O  O51  1  0.15423100  0.05004927  0.73840112  1
  O  O52  1  0.23897527  0.05861991  0.88485023  1
  O  O53  1  0.29176562  0.55519489  0.95748586  1
  O  O54  1  0.10067047  0.45527518  0.50182019  1
  O  O55  1  0.16324163  0.05756673  0.61467744  1
  O  O56  1  0.03975616  0.92453480  0.32354214  1
  O  O57  1  0.20292541  0.95627888  0.50887172  1
  O  O58  1  0.41693332  0.05850510  0.96818148  1
  O  O59  1  0.32586503  0.60367898  0.78187418  1
  O  O60  1  0.07140086  0.42131927  0.16019049  1
  O  O61  1  0.13084358  0.41305553  0.32022107  1
  O  O62  1  0.29448919  0.55907029  0.62734079  1
  O  O63  1  0.34838815  0.05667236  0.69925282  1
  O  O64  1  0.15423100  0.94995073  0.23840112  1
  O  O65  1  0.23897527  0.94138009  0.38485023  1
  O  O66  1  0.44668239  0.05487243  0.83988533  1
  O  O67  1  0.29176562  0.44480511  0.45748586  1
  O  O68  1  0.49809705  0.55873587  0.91307760  1
  O  O69  1  0.10067047  0.54472482  0.00182019  1
  O  O70  1  0.16324163  0.94243327  0.11467744  1
  O  O71  1  0.37323034  0.05645535  0.57361012  1
  O  O72  1  0.50000000  0.66210792  0.75000000  1
  O  O73  1  0.20292541  0.04372112  0.00887172  1
  O  O74  1  0.41693332  0.94149490  0.46818148  1
  O  O75  1  0.32586503  0.39632102  0.28187418  1
  O  O76  1  0.62676966  0.05645535  0.92638988  1
  O  O77  1  0.29448919  0.44092971  0.12734079  1
  O  O78  1  0.50190295  0.55873587  0.58692240  1
  O  O79  1  0.34838815  0.94332764  0.19925282  1
  O  O80  1  0.55331761  0.05487243  0.66011467  1
  O  O81  1  0.44668239  0.94512757  0.33988533  1
  O  O82  1  0.65161185  0.05667236  0.80074718  1
  O  O83  1  0.49809705  0.44126413  0.41307760  1
  O  O84  1  0.70551081  0.55907029  0.87265921  1
  O  O85  1  0.37323034  0.94354465  0.07361012  1
  O  O86  1  0.67413497  0.60367898  0.71812582  1
  O  O87  1  0.58306668  0.05850510  0.53181852  1
  O  O88  1  0.79707459  0.95627888  0.99112828  1
  O  O89  1  0.50000000  0.33789208  0.25000000  1
  O  O90  1  0.62676966  0.94354465  0.42638988  1
  O  O91  1  0.83675837  0.05756673  0.88532256  1
  O  O92  1  0.89932953  0.45527518  0.99817981  1
  O  O93  1  0.50190295  0.44126413  0.08692240  1
  O  O94  1  0.70823438  0.55519489  0.54251414  1
  O  O95  1  0.55331761  0.94512757  0.16011467  1
  O  O96  1  0.76102473  0.05861991  0.61514977  1
  O  O97  1  0.84576900  0.05004927  0.76159888  1
  O  O98  1  0.65161185  0.94332764  0.30074718  1
  O  O99  1  0.70551081  0.44092971  0.37265921  1
  O  O100  1  0.86915642  0.58694447  0.67977893  1
  O  O101  1  0.92859914  0.57868073  0.83980951  1
  O  O102  1  0.67413497  0.39632102  0.21812582  1
  O  O103  1  0.58306668  0.94149490  0.03181852  1
  O  O104  1  0.79707459  0.04372112  0.49112828  1
  O  O105  1  0.96024384  0.07546520  0.67645786  1
  O  O106  1  0.83675837  0.94243327  0.38532256  1
  O  O107  1  0.89932953  0.54472482  0.49817981  1
  O  O108  1  0.70823438  0.44480511  0.04251414  1
  O  O109  1  0.76102473  0.94138009  0.11514977  1
  O  O110  1  0.84576900  0.94995073  0.26159888  1
  O  O111  1  0.99124234  0.04429303  0.55885023  1
  O  O112  1  0.86915642  0.41305553  0.17977893  1
  O  O113  1  0.92859914  0.42131927  0.33980951  1
  O  O114  1  0.96024384  0.92453480  0.17645786  1
  O  O115  1  0.99124234  0.95570697  0.05885023  1
