# generated using pymatgen
data_K2(NbBr3)3
_symmetry_space_group_name_H-M   'P 1'
_cell_length_a   10.42017274
_cell_length_b   10.42017274
_cell_length_c   10.31827297
_cell_angle_alpha   77.53534214
_cell_angle_beta   77.53534214
_cell_angle_gamma   117.60343171
_symmetry_Int_Tables_number   1
_chemical_formula_structural   K2(NbBr3)3
_chemical_formula_sum   'K4 Nb6 Br18'
_cell_volume   902.54222464
_cell_formula_units_Z   2
loop_
 _symmetry_equiv_pos_site_id
 _symmetry_equiv_pos_as_xyz
  1  'x, y, z'
loop_
 _atom_site_type_symbol
 _atom_site_label
 _atom_site_symmetry_multiplicity
 _atom_site_fract_x
 _atom_site_fract_y
 _atom_site_fract_z
 _atom_site_occupancy
  K  K0  1  0.73189000  0.05499900  0.82751100  1
  K  K1  1  0.94491500  0.27056200  0.16643200  1
  K  K2  1  0.27153100  0.94594000  0.17143400  1
  K  K3  1  0.04807400  0.72724400  0.82887700  1
  Nb  Nb4  1  0.45135900  0.28289800  0.63505100  1
  Nb  Nb5  1  0.71696900  0.54851600  0.36571200  1
  Nb  Nb6  1  0.54017200  0.71090300  0.37050100  1
  Nb  Nb7  1  0.29225200  0.45418800  0.63117900  1
  Nb  Nb8  1  0.61188700  0.60972700  0.62572100  1
  Nb  Nb9  1  0.38365700  0.38804500  0.37919000  1
  Br  Br10  1  0.00543600  0.61113300  0.17616700  1
  Br  Br11  1  0.39242900  0.00043300  0.81557700  1
  Br  Br12  1  0.81427300  0.81972100  0.17377100  1
  Br  Br13  1  0.18580100  0.18145500  0.82881500  1
  Br  Br14  1  0.62076500  0.42073500  0.18554700  1
  Br  Br15  1  0.58503000  0.37638600  0.81350000  1
  Br  Br16  1  0.38104100  0.58967700  0.81284000  1
  Br  Br17  1  0.40958700  0.61541800  0.19054700  1
  Br  Br18  1  0.30513200  0.10307300  0.50966600  1
  Br  Br19  1  0.90592400  0.69508800  0.48561300  1
  Br  Br20  1  0.69485300  0.89849700  0.49153000  1
  Br  Br21  1  0.10227600  0.31163400  0.50925200  1
  Br  Br22  1  0.29037800  0.70541200  0.49925400  1
  Br  Br23  1  0.70426500  0.29328700  0.50520100  1
  Br  Br24  1  0.76944100  0.77401900  0.78435100  1
  Br  Br25  1  0.22689300  0.22687200  0.20941400  1
  Br  Br26  1  0.61162800  0.00478800  0.17639100  1
  Br  Br27  1  0.99467900  0.38888300  0.82393800  1
