# generated using pymatgen
data_Al2(SeO4)3
_symmetry_space_group_name_H-M   'P 1'
_cell_length_a   8.82656863
_cell_length_b   8.82656863
_cell_length_c   8.82656949
_cell_angle_alpha   56.18674695
_cell_angle_beta   56.18674826
_cell_angle_gamma   56.18674554
_symmetry_Int_Tables_number   1
_chemical_formula_structural   Al2(SeO4)3
_chemical_formula_sum   'Al4 Se6 O24'
_cell_volume   443.33145790
_cell_formula_units_Z   2
loop_
 _symmetry_equiv_pos_site_id
 _symmetry_equiv_pos_as_xyz
  1  'x, y, z'
loop_
 _atom_site_type_symbol
 _atom_site_label
 _atom_site_symmetry_multiplicity
 _atom_site_fract_x
 _atom_site_fract_y
 _atom_site_fract_z
 _atom_site_occupancy
  Al  Al0  1  0.64815668  0.64815668  0.64815668  1
  Al  Al1  1  0.85830970  0.85830970  0.85830970  1
  Al  Al2  1  0.14169030  0.14169030  0.14169030  1
  Al  Al3  1  0.35184332  0.35184332  0.35184332  1
  Se  Se4  1  0.96666970  0.53804814  0.24852991  1
  Se  Se5  1  0.53804814  0.24852991  0.96666970  1
  Se  Se6  1  0.24852991  0.96666970  0.53804814  1
  Se  Se7  1  0.75147009  0.03333030  0.46195186  1
  Se  Se8  1  0.46195186  0.75147009  0.03333030  1
  Se  Se9  1  0.03333030  0.46195186  0.75147009  1
  O  O10  1  0.81428024  0.50941067  0.47551691  1
  O  O11  1  0.87727844  0.75557081  0.10297652  1
  O  O12  1  0.98881655  0.37072349  0.20055169  1
  O  O13  1  0.51843279  0.21014370  0.18157441  1
  O  O14  1  0.75557081  0.10297652  0.87727844  1
  O  O15  1  0.50941067  0.47551691  0.81428024  1
  O  O16  1  0.47551691  0.81428024  0.50941067  1
  O  O17  1  0.21014370  0.18157441  0.51843279  1
  O  O18  1  0.79944831  0.01118345  0.62927651  1
  O  O19  1  0.18157441  0.51843279  0.21014370  1
  O  O20  1  0.89702348  0.12272156  0.24442919  1
  O  O21  1  0.62927651  0.79944831  0.01118345  1
  O  O22  1  0.37072349  0.20055169  0.98881655  1
  O  O23  1  0.10297652  0.87727844  0.75557081  1
  O  O24  1  0.81842559  0.48156721  0.78985630  1
  O  O25  1  0.20055169  0.98881655  0.37072349  1
  O  O26  1  0.78985630  0.81842559  0.48156721  1
  O  O27  1  0.52448309  0.18571976  0.49058933  1
  O  O28  1  0.49058933  0.52448309  0.18571976  1
  O  O29  1  0.24442919  0.89702348  0.12272156  1
  O  O30  1  0.48156721  0.78985630  0.81842559  1
  O  O31  1  0.01118345  0.62927651  0.79944831  1
  O  O32  1  0.12272156  0.24442919  0.89702348  1
  O  O33  1  0.18571976  0.49058933  0.52448309  1
