# generated using pymatgen
data_Th4P6O23
_symmetry_space_group_name_H-M   'P 1'
_cell_length_a   7.08697661
_cell_length_b   10.45191869
_cell_length_c   12.88501297
_cell_angle_alpha   90.00000000
_cell_angle_beta   90.00000000
_cell_angle_gamma   90.00000000
_symmetry_Int_Tables_number   1
_chemical_formula_structural   Th4P6O23
_chemical_formula_sum   'Th8 P12 O46'
_cell_volume   954.42516556
_cell_formula_units_Z   2
loop_
 _symmetry_equiv_pos_site_id
 _symmetry_equiv_pos_as_xyz
  1  'x, y, z'
loop_
 _atom_site_type_symbol
 _atom_site_label
 _atom_site_symmetry_multiplicity
 _atom_site_fract_x
 _atom_site_fract_y
 _atom_site_fract_z
 _atom_site_occupancy
  Th  Th0  1  0.00000000  0.48893640  0.91558148  1
  Th  Th1  1  0.50000000  0.02250787  0.81684839  1
  Th  Th2  1  0.00000000  0.02045357  0.68424700  1
  Th  Th3  1  0.50000000  0.48936726  0.58861087  1
  Th  Th4  1  0.00000000  0.51106360  0.41558148  1
  Th  Th5  1  0.50000000  0.97749213  0.31684839  1
  Th  Th6  1  0.00000000  0.97954643  0.18424700  1
  Th  Th7  1  0.50000000  0.51063274  0.08861087  1
  P  P8  1  0.00000000  0.12456627  0.91720492  1
  P  P9  1  0.50000000  0.37588975  0.86595568  1
  P  P10  1  0.21052379  0.72387188  0.74143714  1
  P  P11  1  0.78947621  0.72387188  0.74143714  1
  P  P12  1  0.00000000  0.37298171  0.63733437  1
  P  P13  1  0.50000000  0.12592042  0.58313888  1
  P  P14  1  0.00000000  0.87543373  0.41720492  1
  P  P15  1  0.50000000  0.62411025  0.36595568  1
  P  P16  1  0.78947621  0.27612812  0.24143714  1
  P  P17  1  0.21052379  0.27612812  0.24143714  1
  P  P18  1  0.00000000  0.62701829  0.13733437  1
  P  P19  1  0.50000000  0.87407958  0.08313888  1
  O  O20  1  0.50000000  0.94622489  0.98017888  1
  O  O21  1  0.00000000  0.26640669  0.93726573  1
  O  O22  1  0.66869061  0.42491898  0.93063156  1
  O  O23  1  0.33130939  0.42491898  0.93063156  1
  O  O24  1  0.50000000  0.23111755  0.86069390  1
  O  O25  1  0.16751009  0.08145704  0.84786647  1
  O  O26  1  0.83248991  0.08145704  0.84786647  1
  O  O27  1  0.80664993  0.65310489  0.84214689  1
  O  O28  1  0.19335007  0.65310489  0.84214689  1
  O  O29  1  0.50000000  0.43136958  0.75750755  1
  O  O30  1  0.28050188  0.86159616  0.75465351  1
  O  O31  1  0.71949812  0.86159616  0.75465351  1
  O  O32  1  0.00000000  0.43119547  0.74506108  1
  O  O33  1  0.00000000  0.75633252  0.69822326  1
  O  O34  1  0.69413223  0.65348324  0.65535638  1
  O  O35  1  0.30586777  0.65348324  0.65535638  1
  O  O36  1  0.66948097  0.08258863  0.65133817  1
  O  O37  1  0.33051903  0.08258863  0.65133817  1
  O  O38  1  0.00000000  0.22794476  0.64531351  1
  O  O39  1  0.83177893  0.42062456  0.57193957  1
  O  O40  1  0.16822107  0.42062456  0.57193957  1
  O  O41  1  0.50000000  0.26821951  0.56504987  1
  O  O42  1  0.00000000  0.95020131  0.51935225  1
  O  O43  1  0.50000000  0.05377511  0.48017888  1
  O  O44  1  0.00000000  0.73359331  0.43726573  1
  O  O45  1  0.66869061  0.57508102  0.43063156  1
  O  O46  1  0.33130939  0.57508102  0.43063156  1
  O  O47  1  0.50000000  0.76888245  0.36069390  1
  O  O48  1  0.16751009  0.91854296  0.34786647  1
  O  O49  1  0.83248991  0.91854296  0.34786647  1
  O  O50  1  0.19335007  0.34689511  0.34214689  1
  O  O51  1  0.80664993  0.34689511  0.34214689  1
  O  O52  1  0.50000000  0.56863042  0.25750755  1
  O  O53  1  0.71949812  0.13840384  0.25465351  1
  O  O54  1  0.28050188  0.13840384  0.25465351  1
  O  O55  1  0.00000000  0.56880453  0.24506108  1
  O  O56  1  0.00000000  0.24366748  0.19822326  1
  O  O57  1  0.69413223  0.34651676  0.15535638  1
  O  O58  1  0.30586777  0.34651676  0.15535638  1
  O  O59  1  0.66948097  0.91741137  0.15133817  1
  O  O60  1  0.33051903  0.91741137  0.15133817  1
  O  O61  1  0.00000000  0.77205524  0.14531351  1
  O  O62  1  0.16822107  0.57937544  0.07193957  1
  O  O63  1  0.83177893  0.57937544  0.07193957  1
  O  O64  1  0.50000000  0.73178049  0.06504987  1
  O  O65  1  0.00000000  0.04979869  0.01935225  1
