# generated using pymatgen
data_Rb3InO3
_symmetry_space_group_name_H-M   'P 1'
_cell_length_a   6.93298161
_cell_length_b   7.01271818
_cell_length_c   14.69750373
_cell_angle_alpha   61.88426862
_cell_angle_beta   90.00000000
_cell_angle_gamma   90.00000000
_symmetry_Int_Tables_number   1
_chemical_formula_structural   Rb3InO3
_chemical_formula_sum   'Rb12 In4 O12'
_cell_volume   630.25655696
_cell_formula_units_Z   4
loop_
 _symmetry_equiv_pos_site_id
 _symmetry_equiv_pos_as_xyz
  1  'x, y, z'
loop_
 _atom_site_type_symbol
 _atom_site_label
 _atom_site_symmetry_multiplicity
 _atom_site_fract_x
 _atom_site_fract_y
 _atom_site_fract_z
 _atom_site_occupancy
  Rb  Rb0  1  0.54564121  0.78592744  0.89691367  1
  Rb  Rb1  1  0.95810595  0.26577097  0.11733442  1
  Rb  Rb2  1  0.58369352  0.61626152  0.18535006  1
  Rb  Rb3  1  0.08369352  0.38373848  0.31464994  1
  Rb  Rb4  1  0.45810595  0.73422903  0.38266558  1
  Rb  Rb5  1  0.04564121  0.21407256  0.60308633  1
  Rb  Rb6  1  0.95435879  0.78592744  0.39691367  1
  Rb  Rb7  1  0.54189405  0.26577097  0.61733442  1
  Rb  Rb8  1  0.91630648  0.61626152  0.68535006  1
  Rb  Rb9  1  0.41630648  0.38373848  0.81464994  1
  Rb  Rb10  1  0.04189405  0.73422903  0.88266558  1
  Rb  Rb11  1  0.45435879  0.21407256  0.10308633  1
  In  In12  1  0.13081886  0.83320545  0.08533177  1
  In  In13  1  0.63081886  0.16679455  0.41466823  1
  In  In14  1  0.36918114  0.83320545  0.58533177  1
  In  In15  1  0.86918114  0.16679455  0.91466823  1
  O  O16  1  0.26195572  0.58477569  0.07301199  1
  O  O17  1  0.83744965  0.84784974  0.03798647  1
  O  O18  1  0.69763176  0.16432209  0.27953938  1
  O  O19  1  0.19763176  0.83567791  0.22046062  1
  O  O20  1  0.33744965  0.15215026  0.46201353  1
  O  O21  1  0.76195572  0.41522431  0.42698801  1
  O  O22  1  0.23804428  0.58477569  0.57301199  1
  O  O23  1  0.66255035  0.84784974  0.53798647  1
  O  O24  1  0.80236824  0.16432209  0.77953938  1
  O  O25  1  0.30236824  0.83567791  0.72046062  1
  O  O26  1  0.16255035  0.15215026  0.96201353  1
  O  O27  1  0.73804428  0.41522431  0.92698801  1
