# generated using pymatgen
data_Ca(BO5)2
_symmetry_space_group_name_H-M   'P 1'
_cell_length_a   7.39273706
_cell_length_b   7.39273706
_cell_length_c   8.60428718
_cell_angle_alpha   76.26970331
_cell_angle_beta   76.26970331
_cell_angle_gamma   54.22575899
_symmetry_Int_Tables_number   1
_chemical_formula_structural   Ca(BO5)2
_chemical_formula_sum   'Ca2 B4 O20'
_cell_volume   367.70929765
_cell_formula_units_Z   2
loop_
 _symmetry_equiv_pos_site_id
 _symmetry_equiv_pos_as_xyz
  1  'x, y, z'
loop_
 _atom_site_type_symbol
 _atom_site_label
 _atom_site_symmetry_multiplicity
 _atom_site_fract_x
 _atom_site_fract_y
 _atom_site_fract_z
 _atom_site_occupancy
  Ca  Ca0  1  0.05813700  0.94186300  0.25000000  1
  Ca  Ca1  1  0.94186300  0.05813700  0.75000000  1
  B  B2  1  0.75768600  0.43203600  0.03353900  1
  B  B3  1  0.56796400  0.24231400  0.46646100  1
  B  B4  1  0.24231400  0.56796400  0.96646100  1
  B  B5  1  0.43203600  0.75768600  0.53353900  1
  O  O6  1  0.98873900  0.25351700  0.05776900  1
  O  O7  1  0.74648300  0.01126100  0.44223100  1
  O  O8  1  0.01126100  0.74648300  0.94223100  1
  O  O9  1  0.25351700  0.98873900  0.55776900  1
  O  O10  1  0.61209900  0.64035200  0.02054600  1
  O  O11  1  0.35964800  0.38790100  0.47945400  1
  O  O12  1  0.38790100  0.35964800  0.97945400  1
  O  O13  1  0.64035200  0.61209900  0.52054600  1
  O  O14  1  0.92108400  0.42742300  0.73295500  1
  O  O15  1  0.57257700  0.07891600  0.76704500  1
  O  O16  1  0.07891600  0.57257700  0.26704500  1
  O  O17  1  0.42742300  0.92108400  0.23295500  1
  O  O18  1  0.80655400  0.21300900  0.02678200  1
  O  O19  1  0.78699100  0.19344600  0.47321800  1
  O  O20  1  0.19344600  0.78699100  0.97321800  1
  O  O21  1  0.21300900  0.80655400  0.52678200  1
  O  O22  1  0.43737500  0.02598100  0.81619200  1
  O  O23  1  0.97401900  0.56262500  0.68380800  1
  O  O24  1  0.56262500  0.97401900  0.18380800  1
  O  O25  1  0.02598100  0.43737500  0.31619200  1
