# generated using pymatgen
data_TiP2H4O9
_symmetry_space_group_name_H-M   'P 1'
_cell_length_a   4.97252801
_cell_length_b   8.60102351
_cell_length_c   16.07833335
_cell_angle_alpha   69.86646606
_cell_angle_beta   90.00000000
_cell_angle_gamma   90.00000000
_symmetry_Int_Tables_number   1
_chemical_formula_structural   TiP2H4O9
_chemical_formula_sum   'Ti4 P8 H16 O36'
_cell_volume   645.63115893
_cell_formula_units_Z   4
loop_
 _symmetry_equiv_pos_site_id
 _symmetry_equiv_pos_as_xyz
  1  'x, y, z'
loop_
 _atom_site_type_symbol
 _atom_site_label
 _atom_site_symmetry_multiplicity
 _atom_site_fract_x
 _atom_site_fract_y
 _atom_site_fract_z
 _atom_site_occupancy
  Ti  Ti0  1  0.75347243  0.24090512  0.01236110  1
  Ti  Ti1  1  0.74652757  0.24090512  0.51236110  1
  Ti  Ti2  1  0.24652757  0.75909488  0.98763890  1
  Ti  Ti3  1  0.25347243  0.75909488  0.48763890  1
  P  P4  1  0.25303044  0.00157370  0.10944513  1
  P  P5  1  0.24696956  0.00157370  0.60944513  1
  P  P6  1  0.74696956  0.99842630  0.89055487  1
  P  P7  1  0.75303044  0.99842630  0.39055487  1
  P  P8  1  0.74104371  0.53291099  0.09991008  1
  P  P9  1  0.75895629  0.53291099  0.59991008  1
  P  P10  1  0.25895629  0.46708901  0.90008992  1
  P  P11  1  0.24104371  0.46708901  0.40008992  1
  H  H12  1  0.43052969  0.84431415  0.23374136  1
  H  H13  1  0.06947031  0.84431415  0.73374136  1
  H  H14  1  0.56947031  0.15568585  0.76625864  1
  H  H15  1  0.93052969  0.15568585  0.26625864  1
  H  H16  1  0.73450827  0.58474831  0.22460374  1
  H  H17  1  0.76549173  0.58474831  0.72460374  1
  H  H18  1  0.26549173  0.41525169  0.77539626  1
  H  H19  1  0.23450827  0.41525169  0.27539626  1
  H  H20  1  0.39045323  0.19710244  0.24659635  1
  H  H21  1  0.10954677  0.19710244  0.74659635  1
  H  H22  1  0.60954677  0.80289756  0.75340365  1
  H  H23  1  0.89045323  0.80289756  0.25340365  1
  H  H24  1  0.20328826  0.30604562  0.17101937  1
  H  H25  1  0.29671174  0.30604562  0.67101937  1
  H  H26  1  0.79671174  0.69395438  0.82898063  1
  H  H27  1  0.70328826  0.69395438  0.32898063  1
  O  O28  1  0.33856568  0.88418610  0.06225212  1
  O  O29  1  0.16143432  0.88418610  0.56225212  1
  O  O30  1  0.66143432  0.11581390  0.93774788  1
  O  O31  1  0.83856568  0.11581390  0.43774788  1
  O  O32  1  0.96306972  0.05772264  0.09096386  1
  O  O33  1  0.53693028  0.05772264  0.59096386  1
  O  O34  1  0.03693028  0.94227736  0.90903614  1
  O  O35  1  0.46306972  0.94227736  0.40903614  1
  O  O36  1  0.44316171  0.14952231  0.08746702  1
  O  O37  1  0.05683829  0.14952231  0.58746702  1
  O  O38  1  0.55683829  0.85047769  0.91253298  1
  O  O39  1  0.94316171  0.85047769  0.41253298  1
  O  O40  1  0.25896385  0.90499739  0.21177381  1
  O  O41  1  0.24103615  0.90499739  0.71177381  1
  O  O42  1  0.74103615  0.09500261  0.78822619  1
  O  O43  1  0.75896385  0.09500261  0.28822619  1
  O  O44  1  0.92826526  0.67863041  0.05735192  1
  O  O45  1  0.57173474  0.67863041  0.55735192  1
  O  O46  1  0.07173474  0.32136959  0.94264808  1
  O  O47  1  0.42826526  0.32136959  0.44264808  1
  O  O48  1  0.45507820  0.57491424  0.06502832  1
  O  O49  1  0.04492180  0.57491424  0.56502832  1
  O  O50  1  0.54492180  0.42508576  0.93497168  1
  O  O51  1  0.95507820  0.42508576  0.43497168  1
  O  O52  1  0.83962767  0.37557067  0.08609692  1
  O  O53  1  0.66037233  0.37557067  0.58609692  1
  O  O54  1  0.16037233  0.62442933  0.91390308  1
  O  O55  1  0.33962767  0.62442933  0.41390308  1
  O  O56  1  0.74478920  0.49069827  0.20181895  1
  O  O57  1  0.75521080  0.49069827  0.70181895  1
  O  O58  1  0.25521080  0.50930173  0.79818105  1
  O  O59  1  0.24478920  0.50930173  0.29818105  1
  O  O60  1  0.22224895  0.25964398  0.23511699  1
  O  O61  1  0.27775105  0.25964398  0.73511699  1
  O  O62  1  0.77775105  0.74035602  0.76488301  1
  O  O63  1  0.72224895  0.74035602  0.26488301  1
