# generated using pymatgen
data_VOF2
_symmetry_space_group_name_H-M   'P 1'
_cell_length_a   5.05901416
_cell_length_b   5.05928714
_cell_length_c   13.13206444
_cell_angle_alpha   89.99883645
_cell_angle_beta   89.99380494
_cell_angle_gamma   120.00143186
_symmetry_Int_Tables_number   1
_chemical_formula_structural   VOF2
_chemical_formula_sum   'V6 O6 F12'
_cell_volume   291.08014977
_cell_formula_units_Z   6
loop_
 _symmetry_equiv_pos_site_id
 _symmetry_equiv_pos_as_xyz
  1  'x, y, z'
loop_
 _atom_site_type_symbol
 _atom_site_label
 _atom_site_symmetry_multiplicity
 _atom_site_fract_x
 _atom_site_fract_y
 _atom_site_fract_z
 _atom_site_occupancy
  V  V0  1  0.02366445  0.64272013  0.49408726  1
  V  V1  1  0.97761051  0.67825215  0.99291598  1
  V  V2  1  0.35720802  0.38088609  0.82741251  1
  V  V3  1  0.70059323  0.02226878  0.65953382  1
  V  V4  1  0.32174521  0.29940528  0.32628552  1
  V  V5  1  0.61919083  0.97642110  0.16081655  1
  O  O6  1  0.67912636  0.60329136  0.91794649  1
  O  O7  1  0.39661250  0.07575540  0.25133203  1
  O  O8  1  0.92429891  0.32069676  0.58453752  1
  O  O9  1  0.41489089  0.66015289  0.75027800  1
  O  O10  1  0.24521814  0.58512334  0.41690493  1
  O  O11  1  0.34001520  0.75506517  0.08363414  1
  F  F12  1  0.01574600  0.05675219  0.75175963  1
  F  F13  1  0.61706143  0.26097785  0.75678026  1
  F  F14  1  0.64367883  0.38276352  0.42363462  1
  F  F15  1  0.94322406  0.95918126  0.08504879  1
  F  F16  1  0.73688177  0.72180245  0.58386652  1
  F  F17  1  0.98515801  0.26315669  0.25055000  1
  F  F18  1  0.27795785  0.01476788  0.91704740  1
  F  F19  1  0.60215634  0.67186912  0.25230716  1
  F  F20  1  0.04082809  0.98417146  0.41846808  1
  F  F21  1  0.73929553  0.35652230  0.09038124  1
  F  F22  1  0.06963708  0.39786935  0.91892964  1
  F  F23  1  0.32820177  0.93012649  0.58554290  1
