# generated using pymatgen
data_Sn(SO4)2
_symmetry_space_group_name_H-M   'P 1'
_cell_length_a   9.08207558
_cell_length_b   9.34765853
_cell_length_c   13.24340748
_cell_angle_alpha   90.00000000
_cell_angle_beta   90.00000000
_cell_angle_gamma   90.00000000
_symmetry_Int_Tables_number   1
_chemical_formula_structural   Sn(SO4)2
_chemical_formula_sum   'Sn8 S16 O64'
_cell_volume   1124.31419226
_cell_formula_units_Z   8
loop_
 _symmetry_equiv_pos_site_id
 _symmetry_equiv_pos_as_xyz
  1  'x, y, z'
loop_
 _atom_site_type_symbol
 _atom_site_label
 _atom_site_symmetry_multiplicity
 _atom_site_fract_x
 _atom_site_fract_y
 _atom_site_fract_z
 _atom_site_occupancy
  Sn  Sn0  1  0.89372714  0.85854729  0.12631886  1
  Sn  Sn1  1  0.60627286  0.85854729  0.62631886  1
  Sn  Sn2  1  0.39372714  0.64145271  0.12631886  1
  Sn  Sn3  1  0.10627286  0.64145271  0.62631886  1
  Sn  Sn4  1  0.89372714  0.35854729  0.37368114  1
  Sn  Sn5  1  0.60627286  0.35854729  0.87368114  1
  Sn  Sn6  1  0.39372714  0.14145271  0.37368114  1
  Sn  Sn7  1  0.10627286  0.14145271  0.87368114  1
  S  S8  1  0.93413863  0.91960495  0.72123191  1
  S  S9  1  0.56586137  0.91960495  0.22123191  1
  S  S10  1  0.06586137  0.58039505  0.22123191  1
  S  S11  1  0.43413863  0.58039505  0.72123191  1
  S  S12  1  0.56586137  0.41960495  0.27876809  1
  S  S13  1  0.93413863  0.41960495  0.77876809  1
  S  S14  1  0.43413863  0.08039505  0.77876809  1
  S  S15  1  0.06586137  0.08039505  0.27876809  1
  S  S16  1  0.31162061  0.84395604  0.48526547  1
  S  S17  1  0.18837939  0.84395604  0.98526547  1
  S  S18  1  0.81162061  0.65604396  0.48526547  1
  S  S19  1  0.68837939  0.65604396  0.98526547  1
  S  S20  1  0.31162061  0.34395604  0.01473453  1
  S  S21  1  0.18837939  0.34395604  0.51473453  1
  S  S22  1  0.81162061  0.15604396  0.01473453  1
  S  S23  1  0.68837939  0.15604396  0.51473453  1
  O  O24  1  0.30124458  0.00349381  0.47726907  1
  O  O25  1  0.19875542  0.00349381  0.97726907  1
  O  O26  1  0.01377326  0.99997315  0.36161854  1
  O  O27  1  0.48622674  0.99997315  0.86161854  1
  O  O28  1  0.52511071  0.97883489  0.32275376  1
  O  O29  1  0.97488929  0.97883489  0.82275376  1
  O  O30  1  0.76918990  0.90927975  0.72744190  1
  O  O31  1  0.73081010  0.90927975  0.22744190  1
  O  O32  1  0.27209947  0.81233903  0.08061381  1
  O  O33  1  0.22790053  0.81233903  0.58061381  1
  O  O34  1  0.03154868  0.80699028  0.00935848  1
  O  O35  1  0.46845132  0.80699028  0.50935848  1
  O  O36  1  0.99103543  0.76849384  0.72419606  1
  O  O37  1  0.50896457  0.76849384  0.22419606  1
  O  O38  1  0.26241473  0.77022322  0.39887812  1
  O  O39  1  0.23758527  0.77022322  0.89887812  1
  O  O40  1  0.76241473  0.72977678  0.39887812  1
  O  O41  1  0.73758527  0.72977678  0.89887812  1
  O  O42  1  0.00896457  0.73150616  0.22419606  1
  O  O43  1  0.49103543  0.73150616  0.72419606  1
  O  O44  1  0.96845132  0.69300972  0.50935848  1
  O  O45  1  0.53154868  0.69300972  0.00935848  1
  O  O46  1  0.77209947  0.68766097  0.08061381  1
  O  O47  1  0.72790053  0.68766097  0.58061381  1
  O  O48  1  0.23081010  0.59072025  0.22744190  1
  O  O49  1  0.26918990  0.59072025  0.72744190  1
  O  O50  1  0.47488929  0.52116511  0.82275376  1
  O  O51  1  0.02511071  0.52116511  0.32275376  1
  O  O52  1  0.51377326  0.50002685  0.36161854  1
  O  O53  1  0.98622674  0.50002685  0.86161854  1
  O  O54  1  0.80124458  0.49650619  0.47726907  1
  O  O55  1  0.69875542  0.49650619  0.97726907  1
  O  O56  1  0.30124458  0.50349381  0.02273093  1
  O  O57  1  0.19875542  0.50349381  0.52273093  1
  O  O58  1  0.48622674  0.49997315  0.63838146  1
  O  O59  1  0.01377326  0.49997315  0.13838146  1
  O  O60  1  0.52511071  0.47883489  0.17724624  1
  O  O61  1  0.97488929  0.47883489  0.67724624  1
  O  O62  1  0.73081010  0.40927975  0.27255810  1
  O  O63  1  0.76918990  0.40927975  0.77255810  1
  O  O64  1  0.27209947  0.31233903  0.41938619  1
  O  O65  1  0.22790053  0.31233903  0.91938619  1
  O  O66  1  0.46845132  0.30699028  0.99064152  1
  O  O67  1  0.03154868  0.30699028  0.49064152  1
  O  O68  1  0.50896457  0.26849384  0.27580394  1
  O  O69  1  0.99103543  0.26849384  0.77580394  1
  O  O70  1  0.26241473  0.27022322  0.10112188  1
  O  O71  1  0.23758527  0.27022322  0.60112188  1
  O  O72  1  0.76241473  0.22977678  0.10112188  1
  O  O73  1  0.73758527  0.22977678  0.60112188  1
  O  O74  1  0.49103543  0.23150616  0.77580394  1
  O  O75  1  0.00896457  0.23150616  0.27580394  1
  O  O76  1  0.53154868  0.19300972  0.49064152  1
  O  O77  1  0.96845132  0.19300972  0.99064152  1
  O  O78  1  0.77209947  0.18766097  0.41938619  1
  O  O79  1  0.72790053  0.18766097  0.91938619  1
  O  O80  1  0.26918990  0.09072025  0.77255810  1
  O  O81  1  0.23081010  0.09072025  0.27255810  1
  O  O82  1  0.47488929  0.02116511  0.67724624  1
  O  O83  1  0.02511071  0.02116511  0.17724624  1
  O  O84  1  0.98622674  0.00002685  0.63838146  1
  O  O85  1  0.51377326  0.00002685  0.13838146  1
  O  O86  1  0.80124458  0.99650619  0.02273093  1
  O  O87  1  0.69875542  0.99650619  0.52273093  1
