# generated using pymatgen
data_K2FeH4(SO5)2
_symmetry_space_group_name_H-M   'P 1'
_cell_length_a   7.51657400
_cell_length_b   5.35327649
_cell_length_c   6.69475053
_cell_angle_alpha   106.58372392
_cell_angle_beta   109.88617338
_cell_angle_gamma   95.12033346
_symmetry_Int_Tables_number   1
_chemical_formula_structural   K2FeH4(SO5)2
_chemical_formula_sum   'K2 Fe1 H4 S2 O10'
_cell_volume   237.53915989
_cell_formula_units_Z   1
loop_
 _symmetry_equiv_pos_site_id
 _symmetry_equiv_pos_as_xyz
  1  'x, y, z'
loop_
 _atom_site_type_symbol
 _atom_site_label
 _atom_site_symmetry_multiplicity
 _atom_site_fract_x
 _atom_site_fract_y
 _atom_site_fract_z
 _atom_site_occupancy
  K  K0  1  0.17661300  0.75411700  0.80143500  1
  K  K1  1  0.82338700  0.24588300  0.19856500  1
  Fe  Fe2  1  0.50000000  0.50000000  0.50000000  1
  H  H3  1  0.62834000  0.86827700  0.71429200  1
  H  H4  1  0.37166000  0.13172300  0.28570800  1
  H  H5  1  0.56409000  0.84022300  0.40177800  1
  H  H6  1  0.43591000  0.15977700  0.59822200  1
  S  S7  1  0.18793300  0.27674700  0.85011000  1
  S  S8  1  0.81206700  0.72325300  0.14989000  1
  O  O9  1  0.24277400  0.41212400  0.10652500  1
  O  O10  1  0.75722600  0.58787600  0.89347500  1
  O  O11  1  0.94865600  0.14521800  0.75874300  1
  O  O12  1  0.05134400  0.85478200  0.24125700  1
  O  O13  1  0.34067700  0.16727800  0.88742300  1
  O  O14  1  0.65932300  0.83272200  0.11257700  1
  O  O15  1  0.22592300  0.39916700  0.64602200  1
  O  O16  1  0.77407700  0.60083300  0.35397900  1
  O  O17  1  0.50930000  0.79135600  0.54567700  1
  O  O18  1  0.49070000  0.20864400  0.45432300  1
