# generated using pymatgen
data_Ba4OF6
_symmetry_space_group_name_H-M   'P 1'
_cell_length_a   8.74787468
_cell_length_b   8.74787468
_cell_length_c   6.28849135
_cell_angle_alpha   90.00000000
_cell_angle_beta   90.00000000
_cell_angle_gamma   90.00000000
_symmetry_Int_Tables_number   1
_chemical_formula_structural   Ba4OF6
_chemical_formula_sum   'Ba8 O2 F12'
_cell_volume   481.22875890
_cell_formula_units_Z   2
loop_
 _symmetry_equiv_pos_site_id
 _symmetry_equiv_pos_as_xyz
  1  'x, y, z'
loop_
 _atom_site_type_symbol
 _atom_site_label
 _atom_site_symmetry_multiplicity
 _atom_site_fract_x
 _atom_site_fract_y
 _atom_site_fract_z
 _atom_site_occupancy
  Ba  Ba0  1  -0.00000000  0.25392172  0.29305831  1
  Ba  Ba1  1  0.75392172  0.50000000  0.79305831  1
  Ba  Ba2  1  0.24607828  0.50000000  0.79305831  1
  Ba  Ba3  1  -0.00000000  0.74607828  0.29305831  1
  Ba  Ba4  1  0.50000000  0.75392172  0.20694169  1
  Ba  Ba5  1  0.25392172  -0.00000000  0.70694169  1
  Ba  Ba6  1  0.74607828  -0.00000000  0.70694169  1
  Ba  Ba7  1  0.50000000  0.24607828  0.20694169  1
  O  O8  1  0.50000000  0.50000000  -0.00000000  1
  O  O9  1  -0.00000000  -0.00000000  0.50000000  1
  F  F10  1  0.72216075  0.27783925  0.50000000  1
  F  F11  1  0.27783925  0.27783925  0.50000000  1
  F  F12  1  -0.00000000  0.50000000  0.53276620  1
  F  F13  1  -0.00000000  0.50000000  0.03276620  1
  F  F14  1  0.27783925  0.72216075  0.50000000  1
  F  F15  1  0.72216075  0.72216075  0.50000000  1
  F  F16  1  0.77783925  0.77783925  -0.00000000  1
  F  F17  1  0.22216075  0.77783925  -0.00000000  1
  F  F18  1  0.50000000  -0.00000000  0.96723380  1
  F  F19  1  0.50000000  -0.00000000  0.46723380  1
  F  F20  1  0.77783925  0.22216075  -0.00000000  1
  F  F21  1  0.22216075  0.22216075  -0.00000000  1
