# generated using pymatgen
data_Na4NpO5
_symmetry_space_group_name_H-M   'P 1'
_cell_length_a   5.74158155
_cell_length_b   5.74158155
_cell_length_c   5.74157069
_cell_angle_alpha   99.23030833
_cell_angle_beta   99.23032144
_cell_angle_gamma   132.78066798
_symmetry_Int_Tables_number   1
_chemical_formula_structural   Na4NpO5
_chemical_formula_sum   'Na4 Np1 O5'
_cell_volume   127.29193177
_cell_formula_units_Z   1
loop_
 _symmetry_equiv_pos_site_id
 _symmetry_equiv_pos_as_xyz
  1  'x, y, z'
loop_
 _atom_site_type_symbol
 _atom_site_label
 _atom_site_symmetry_multiplicity
 _atom_site_fract_x
 _atom_site_fract_y
 _atom_site_fract_z
 _atom_site_occupancy
  Na  Na0  1  0.80352577  0.40262363  0.20614839  1
  Na  Na1  1  0.40262263  0.19647423  0.59909886  1
  Na  Na2  1  0.59737737  0.80352577  0.40090114  1
  Na  Na3  1  0.19647423  0.59737637  0.79385161  1
  Np  Np4  1  0.00000000  -0.00000000  0.00000000  1
  O  O5  1  0.50000000  0.50000000  0.00000000  1
  O  O6  1  0.74270865  0.07887935  0.82158800  1
  O  O7  1  0.07887935  0.25729135  0.33617070  1
  O  O8  1  0.92112065  0.74270865  0.66382930  1
  O  O9  1  0.25729135  0.92112065  0.17841200  1
