# generated using pymatgen
data_ZrO2
_symmetry_space_group_name_H-M   'P 1'
_cell_length_a   4.87813805
_cell_length_b   5.84383528
_cell_length_c   16.13703738
_cell_angle_alpha   90.00000000
_cell_angle_beta   90.00000000
_cell_angle_gamma   90.00000000
_symmetry_Int_Tables_number   1
_chemical_formula_structural   ZrO2
_chemical_formula_sum   'Zr12 O24'
_cell_volume   460.01909322
_cell_formula_units_Z   12
loop_
 _symmetry_equiv_pos_site_id
 _symmetry_equiv_pos_as_xyz
  1  'x, y, z'
loop_
 _atom_site_type_symbol
 _atom_site_label
 _atom_site_symmetry_multiplicity
 _atom_site_fract_x
 _atom_site_fract_y
 _atom_site_fract_z
 _atom_site_occupancy
  Zr  Zr0  1  0.00245731  0.34759178  0.08426939  1
  Zr  Zr1  1  0.00000000  0.01606326  0.25000000  1
  Zr  Zr2  1  0.99754269  0.34759178  0.41573061  1
  Zr  Zr3  1  0.00000000  0.98393674  0.75000000  1
  Zr  Zr4  1  0.00245731  0.65240822  0.58426939  1
  Zr  Zr5  1  0.99754269  0.65240822  0.91573061  1
  Zr  Zr6  1  0.50245731  0.15240822  0.91573061  1
  Zr  Zr7  1  0.49754269  0.15240822  0.58426939  1
  Zr  Zr8  1  0.50000000  0.48393674  0.75000000  1
  Zr  Zr9  1  0.50245731  0.84759178  0.41573061  1
  Zr  Zr10  1  0.49754269  0.84759178  0.08426939  1
  Zr  Zr11  1  0.50000000  0.51606326  0.25000000  1
  O  O12  1  0.20414204  0.62890249  0.02996633  1
  O  O13  1  0.20414204  0.37109751  0.52996633  1
  O  O14  1  0.27892648  0.19486344  0.69547523  1
  O  O15  1  0.27892648  0.80513656  0.19547523  1
  O  O16  1  0.21299863  0.07190709  0.36178770  1
  O  O17  1  0.21299863  0.92809291  0.86178770  1
  O  O18  1  0.28700137  0.57190709  0.36178770  1
  O  O19  1  0.28700137  0.42809291  0.86178770  1
  O  O20  1  0.22107352  0.30513656  0.19547523  1
  O  O21  1  0.22107352  0.69486344  0.69547523  1
  O  O22  1  0.29585696  0.12890249  0.02996633  1
  O  O23  1  0.29585696  0.87109751  0.52996633  1
  O  O24  1  0.70414204  0.12890249  0.47003367  1
  O  O25  1  0.70414204  0.87109751  0.97003367  1
  O  O26  1  0.77892648  0.30513656  0.30452477  1
  O  O27  1  0.77892648  0.69486344  0.80452477  1
  O  O28  1  0.71299863  0.42809291  0.63821230  1
  O  O29  1  0.71299863  0.57190709  0.13821230  1
  O  O30  1  0.78700137  0.07190709  0.13821230  1
  O  O31  1  0.78700137  0.92809291  0.63821230  1
  O  O32  1  0.72107352  0.19486344  0.80452477  1
  O  O33  1  0.72107352  0.80513656  0.30452477  1
  O  O34  1  0.79585796  0.37109751  0.97003367  1
  O  O35  1  0.79585796  0.62890249  0.47003367  1
