# generated using pymatgen
data_Tb2TiO5
_symmetry_space_group_name_H-M   'P 1'
_cell_length_a   3.70131655
_cell_length_b   10.38924971
_cell_length_c   11.27767746
_cell_angle_alpha   90.00000000
_cell_angle_beta   90.00000000
_cell_angle_gamma   90.00000000
_symmetry_Int_Tables_number   1
_chemical_formula_structural   Tb2TiO5
_chemical_formula_sum   'Tb8 Ti4 O20'
_cell_volume   433.67070264
_cell_formula_units_Z   4
loop_
 _symmetry_equiv_pos_site_id
 _symmetry_equiv_pos_as_xyz
  1  'x, y, z'
loop_
 _atom_site_type_symbol
 _atom_site_label
 _atom_site_symmetry_multiplicity
 _atom_site_fract_x
 _atom_site_fract_y
 _atom_site_fract_z
 _atom_site_occupancy
  Tb  Tb0  1  0.25000000  0.13641183  0.94380277  1
  Tb  Tb1  1  0.25000000  0.63641183  0.55619723  1
  Tb  Tb2  1  0.75000000  0.86358817  0.05619723  1
  Tb  Tb3  1  0.75000000  0.36358817  0.44380277  1
  Tb  Tb4  1  0.75000000  0.38565323  0.77680506  1
  Tb  Tb5  1  0.75000000  0.88565323  0.72319494  1
  Tb  Tb6  1  0.25000000  0.61434677  0.22319494  1
  Tb  Tb7  1  0.25000000  0.11434677  0.27680506  1
  Ti  Ti8  1  0.25000000  0.17489482  0.61954674  1
  Ti  Ti9  1  0.25000000  0.67489482  0.88045326  1
  Ti  Ti10  1  0.75000000  0.82510518  0.38045326  1
  Ti  Ti11  1  0.75000000  0.32510518  0.11954674  1
  O  O12  1  0.25000000  0.22398279  0.45760513  1
  O  O13  1  0.25000000  0.72398279  0.04239487  1
  O  O14  1  0.75000000  0.77601721  0.54239487  1
  O  O15  1  0.75000000  0.27601721  0.95760513  1
  O  O16  1  0.25000000  0.49315556  0.39506767  1
  O  O17  1  0.25000000  0.99315556  0.10493233  1
  O  O18  1  0.75000000  0.50684444  0.60493233  1
  O  O19  1  0.75000000  0.00684444  0.89506767  1
  O  O20  1  0.25000000  0.26347076  0.11696214  1
  O  O21  1  0.25000000  0.76347076  0.38303786  1
  O  O22  1  0.75000000  0.73652924  0.88303786  1
  O  O23  1  0.75000000  0.23652924  0.61696214  1
  O  O24  1  0.25000000  0.00770385  0.65436233  1
  O  O25  1  0.25000000  0.50770385  0.84563767  1
  O  O26  1  0.75000000  0.99229615  0.34563767  1
  O  O27  1  0.75000000  0.49229615  0.15436233  1
  O  O28  1  0.25000000  0.25726401  0.77048774  1
  O  O29  1  0.25000000  0.75726401  0.72951226  1
  O  O30  1  0.75000000  0.74273599  0.22951226  1
  O  O31  1  0.75000000  0.24273599  0.27048774  1
