# generated using pymatgen
data_Zr2N2O
_symmetry_space_group_name_H-M   'P 1'
_cell_length_a   8.78165608
_cell_length_b   8.79053184
_cell_length_c   8.79211207
_cell_angle_alpha   109.43147773
_cell_angle_beta   109.45790397
_cell_angle_gamma   109.48122875
_symmetry_Int_Tables_number   1
_chemical_formula_structural   Zr2N2O
_chemical_formula_sum   'Zr16 N16 O8'
_cell_volume   522.74919272
_cell_formula_units_Z   8
loop_
 _symmetry_equiv_pos_site_id
 _symmetry_equiv_pos_as_xyz
  1  'x, y, z'
loop_
 _atom_site_type_symbol
 _atom_site_label
 _atom_site_symmetry_multiplicity
 _atom_site_fract_x
 _atom_site_fract_y
 _atom_site_fract_z
 _atom_site_occupancy
  Zr  Zr0  1  0.01123038  0.00144606  0.50935174  1
  Zr  Zr1  1  0.79107389  0.75152969  0.03319329  1
  Zr  Zr2  1  0.74807997  0.52608367  0.28451130  1
  Zr  Zr3  1  0.24674524  0.96280070  0.21522419  1
  Zr  Zr4  1  0.97195509  0.22104088  0.25366135  1
  Zr  Zr5  1  0.46372277  0.71161668  0.24556832  1
  Zr  Zr6  1  0.70525655  0.23893846  0.45731082  1
  Zr  Zr7  1  0.00035319  0.49255213  0.98946984  1
  Zr  Zr8  1  0.50077766  0.99980754  0.99749136  1
  Zr  Zr9  1  0.48792838  0.49191929  0.49666268  1
  Zr  Zr10  1  0.28042037  0.75295349  0.54595283  1
  Zr  Zr11  1  0.03216791  0.78408083  0.74965540  1
  Zr  Zr12  1  0.53062315  0.28290939  0.74307271  1
  Zr  Zr13  1  0.75669392  0.04539477  0.78615992  1
  Zr  Zr14  1  0.25822795  0.47057102  0.71919461  1
  Zr  Zr15  1  0.21634100  0.25665602  0.96628774  1
  N  N16  1  0.51183245  0.96366649  0.23871033  1
  N  N17  1  0.95123928  0.98358335  0.72449022  1
  N  N18  1  0.74067692  0.27360539  0.22880928  1
  N  N19  1  0.98814389  0.72734292  0.95556155  1
  N  N20  1  0.47063295  0.45478560  0.22949730  1
  N  N21  1  0.77715642  0.26513095  0.72809945  1
  N  N22  1  0.53802850  0.55067080  0.77460376  1
  N  N23  1  0.03044060  0.75826293  0.48264951  1
  N  N24  1  0.22845681  0.46709582  0.45749810  1
  N  N25  1  0.00594175  0.27121869  0.04319019  1
  N  N26  1  0.45542963  0.22951297  0.46515994  1
  N  N27  1  0.26100702  0.73142398  0.77682312  1
  N  N28  1  0.04225219  0.01233192  0.27219609  1
  N  N29  1  0.23968113  0.51416510  0.97099074  1
  N  N30  1  0.49160267  0.03377464  0.76384299  1
  N  N31  1  0.27012996  0.22689191  0.73704464  1
  O  O32  1  0.72435258  0.76918880  0.25608359  1
  O  O33  1  0.76315113  0.49443045  0.03743701  1
  O  O34  1  0.54113346  0.77179343  0.52902537  1
  O  O35  1  0.77341964  0.53500233  0.54579151  1
  O  O36  1  0.23039509  0.74028449  0.27440248  1
  O  O37  1  0.72452720  0.95260937  0.98905877  1
  O  O38  1  0.96515419  0.23788027  0.51286499  1
  O  O39  1  0.27361711  0.04504280  0.01339799  1
