# generated using pymatgen
data_Sr(RhO2)2
_symmetry_space_group_name_H-M   'P 1'
_cell_length_a   5.36553851
_cell_length_b   6.18466945
_cell_length_c   11.33905599
_cell_angle_alpha   90.00000000
_cell_angle_beta   90.00000000
_cell_angle_gamma   90.00000000
_symmetry_Int_Tables_number   1
_chemical_formula_structural   Sr(RhO2)2
_chemical_formula_sum   'Sr4 Rh8 O16'
_cell_volume   376.27616497
_cell_formula_units_Z   4
loop_
 _symmetry_equiv_pos_site_id
 _symmetry_equiv_pos_as_xyz
  1  'x, y, z'
loop_
 _atom_site_type_symbol
 _atom_site_label
 _atom_site_symmetry_multiplicity
 _atom_site_fract_x
 _atom_site_fract_y
 _atom_site_fract_z
 _atom_site_occupancy
  Sr  Sr0  1  0.14361562  -0.00000000  0.50000000  1
  Sr  Sr1  1  0.46383157  -0.00000000  0.00000000  1
  Sr  Sr2  1  0.53616843  0.50000000  0.50000000  1
  Sr  Sr3  1  0.85638438  0.50000000  0.00000000  1
  Rh  Rh4  1  0.50207558  -0.00000000  0.74424218  1
  Rh  Rh5  1  0.50207558  -0.00000000  0.25575782  1
  Rh  Rh6  1  0.00000000  0.75000000  0.75000000  1
  Rh  Rh7  1  0.00000000  0.75000000  0.25000000  1
  Rh  Rh8  1  0.49792442  0.50000000  0.75575782  1
  Rh  Rh9  1  0.49792442  0.50000000  0.24424218  1
  Rh  Rh10  1  0.00000000  0.25000000  0.25000000  1
  Rh  Rh11  1  0.00000000  0.25000000  0.75000000  1
  O  O12  1  0.17081483  -0.00000000  0.16408462  1
  O  O13  1  0.83560237  -0.00000000  0.65760778  1
  O  O14  1  0.83560237  -0.00000000  0.34239222  1
  O  O15  1  0.17081483  -0.00000000  0.83591538  1
  O  O16  1  0.66597011  0.75425945  0.15614164  1
  O  O17  1  0.33402989  0.74574055  0.34385836  1
  O  O18  1  0.33402989  0.74574055  0.65614164  1
  O  O19  1  0.66597011  0.75425945  0.84385836  1
  O  O20  1  0.16439763  0.50000000  0.15760778  1
  O  O21  1  0.16439763  0.50000000  0.84239222  1
  O  O22  1  0.82918517  0.50000000  0.33591538  1
  O  O23  1  0.82918517  0.50000000  0.66408462  1
  O  O24  1  0.66597011  0.24574055  0.15614164  1
  O  O25  1  0.33402989  0.25425945  0.34385836  1
  O  O26  1  0.33402989  0.25425945  0.65614164  1
  O  O27  1  0.66597011  0.24574055  0.84385836  1
