# generated using pymatgen
data_Rb3ClO
_symmetry_space_group_name_H-M   'P 1'
_cell_length_a   8.71371812
_cell_length_b   4.32145197
_cell_length_c   15.72080491
_cell_angle_alpha   90.00000000
_cell_angle_beta   90.00000000
_cell_angle_gamma   90.00000000
_symmetry_Int_Tables_number   1
_chemical_formula_structural   Rb3ClO
_chemical_formula_sum   'Rb12 Cl4 O4'
_cell_volume   591.98128298
_cell_formula_units_Z   4
loop_
 _symmetry_equiv_pos_site_id
 _symmetry_equiv_pos_as_xyz
  1  'x, y, z'
loop_
 _atom_site_type_symbol
 _atom_site_label
 _atom_site_symmetry_multiplicity
 _atom_site_fract_x
 _atom_site_fract_y
 _atom_site_fract_z
 _atom_site_occupancy
  Rb  Rb0  1  0.02397393  0.25000000  0.59563502  1
  Rb  Rb1  1  0.16896683  0.25000000  0.00185707  1
  Rb  Rb2  1  0.19946635  0.75000000  0.79003380  1
  Rb  Rb3  1  0.30053365  0.25000000  0.29003380  1
  Rb  Rb4  1  0.33103317  0.75000000  0.50185707  1
  Rb  Rb5  1  0.47602607  0.75000000  0.09563502  1
  Rb  Rb6  1  0.52397393  0.25000000  0.90436498  1
  Rb  Rb7  1  0.66896683  0.25000000  0.49814293  1
  Rb  Rb8  1  0.69946635  0.75000000  0.70996620  1
  Rb  Rb9  1  0.80053365  0.25000000  0.20996620  1
  Rb  Rb10  1  0.83103317  0.75000000  0.99814293  1
  Rb  Rb11  1  0.97602607  0.75000000  0.40436498  1
  Cl  Cl12  1  0.08935573  0.75000000  0.17390030  1
  Cl  Cl13  1  0.41064427  0.25000000  0.67390030  1
  Cl  Cl14  1  0.58935573  0.75000000  0.32609970  1
  Cl  Cl15  1  0.91064427  0.25000000  0.82609970  1
  O  O16  1  0.17233118  0.25000000  0.43836330  1
  O  O17  1  0.32766882  0.75000000  0.93836330  1
  O  O18  1  0.67233118  0.25000000  0.06163670  1
  O  O19  1  0.82766882  0.75000000  0.56163670  1
