# generated using pymatgen
data_V4OF11
_symmetry_space_group_name_H-M   'P 1'
_cell_length_a   5.07398239
_cell_length_b   5.30917267
_cell_length_c   16.93013276
_cell_angle_alpha   88.58782244
_cell_angle_beta   98.50153605
_cell_angle_gamma   117.95035431
_symmetry_Int_Tables_number   1
_chemical_formula_structural   V4OF11
_chemical_formula_sum   'V8 O2 F22'
_cell_volume   397.92813045
_cell_formula_units_Z   2
loop_
 _symmetry_equiv_pos_site_id
 _symmetry_equiv_pos_as_xyz
  1  'x, y, z'
loop_
 _atom_site_type_symbol
 _atom_site_label
 _atom_site_symmetry_multiplicity
 _atom_site_fract_x
 _atom_site_fract_y
 _atom_site_fract_z
 _atom_site_occupancy
  V  V0  1  0.50000000  0.50000000  0.50000000  1
  V  V1  1  0.50000000  -0.00000000  0.00000000  1
  V  V2  1  0.26750638  0.85467811  0.62375228  1
  V  V3  1  0.24713087  0.37790866  0.12535469  1
  V  V4  1  0.00651010  0.24294156  0.74927994  1
  V  V5  1  0.99348990  0.75705844  0.25072006  1
  V  V6  1  0.73249362  0.14532189  0.37624772  1
  V  V7  1  0.75286913  0.62209134  0.87464531  1
  O  O8  1  0.59250814  0.33019959  0.41639783  1
  O  O9  1  0.40749186  0.66980041  0.58360217  1
  F  F10  1  0.07871751  0.27654498  0.46276715  1
  F  F11  1  0.51501131  0.80103830  0.43321123  1
  F  F12  1  0.50108331  0.30562029  0.93779096  1
  F  F13  1  0.48498869  0.19896170  0.56678877  1
  F  F14  1  0.07355910  0.07998394  0.65957400  1
  F  F15  1  0.06183491  0.77314153  0.96625650  1
  F  F16  1  0.06648127  0.59521734  0.15984900  1
  F  F17  1  0.92128249  0.72345502  0.53723285  1
  F  F18  1  0.93816509  0.22685847  0.03374350  1
  F  F19  1  0.93351873  0.40478266  0.84015100  1
  F  F20  1  0.01146284  0.55758944  0.68791069  1
  F  F21  1  0.49891669  0.69437971  0.06220904  1
  F  F22  1  0.56435732  0.02323130  0.71699578  1
  F  F23  1  0.57540319  0.84302048  0.90889333  1
  F  F24  1  0.55478872  0.52757932  0.21723443  1
  F  F25  1  0.92644090  0.92001606  0.34042600  1
  F  F26  1  0.44521128  0.47242068  0.78276557  1
  F  F27  1  0.42459681  0.15697952  0.09110667  1
  F  F28  1  0.99425603  0.05950530  0.18766794  1
  F  F29  1  0.98853716  0.44241056  0.31208931  1
  F  F30  1  0.00574397  0.94049470  0.81233206  1
  F  F31  1  0.43564268  0.97676870  0.28300422  1
