# generated using pymatgen
data_ZnCrO4
_symmetry_space_group_name_H-M   'P 1'
_cell_length_a   4.97725337
_cell_length_b   4.97725337
_cell_length_c   6.28859189
_cell_angle_alpha   90.00000000
_cell_angle_beta   90.00000000
_cell_angle_gamma   67.20582133
_symmetry_Int_Tables_number   1
_chemical_formula_structural   ZnCrO4
_chemical_formula_sum   'Zn2 Cr2 O8'
_cell_volume   143.62098829
_cell_formula_units_Z   2
loop_
 _symmetry_equiv_pos_site_id
 _symmetry_equiv_pos_as_xyz
  1  'x, y, z'
loop_
 _atom_site_type_symbol
 _atom_site_label
 _atom_site_symmetry_multiplicity
 _atom_site_fract_x
 _atom_site_fract_y
 _atom_site_fract_z
 _atom_site_occupancy
  Zn  Zn0  1  0.00000000  0.00000000  -0.00000000  1
  Zn  Zn1  1  0.00000000  0.00000000  0.50000000  1
  Cr  Cr2  1  0.35857663  0.35857663  0.25000000  1
  Cr  Cr3  1  0.64142337  0.64142337  0.75000000  1
  O  O4  1  0.27370524  0.77827355  0.75000000  1
  O  O5  1  0.22172645  0.72629476  0.25000000  1
  O  O6  1  0.75442783  0.75442783  0.54018903  1
  O  O7  1  0.24557217  0.24557217  0.04018903  1
  O  O8  1  0.75442783  0.75442783  0.95981097  1
  O  O9  1  0.24557217  0.24557217  0.45981097  1
  O  O10  1  0.72629476  0.22172645  0.25000000  1
  O  O11  1  0.77827355  0.27370524  0.75000000  1
