# generated using pymatgen
data_Sm3Al5O12
_symmetry_space_group_name_H-M   'P 1'
_cell_length_a   10.52898086
_cell_length_b   10.52898084
_cell_length_c   10.52898082
_cell_angle_alpha   109.47123316
_cell_angle_beta   109.47123332
_cell_angle_gamma   109.47123099
_symmetry_Int_Tables_number   1
_chemical_formula_structural   Sm3Al5O12
_chemical_formula_sum   'Sm12 Al20 O48'
_cell_volume   898.53898477
_cell_formula_units_Z   4
loop_
 _symmetry_equiv_pos_site_id
 _symmetry_equiv_pos_as_xyz
  1  'x, y, z'
loop_
 _atom_site_type_symbol
 _atom_site_label
 _atom_site_symmetry_multiplicity
 _atom_site_fract_x
 _atom_site_fract_y
 _atom_site_fract_z
 _atom_site_occupancy
  Sm  Sm0  1  0.75000000  0.12499990  0.37500009  1
  Sm  Sm1  1  0.37500005  0.12499996  0.25000001  1
  Sm  Sm2  1  0.87500009  0.62499991  0.25000000  1
  Sm  Sm3  1  0.24999999  0.37500005  0.12499996  1
  Sm  Sm4  1  0.37500011  0.75000000  0.12499991  1
  Sm  Sm5  1  0.12499996  0.25000001  0.37500003  1
  Sm  Sm6  1  0.87500004  0.74999999  0.62499995  1
  Sm  Sm7  1  0.62499990  0.25000000  0.87500007  1
  Sm  Sm8  1  0.74999999  0.62499993  0.87500004  1
  Sm  Sm9  1  0.62499996  0.87500004  0.75000001  1
  Sm  Sm10  1  0.12499990  0.37500007  0.74999998  1
  Sm  Sm11  1  0.25000000  0.87500010  0.62499992  1
  Al  Al12  1  0.87499973  0.25000002  0.12500016  1
  Al  Al13  1  0.50000000  0.00000001  0.00000001  1
  Al  Al14  1  -0.00000000  -0.00000000  -0.00000000  1
  Al  Al15  1  0.62500026  0.37499983  0.24999998  1
  Al  Al16  1  0.50000000  0.00000000  0.50000000  1
  Al  Al17  1  0.49999999  0.49999999  0.00000000  1
  Al  Al18  1  0.87499985  0.12500028  0.74999998  1
  Al  Al19  1  0.74999998  0.87499985  0.12500029  1
  Al  Al20  1  0.75000002  0.37499972  0.62500015  1
  Al  Al21  1  0.62500016  0.75000002  0.37499972  1
  Al  Al22  1  0.50000000  0.49999999  0.50000000  1
  Al  Al23  1  0.00000001  0.50000000  -0.00000000  1
  Al  Al24  1  0.00000000  0.00000001  0.50000000  1
  Al  Al25  1  0.37499984  0.24999998  0.62500027  1
  Al  Al26  1  0.24999999  0.62500027  0.37499985  1
  Al  Al27  1  0.25000003  0.12500017  0.87499974  1
  Al  Al28  1  0.37499971  0.62500015  0.75000002  1
  Al  Al29  1  0.12500017  0.87499973  0.25000002  1
  Al  Al30  1  0.00000001  0.49999999  0.50000000  1
  Al  Al31  1  0.12500029  0.74999998  0.87499985  1
  O  O32  1  0.90057423  0.01594380  0.31966618  1
  O  O33  1  0.88463036  0.40057411  0.08090825  1
  O  O34  1  0.91909196  0.30372199  0.31966622  1
  O  O35  1  0.98405623  0.68033382  0.09942574  1
  O  O36  1  0.91909174  0.11536965  0.59942590  1
  O  O37  1  0.58090805  0.18033379  0.19627802  1
  O  O38  1  0.61536962  0.41909173  0.09942588  1
  O  O39  1  0.19627777  0.11536968  0.01594393  1
  O  O40  1  0.69627800  0.68033377  0.08090805  1
  O  O41  1  0.59942574  0.18033380  0.48405619  1
  O  O42  1  0.90057410  0.38463033  0.58090825  1
  O  O43  1  0.11536968  0.01594393  0.19627777  1
  O  O44  1  0.81966618  0.51594379  0.40057425  1
  O  O45  1  0.68033378  0.08090806  0.69627801  1
  O  O46  1  0.48405608  0.38463032  0.30372223  1
  O  O47  1  0.48405620  0.59942576  0.18033380  1
  O  O48  1  0.41909177  0.09942592  0.61536966  1
  O  O49  1  0.01594393  0.19627777  0.11536969  1
  O  O50  1  0.81966621  0.80372198  0.41909193  1
  O  O51  1  0.38463032  0.30372223  0.48405607  1
  O  O52  1  0.68033381  0.09942575  0.98405620  1
  O  O53  1  0.69627774  0.51594391  0.61536968  1
  O  O54  1  0.80372199  0.41909195  0.81966623  1
  O  O55  1  0.59942592  0.91909177  0.11536969  1
  O  O56  1  0.30372223  0.48405606  0.38463031  1
  O  O57  1  0.40057410  0.08090825  0.88463034  1
  O  O58  1  0.19627801  0.58090805  0.18033377  1
  O  O59  1  0.18033379  0.19627804  0.58090806  1
  O  O60  1  0.61536967  0.69627775  0.51594391  1
  O  O61  1  0.31966619  0.90057425  0.01594381  1
  O  O62  1  0.58090823  0.90057409  0.38463034  1
  O  O63  1  0.51594380  0.40057425  0.81966620  1
  O  O64  1  0.98405607  0.80372224  0.88463031  1
  O  O65  1  0.51594391  0.61536966  0.69627775  1
  O  O66  1  0.31966622  0.91909195  0.30372199  1
  O  O67  1  0.18033382  0.48405622  0.59942574  1
  O  O68  1  0.88463033  0.98405609  0.80372224  1
  O  O69  1  0.40057425  0.81966619  0.51594382  1
  O  O70  1  0.30372199  0.31966623  0.91909196  1
  O  O71  1  0.09942590  0.61536966  0.41909175  1
  O  O72  1  0.80372223  0.88463033  0.98405608  1
  O  O73  1  0.38463035  0.58090824  0.90057409  1
  O  O74  1  0.41909194  0.81966620  0.80372199  1
  O  O75  1  0.01594379  0.31966619  0.90057426  1
  O  O76  1  0.08090826  0.88463037  0.40057411  1
  O  O77  1  0.08090805  0.69627802  0.68033378  1
  O  O78  1  0.11536965  0.59942590  0.91909175  1
  O  O79  1  0.09942577  0.98405622  0.68033382  1
