# generated using pymatgen
data_MgZr3Tl10(MoO4)12
_symmetry_space_group_name_H-M   'P 1'
_cell_length_a   14.40761572
_cell_length_b   14.40761572
_cell_length_c   14.40761596
_cell_angle_alpha   44.30919685
_cell_angle_beta   44.30919685
_cell_angle_gamma   44.30919884
_symmetry_Int_Tables_number   1
_chemical_formula_structural   MgZr3Tl10(MoO4)12
_chemical_formula_sum   'Mg1 Zr3 Tl10 Mo12 O48'
_cell_volume   1326.30203765
_cell_formula_units_Z   1
loop_
 _symmetry_equiv_pos_site_id
 _symmetry_equiv_pos_as_xyz
  1  'x, y, z'
loop_
 _atom_site_type_symbol
 _atom_site_label
 _atom_site_symmetry_multiplicity
 _atom_site_fract_x
 _atom_site_fract_y
 _atom_site_fract_z
 _atom_site_occupancy
  Mg  Mg0  1  0.50055500  0.50055500  0.50055500  1
  Zr  Zr1  1  0.00050400  0.00050400  0.00050400  1
  Zr  Zr2  1  0.75241300  0.75241300  0.75241300  1
  Zr  Zr3  1  0.24823700  0.24823700  0.24823700  1
  Tl  Tl4  1  0.89456500  0.89456500  0.89456500  1
  Tl  Tl5  1  0.60310200  0.60310200  0.60310200  1
  Tl  Tl6  1  0.11717000  0.50328600  0.88039800  1
  Tl  Tl7  1  0.88039800  0.11717000  0.50328600  1
  Tl  Tl8  1  0.50328600  0.88039800  0.11717000  1
  Tl  Tl9  1  0.39869200  0.39869200  0.39869200  1
  Tl  Tl10  1  0.38706200  0.00319100  0.61028100  1
  Tl  Tl11  1  0.00319100  0.61028100  0.38706200  1
  Tl  Tl12  1  0.61028100  0.38706200  0.00319100  1
  Tl  Tl13  1  0.10701800  0.10701800  0.10701800  1
  Mo  Mo14  1  0.23001900  0.63220900  0.98882400  1
  Mo  Mo15  1  0.98882400  0.23001900  0.63220900  1
  Mo  Mo16  1  0.51095900  0.27772700  0.86318400  1
  Mo  Mo17  1  0.63220900  0.98882400  0.23001900  1
  Mo  Mo18  1  0.27772700  0.86318400  0.51095900  1
  Mo  Mo19  1  0.86318400  0.51095900  0.27772700  1
  Mo  Mo20  1  0.48635900  0.13709600  0.72806400  1
  Mo  Mo21  1  0.13709600  0.72806400  0.48635900  1
  Mo  Mo22  1  0.00832600  0.36818600  0.77591900  1
  Mo  Mo23  1  0.72806400  0.48635900  0.13709600  1
  Mo  Mo24  1  0.77591900  0.00832600  0.36818600  1
  Mo  Mo25  1  0.36818600  0.77591900  0.00832600  1
  O  O26  1  0.74986800  0.64498700  0.95370400  1
  O  O27  1  0.64498700  0.95370400  0.74986800  1
  O  O28  1  0.95370400  0.74986800  0.64498700  1
  O  O29  1  0.54892400  0.74905500  0.85484900  1
  O  O30  1  0.21586600  0.92953900  0.94889700  1
  O  O31  1  0.94889700  0.21586600  0.92953900  1
  O  O32  1  0.85484900  0.54892400  0.74905500  1
  O  O33  1  0.74905500  0.85484900  0.54892400  1
  O  O34  1  0.39425500  0.65486300  0.86712700  1
  O  O35  1  0.92953900  0.94889700  0.21586600  1
  O  O36  1  0.86712700  0.39425500  0.65486300  1
  O  O37  1  0.59761200  0.32293800  0.86235400  1
  O  O38  1  0.18656700  0.63765000  0.89834300  1
  O  O39  1  0.65486300  0.86712700  0.39425500  1
  O  O40  1  0.32293800  0.86235400  0.59761200  1
  O  O41  1  0.89834300  0.18656700  0.63765000  1
  O  O42  1  0.63629100  0.11221100  0.84036300  1
  O  O43  1  0.86235400  0.59761200  0.32293800  1
  O  O44  1  0.45115700  0.42749200  0.71750600  1
  O  O45  1  0.11221100  0.84036300  0.63629100  1
  O  O46  1  0.63765000  0.89834300  0.18656700  1
  O  O47  1  0.42749200  0.71750600  0.45115700  1
  O  O48  1  0.36380700  0.15841000  0.89429600  1
  O  O49  1  0.71750600  0.45115700  0.42749200  1
  O  O50  1  0.54413700  0.28400200  0.57858600  1
  O  O51  1  0.84036300  0.63629100  0.11221100  1
  O  O52  1  0.28400200  0.57858600  0.54413700  1
  O  O53  1  0.09688000  0.36481300  0.81985300  1
  O  O54  1  0.15841000  0.89429600  0.36380700  1
  O  O55  1  0.57858600  0.54413700  0.28400200  1
  O  O56  1  0.39754900  0.13992300  0.68368600  1
  O  O57  1  0.89429600  0.36380700  0.15841000  1
  O  O58  1  0.81985300  0.09688000  0.36481300  1
  O  O59  1  0.13992300  0.68368600  0.39754900  1
  O  O60  1  0.13262400  0.34384400  0.61252300  1
  O  O61  1  0.36481300  0.81985300  0.09688000  1
  O  O62  1  0.68368600  0.39754900  0.13992300  1
  O  O63  1  0.61252300  0.13262400  0.34384400  1
  O  O64  1  0.04627300  0.07660500  0.78561900  1
  O  O65  1  0.34384400  0.61252300  0.13262400  1
  O  O66  1  0.14356100  0.25364200  0.45177800  1
  O  O67  1  0.45177800  0.14356100  0.25364200  1
  O  O68  1  0.78561900  0.04627300  0.07660500  1
  O  O69  1  0.07660500  0.78561900  0.04627300  1
  O  O70  1  0.25364200  0.45177800  0.14356100  1
  O  O71  1  0.25278500  0.04684200  0.35359600  1
  O  O72  1  0.04684200  0.35359600  0.25278500  1
  O  O73  1  0.35359600  0.25278500  0.04684200  1
