# generated using pymatgen
data_Sr(IO3)2
_symmetry_space_group_name_H-M   'P 1'
_cell_length_a   11.56935840
_cell_length_b   7.47759299
_cell_length_c   9.00679211
_cell_angle_alpha   52.17814941
_cell_angle_beta   90.00000000
_cell_angle_gamma   90.00000000
_symmetry_Int_Tables_number   1
_chemical_formula_structural   Sr(IO3)2
_chemical_formula_sum   'Sr4 I8 O24'
_cell_volume   615.49568633
_cell_formula_units_Z   4
loop_
 _symmetry_equiv_pos_site_id
 _symmetry_equiv_pos_as_xyz
  1  'x, y, z'
loop_
 _atom_site_type_symbol
 _atom_site_label
 _atom_site_symmetry_multiplicity
 _atom_site_fract_x
 _atom_site_fract_y
 _atom_site_fract_z
 _atom_site_occupancy
  Sr  Sr0  1  0.90519461  0.24135621  0.99251211  1
  Sr  Sr1  1  0.40519461  0.75864379  0.50748789  1
  Sr  Sr2  1  0.59480539  0.24135621  0.49251211  1
  Sr  Sr3  1  0.09480539  0.75864379  0.00748789  1
  I  I4  1  0.21700096  0.30198434  0.95504225  1
  I  I5  1  0.71700096  0.69801566  0.54495775  1
  I  I6  1  0.07516206  0.74739118  0.47020762  1
  I  I7  1  0.57516206  0.25260882  0.02979238  1
  I  I8  1  0.42483794  0.74739118  0.97020762  1
  I  I9  1  0.92483794  0.25260882  0.52979238  1
  I  I10  1  0.28299904  0.30198434  0.45504225  1
  I  I11  1  0.78299904  0.69801566  0.04495775  1
  O  O12  1  0.11076408  0.10688639  0.98361477  1
  O  O13  1  0.90747892  0.38713348  0.64267358  1
  O  O14  1  0.60978959  0.49557868  0.58681728  1
  O  O15  1  0.25770720  0.43824079  0.71342510  1
  O  O16  1  0.75770720  0.56175921  0.78657490  1
  O  O17  1  0.70128525  0.07206649  0.12240138  1
  O  O18  1  0.46124225  0.04864170  0.16287069  1
  O  O19  1  0.10978959  0.50442132  0.91318272  1
  O  O20  1  0.96124225  0.95135830  0.33712931  1
  O  O21  1  0.20128525  0.92793351  0.37759862  1
  O  O22  1  0.40747892  0.61286652  0.85732642  1
  O  O23  1  0.61076408  0.89311361  0.51638523  1
  O  O24  1  0.38923592  0.10688639  0.48361477  1
  O  O25  1  0.59252108  0.38713348  0.14267358  1
  O  O26  1  0.79871475  0.07206649  0.62240138  1
  O  O27  1  0.03875775  0.04864170  0.66287069  1
  O  O28  1  0.89021041  0.49557868  0.08681728  1
  O  O29  1  0.53875775  0.95135830  0.83712931  1
  O  O30  1  0.29871475  0.92793351  0.87759862  1
  O  O31  1  0.24229280  0.43824079  0.21342510  1
  O  O32  1  0.74229280  0.56175921  0.28657490  1
  O  O33  1  0.39021041  0.50442132  0.41318272  1
  O  O34  1  0.09252108  0.61286652  0.35732642  1
  O  O35  1  0.88923592  0.89311361  0.01638523  1
