# generated using pymatgen
data_V3O5F
_symmetry_space_group_name_H-M   'P 1'
_cell_length_a   2.90530305
_cell_length_b   4.57878259
_cell_length_c   13.74253801
_cell_angle_alpha   90.00000000
_cell_angle_beta   90.00000000
_cell_angle_gamma   90.00000000
_symmetry_Int_Tables_number   1
_chemical_formula_structural   V3O5F
_chemical_formula_sum   'V6 O10 F2'
_cell_volume   182.81356159
_cell_formula_units_Z   2
loop_
 _symmetry_equiv_pos_site_id
 _symmetry_equiv_pos_as_xyz
  1  'x, y, z'
loop_
 _atom_site_type_symbol
 _atom_site_label
 _atom_site_symmetry_multiplicity
 _atom_site_fract_x
 _atom_site_fract_y
 _atom_site_fract_z
 _atom_site_occupancy
  V  V0  1  0.50000000  0.72003450  0.00004358  1
  V  V1  1  0.50000000  0.78698954  0.34170540  1
  V  V2  1  0.50000000  0.78350525  0.65866241  1
  V  V3  1  0.00000000  0.21649475  0.15866241  1
  V  V4  1  -0.00000000  0.27996550  0.50004358  1
  V  V5  1  0.00000000  0.21301046  0.84170540  1
  O  O6  1  0.00000000  0.96000821  0.26585605  1
  O  O7  1  0.00000000  0.96980099  0.59953925  1
  O  O8  1  0.00000000  0.92649287  0.93399846  1
  O  O9  1  0.50000000  0.03019901  0.09953925  1
  O  O10  1  0.50000000  0.03999179  0.76585605  1
  O  O11  1  0.50000000  0.07350713  0.43399846  1
  O  O12  1  0.50000000  0.47407206  0.56866344  1
  O  O13  1  0.50000000  0.42770622  0.89869350  1
  O  O14  1  0.00000000  0.52592794  0.06866344  1
  O  O15  1  -0.00000000  0.57229378  0.39869350  1
  F  F16  1  0.50000000  0.45031833  0.23274592  1
  F  F17  1  -0.00000000  0.54968167  0.73274592  1
