# generated using pymatgen
data_Y13Tm3O24
_symmetry_space_group_name_H-M   'P 1'
_cell_length_a   9.14272702
_cell_length_b   9.14843561
_cell_length_c   9.15180214
_cell_angle_alpha   109.47800989
_cell_angle_beta   109.45416346
_cell_angle_gamma   109.41525061
_symmetry_Int_Tables_number   1
_chemical_formula_structural   Y13Tm3O24
_chemical_formula_sum   'Y13 Tm3 O24'
_cell_volume   589.74155979
_cell_formula_units_Z   1
loop_
 _symmetry_equiv_pos_site_id
 _symmetry_equiv_pos_as_xyz
  1  'x, y, z'
loop_
 _atom_site_type_symbol
 _atom_site_label
 _atom_site_symmetry_multiplicity
 _atom_site_fract_x
 _atom_site_fract_y
 _atom_site_fract_z
 _atom_site_occupancy
  Y  Y0  1  0.03147023  0.28098822  0.24973325  1
  Y  Y1  1  0.99876206  0.50017322  0.99993156  1
  Y  Y2  1  0.28265362  0.24848306  0.03207551  1
  Y  Y3  1  0.21658119  0.75057516  0.46810817  1
  Y  Y4  1  0.74989349  0.53388414  0.28205208  1
  Y  Y5  1  0.74941351  0.03193122  0.78273306  1
  Y  Y6  1  0.50041586  0.50046992  0.50099583  1
  Y  Y7  1  0.46633607  0.21657109  0.75047290  1
  Y  Y8  1  0.53439954  0.78410399  0.24897991  1
  Y  Y9  1  0.25084070  0.46742028  0.71820424  1
  Y  Y10  1  0.24952212  0.96677353  0.21671228  1
  Y  Y11  1  0.78341994  0.24943190  0.53189667  1
  Y  Y12  1  0.96728161  0.71831478  0.75027848  1
  Tm  Tm13  1  0.99977498  0.99985058  0.49863925  1
  Tm  Tm14  1  0.50051944  0.99946983  0.99991606  1
  Tm  Tm15  1  0.71679082  0.75153426  0.96739958  1
  O  O16  1  0.95746264  0.48940433  0.22884857  1
  O  O17  1  0.54330619  0.26795909  0.03271936  1
  O  O18  1  0.27099489  0.54181344  0.51071953  1
  O  O19  1  0.96516892  0.73981782  0.01060428  1
  O  O20  1  0.77490694  0.76501306  0.22797161  1
  O  O21  1  0.46678811  0.95669228  0.73175341  1
  O  O22  1  0.23626578  0.01089533  0.46773542  1
  O  O23  1  0.26161054  0.22920393  0.27184842  1
  O  O24  1  0.00900498  0.77543418  0.54230379  1
  O  O25  1  0.48934150  0.53218973  0.26016116  1
  O  O26  1  0.76802360  0.02945695  0.04245060  1
  O  O27  1  0.72805011  0.27034976  0.75949255  1
  O  O28  1  0.27119181  0.72893456  0.23920349  1
  O  O29  1  0.23229376  0.96644197  0.95701313  1
  O  O30  1  0.51424827  0.47182881  0.74423211  1
  O  O31  1  0.99032021  0.22524860  0.45760256  1
  O  O32  1  0.76423171  0.98849250  0.53203587  1
  O  O33  1  0.73790008  0.77061041  0.73083170  1
  O  O34  1  0.22491218  0.23495150  0.76813730  1
  O  O35  1  0.53325188  0.04324546  0.26820346  1
  O  O36  1  0.72905768  0.45827099  0.48938171  1
  O  O37  1  0.03109892  0.26037792  0.98934945  1
  O  O38  1  0.45956737  0.73220006  0.96700545  1
  O  O39  1  0.04292778  0.51119316  0.77226824  1
