# generated using pymatgen
data_ZnSeO4
_symmetry_space_group_name_H-M   'P 1'
_cell_length_a   4.91555257
_cell_length_b   6.71516679
_cell_length_c   9.06349620
_cell_angle_alpha   90.00000000
_cell_angle_beta   90.00000000
_cell_angle_gamma   90.00000000
_symmetry_Int_Tables_number   1
_chemical_formula_structural   ZnSeO4
_chemical_formula_sum   'Zn4 Se4 O16'
_cell_volume   299.17472889
_cell_formula_units_Z   4
loop_
 _symmetry_equiv_pos_site_id
 _symmetry_equiv_pos_as_xyz
  1  'x, y, z'
loop_
 _atom_site_type_symbol
 _atom_site_label
 _atom_site_symmetry_multiplicity
 _atom_site_fract_x
 _atom_site_fract_y
 _atom_site_fract_z
 _atom_site_occupancy
  Zn  Zn0  1  0.00000000  0.00000000  0.00000000  1
  Zn  Zn1  1  0.00000000  0.50000000  0.00000000  1
  Zn  Zn2  1  0.50000000  0.00000000  0.50000000  1
  Zn  Zn3  1  0.50000000  0.50000000  0.50000000  1
  Se  Se4  1  0.47087576  0.25000000  0.18092773  1
  Se  Se5  1  0.97087576  0.75000000  0.31907227  1
  Se  Se6  1  0.02912424  0.25000000  0.68092773  1
  Se  Se7  1  0.52912424  0.75000000  0.81907227  1
  O  O8  1  0.32483251  0.04345545  0.12499774  1
  O  O9  1  0.79211643  0.25000000  0.12398870  1
  O  O10  1  0.32483251  0.45654455  0.12499774  1
  O  O11  1  0.93368210  0.75000000  0.13462220  1
  O  O12  1  0.43368210  0.25000000  0.36537780  1
  O  O13  1  0.29211643  0.75000000  0.37601130  1
  O  O14  1  0.82483251  0.95654455  0.37500226  1
  O  O15  1  0.82483251  0.54345545  0.37500226  1
  O  O16  1  0.17516749  0.04345545  0.62499774  1
  O  O17  1  0.70788357  0.25000000  0.62398870  1
  O  O18  1  0.17516749  0.45654455  0.62499774  1
  O  O19  1  0.56631790  0.75000000  0.63462220  1
  O  O20  1  0.06631790  0.25000000  0.86537780  1
  O  O21  1  0.67516749  0.54345545  0.87500226  1
  O  O22  1  0.20788357  0.75000000  0.87601130  1
  O  O23  1  0.67516749  0.95654455  0.87500226  1
