# generated using pymatgen
data_Zr2N2O
_symmetry_space_group_name_H-M   'P 1'
_cell_length_a   8.79577760
_cell_length_b   8.77763407
_cell_length_c   8.79404186
_cell_angle_alpha   109.54814766
_cell_angle_beta   109.41682018
_cell_angle_gamma   109.42006220
_symmetry_Int_Tables_number   1
_chemical_formula_structural   Zr2N2O
_chemical_formula_sum   'Zr16 N16 O8'
_cell_volume   522.84283110
_cell_formula_units_Z   8
loop_
 _symmetry_equiv_pos_site_id
 _symmetry_equiv_pos_as_xyz
  1  'x, y, z'
loop_
 _atom_site_type_symbol
 _atom_site_label
 _atom_site_symmetry_multiplicity
 _atom_site_fract_x
 _atom_site_fract_y
 _atom_site_fract_z
 _atom_site_occupancy
  Zr  Zr0  1  0.49892399  0.99641103  0.99848809  1
  Zr  Zr1  1  0.95688899  0.24761372  0.21772283  1
  Zr  Zr2  1  0.77878502  0.03032513  0.75322180  1
  Zr  Zr3  1  0.70910650  0.46860938  0.25243318  1
  Zr  Zr4  1  0.75635301  0.28681609  0.53890721  1
  Zr  Zr5  1  0.75066595  0.77920887  0.03117648  1
  Zr  Zr6  1  0.46531216  0.25057901  0.71313328  1
  Zr  Zr7  1  0.01005151  0.99851947  0.50987373  1
  Zr  Zr8  1  0.49099650  0.50566894  0.50219617  1
  Zr  Zr9  1  0.99779517  0.50459842  0.98887039  1
  Zr  Zr10  1  0.53190416  0.74256933  0.28547254  1
  Zr  Zr11  1  0.25395682  0.71871742  0.46596670  1
  Zr  Zr12  1  0.24646784  0.21559641  0.96481069  1
  Zr  Zr13  1  0.21458006  0.95531602  0.24327946  1
  Zr  Zr14  1  0.28091812  0.52986794  0.74164452  1
  Zr  Zr15  1  0.04547803  0.76158305  0.79178342  1
  N  N16  1  0.74063083  0.23075016  0.27460150  1
  N  N17  1  0.27838448  0.01609674  0.04875870  1
  N  N18  1  0.77390451  0.72665009  0.26022240  1
  N  N19  1  0.45657809  0.46457831  0.22806754  1
  N  N20  1  0.72617260  0.25772621  0.77285256  1
  N  N21  1  0.22558634  0.45090783  0.46233424  1
  N  N22  1  0.27191568  0.73539095  0.22167935  1
  N  N23  1  0.98273881  0.95243166  0.72461058  1
  N  N24  1  0.95879415  0.73074009  0.99374885  1
  N  N25  1  0.54431676  0.53449184  0.77150012  1
  N  N26  1  0.53332957  0.77238376  0.54211502  1
  N  N27  1  0.22798264  0.27156103  0.74319920  1
  N  N28  1  0.02857635  0.48580477  0.75655597  1
  N  N29  1  0.73119814  0.98890888  0.95890934  1
  N  N30  1  0.23901845  0.96945234  0.50830939  1
  N  N31  1  0.26620683  0.77641385  0.73044128  1
  O  O32  1  0.76065566  0.03478162  0.48501727  1
  O  O33  1  0.96432068  0.50641509  0.23444951  1
  O  O34  1  0.47036742  0.23142952  0.45766309  1
  O  O35  1  0.04714763  0.27526727  0.01570875  1
  O  O36  1  0.48934594  0.76499761  0.03556264  1
  O  O37  1  0.01177065  0.04866679  0.27555819  1
  O  O38  1  0.76973689  0.54232415  0.53195233  1
  O  O39  1  0.51313607  0.23983122  0.96720270  1
