# generated using pymatgen
data_CsUF6
_symmetry_space_group_name_H-M   'P 1'
_cell_length_a   5.36366776
_cell_length_b   5.36366814
_cell_length_c   5.36366862
_cell_angle_alpha   96.15332954
_cell_angle_beta   96.15332964
_cell_angle_gamma   96.15332827
_symmetry_Int_Tables_number   1
_chemical_formula_structural   CsUF6
_chemical_formula_sum   'Cs1 U1 F6'
_cell_volume   151.43079518
_cell_formula_units_Z   1
loop_
 _symmetry_equiv_pos_site_id
 _symmetry_equiv_pos_as_xyz
  1  'x, y, z'
loop_
 _atom_site_type_symbol
 _atom_site_label
 _atom_site_symmetry_multiplicity
 _atom_site_fract_x
 _atom_site_fract_y
 _atom_site_fract_z
 _atom_site_occupancy
  Cs  Cs0  1  0.50000000  0.50000000  0.50000000  1
  U  U1  1  0.00000000  -0.00000000  -0.00000000  1
  F  F2  1  0.92409828  0.33188566  0.19968626  1
  F  F3  1  0.33188566  0.19968626  0.92409828  1
  F  F4  1  0.80031374  0.07590172  0.66811434  1
  F  F5  1  0.66811434  0.80031374  0.07590172  1
  F  F6  1  0.07590172  0.66811434  0.80031374  1
  F  F7  1  0.19968626  0.92409828  0.33188566  1
