# generated using pymatgen
data_KI
_symmetry_space_group_name_H-M   'P 1'
_cell_length_a   5.02242800
_cell_length_b   8.54985600
_cell_length_c   8.69286300
_cell_angle_alpha   90.00000000
_cell_angle_beta   90.00000000
_cell_angle_gamma   90.00000000
_symmetry_Int_Tables_number   1
_chemical_formula_structural   KI
_chemical_formula_sum   'K4 I4'
_cell_volume   373.28054451
_cell_formula_units_Z   4
loop_
 _symmetry_equiv_pos_site_id
 _symmetry_equiv_pos_as_xyz
  1  'x, y, z'
loop_
 _atom_site_type_symbol
 _atom_site_label
 _atom_site_symmetry_multiplicity
 _atom_site_fract_x
 _atom_site_fract_y
 _atom_site_fract_z
 _atom_site_occupancy
  K  K0  1  0.25000000  0.74930900  0.50339800  1
  K  K1  1  0.25000000  0.75069100  0.00339800  1
  K  K2  1  0.75000000  0.25069100  0.49660200  1
  K  K3  1  0.75000000  0.24930900  0.99660200  1
  I  I4  1  0.25000000  0.40675400  0.74827300  1
  I  I5  1  0.25000000  0.09324600  0.24827300  1
  I  I6  1  0.75000000  0.59324600  0.25172700  1
  I  I7  1  0.75000000  0.90675400  0.75172700  1
