# generated using pymatgen
data_Gd2P4O13
_symmetry_space_group_name_H-M   'P 1'
_cell_length_a   6.93602026
_cell_length_b   6.93602026
_cell_length_c   13.13238954
_cell_angle_alpha   76.24407465
_cell_angle_beta   76.24407465
_cell_angle_gamma   59.22960953
_symmetry_Int_Tables_number   1
_chemical_formula_structural   Gd2P4O13
_chemical_formula_sum   'Gd4 P8 O26'
_cell_volume   522.13910630
_cell_formula_units_Z   2
loop_
 _symmetry_equiv_pos_site_id
 _symmetry_equiv_pos_as_xyz
  1  'x, y, z'
loop_
 _atom_site_type_symbol
 _atom_site_label
 _atom_site_symmetry_multiplicity
 _atom_site_fract_x
 _atom_site_fract_y
 _atom_site_fract_z
 _atom_site_occupancy
  Gd  Gd0  1  0.31179300  0.30723800  0.05071700  1
  Gd  Gd1  1  0.69276200  0.68820700  0.44928300  1
  Gd  Gd2  1  0.30723800  0.31179300  0.55071700  1
  Gd  Gd3  1  0.68820700  0.69276200  0.94928300  1
  P  P4  1  0.15649400  0.86511300  0.13495300  1
  P  P5  1  0.86511300  0.15649400  0.63495300  1
  P  P6  1  0.77369700  0.76093400  0.15897000  1
  P  P7  1  0.23906600  0.22630300  0.34103000  1
  P  P8  1  0.76093400  0.77369700  0.65897000  1
  P  P9  1  0.22630300  0.23906600  0.84103000  1
  P  P10  1  0.13488700  0.84350600  0.36504700  1
  P  P11  1  0.84350600  0.13488700  0.86504700  1
  O  O12  1  0.32091500  0.68593100  0.06273600  1
  O  O13  1  0.12205900  0.10100800  0.10405500  1
  O  O14  1  0.68593100  0.32091500  0.56273600  1
  O  O15  1  0.10140000  0.09341800  0.34618400  1
  O  O16  1  0.92508900  0.56508600  0.09356000  1
  O  O17  1  0.57649100  0.92401800  0.09548200  1
  O  O18  1  0.70604900  0.69361000  0.27402200  1
  O  O19  1  0.10100800  0.12205900  0.60405500  1
  O  O20  1  0.09341800  0.10140000  0.84618400  1
  O  O21  1  0.30639000  0.29395100  0.22597800  1
  O  O22  1  0.07598200  0.42350900  0.40451800  1
  O  O23  1  0.43491400  0.07491100  0.40644000  1
  O  O24  1  0.56508600  0.92508900  0.59356000  1
  O  O25  1  0.92401800  0.57649100  0.59548200  1
  O  O26  1  0.69361000  0.70604900  0.77402200  1
  O  O27  1  0.90658200  0.89860000  0.15381600  1
  O  O28  1  0.89899200  0.87794100  0.39594500  1
  O  O29  1  0.29395100  0.30639000  0.72597800  1
  O  O30  1  0.42350900  0.07598200  0.90451800  1
  O  O31  1  0.07491100  0.43491400  0.90644000  1
  O  O32  1  0.23953700  0.76046300  0.25000000  1
  O  O33  1  0.89860000  0.90658200  0.65381600  1
  O  O34  1  0.31406900  0.67908500  0.43726400  1
  O  O35  1  0.87794100  0.89899200  0.89594500  1
  O  O36  1  0.76046300  0.23953700  0.75000000  1
  O  O37  1  0.67908500  0.31406900  0.93726400  1
