# generated using pymatgen
data_RbAl11O17
_symmetry_space_group_name_H-M   'P 1'
_cell_length_a   5.59267871
_cell_length_b   5.59267882
_cell_length_c   22.83821012
_cell_angle_alpha   90.00000042
_cell_angle_beta   89.99999877
_cell_angle_gamma   120.00002680
_symmetry_Int_Tables_number   1
_chemical_formula_structural   RbAl11O17
_chemical_formula_sum   'Rb2 Al22 O34'
_cell_volume   618.63192511
_cell_formula_units_Z   2
loop_
 _symmetry_equiv_pos_site_id
 _symmetry_equiv_pos_as_xyz
  1  'x, y, z'
loop_
 _atom_site_type_symbol
 _atom_site_label
 _atom_site_symmetry_multiplicity
 _atom_site_fract_x
 _atom_site_fract_y
 _atom_site_fract_z
 _atom_site_occupancy
  Rb  Rb0  1  0.33333264  0.66666684  0.75000003  1
  Rb  Rb1  1  0.66666625  0.33333317  0.24999986  1
  Al  Al2  1  0.16733363  0.83266640  0.89481633  1
  Al  Al3  1  0.16733340  0.83266660  0.60518368  1
  Al  Al4  1  0.33333343  0.66666650  0.17493347  1
  Al  Al5  1  0.33333328  0.66666669  0.02486884  1
  Al  Al6  1  0.33333348  0.66666679  0.32506399  1
  Al  Al7  1  -0.00000002  -0.00000002  0.00000721  1
  Al  Al8  1  -0.00000003  0.00000017  0.49999278  1
  Al  Al9  1  0.33333336  0.66666689  0.47513102  1
  Al  Al10  1  0.16733338  0.33466703  0.60518370  1
  Al  Al11  1  0.16733367  0.33466735  0.89481630  1
  Al  Al12  1  0.66533293  0.83266657  0.60518371  1
  Al  Al13  1  0.66533274  0.83266648  0.89481629  1
  Al  Al14  1  0.33465451  0.16732736  0.39480526  1
  Al  Al15  1  0.33465480  0.16732727  0.10519457  1
  Al  Al16  1  0.83267295  0.66534579  0.39480525  1
  Al  Al17  1  0.66666650  0.33333345  0.67493036  1
  Al  Al18  1  0.66666657  0.33333349  0.82507158  1
  Al  Al19  1  0.66666672  0.33333341  0.52486804  1
  Al  Al20  1  0.66666675  0.33333328  0.97513194  1
  Al  Al21  1  0.83267270  0.66534519  0.10519456  1
  Al  Al22  1  0.83267297  0.16732738  0.39480528  1
  Al  Al23  1  0.83267271  0.16732731  0.10519455  1
  O  O24  1  0.15672814  0.84327185  0.04912826  1
  O  O25  1  0.15672820  0.84327193  0.45087168  1
  O  O26  1  0.00286465  0.50143234  0.85653556  1
  O  O27  1  0.00286550  0.50143281  0.64346392  1
  O  O28  1  0.33333343  0.66666674  0.25000210  1
  O  O29  1  0.15672830  0.31345633  0.04912829  1
  O  O30  1  0.00000004  -0.00000002  0.13991149  1
  O  O31  1  0.33333324  0.66666671  0.94538383  1
  O  O32  1  0.33333329  0.66666677  0.55461596  1
  O  O33  1  0.00000012  0.00000020  0.36008866  1
  O  O34  1  0.00000009  0.00000002  0.86010485  1
  O  O35  1  -0.00000004  -0.00000002  0.63989486  1
  O  O36  1  0.49856712  0.99713444  0.64346392  1
  O  O37  1  0.49856762  0.99713531  0.85653554  1
  O  O38  1  0.15672824  0.31345653  0.45087169  1
  O  O39  1  0.31343572  0.15671805  0.54911442  1
  O  O40  1  0.31343568  0.15671801  0.95088538  1
  O  O41  1  0.49856753  0.50143254  0.85653549  1
  O  O42  1  0.49856703  0.50143292  0.64346397  1
  O  O43  1  0.50143564  0.49856435  0.14347576  1
  O  O44  1  0.50143625  0.49856403  0.35652455  1
  O  O45  1  0.68654367  0.84327169  0.04912828  1
  O  O46  1  0.68654365  0.84327177  0.45087168  1
  O  O47  1  0.84328209  0.68656434  0.95088538  1
  O  O48  1  0.84328199  0.68656435  0.54911443  1
  O  O49  1  0.50143615  0.00287227  0.35652459  1
  O  O50  1  0.66666681  0.33333345  0.44537567  1
  O  O51  1  0.66666673  0.33333319  0.74999803  1
  O  O52  1  0.50143560  0.00287102  0.14347572  1
  O  O53  1  0.66666678  0.33333329  0.05462432  1
  O  O54  1  0.99712898  0.49856441  0.14347572  1
  O  O55  1  0.99712806  0.49856417  0.35652459  1
  O  O56  1  0.84328224  0.15671783  0.95088539  1
  O  O57  1  0.84328214  0.15671797  0.54911443  1
