# generated using pymatgen
data_Sr2Bi2O5
_symmetry_space_group_name_H-M   'P 1'
_cell_length_a   7.40604796
_cell_length_b   7.67687435
_cell_length_c   6.20752690
_cell_angle_alpha   90.00000000
_cell_angle_beta   90.00000000
_cell_angle_gamma   75.40856524
_symmetry_Int_Tables_number   1
_chemical_formula_structural   Sr2Bi2O5
_chemical_formula_sum   'Sr4 Bi4 O10'
_cell_volume   341.54766880
_cell_formula_units_Z   2
loop_
 _symmetry_equiv_pos_site_id
 _symmetry_equiv_pos_as_xyz
  1  'x, y, z'
loop_
 _atom_site_type_symbol
 _atom_site_label
 _atom_site_symmetry_multiplicity
 _atom_site_fract_x
 _atom_site_fract_y
 _atom_site_fract_z
 _atom_site_occupancy
  Sr  Sr0  1  0.39510439  0.89927864  0.25000000  1
  Sr  Sr1  1  0.60489561  0.60072136  0.75000000  1
  Sr  Sr2  1  0.36867249  0.40758314  0.25000000  1
  Sr  Sr3  1  0.63132751  0.09241686  0.75000000  1
  Bi  Bi4  1  0.88704452  0.78625850  0.25000000  1
  Bi  Bi5  1  0.11295548  0.71374150  0.75000000  1
  Bi  Bi6  1  0.87080052  0.27404192  0.25000000  1
  Bi  Bi7  1  0.12919948  0.22595808  0.75000000  1
  O  O8  1  0.01032093  -0.00045207  0.75000000  1
  O  O9  1  0.68822542  0.82172478  0.49047220  1
  O  O10  1  0.68822542  0.82172478  0.00952780  1
  O  O11  1  0.98967907  0.50045207  0.25000000  1
  O  O12  1  0.31177458  0.67827522  0.99047220  1
  O  O13  1  0.31177458  0.67827522  0.50952780  1
  O  O14  1  0.67376448  0.34054079  0.00943870  1
  O  O15  1  0.67376448  0.34054079  0.49056130  1
  O  O16  1  0.32623552  0.15945921  0.99056130  1
  O  O17  1  0.32623552  0.15945921  0.50943870  1
