# generated using pymatgen
data_Rb6Co2O7
_symmetry_space_group_name_H-M   'P 1'
_cell_length_a   9.44810627
_cell_length_b   6.84783279
_cell_length_c   11.47211600
_cell_angle_alpha   55.42752092
_cell_angle_beta   90.00000000
_cell_angle_gamma   90.00000000
_symmetry_Int_Tables_number   1
_chemical_formula_structural   Rb6Co2O7
_chemical_formula_sum   'Rb12 Co4 O14'
_cell_volume   611.16302198
_cell_formula_units_Z   2
loop_
 _symmetry_equiv_pos_site_id
 _symmetry_equiv_pos_as_xyz
  1  'x, y, z'
loop_
 _atom_site_type_symbol
 _atom_site_label
 _atom_site_symmetry_multiplicity
 _atom_site_fract_x
 _atom_site_fract_y
 _atom_site_fract_z
 _atom_site_occupancy
  Rb  Rb0  1  0.79396823  0.58403575  0.28662066  1
  Rb  Rb1  1  0.64790159  0.94533659  0.92382068  1
  Rb  Rb2  1  0.52601598  0.19628386  0.55845032  1
  Rb  Rb3  1  0.02601598  0.80371614  0.94154968  1
  Rb  Rb4  1  0.29396823  0.41596425  0.21337934  1
  Rb  Rb5  1  0.14790159  0.05466341  0.57617932  1
  Rb  Rb6  1  0.85209841  0.94533659  0.42382068  1
  Rb  Rb7  1  0.70603177  0.58403575  0.78662066  1
  Rb  Rb8  1  0.97398402  0.19628386  0.05845032  1
  Rb  Rb9  1  0.47398402  0.80371614  0.44154968  1
  Rb  Rb10  1  0.35209841  0.05466341  0.07617932  1
  Rb  Rb11  1  0.20603177  0.41596425  0.71337934  1
  Co  Co12  1  0.86037276  0.31775460  0.63322532  1
  Co  Co13  1  0.36037276  0.68224540  0.86677468  1
  Co  Co14  1  0.63962724  0.31775460  0.13322532  1
  Co  Co15  1  0.13962724  0.68224540  0.36677468  1
  O  O16  1  0.00000000  0.50000000  0.50000000  1
  O  O17  1  0.09133507  0.74366848  0.19909979  1
  O  O18  1  0.29425616  0.49998957  0.42911053  1
  O  O19  1  0.33520749  0.95108445  0.85680478  1
  O  O20  1  0.83520749  0.04891555  0.64319522  1
  O  O21  1  0.79425616  0.50001043  0.07088947  1
  O  O22  1  0.59133507  0.25633152  0.30090021  1
  O  O23  1  0.50000000  0.50000000  0.00000000  1
  O  O24  1  0.40866493  0.74366848  0.69909979  1
  O  O25  1  0.20574384  0.49998957  0.92911053  1
  O  O26  1  0.16479251  0.95108445  0.35680478  1
  O  O27  1  0.66479251  0.04891555  0.14319522  1
  O  O28  1  0.70574384  0.50001043  0.57088947  1
  O  O29  1  0.90866493  0.25633152  0.80090021  1
