# generated using pymatgen
data_Ho2Ti2O7
_symmetry_space_group_name_H-M   'P 1'
_cell_length_a   5.28527857
_cell_length_b   7.45538693
_cell_length_c   13.05245970
_cell_angle_alpha   81.65085812
_cell_angle_beta   90.00000000
_cell_angle_gamma   90.00000000
_symmetry_Int_Tables_number   1
_chemical_formula_structural   Ho2Ti2O7
_chemical_formula_sum   'Ho8 Ti8 O28'
_cell_volume   508.86554434
_cell_formula_units_Z   4
loop_
 _symmetry_equiv_pos_site_id
 _symmetry_equiv_pos_as_xyz
  1  'x, y, z'
loop_
 _atom_site_type_symbol
 _atom_site_label
 _atom_site_symmetry_multiplicity
 _atom_site_fract_x
 _atom_site_fract_y
 _atom_site_fract_z
 _atom_site_occupancy
  Ho  Ho0  1  0.77250797  0.76571221  0.92446979  1
  Ho  Ho1  1  0.35705597  0.85863806  0.56270959  1
  Ho  Ho2  1  0.24692951  0.71460008  0.13324120  1
  Ho  Ho3  1  0.77938941  0.64502449  0.38672297  1
  Ho  Ho4  1  0.27938941  0.35497551  0.61327703  1
  Ho  Ho5  1  0.74692951  0.28539992  0.86675880  1
  Ho  Ho6  1  0.85705597  0.14136194  0.43729041  1
  Ho  Ho7  1  0.27250797  0.23428779  0.07553021  1
  Ti  Ti8  1  0.28256240  0.92890133  0.32052022  1
  Ti  Ti9  1  0.76761279  0.97016195  0.12156395  1
  Ti  Ti10  1  0.79338541  0.58982988  0.67252361  1
  Ti  Ti11  1  0.26746064  0.53081907  0.87418155  1
  Ti  Ti12  1  0.76746064  0.46918093  0.12581845  1
  Ti  Ti13  1  0.29338541  0.41017012  0.32747639  1
  Ti  Ti14  1  0.26761279  0.02983805  0.87843605  1
  Ti  Ti15  1  0.78256240  0.07109867  0.67947978  1
  O  O16  1  0.43312519  0.99216756  0.17865593  1
  O  O17  1  0.56325742  0.92670217  0.40800731  1
  O  O18  1  0.67010986  0.82790629  0.68440440  1
  O  O19  1  0.35285275  0.77865816  0.88367579  1
  O  O20  1  0.06556320  0.85898083  0.43166143  1
  O  O21  1  0.04340308  0.93965579  0.02448062  1
  O  O22  1  0.95483273  0.87080748  0.23279574  1
  O  O23  1  0.09854083  0.63471799  0.61749625  1
  O  O24  1  0.93085951  0.57858439  0.82271948  1
  O  O25  1  0.38109682  0.67370405  0.30433064  1
  O  O26  1  0.65174233  0.72757798  0.09024886  1
  O  O27  1  0.58926475  0.58664816  0.55220081  1
  O  O28  1  0.54039634  0.45322886  0.97360680  1
  O  O29  1  0.45639411  0.48555195  0.76397216  1
  O  O30  1  0.95639411  0.51444805  0.23602784  1
  O  O31  1  0.04039634  0.54677114  0.02639320  1
  O  O32  1  0.08926475  0.41335184  0.44779919  1
  O  O33  1  0.15174233  0.27242202  0.90975114  1
  O  O34  1  0.88109682  0.32629595  0.69566936  1
  O  O35  1  0.43085951  0.42141561  0.17728052  1
  O  O36  1  0.59854083  0.36528201  0.38250375  1
  O  O37  1  0.45483273  0.12919252  0.76720426  1
  O  O38  1  0.54340308  0.06034421  0.97551938  1
  O  O39  1  0.56556320  0.14101917  0.56833857  1
  O  O40  1  0.85285275  0.22134184  0.11632421  1
  O  O41  1  0.17010986  0.17209371  0.31559560  1
  O  O42  1  0.06325742  0.07329783  0.59199269  1
  O  O43  1  0.93312519  0.00783244  0.82134407  1
