# generated using pymatgen
data_V2O3F
_symmetry_space_group_name_H-M   'P 1'
_cell_length_a   4.60987949
_cell_length_b   4.60987949
_cell_length_c   14.86231246
_cell_angle_alpha   90.00000000
_cell_angle_beta   90.00000000
_cell_angle_gamma   94.28854591
_symmetry_Int_Tables_number   1
_chemical_formula_structural   V2O3F
_chemical_formula_sum   'V10 O15 F5'
_cell_volume   314.95452129
_cell_formula_units_Z   5
loop_
 _symmetry_equiv_pos_site_id
 _symmetry_equiv_pos_as_xyz
  1  'x, y, z'
loop_
 _atom_site_type_symbol
 _atom_site_label
 _atom_site_symmetry_multiplicity
 _atom_site_fract_x
 _atom_site_fract_y
 _atom_site_fract_z
 _atom_site_occupancy
  V  V0  1  -0.00056098  0.00056098  0.39975134  1
  V  V1  1  -0.00056098  0.00056098  0.60024866  1
  V  V2  1  -0.00083457  0.00083457  0.80086187  1
  V  V3  1  -0.00083457  0.00083457  0.19913813  1
  V  V4  1  0.98731987  0.01268013  0.00000000  1
  V  V5  1  0.45210333  0.54789667  0.69992484  1
  V  V6  1  0.45210333  0.54789667  0.30007516  1
  V  V7  1  0.53976542  0.46023458  0.09966676  1
  V  V8  1  0.53976542  0.46023458  0.90033324  1
  V  V9  1  0.54635877  0.45364123  0.50000000  1
  O  O10  1  0.80360457  0.19639543  0.90090119  1
  O  O11  1  0.80360457  0.19639543  0.09909881  1
  O  O12  1  0.80558711  0.19441289  0.50000000  1
  O  O13  1  0.30174128  0.30616603  0.79950539  1
  O  O14  1  0.30386317  0.30517596  0.59992750  1
  O  O15  1  0.30386317  0.30517596  0.40007250  1
  O  O16  1  0.30174128  0.30616603  0.20049461  1
  O  O17  1  0.30447286  0.30213391  0.00000000  1
  O  O18  1  0.69383397  0.69825872  0.79950539  1
  O  O19  1  0.69482404  0.69613683  0.59992750  1
  O  O20  1  0.69482404  0.69613683  0.40007250  1
  O  O21  1  0.69383397  0.69825872  0.20049461  1
  O  O22  1  0.69786609  0.69552714  0.00000000  1
  O  O23  1  0.19260815  0.80739185  0.70023558  1
  O  O24  1  0.19260815  0.80739185  0.29976442  1
  F  F25  1  0.80081829  0.19918171  0.70035473  1
  F  F26  1  0.80081829  0.19918171  0.29964527  1
  F  F27  1  0.19782605  0.80217395  0.50000000  1
  F  F28  1  0.19851598  0.80148402  0.89954261  1
  F  F29  1  0.19851598  0.80148402  0.10045739  1
