# generated using pymatgen
data_Ti(SO4)2
_symmetry_space_group_name_H-M   'P 1'
_cell_length_a   8.76691966
_cell_length_b   8.76691891
_cell_length_c   8.76691693
_cell_angle_alpha   56.66527963
_cell_angle_beta   56.66533469
_cell_angle_gamma   56.66534736
_symmetry_Int_Tables_number   1
_chemical_formula_structural   Ti(SO4)2
_chemical_formula_sum   'Ti3 S6 O24'
_cell_volume   439.76459539
_cell_formula_units_Z   3
loop_
 _symmetry_equiv_pos_site_id
 _symmetry_equiv_pos_as_xyz
  1  'x, y, z'
loop_
 _atom_site_type_symbol
 _atom_site_label
 _atom_site_symmetry_multiplicity
 _atom_site_fract_x
 _atom_site_fract_y
 _atom_site_fract_z
 _atom_site_occupancy
  Ti  Ti0  1  0.64239358  0.64239369  0.64239317  1
  Ti  Ti1  1  0.35693243  0.35693244  0.35693218  1
  Ti  Ti2  1  0.14583254  0.14583251  0.14583181  1
  S  S3  1  0.52533246  0.96663985  0.25872286  1
  S  S4  1  0.25872269  0.52533288  0.96663923  1
  S  S5  1  0.96663926  0.25872231  0.52533324  1
  S  S6  1  0.03941029  0.74744388  0.46860220  1
  S  S7  1  0.74744354  0.46860240  0.03941020  1
  S  S8  1  0.46860249  0.03940951  0.74744405  1
  O  O9  1  0.49344468  0.87639812  0.71301187  1
  O  O10  1  0.87639773  0.71301167  0.49344594  1
  O  O11  1  0.66301230  0.00591816  0.06802532  1
  O  O12  1  0.71301137  0.49344574  0.87639801  1
  O  O13  1  0.34038072  0.97937898  0.27256482  1
  O  O14  1  0.59674130  0.76850553  0.39956053  1
  O  O15  1  0.39956195  0.59674068  0.76850496  1
  O  O16  1  0.06802541  0.66301355  0.00591446  1
  O  O17  1  0.76850598  0.39956057  0.59674078  1
  O  O18  1  0.02496672  0.94829086  0.31762711  1
  O  O19  1  0.03584335  0.72011065  0.64438604  1
  O  O20  1  0.72011109  0.64438622  0.03584228  1
  O  O21  1  0.27256561  0.34038095  0.97937831  1
  O  O22  1  0.97937948  0.27256553  0.34038088  1
  O  O23  1  0.00591572  0.06802475  0.66301288  1
  O  O24  1  0.22691410  0.61566708  0.36851519  1
  O  O25  1  0.94828980  0.31762734  0.02496731  1
  O  O26  1  0.61566707  0.36851522  0.22691407  1
  O  O27  1  0.36851777  0.22691411  0.61566622  1
  O  O28  1  0.64438651  0.03583950  0.72011377  1
  O  O29  1  0.35261692  0.46384679  0.10060749  1
  O  O30  1  0.31762600  0.02496716  0.94829062  1
  O  O31  1  0.10060733  0.35261644  0.46384859  1
  O  O32  1  0.46384480  0.10060694  0.35261963  1
