# generated using pymatgen
data_Sm3ReO8
_symmetry_space_group_name_H-M   'P 1'
_cell_length_a   6.11200440
_cell_length_b   7.34776447
_cell_length_c   14.70241825
_cell_angle_alpha   69.17367621
_cell_angle_beta   90.00000000
_cell_angle_gamma   90.00000000
_symmetry_Int_Tables_number   1
_chemical_formula_structural   Sm3ReO8
_chemical_formula_sum   'Sm12 Re4 O32'
_cell_volume   617.13821967
_cell_formula_units_Z   4
loop_
 _symmetry_equiv_pos_site_id
 _symmetry_equiv_pos_as_xyz
  1  'x, y, z'
loop_
 _atom_site_type_symbol
 _atom_site_label
 _atom_site_symmetry_multiplicity
 _atom_site_fract_x
 _atom_site_fract_y
 _atom_site_fract_z
 _atom_site_occupancy
  Sm  Sm0  1  0.18704607  0.89526301  0.66628446  1
  Sm  Sm1  1  0.68704607  0.10473699  0.83371554  1
  Sm  Sm2  1  0.81295393  0.10473699  0.33371554  1
  Sm  Sm3  1  0.31295393  0.89526301  0.16628446  1
  Sm  Sm4  1  0.79897611  0.66200659  0.05398477  1
  Sm  Sm5  1  0.29897611  0.33799341  0.44601523  1
  Sm  Sm6  1  0.20102389  0.33799341  0.94601523  1
  Sm  Sm7  1  0.70102389  0.66200659  0.55398477  1
  Sm  Sm8  1  0.76070035  0.59644500  0.29882781  1
  Sm  Sm9  1  0.26070035  0.40355500  0.20117219  1
  Sm  Sm10  1  0.23929965  0.40355500  0.70117219  1
  Sm  Sm11  1  0.73929965  0.59644500  0.79882781  1
  Re  Re12  1  0.74542905  0.17922373  0.59056896  1
  Re  Re13  1  0.24542905  0.82077627  0.90943104  1
  Re  Re14  1  0.25457095  0.82077627  0.40943104  1
  Re  Re15  1  0.75457095  0.17922373  0.09056896  1
  O  O16  1  0.69787374  0.02469900  0.02060891  1
  O  O17  1  0.19787374  0.97530100  0.47939109  1
  O  O18  1  0.30212626  0.97530100  0.97939109  1
  O  O19  1  0.80212626  0.02469900  0.52060891  1
  O  O20  1  0.45698211  0.24903657  0.09589384  1
  O  O21  1  0.95698211  0.75096343  0.40410616  1
  O  O22  1  0.54301789  0.75096343  0.90410616  1
  O  O23  1  0.04301789  0.24903657  0.59589384  1
  O  O24  1  0.84923272  0.33098412  0.16916076  1
  O  O25  1  0.34923272  0.66901588  0.33083924  1
  O  O26  1  0.15076728  0.66901588  0.83083924  1
  O  O27  1  0.65076728  0.33098412  0.66916076  1
  O  O28  1  0.04934609  0.12186602  0.08945589  1
  O  O29  1  0.54934609  0.87813398  0.41054411  1
  O  O30  1  0.95065391  0.87813398  0.91054411  1
  O  O31  1  0.45065391  0.12186602  0.58945589  1
  O  O32  1  0.97053899  0.31385255  0.82692861  1
  O  O33  1  0.47053899  0.68614745  0.67307139  1
  O  O34  1  0.02946101  0.68614745  0.17307139  1
  O  O35  1  0.52946101  0.31385255  0.32692861  1
  O  O36  1  0.97054105  0.64613644  0.65917515  1
  O  O37  1  0.47054105  0.35386356  0.84082485  1
  O  O38  1  0.02945895  0.35386356  0.34082485  1
  O  O39  1  0.52945895  0.64613644  0.15917515  1
  O  O40  1  0.69762353  0.40974267  0.48191782  1
  O  O41  1  0.19762353  0.59025733  0.01808218  1
  O  O42  1  0.30237647  0.59025733  0.51808218  1
  O  O43  1  0.80237647  0.40974267  0.98191782  1
  O  O44  1  0.79632880  0.97045009  0.71113619  1
  O  O45  1  0.29632880  0.02954991  0.78886381  1
  O  O46  1  0.20367120  0.02954991  0.28886381  1
  O  O47  1  0.70367120  0.97045009  0.21113619  1
