# generated using pymatgen
data_Rb3DyO3
_symmetry_space_group_name_H-M   'P 1'
_cell_length_a   7.30981242
_cell_length_b   7.82027223
_cell_length_c   11.65629476
_cell_angle_alpha   86.42791601
_cell_angle_beta   90.00000000
_cell_angle_gamma   90.00000000
_symmetry_Int_Tables_number   1
_chemical_formula_structural   Rb3DyO3
_chemical_formula_sum   'Rb12 Dy4 O12'
_cell_volume   665.03432059
_cell_formula_units_Z   4
loop_
 _symmetry_equiv_pos_site_id
 _symmetry_equiv_pos_as_xyz
  1  'x, y, z'
loop_
 _atom_site_type_symbol
 _atom_site_label
 _atom_site_symmetry_multiplicity
 _atom_site_fract_x
 _atom_site_fract_y
 _atom_site_fract_z
 _atom_site_occupancy
  Rb  Rb0  1  0.33525158  0.36039392  0.07958810  1
  Rb  Rb1  1  0.62644003  0.92327473  0.15781877  1
  Rb  Rb2  1  0.80025816  0.37436733  0.18985483  1
  Rb  Rb3  1  0.30025816  0.62563267  0.31014517  1
  Rb  Rb4  1  0.12644003  0.07672527  0.34218123  1
  Rb  Rb5  1  0.83525158  0.63960608  0.42041190  1
  Rb  Rb6  1  0.16474842  0.36039392  0.57958810  1
  Rb  Rb7  1  0.87355997  0.92327473  0.65781877  1
  Rb  Rb8  1  0.69974184  0.37436733  0.68985483  1
  Rb  Rb9  1  0.19974184  0.62563267  0.81014517  1
  Rb  Rb10  1  0.37355997  0.07672527  0.84218123  1
  Rb  Rb11  1  0.66474842  0.63960608  0.92041190  1
  Dy  Dy12  1  0.09058480  0.83792557  0.06893790  1
  Dy  Dy13  1  0.59058480  0.16207443  0.43106210  1
  Dy  Dy14  1  0.40941520  0.83792557  0.56893790  1
  Dy  Dy15  1  0.90941520  0.16207443  0.93106210  1
  O  O16  1  0.35743161  0.74137090  0.04750574  1
  O  O17  1  0.04907189  0.11207424  0.09553544  1
  O  O18  1  0.94176719  0.69049141  0.19241034  1
  O  O19  1  0.44176719  0.30950859  0.30758966  1
  O  O20  1  0.54907189  0.88792576  0.40446456  1
  O  O21  1  0.85743161  0.25862910  0.45249426  1
  O  O22  1  0.14256839  0.74137090  0.54750574  1
  O  O23  1  0.45092811  0.11207424  0.59553544  1
  O  O24  1  0.55823281  0.69049141  0.69241034  1
  O  O25  1  0.05823281  0.30950859  0.80758966  1
  O  O26  1  0.95092811  0.88792576  0.90446456  1
  O  O27  1  0.64256839  0.25862910  0.95249426  1
