# generated using pymatgen
data_SrLu2O4
_symmetry_space_group_name_H-M   'P 1'
_cell_length_a   3.30980134
_cell_length_b   9.91226929
_cell_length_c   11.65101766
_cell_angle_alpha   90.00000000
_cell_angle_beta   90.00000000
_cell_angle_gamma   90.00000000
_symmetry_Int_Tables_number   1
_chemical_formula_structural   SrLu2O4
_chemical_formula_sum   'Sr4 Lu8 O16'
_cell_volume   382.24241840
_cell_formula_units_Z   4
loop_
 _symmetry_equiv_pos_site_id
 _symmetry_equiv_pos_as_xyz
  1  'x, y, z'
loop_
 _atom_site_type_symbol
 _atom_site_label
 _atom_site_symmetry_multiplicity
 _atom_site_fract_x
 _atom_site_fract_y
 _atom_site_fract_z
 _atom_site_occupancy
  Sr  Sr0  1  0.75000000  0.24630173  0.65076787  1
  Sr  Sr1  1  0.25000000  0.25369827  0.15076787  1
  Sr  Sr2  1  0.75000000  0.74630173  0.84923213  1
  Sr  Sr3  1  0.25000000  0.75369827  0.34923213  1
  Lu  Lu4  1  0.75000000  0.07314733  0.88801643  1
  Lu  Lu5  1  0.75000000  0.07852399  0.39126027  1
  Lu  Lu6  1  0.25000000  0.42147601  0.89126027  1
  Lu  Lu7  1  0.25000000  0.42685267  0.38801643  1
  Lu  Lu8  1  0.75000000  0.57314733  0.61198357  1
  Lu  Lu9  1  0.75000000  0.57852399  0.10873973  1
  Lu  Lu10  1  0.25000000  0.92147601  0.60873973  1
  Lu  Lu11  1  0.25000000  0.92685267  0.11198357  1
  O  O12  1  0.25000000  0.01860697  0.28322478  1
  O  O13  1  0.75000000  0.07453088  0.07554987  1
  O  O14  1  0.25000000  0.12097445  0.51999829  1
  O  O15  1  0.25000000  0.20960348  0.83214430  1
  O  O16  1  0.75000000  0.29039652  0.33214430  1
  O  O17  1  0.75000000  0.37902555  0.01999829  1
  O  O18  1  0.25000000  0.42546912  0.57554987  1
  O  O19  1  0.75000000  0.48139303  0.78322478  1
  O  O20  1  0.25000000  0.51860697  0.21677522  1
  O  O21  1  0.75000000  0.57453088  0.42445013  1
  O  O22  1  0.25000000  0.62097445  0.98000171  1
  O  O23  1  0.25000000  0.70960348  0.66785570  1
  O  O24  1  0.75000000  0.79039652  0.16785570  1
  O  O25  1  0.75000000  0.87902555  0.48000171  1
  O  O26  1  0.25000000  0.92546912  0.92445013  1
  O  O27  1  0.75000000  0.98139303  0.71677522  1
