# generated using pymatgen
data_Na3MgPCO7
_symmetry_space_group_name_H-M   'P 1'
_cell_length_a   6.58353652
_cell_length_b   5.10957665
_cell_length_c   8.79323529
_cell_angle_alpha   89.70659214
_cell_angle_beta   90.00000000
_cell_angle_gamma   90.00000000
_symmetry_Int_Tables_number   1
_chemical_formula_structural   Na3MgPCO7
_chemical_formula_sum   'Na6 Mg2 P2 C2 O14'
_cell_volume   295.79250603
_cell_formula_units_Z   2
loop_
 _symmetry_equiv_pos_site_id
 _symmetry_equiv_pos_as_xyz
  1  'x, y, z'
loop_
 _atom_site_type_symbol
 _atom_site_label
 _atom_site_symmetry_multiplicity
 _atom_site_fract_x
 _atom_site_fract_y
 _atom_site_fract_z
 _atom_site_occupancy
  Na  Na0  1  0.49576167  0.25039639  0.26487604  1
  Na  Na1  1  0.99576167  0.74960361  0.73512396  1
  Na  Na2  1  0.50423833  0.74960361  0.73512396  1
  Na  Na3  1  0.00423833  0.25039639  0.26487604  1
  Na  Na4  1  0.75000000  0.23850960  0.91782698  1
  Na  Na5  1  0.25000000  0.76149040  0.08217302  1
  Mg  Mg6  1  0.25000000  0.21648284  0.64648801  1
  Mg  Mg7  1  0.75000000  0.78351716  0.35351199  1
  P  P8  1  0.75000000  0.29437469  0.58548661  1
  P  P9  1  0.25000000  0.70562531  0.41451339  1
  C  C10  1  0.25000000  0.26874527  0.93652554  1
  C  C11  1  0.75000000  0.73125473  0.06347446  1
  O  O12  1  0.25000000  0.04069233  0.87315773  1
  O  O13  1  0.75000000  0.95930767  0.12684227  1
  O  O14  1  0.25000000  0.47450122  0.84985890  1
  O  O15  1  0.75000000  0.52549878  0.15014110  1
  O  O16  1  0.25000000  0.29026891  0.08235663  1
  O  O17  1  0.75000000  0.70973109  0.91764337  1
  O  O18  1  0.93791932  0.22285663  0.68133657  1
  O  O19  1  0.43791932  0.77714337  0.31866343  1
  O  O20  1  0.06208068  0.77714337  0.31866343  1
  O  O21  1  0.56208068  0.22285663  0.68133657  1
  O  O22  1  0.75000000  0.15139705  0.43299918  1
  O  O23  1  0.25000000  0.84860295  0.56700082  1
  O  O24  1  0.25000000  0.40771629  0.44581559  1
  O  O25  1  0.75000000  0.59228371  0.55418441  1
