# generated using pymatgen
data_TmGaO3
_symmetry_space_group_name_H-M   'P 1'
_cell_length_a   5.95572878
_cell_length_b   5.95573263
_cell_length_c   11.59530603
_cell_angle_alpha   90.00002538
_cell_angle_beta   90.00003117
_cell_angle_gamma   120.00003251
_symmetry_Int_Tables_number   1
_chemical_formula_structural   TmGaO3
_chemical_formula_sum   'Tm6 Ga6 O18'
_cell_volume   356.19089172
_cell_formula_units_Z   6
loop_
 _symmetry_equiv_pos_site_id
 _symmetry_equiv_pos_as_xyz
  1  'x, y, z'
loop_
 _atom_site_type_symbol
 _atom_site_label
 _atom_site_symmetry_multiplicity
 _atom_site_fract_x
 _atom_site_fract_y
 _atom_site_fract_z
 _atom_site_occupancy
  Tm  Tm0  1  0.33333208  0.66666839  0.23383344  1
  Tm  Tm1  1  -0.00000129  0.00000138  0.27545976  1
  Tm  Tm2  1  0.00000122  -0.00000143  0.77545876  1
  Tm  Tm3  1  0.33333446  0.66666551  0.73383521  1
  Tm  Tm4  1  0.66666804  0.33333228  0.73383378  1
  Tm  Tm5  1  0.66666562  0.33333513  0.23383398  1
  Ga  Ga6  1  0.00000292  0.66596475  0.50085374  1
  Ga  Ga7  1  -0.00000303  0.33403472  0.00085334  1
  Ga  Ga8  1  0.33404559  0.33404588  0.50085410  1
  Ga  Ga9  1  0.33403496  -0.00000276  0.00085333  1
  Ga  Ga10  1  0.66595812  0.66595768  0.00085364  1
  Ga  Ga11  1  0.66596418  0.00000208  0.50085347  1
  O  O12  1  0.00000094  0.69450390  0.66458031  1
  O  O13  1  -0.00000032  0.63907356  0.33847776  1
  O  O14  1  0.00000030  0.36092708  0.83847890  1
  O  O15  1  -0.00000074  0.30549589  0.16457953  1
  O  O16  1  0.33333164  0.66666491  0.02079344  1
  O  O17  1  0.00000137  0.00000129  0.47744748  1
  O  O18  1  -0.00000190  -0.00000252  0.97744727  1
  O  O19  1  0.33333496  0.66666810  0.52079363  1
  O  O20  1  0.30549645  0.30549526  0.66458041  1
  O  O21  1  0.36092667  0.36092746  0.33847812  1
  O  O22  1  0.30549474  0.00000024  0.16457956  1
  O  O23  1  0.63907180  0.63907095  0.83847895  1
  O  O24  1  0.69450319  0.69450458  0.16457952  1
  O  O25  1  0.36092820  -0.00000061  0.83847899  1
  O  O26  1  0.66666851  0.33333514  0.52079368  1
  O  O27  1  0.66666447  0.33333154  0.02079347  1
  O  O28  1  0.63907289  0.00000076  0.33847797  1
  O  O29  1  0.69450497  -0.00000014  0.66458042  1
