# generated using pymatgen
data_Na3CoO3
_symmetry_space_group_name_H-M   'P 1'
_cell_length_a   10.89488555
_cell_length_b   3.91182276
_cell_length_c   10.04517674
_cell_angle_alpha   78.52608808
_cell_angle_beta   90.00000000
_cell_angle_gamma   90.00000000
_symmetry_Int_Tables_number   1
_chemical_formula_structural   Na3CoO3
_chemical_formula_sum   'Na12 Co4 O12'
_cell_volume   419.55829820
_cell_formula_units_Z   4
loop_
 _symmetry_equiv_pos_site_id
 _symmetry_equiv_pos_as_xyz
  1  'x, y, z'
loop_
 _atom_site_type_symbol
 _atom_site_label
 _atom_site_symmetry_multiplicity
 _atom_site_fract_x
 _atom_site_fract_y
 _atom_site_fract_z
 _atom_site_occupancy
  Na  Na0  1  0.43056590  0.90138462  0.63502000  1
  Na  Na1  1  0.98465456  0.72221733  0.61583373  1
  Na  Na2  1  0.23052235  0.50360117  0.98084146  1
  Na  Na3  1  0.06943410  0.90138462  0.13502000  1
  Na  Na4  1  0.51534544  0.72221733  0.11583373  1
  Na  Na5  1  0.73052235  0.49639883  0.51915854  1
  Na  Na6  1  0.26947765  0.50360117  0.48084146  1
  Na  Na7  1  0.48465456  0.27778267  0.88416627  1
  Na  Na8  1  0.93056590  0.09861538  0.86498000  1
  Na  Na9  1  0.76947765  0.49639883  0.01915854  1
  Na  Na10  1  0.01534544  0.27778267  0.38416627  1
  Na  Na11  1  0.56943410  0.09861538  0.36498000  1
  Co  Co12  1  0.69081088  0.81153739  0.75456029  1
  Co  Co13  1  0.80918912  0.81153739  0.25456029  1
  Co  Co14  1  0.19081088  0.18846261  0.74543971  1
  Co  Co15  1  0.30918912  0.18846261  0.24543971  1
  O  O16  1  0.63759784  0.96793864  0.58824515  1
  O  O17  1  0.59283755  0.77088651  0.89745074  1
  O  O18  1  0.86240216  0.96793864  0.08824515  1
  O  O19  1  0.84065301  0.63813034  0.78475069  1
  O  O20  1  0.90716245  0.77088651  0.39745074  1
  O  O21  1  0.65934699  0.63813034  0.28475069  1
  O  O22  1  0.34065301  0.36186966  0.71524931  1
  O  O23  1  0.09283755  0.22911349  0.60254926  1
  O  O24  1  0.15934699  0.36186966  0.21524931  1
  O  O25  1  0.13759784  0.03206136  0.91175485  1
  O  O26  1  0.40716245  0.22911349  0.10254926  1
  O  O27  1  0.36240216  0.03206136  0.41175485  1
