# generated using pymatgen
data_V2OF5
_symmetry_space_group_name_H-M   'P 1'
_cell_length_a   5.26113400
_cell_length_b   5.43866059
_cell_length_c   17.39174846
_cell_angle_alpha   89.40212284
_cell_angle_beta   97.73198846
_cell_angle_gamma   118.69190997
_symmetry_Int_Tables_number   1
_chemical_formula_structural   V2OF5
_chemical_formula_sum   'V8 O4 F20'
_cell_volume   431.72675454
_cell_formula_units_Z   4
loop_
 _symmetry_equiv_pos_site_id
 _symmetry_equiv_pos_as_xyz
  1  'x, y, z'
loop_
 _atom_site_type_symbol
 _atom_site_label
 _atom_site_symmetry_multiplicity
 _atom_site_fract_x
 _atom_site_fract_y
 _atom_site_fract_z
 _atom_site_occupancy
  V  V0  1  0.23326100  0.59740200  0.87923000  1
  V  V1  1  0.24691100  0.13076000  0.37579300  1
  V  V2  1  0.50463200  0.22731400  0.74416900  1
  V  V3  1  0.50192000  0.75124200  0.24742100  1
  V  V4  1  0.74903000  0.87209400  0.62559800  1
  V  V5  1  0.73596400  0.39811000  0.12736200  1
  V  V6  1  0.99980400  0.01258400  0.99896900  1
  V  V7  1  0.00555700  0.48719500  0.49320900  1
  O  O8  1  0.05645200  0.32628800  0.93450200  1
  O  O9  1  0.08179900  0.33973200  0.42142400  1
  O  O10  1  0.57978900  0.07833300  0.67290000  1
  O  O11  1  0.59302000  0.58231600  0.16493700  1
  F  F12  1  0.07057100  0.83213800  0.91215400  1
  F  F13  1  0.01823500  0.80713600  0.43640900  1
  F  F14  1  0.46146800  0.93305700  0.81707600  1
  F  F15  1  0.07692400  0.03064300  0.71318500  1
  F  F16  1  0.07566600  0.53432600  0.21029500  1
  F  F17  1  0.57525400  0.79562100  0.96112400  1
  F  F18  1  0.42838600  0.41665900  0.83168000  1
  F  F19  1  0.41817200  0.91238700  0.33525100  1
  F  F20  1  0.42230800  0.72124000  0.53861300  1
  F  F21  1  0.52319400  0.54875400  0.68645200  1
  F  F22  1  0.47762000  0.44347300  0.31438100  1
  F  F23  1  0.57703800  0.28371600  0.46350200  1
  F  F24  1  0.42873400  0.21410000  0.03762800  1
  F  F25  1  0.92116900  0.65759500  0.58197100  1
  F  F26  1  0.92376700  0.46315500  0.78852400  1
  F  F27  1  0.92453300  0.97395200  0.28764500  1
  F  F28  1  0.52329100  0.06426100  0.18497700  1
  F  F29  1  0.96946500  0.69052600  0.06093100  1
  F  F30  1  0.97765000  0.19539600  0.56591100  1
  F  F31  1  0.91841800  0.17849700  0.08677600  1
