# generated using pymatgen
data_Cs4HfO4
_symmetry_space_group_name_H-M   'P 1'
_cell_length_a   7.37301492
_cell_length_b   11.78327292
_cell_length_c   11.80260525
_cell_angle_alpha   68.28481060
_cell_angle_beta   90.00000000
_cell_angle_gamma   90.00000000
_symmetry_Int_Tables_number   1
_chemical_formula_structural   Cs4HfO4
_chemical_formula_sum   'Cs16 Hf4 O16'
_cell_volume   952.62238306
_cell_formula_units_Z   4
loop_
 _symmetry_equiv_pos_site_id
 _symmetry_equiv_pos_as_xyz
  1  'x, y, z'
loop_
 _atom_site_type_symbol
 _atom_site_label
 _atom_site_symmetry_multiplicity
 _atom_site_fract_x
 _atom_site_fract_y
 _atom_site_fract_z
 _atom_site_occupancy
  Cs  Cs0  1  0.58666200  0.29850598  0.06203716  1
  Cs  Cs1  1  0.11361952  0.41531482  0.15661411  1
  Cs  Cs2  1  0.91333800  0.79850598  0.06203716  1
  Cs  Cs3  1  0.34019757  0.10823047  0.36875452  1
  Cs  Cs4  1  0.38638048  0.91531482  0.15661411  1
  Cs  Cs5  1  0.82595918  0.20736070  0.42766444  1
  Cs  Cs6  1  0.15980243  0.60823047  0.36875452  1
  Cs  Cs7  1  0.32595918  0.29263930  0.57233556  1
  Cs  Cs8  1  0.67404082  0.70736070  0.42766444  1
  Cs  Cs9  1  0.84019757  0.39176953  0.63124548  1
  Cs  Cs10  1  0.17404082  0.79263930  0.57233556  1
  Cs  Cs11  1  0.61361952  0.08468518  0.84338589  1
  Cs  Cs12  1  0.65980243  0.89176953  0.63124548  1
  Cs  Cs13  1  0.08666200  0.20149402  0.93796284  1
  Cs  Cs14  1  0.88638048  0.58468518  0.84338589  1
  Cs  Cs15  1  0.41333800  0.70149402  0.93796284  1
  Hf  Hf16  1  0.87490715  0.00813627  0.24229799  1
  Hf  Hf17  1  0.62509285  0.50813627  0.24229799  1
  Hf  Hf18  1  0.37490715  0.49186373  0.75770201  1
  Hf  Hf19  1  0.12509285  0.99186373  0.75770201  1
  O  O20  1  0.76915730  0.02213156  0.08596503  1
  O  O21  1  0.01101327  0.15813324  0.21803468  1
  O  O22  1  0.73084270  0.52213156  0.08596503  1
  O  O23  1  0.47131541  0.36192663  0.30386890  1
  O  O24  1  0.48898673  0.65813324  0.21803468  1
  O  O25  1  0.82004817  0.48913325  0.36041238  1
  O  O26  1  0.02868459  0.86192663  0.30386890  1
  O  O27  1  0.32004817  0.01086675  0.63958762  1
  O  O28  1  0.67995183  0.98913325  0.36041238  1
  O  O29  1  0.97131541  0.13807337  0.69613110  1
  O  O30  1  0.17995183  0.51086675  0.63958762  1
  O  O31  1  0.51101327  0.34186676  0.78196532  1
  O  O32  1  0.52868459  0.63807337  0.69613110  1
  O  O33  1  0.26915730  0.47786844  0.91403497  1
  O  O34  1  0.98898673  0.84186676  0.78196532  1
  O  O35  1  0.23084270  0.97786844  0.91403497  1
