# generated using pymatgen
data_Ba2Sc2O5
_symmetry_space_group_name_H-M   'P 1'
_cell_length_a   5.95205281
_cell_length_b   6.08049914
_cell_length_c   16.44195224
_cell_angle_alpha   90.00000000
_cell_angle_beta   90.00000000
_cell_angle_gamma   90.00000000
_symmetry_Int_Tables_number   1
_chemical_formula_structural   Ba2Sc2O5
_chemical_formula_sum   'Ba8 Sc8 O20'
_cell_volume   595.05812516
_cell_formula_units_Z   4
loop_
 _symmetry_equiv_pos_site_id
 _symmetry_equiv_pos_as_xyz
  1  'x, y, z'
loop_
 _atom_site_type_symbol
 _atom_site_label
 _atom_site_symmetry_multiplicity
 _atom_site_fract_x
 _atom_site_fract_y
 _atom_site_fract_z
 _atom_site_occupancy
  Ba  Ba0  1  0.00226029  0.51279107  0.10909558  1
  Ba  Ba1  1  0.00226029  0.51279107  0.39090442  1
  Ba  Ba2  1  0.50226029  0.98720893  0.10909558  1
  Ba  Ba3  1  0.50226029  0.98720893  0.39090442  1
  Ba  Ba4  1  0.49773971  0.01279107  0.60909558  1
  Ba  Ba5  1  0.49773971  0.01279107  0.89090442  1
  Ba  Ba6  1  0.99773971  0.48720893  0.60909558  1
  Ba  Ba7  1  0.99773971  0.48720893  0.89090442  1
  Sc  Sc8  1  0.50000000  0.50000000  0.00000000  1
  Sc  Sc9  1  0.50000000  0.50000000  0.50000000  1
  Sc  Sc10  1  0.46944084  0.56781715  0.75000000  1
  Sc  Sc11  1  0.96944084  0.93218285  0.75000000  1
  Sc  Sc12  1  -0.00000000  0.00000000  0.50000000  1
  Sc  Sc13  1  -0.00000000  0.00000000  0.00000000  1
  Sc  Sc14  1  0.03055916  0.06781715  0.25000000  1
  Sc  Sc15  1  0.53055916  0.43218285  0.25000000  1
  O  O16  1  0.49094213  0.54607714  0.13704208  1
  O  O17  1  0.49094213  0.54607714  0.36295792  1
  O  O18  1  0.14946199  0.65719916  0.75000000  1
  O  O19  1  0.25199602  0.75233038  0.50695069  1
  O  O20  1  0.25199602  0.75233038  0.99304931  1
  O  O21  1  0.75199602  0.74766962  0.50695069  1
  O  O22  1  0.75199602  0.74766962  0.99304931  1
  O  O23  1  0.64946199  0.84280084  0.75000000  1
  O  O24  1  0.99094213  0.95392286  0.13704208  1
  O  O25  1  0.99094213  0.95392286  0.36295792  1
  O  O26  1  0.00905787  0.04607714  0.63704208  1
  O  O27  1  0.00905787  0.04607714  0.86295792  1
  O  O28  1  0.35053801  0.15719916  0.25000000  1
  O  O29  1  0.24800398  0.25233038  0.00695069  1
  O  O30  1  0.24800398  0.25233038  0.49304931  1
  O  O31  1  0.74800398  0.24766962  0.00695069  1
  O  O32  1  0.74800398  0.24766962  0.49304931  1
  O  O33  1  0.85053801  0.34280084  0.25000000  1
  O  O34  1  0.50905787  0.45392286  0.63704208  1
  O  O35  1  0.50905787  0.45392286  0.86295792  1
