# generated using pymatgen
data_VOF2
_symmetry_space_group_name_H-M   'P 1'
_cell_length_a   5.07421570
_cell_length_b   5.07421570
_cell_length_c   13.17094398
_cell_angle_alpha   89.43384002
_cell_angle_beta   89.43384002
_cell_angle_gamma   59.72145717
_symmetry_Int_Tables_number   1
_chemical_formula_structural   VOF2
_chemical_formula_sum   'V6 O6 F12'
_cell_volume   292.84065242
_cell_formula_units_Z   6
loop_
 _symmetry_equiv_pos_site_id
 _symmetry_equiv_pos_as_xyz
  1  'x, y, z'
loop_
 _atom_site_type_symbol
 _atom_site_label
 _atom_site_symmetry_multiplicity
 _atom_site_fract_x
 _atom_site_fract_y
 _atom_site_fract_z
 _atom_site_occupancy
  V  V0  1  0.00395329  0.02115259  0.49253123  1
  V  V1  1  0.02115259  0.00395329  -0.00746877  1
  V  V2  1  0.64740940  0.71145684  0.82787156  1
  V  V3  1  0.30402573  0.36806375  0.65823763  1
  V  V4  1  0.71145684  0.64740940  0.32787156  1
  V  V5  1  0.36806375  0.30402573  0.15823763  1
  O  O6  1  0.32396145  0.92560181  0.91925361  1
  O  O7  1  -0.00548002  0.58716808  0.25306248  1
  O  O8  1  0.08654610  0.65356055  0.58213156  1
  O  O9  1  0.58716808  -0.00548002  0.75306248  1
  O  O10  1  0.92560181  0.32396145  0.41925361  1
  O  O11  1  0.65356055  0.08654610  0.08213156  1
  F  F12  1  0.99354599  0.39284349  0.75051062  1
  F  F13  1  0.38556657  0.59867134  0.75578665  1
  F  F14  1  0.33734368  0.72633006  0.41445648  1
  F  F15  1  0.04944741  0.28923408  0.08290713  1
  F  F16  1  0.28923408  0.04944741  0.58290713  1
  F  F17  1  0.59867134  0.38556657  0.25578665  1
  F  F18  1  0.72633006  0.33734368  0.91445648  1
  F  F19  1  0.39284349  0.99354599  0.25051062  1
  F  F20  1  0.25516200  0.68859633  0.09308136  1
  F  F21  1  0.72192112  0.93390736  0.42016971  1
  F  F22  1  0.93390736  0.72192112  0.92016971  1
  F  F23  1  0.68859633  0.25516200  0.59308136  1
