# generated using pymatgen
data_Sm3NbO7
_symmetry_space_group_name_H-M   'P 1'
_cell_length_a   6.56333992
_cell_length_b   6.56333992
_cell_length_c   7.61751472
_cell_angle_alpha   90.00000000
_cell_angle_beta   90.00000000
_cell_angle_gamma   111.17764616
_symmetry_Int_Tables_number   1
_chemical_formula_structural   Sm3NbO7
_chemical_formula_sum   'Sm6 Nb2 O14'
_cell_volume   305.98176899
_cell_formula_units_Z   2
loop_
 _symmetry_equiv_pos_site_id
 _symmetry_equiv_pos_as_xyz
  1  'x, y, z'
loop_
 _atom_site_type_symbol
 _atom_site_label
 _atom_site_symmetry_multiplicity
 _atom_site_fract_x
 _atom_site_fract_y
 _atom_site_fract_z
 _atom_site_occupancy
  Sm  Sm0  1  0.52192234  0.06891645  0.25000000  1
  Sm  Sm1  1  0.93108355  0.47807766  0.75000000  1
  Sm  Sm2  1  -0.00000000  -0.00000000  0.00000000  1
  Sm  Sm3  1  -0.00000000  -0.00000000  0.50000000  1
  Sm  Sm4  1  0.47807766  0.93108355  0.75000000  1
  Sm  Sm5  1  0.06891645  0.52192234  0.25000000  1
  Nb  Nb6  1  0.50000000  0.50000000  0.00000000  1
  Nb  Nb7  1  0.50000000  0.50000000  0.50000000  1
  O  O8  1  0.89249623  0.15522199  0.25000000  1
  O  O9  1  0.84477801  0.10750377  0.75000000  1
  O  O10  1  0.43765513  0.18120170  0.53726650  1
  O  O11  1  0.81879830  0.56234487  0.03726650  1
  O  O12  1  0.81879830  0.56234487  0.46273350  1
  O  O13  1  0.43765513  0.18120170  0.96273350  1
  O  O14  1  0.57933445  0.57933445  0.75000000  1
  O  O15  1  0.42066555  0.42066555  0.25000000  1
  O  O16  1  0.18120170  0.43765513  0.53726650  1
  O  O17  1  0.18120170  0.43765513  0.96273350  1
  O  O18  1  0.56234487  0.81879830  0.03726650  1
  O  O19  1  0.56234487  0.81879830  0.46273350  1
  O  O20  1  0.15522199  0.89249623  0.25000000  1
  O  O21  1  0.10750377  0.84477801  0.75000000  1
