# generated using pymatgen
data_GeH12(NF2)4
_symmetry_space_group_name_H-M   'P 1'
_cell_length_a   6.22155300
_cell_length_b   11.83733100
_cell_length_c   13.72017400
_cell_angle_alpha   90.00000000
_cell_angle_beta   90.00000000
_cell_angle_gamma   90.00000000
_symmetry_Int_Tables_number   1
_chemical_formula_structural   GeH12(NF2)4
_chemical_formula_sum   'Ge4 H48 N16 F32'
_cell_volume   1010.44392222
_cell_formula_units_Z   4
loop_
 _symmetry_equiv_pos_site_id
 _symmetry_equiv_pos_as_xyz
  1  'x, y, z'
loop_
 _atom_site_type_symbol
 _atom_site_label
 _atom_site_symmetry_multiplicity
 _atom_site_fract_x
 _atom_site_fract_y
 _atom_site_fract_z
 _atom_site_occupancy
  Ge  Ge0  1  0.25000000  0.65342500  0.25000000  1
  Ge  Ge1  1  0.75000000  0.84657500  0.75000000  1
  Ge  Ge2  1  0.75000000  0.34657500  0.75000000  1
  Ge  Ge3  1  0.25000000  0.15342500  0.25000000  1
  H  H4  1  0.91937300  0.76041800  0.14479700  1
  H  H5  1  0.58062700  0.76041800  0.35520300  1
  H  H6  1  0.41937300  0.73958200  0.85520300  1
  H  H7  1  0.08062700  0.73958200  0.64479700  1
  H  H8  1  0.08062700  0.23958200  0.85520300  1
  H  H9  1  0.41937300  0.23958200  0.64479700  1
  H  H10  1  0.58062700  0.26041800  0.14479700  1
  H  H11  1  0.91937300  0.26041800  0.35520300  1
  H  H12  1  0.47043900  0.91900200  0.56941500  1
  H  H13  1  0.02956100  0.91900200  0.93058500  1
  H  H14  1  0.97043900  0.58099800  0.43058500  1
  H  H15  1  0.52956100  0.58099800  0.06941500  1
  H  H16  1  0.52956100  0.08099800  0.43058500  1
  H  H17  1  0.97043900  0.08099800  0.06941500  1
  H  H18  1  0.02956100  0.41900200  0.56941500  1
  H  H19  1  0.47043900  0.41900200  0.93058500  1
  H  H20  1  0.61993500  0.40991200  0.41963800  1
  H  H21  1  0.88006500  0.40991200  0.08036200  1
  H  H22  1  0.11993500  0.09008800  0.58036200  1
  H  H23  1  0.38006500  0.09008800  0.91963800  1
  H  H24  1  0.38006500  0.59008800  0.58036200  1
  H  H25  1  0.11993500  0.59008800  0.91963800  1
  H  H26  1  0.88006500  0.90991200  0.41963800  1
  H  H27  1  0.61993500  0.90991200  0.08036200  1
  H  H28  1  0.41176900  0.86746100  0.14763500  1
  H  H29  1  0.08823100  0.86746100  0.35236500  1
  H  H30  1  0.91176900  0.63253900  0.85236500  1
  H  H31  1  0.58823100  0.63253900  0.64763500  1
  H  H32  1  0.58823100  0.13253900  0.85236500  1
  H  H33  1  0.91176900  0.13253900  0.64763500  1
  H  H34  1  0.08823100  0.36746100  0.14763500  1
  H  H35  1  0.41176900  0.36746100  0.35236500  1
  H  H36  1  0.87433600  0.03016100  0.56528300  1
  H  H37  1  0.62566400  0.03016100  0.93471700  1
  H  H38  1  0.37433600  0.46983900  0.43471700  1
  H  H39  1  0.12566400  0.46983900  0.06528300  1
  H  H40  1  0.12566400  0.96983900  0.43471700  1
  H  H41  1  0.37433600  0.96983900  0.06528300  1
  H  H42  1  0.62566400  0.53016100  0.56528300  1
  H  H43  1  0.87433600  0.53016100  0.93471700  1
  H  H44  1  0.08192300  0.83643300  0.47306400  1
  H  H45  1  0.41807700  0.83643300  0.02693600  1
  H  H46  1  0.58192300  0.66356700  0.52693600  1
  H  H47  1  0.91807700  0.66356700  0.97306400  1
  H  H48  1  0.91807700  0.16356700  0.52693600  1
  H  H49  1  0.58192300  0.16356700  0.97306400  1
  H  H50  1  0.41807700  0.33643300  0.47306400  1
  H  H51  1  0.08192300  0.33643300  0.02693600  1
  N  N52  1  0.58008400  0.01592100  0.47638000  1
  N  N53  1  0.91991600  0.01592100  0.02362000  1
  N  N54  1  0.08008400  0.48407900  0.52362000  1
  N  N55  1  0.41991600  0.48407900  0.97638000  1
  N  N56  1  0.41991600  0.98407900  0.52362000  1
  N  N57  1  0.08008400  0.98407900  0.97638000  1
  N  N58  1  0.91991600  0.51592100  0.47638000  1
  N  N59  1  0.58008400  0.51592100  0.02362000  1
  N  N60  1  0.04363100  0.89616400  0.42030300  1
  N  N61  1  0.45636900  0.89616400  0.07969700  1
  N  N62  1  0.54363100  0.60383600  0.57969700  1
  N  N63  1  0.95636900  0.60383600  0.92030300  1
  N  N64  1  0.95636900  0.10383600  0.57969700  1
  N  N65  1  0.54363100  0.10383600  0.92030300  1
  N  N66  1  0.45636900  0.39616400  0.42030300  1
  N  N67  1  0.04363100  0.39616400  0.07969700  1
  F  F68  1  0.21102200  0.66186400  0.38133400  1
  F  F69  1  0.28897800  0.66186400  0.11866600  1
  F  F70  1  0.71102200  0.83813600  0.61866600  1
  F  F71  1  0.78897800  0.83813600  0.88133400  1
  F  F72  1  0.78897800  0.33813600  0.61866600  1
  F  F73  1  0.71102200  0.33813600  0.88133400  1
  F  F74  1  0.28897800  0.16186400  0.38133400  1
  F  F75  1  0.21102200  0.16186400  0.11866600  1
  F  F76  1  0.46021100  0.55067900  0.26229900  1
  F  F77  1  0.03978900  0.55067900  0.23770100  1
  F  F78  1  0.96021100  0.94932100  0.73770100  1
  F  F79  1  0.53978900  0.94932100  0.76229900  1
  F  F80  1  0.53978900  0.44932100  0.73770100  1
  F  F81  1  0.96021100  0.44932100  0.76229900  1
  F  F82  1  0.03978900  0.05067900  0.26229900  1
  F  F83  1  0.46021100  0.05067900  0.23770100  1
  F  F84  1  0.45201200  0.77295600  0.26605300  1
  F  F85  1  0.04798800  0.77295600  0.23394700  1
  F  F86  1  0.95201200  0.72704400  0.73394700  1
  F  F87  1  0.54798800  0.72704400  0.76605300  1
  F  F88  1  0.54798800  0.22704400  0.73394700  1
  F  F89  1  0.95201200  0.22704400  0.76605300  1
  F  F90  1  0.04798800  0.27295600  0.26605300  1
  F  F91  1  0.45201200  0.27295600  0.23394700  1
  F  F92  1  0.16233900  0.74581000  0.58299700  1
  F  F93  1  0.33766100  0.74581000  0.91700300  1
  F  F94  1  0.66233900  0.75419000  0.41700300  1
  F  F95  1  0.83766100  0.75419000  0.08299700  1
  F  F96  1  0.83766100  0.25419000  0.41700300  1
  F  F97  1  0.66233900  0.25419000  0.08299700  1
  F  F98  1  0.33766100  0.24581000  0.58299700  1
  F  F99  1  0.16233900  0.24581000  0.91700300  1
