# generated using pymatgen
data_Dy3Y5O12
_symmetry_space_group_name_H-M   'P 1'
_cell_length_a   9.18012227
_cell_length_b   9.18152181
_cell_length_c   9.18149489
_cell_angle_alpha   109.46799547
_cell_angle_beta   109.45582098
_cell_angle_gamma   109.47745088
_symmetry_Int_Tables_number   1
_chemical_formula_structural   Dy3Y5O12
_chemical_formula_sum   'Dy6 Y10 O24'
_cell_volume   595.82818696
_cell_formula_units_Z   2
loop_
 _symmetry_equiv_pos_site_id
 _symmetry_equiv_pos_as_xyz
  1  'x, y, z'
loop_
 _atom_site_type_symbol
 _atom_site_label
 _atom_site_symmetry_multiplicity
 _atom_site_fract_x
 _atom_site_fract_y
 _atom_site_fract_z
 _atom_site_occupancy
  Dy  Dy0  1  0.46740540  0.24997519  0.71733480  1
  Dy  Dy1  1  0.53239905  0.75003825  0.28245956  1
  Dy  Dy2  1  0.03265347  0.75007401  0.78267671  1
  Dy  Dy3  1  0.25009693  0.28251116  0.03250438  1
  Dy  Dy4  1  0.74995450  0.21749493  0.46754074  1
  Dy  Dy5  1  0.28254374  0.03250486  0.24998187  1
  Y  Y6  1  0.71761986  0.96759456  0.74998362  1
  Y  Y7  1  0.49988187  -0.00001853  0.99996713  1
  Y  Y8  1  0.74997769  0.71741997  0.96747914  1
  Y  Y9  1  0.25002550  0.78260392  0.53250009  1
  Y  Y10  1  0.96763565  0.24993531  0.21759494  1
  Y  Y11  1  0.50014150  0.49993702  0.50000942  1
  Y  Y12  1  0.00004277  0.00001684  0.50005081  1
  Y  Y13  1  0.21752896  0.46754839  0.75003784  1
  Y  Y14  1  0.78240146  0.53241653  0.25002590  1
  Y  Y15  1  0.00008890  0.50013994  0.00004899  1
  O  O16  1  0.72919881  0.45732025  0.96841035  1
  O  O17  1  0.51106135  0.04266397  0.77187629  1
  O  O18  1  0.26040988  0.03111940  0.98867501  1
  O  O19  1  0.45783793  0.72835968  0.48885276  1
  O  O20  1  0.23948308  0.22816635  0.77064328  1
  O  O21  1  0.04250600  0.53152209  0.27072693  1
  O  O22  1  0.77076178  0.73911858  0.72808937  1
  O  O23  1  0.98894341  0.76086054  0.53163104  1
  O  O24  1  0.72826493  0.27056028  0.23958930  1
  O  O25  1  0.46847872  0.51095998  0.73911900  1
  O  O26  1  0.96907373  0.22940612  0.95771848  1
  O  O27  1  0.22811286  0.98894865  0.45733503  1
  O  O28  1  0.77158927  0.01132847  0.54222996  1
  O  O29  1  0.03158996  0.77081419  0.04269725  1
  O  O30  1  0.53094786  0.48870736  0.26033856  1
  O  O31  1  0.27183804  0.72932925  0.76082625  1
  O  O32  1  0.01099530  0.23923431  0.46853880  1
  O  O33  1  0.22947767  0.26040891  0.27163344  1
  O  O34  1  0.76043718  0.77163686  0.22944390  1
  O  O35  1  0.95750743  0.46885597  0.72933874  1
  O  O36  1  0.54242675  0.27173181  0.51129630  1
  O  O37  1  0.73914442  0.96845134  0.01093171  1
  O  O38  1  0.27083409  0.54264002  0.03154055  1
  O  O39  1  0.48868230  0.95765929  0.22832576  1
