# generated using pymatgen
data_Sm3Ta17O47
_symmetry_space_group_name_H-M   'P 1'
_cell_length_a   3.88085445
_cell_length_b   12.70448745
_cell_length_c   19.27065231
_cell_angle_alpha   76.96312841
_cell_angle_beta   90.00000000
_cell_angle_gamma   90.00000000
_symmetry_Int_Tables_number   1
_chemical_formula_structural   Sm3Ta17O47
_chemical_formula_sum   'Sm3 Ta17 O47'
_cell_volume   925.63599346
_cell_formula_units_Z   1
loop_
 _symmetry_equiv_pos_site_id
 _symmetry_equiv_pos_as_xyz
  1  'x, y, z'
loop_
 _atom_site_type_symbol
 _atom_site_label
 _atom_site_symmetry_multiplicity
 _atom_site_fract_x
 _atom_site_fract_y
 _atom_site_fract_z
 _atom_site_occupancy
  Sm  Sm0  1  0.50000000  0.00000000  -0.00000000  1
  Sm  Sm1  1  0.50000000  0.62199436  0.66770093  1
  Sm  Sm2  1  0.50000000  0.37800564  0.33229907  1
  Ta  Ta3  1  -0.00000000  0.97325177  0.85410860  1
  Ta  Ta4  1  -0.00000000  0.80756559  0.71776074  1
  Ta  Ta5  1  -0.00000000  0.89518993  0.35098744  1
  Ta  Ta6  1  0.00000000  0.72213437  0.52821064  1
  Ta  Ta7  1  -0.00000000  0.76498101  0.21595683  1
  Ta  Ta8  1  -0.00000000  0.77150091  0.04192489  1
  Ta  Ta9  1  0.00000000  0.48975816  0.80907866  1
  Ta  Ta10  1  -0.00000000  0.58860966  0.37419917  1
  Ta  Ta11  1  0.00000000  0.41139034  0.62580083  1
  Ta  Ta12  1  0.00000000  0.51024184  0.19092134  1
  Ta  Ta13  1  -0.00000000  0.22849909  0.95807511  1
  Ta  Ta14  1  0.00000000  0.23501899  0.78404317  1
  Ta  Ta15  1  0.00000000  0.50000000  -0.00000000  1
  Ta  Ta16  1  -0.00000000  0.27786563  0.47178936  1
  Ta  Ta17  1  0.00000000  0.10481007  0.64901256  1
  Ta  Ta18  1  -0.00000000  0.19243441  0.28223926  1
  Ta  Ta19  1  -0.00000000  0.02674823  0.14589140  1
  O  O20  1  0.50000000  0.97066476  0.87296735  1
  O  O21  1  -0.00000000  0.91195998  0.96415278  1
  O  O22  1  -0.00000000  0.94986128  0.66528416  1
  O  O23  1  0.00000000  0.85546830  0.80753696  1
  O  O24  1  0.50000000  0.77931976  0.72095970  1
  O  O25  1  0.00000000  0.92135081  0.23642341  1
  O  O26  1  0.00000000  0.84702686  0.45411386  1
  O  O27  1  0.50000000  0.89269504  0.34897933  1
  O  O28  1  0.00000000  0.65995013  0.99589542  1
  O  O29  1  -0.00000000  0.76438485  0.62189847  1
  O  O30  1  -0.00000000  0.87826015  0.11559414  1
  O  O31  1  0.00000000  0.63283151  0.74426117  1
  O  O32  1  0.50000000  0.70832533  0.54259507  1
  O  O33  1  0.00000000  0.74914672  0.32634970  1
  O  O34  1  0.50000000  0.76794947  0.21341097  1
  O  O35  1  0.00000000  0.52743392  0.89565503  1
  O  O36  1  0.50000000  0.80170231  0.03855778  1
  O  O37  1  0.00000000  0.62509536  0.46353553  1
  O  O38  1  -0.00000000  0.57019295  0.60924310  1
  O  O39  1  0.50000000  0.49714620  0.78982681  1
  O  O40  1  -0.00000000  0.67340454  0.13697625  1
  O  O41  1  0.00000000  0.60347964  0.26566510  1
  O  O42  1  0.50000000  0.56811661  0.36771420  1
  O  O43  1  0.50000000  0.43188339  0.63228580  1
  O  O44  1  0.00000000  0.39652036  0.73433490  1
  O  O45  1  0.00000000  0.32659546  0.86302375  1
  O  O46  1  0.50000000  0.50285380  0.21017319  1
  O  O47  1  -0.00000000  0.42980705  0.39075690  1
  O  O48  1  -0.00000000  0.37490464  0.53646447  1
  O  O49  1  0.50000000  0.19829769  0.96144222  1
  O  O50  1  0.00000000  0.47256608  0.10434497  1
  O  O51  1  0.50000000  0.50000000  -0.00000000  1
  O  O52  1  0.50000000  0.23205053  0.78658903  1
  O  O53  1  -0.00000000  0.25085328  0.67365030  1
  O  O54  1  0.50000000  0.29167467  0.45740493  1
  O  O55  1  0.00000000  0.36716849  0.25573883  1
  O  O56  1  0.00000000  0.12173985  0.88440586  1
  O  O57  1  -0.00000000  0.23561515  0.37810153  1
  O  O58  1  0.00000000  0.34004987  0.00410458  1
  O  O59  1  0.50000000  0.10730496  0.65102067  1
  O  O60  1  0.00000000  0.15297314  0.54588614  1
  O  O61  1  0.00000000  0.07864919  0.76357659  1
  O  O62  1  0.50000000  0.22068024  0.27904030  1
  O  O63  1  -0.00000000  0.14453170  0.19246304  1
  O  O64  1  -0.00000000  0.05013872  0.33471584  1
  O  O65  1  0.00000000  0.08804002  0.03584722  1
  O  O66  1  0.50000000  0.02933524  0.12703265  1
