# generated using pymatgen
data_YTmO3
_symmetry_space_group_name_H-M   'P 1'
_cell_length_a   9.08893170
_cell_length_b   9.08893170
_cell_length_c   10.49381613
_cell_angle_alpha   54.73571962
_cell_angle_beta   54.73571962
_cell_angle_gamma   70.53574568
_symmetry_Int_Tables_number   1
_chemical_formula_structural   YTmO3
_chemical_formula_sum   'Y8 Tm8 O24'
_cell_volume   577.92174598
_cell_formula_units_Z   8
loop_
 _symmetry_equiv_pos_site_id
 _symmetry_equiv_pos_as_xyz
  1  'x, y, z'
loop_
 _atom_site_type_symbol
 _atom_site_label
 _atom_site_symmetry_multiplicity
 _atom_site_fract_x
 _atom_site_fract_y
 _atom_site_fract_z
 _atom_site_occupancy
  Y  Y0  1  0.00068623  0.50046549  0.75021039  1
  Y  Y1  1  0.25001254  0.24944896  0.46859589  1
  Y  Y2  1  0.75055104  0.74998746  0.53140411  1
  Y  Y3  1  0.46743378  0.53256622  -0.00000000  1
  Y  Y4  1  0.96841044  0.03158956  -0.00000000  1
  Y  Y5  1  0.99862724  0.49775479  0.25006786  1
  Y  Y6  1  0.49953451  0.99931377  0.24978961  1
  Y  Y7  1  0.50224521  0.00137276  0.74993214  1
  Tm  Tm8  1  0.78181351  0.28148756  0.71744184  1
  Tm  Tm9  1  0.28374863  0.78344246  0.21732668  1
  Tm  Tm10  1  0.71851244  0.21818649  0.28255816  1
  Tm  Tm11  1  0.53226034  0.46773966  0.50000000  1
  Tm  Tm12  1  0.03315195  0.96684805  0.50000000  1
  Tm  Tm13  1  0.74998119  0.74950212  0.03247823  1
  Tm  Tm14  1  0.25049788  0.25001881  0.96752177  1
  Tm  Tm15  1  0.21655754  0.71625137  0.78267332  1
  O  O16  1  0.51412818  0.27073810  0.20815764  1
  O  O17  1  0.72926190  0.48587182  0.79184236  1
  O  O18  1  0.95612030  0.74198423  0.78140941  1
  O  O19  1  0.75802100  0.54007328  0.47946046  1
  O  O20  1  0.73897624  0.95955475  0.28104619  1
  O  O21  1  0.54411382  0.76092766  0.97973443  1
  O  O22  1  0.98596327  0.22541268  0.49305785  1
  O  O23  1  0.77458732  0.01403673  0.50694215  1
  O  O24  1  0.72814449  0.03011153  0.97606770  1
  O  O25  1  0.46510193  0.77329023  0.73861863  1
  O  O26  1  0.96988847  0.27185551  0.02393230  1
  O  O27  1  0.22670977  0.53489807  0.26138137  1
  O  O28  1  0.76825260  0.46939287  0.23798377  1
  O  O29  1  0.53060713  0.23174740  0.76201623  1
  O  O30  1  0.26949440  0.96468933  0.52335214  1
  O  O31  1  0.03531067  0.73050560  0.47664786  1
  O  O32  1  0.23029707  0.98846091  0.99190237  1
  O  O33  1  0.01153909  0.76970293  0.00809763  1
  O  O34  1  0.25801577  0.04387970  0.21859059  1
  O  O35  1  0.45992672  0.24197900  0.52053954  1
  O  O36  1  0.04044525  0.26102376  0.71895381  1
  O  O37  1  0.23907234  0.45588618  0.02026557  1
  O  O38  1  0.48841243  0.72641365  0.29322886  1
  O  O39  1  0.27358635  0.51158757  0.70677114  1
