# generated using pymatgen
data_SnS
_symmetry_space_group_name_H-M   'P 1'
_cell_length_a   4.08662758
_cell_length_b   4.08916110
_cell_length_c   10.95624501
_cell_angle_alpha   98.06629781
_cell_angle_beta   90.65620060
_cell_angle_gamma   89.99108584
_symmetry_Int_Tables_number   1
_chemical_formula_structural   SnS
_chemical_formula_sum   'Sn2 S2'
_cell_volume   181.26498554
_cell_formula_units_Z   2
loop_
 _symmetry_equiv_pos_site_id
 _symmetry_equiv_pos_as_xyz
  1  'x, y, z'
loop_
 _atom_site_type_symbol
 _atom_site_label
 _atom_site_symmetry_multiplicity
 _atom_site_fract_x
 _atom_site_fract_y
 _atom_site_fract_z
 _atom_site_occupancy
  Sn  Sn0  1  0.74229024  0.69623983  0.36562182  1
  Sn  Sn1  1  0.25770976  0.30376017  0.63437818  1
  S  S2  1  0.75308840  0.78764570  0.60038195  1
  S  S3  1  0.24691160  0.21235430  0.39961805  1
