# generated using pymatgen
data_KTa2PO8
_symmetry_space_group_name_H-M   'P 1'
_cell_length_a   8.43436271
_cell_length_b   8.43436271
_cell_length_c   8.43436345
_cell_angle_alpha   104.30972958
_cell_angle_beta   104.30972956
_cell_angle_gamma   104.30972809
_symmetry_Int_Tables_number   1
_chemical_formula_structural   KTa2PO8
_chemical_formula_sum   'K3 Ta6 P3 O24'
_cell_volume   532.12676874
_cell_formula_units_Z   3
loop_
 _symmetry_equiv_pos_site_id
 _symmetry_equiv_pos_as_xyz
  1  'x, y, z'
loop_
 _atom_site_type_symbol
 _atom_site_label
 _atom_site_symmetry_multiplicity
 _atom_site_fract_x
 _atom_site_fract_y
 _atom_site_fract_z
 _atom_site_occupancy
  K  K0  1  0.58934110  0.35145518  0.87090596  1
  K  K1  1  0.87090596  0.58934110  0.35145518  1
  K  K2  1  0.35145518  0.87090596  0.58934110  1
  Ta  Ta3  1  0.35498055  0.03980638  0.15816281  1
  Ta  Ta4  1  0.03980638  0.15816281  0.35498055  1
  Ta  Ta5  1  0.96825191  0.65215744  0.84389060  1
  Ta  Ta6  1  0.15816281  0.35498055  0.03980638  1
  Ta  Ta7  1  0.65215744  0.84389060  0.96825191  1
  Ta  Ta8  1  0.84389060  0.96825191  0.65215744  1
  P  P9  1  0.72634058  0.27078630  0.50183738  1
  P  P10  1  0.27078630  0.50183738  0.72634058  1
  P  P11  1  0.50183738  0.72634058  0.27078630  1
  O  O12  1  0.96997764  0.02044662  0.49653703  1
  O  O13  1  0.84832740  0.00098564  0.15334512  1
  O  O14  1  0.70445260  0.12809615  0.58508391  1
  O  O15  1  0.21230579  0.06569125  0.31460446  1
  O  O16  1  0.00098564  0.15334512  0.84832740  1
  O  O17  1  0.87331324  0.28641704  0.42508235  1
  O  O18  1  0.55909979  0.23210920  0.35521034  1
  O  O19  1  0.76533264  0.44342076  0.64116226  1
  O  O20  1  0.31460446  0.21230579  0.06569125  1
  O  O21  1  0.28641704  0.42508235  0.87331324  1
  O  O22  1  0.23210920  0.35521034  0.55909979  1
  O  O23  1  0.06569125  0.31460446  0.21230579  1
  O  O24  1  0.02044662  0.49653703  0.96997764  1
  O  O25  1  0.78883794  0.68343035  0.93119829  1
  O  O26  1  0.44342076  0.64116226  0.76533264  1
  O  O27  1  0.12809615  0.58508391  0.70445260  1
  O  O28  1  0.93119829  0.78883794  0.68343035  1
  O  O29  1  0.35521034  0.55909979  0.23210920  1
  O  O30  1  0.64116226  0.76533264  0.44342076  1
  O  O31  1  0.58508391  0.70445260  0.12809615  1
  O  O32  1  0.68343035  0.93119829  0.78883794  1
  O  O33  1  0.42508235  0.87331324  0.28641704  1
  O  O34  1  0.15334512  0.84832740  0.00098564  1
  O  O35  1  0.49653703  0.96997764  0.02044662  1
