# generated using pymatgen
data_KAl11O17
_symmetry_space_group_name_H-M   'P 1'
_cell_length_a   11.83674989
_cell_length_b   11.83674989
_cell_length_c   11.83674904
_cell_angle_alpha   27.32115798
_cell_angle_beta   27.32115798
_cell_angle_gamma   27.32115467
_symmetry_Int_Tables_number   1
_chemical_formula_structural   KAl11O17
_chemical_formula_sum   'K1 Al11 O17'
_cell_volume   308.28702817
_cell_formula_units_Z   1
loop_
 _symmetry_equiv_pos_site_id
 _symmetry_equiv_pos_as_xyz
  1  'x, y, z'
loop_
 _atom_site_type_symbol
 _atom_site_label
 _atom_site_symmetry_multiplicity
 _atom_site_fract_x
 _atom_site_fract_y
 _atom_site_fract_z
 _atom_site_occupancy
  K  K0  1  0.17053867  0.17053867  0.17053867  1
  Al  Al1  1  0.90201941  0.40738614  0.90201941  1
  Al  Al2  1  0.00014858  0.00014858  0.00014858  1
  Al  Al3  1  0.90201941  0.90201941  0.40738614  1
  Al  Al4  1  0.40738614  0.90201941  0.90201941  1
  Al  Al5  1  0.54994876  0.54994876  0.54994876  1
  Al  Al6  1  0.65009910  0.65009910  0.65009910  1
  Al  Al7  1  0.44992406  0.44992406  0.44992406  1
  Al  Al8  1  0.35029326  0.35029326  0.35029326  1
  Al  Al9  1  0.59532905  0.09709261  0.09709261  1
  Al  Al10  1  0.09709261  0.09709261  0.59532905  1
  Al  Al11  1  0.09709261  0.59532905  0.09709261  1
  O  O12  1  0.70309029  0.70309029  0.70309029  1
  O  O13  1  0.90653809  0.90653809  0.90653809  1
  O  O14  1  0.71993170  0.18928896  0.18928896  1
  O  O15  1  0.81024459  0.28073605  0.81024459  1
  O  O16  1  0.90808936  0.40185624  0.40185624  1
  O  O17  1  0.59667188  0.09379039  0.59667188  1
  O  O18  1  0.40185624  0.40185624  0.90808936  1
  O  O19  1  0.81024459  0.81024459  0.28073605  1
  O  O20  1  0.18928896  0.18928896  0.71993170  1
  O  O21  1  0.50000558  0.50000558  0.50000558  1
  O  O22  1  0.59667188  0.59667188  0.09379039  1
  O  O23  1  0.09379039  0.59667188  0.59667188  1
  O  O24  1  0.40185624  0.90808936  0.40185624  1
  O  O25  1  0.18928896  0.71993170  0.18928896  1
  O  O26  1  0.28073605  0.81024459  0.81024459  1
  O  O27  1  0.29694105  0.29694105  0.29694105  1
  O  O28  1  0.09354147  0.09354147  0.09354147  1
