# generated using pymatgen
data_Rb3ErO3
_symmetry_space_group_name_H-M   'P 1'
_cell_length_a   7.28071192
_cell_length_b   7.79765931
_cell_length_c   11.60006735
_cell_angle_alpha   86.11685448
_cell_angle_beta   90.00000000
_cell_angle_gamma   90.00000000
_symmetry_Int_Tables_number   1
_chemical_formula_structural   Rb3ErO3
_chemical_formula_sum   'Rb12 Er4 O12'
_cell_volume   657.05304756
_cell_formula_units_Z   4
loop_
 _symmetry_equiv_pos_site_id
 _symmetry_equiv_pos_as_xyz
  1  'x, y, z'
loop_
 _atom_site_type_symbol
 _atom_site_label
 _atom_site_symmetry_multiplicity
 _atom_site_fract_x
 _atom_site_fract_y
 _atom_site_fract_z
 _atom_site_occupancy
  Rb  Rb0  1  0.33490362  0.35965785  0.07924645  1
  Rb  Rb1  1  0.62408219  0.92753596  0.15648511  1
  Rb  Rb2  1  0.80203433  0.37350540  0.19033036  1
  Rb  Rb3  1  0.30203433  0.62649460  0.30966964  1
  Rb  Rb4  1  0.12408219  0.07246404  0.34351489  1
  Rb  Rb5  1  0.83490362  0.64034215  0.42075355  1
  Rb  Rb6  1  0.16509638  0.35965785  0.57924645  1
  Rb  Rb7  1  0.87591781  0.92753596  0.65648511  1
  Rb  Rb8  1  0.69796567  0.37350540  0.69033036  1
  Rb  Rb9  1  0.19796567  0.62649460  0.80966964  1
  Rb  Rb10  1  0.37591781  0.07246404  0.84351489  1
  Rb  Rb11  1  0.66509638  0.64034215  0.92075355  1
  Er  Er12  1  0.08900664  0.83883960  0.06822167  1
  Er  Er13  1  0.58900664  0.16116040  0.43177833  1
  Er  Er14  1  0.41099336  0.83883960  0.56822167  1
  Er  Er15  1  0.91099336  0.16116040  0.93177833  1
  O  O16  1  0.35400586  0.74396257  0.04574667  1
  O  O17  1  0.05018624  0.10978852  0.09464413  1
  O  O18  1  0.94197894  0.69232049  0.19154181  1
  O  O19  1  0.44197894  0.30767951  0.30845819  1
  O  O20  1  0.55018624  0.89021148  0.40535587  1
  O  O21  1  0.85400586  0.25603743  0.45425333  1
  O  O22  1  0.14599414  0.74396257  0.54574667  1
  O  O23  1  0.44981376  0.10978852  0.59464413  1
  O  O24  1  0.55802106  0.69232049  0.69154181  1
  O  O25  1  0.05802106  0.30767951  0.80845819  1
  O  O26  1  0.94981376  0.89021148  0.90535587  1
  O  O27  1  0.64599414  0.25603743  0.95425333  1
