# generated using pymatgen
data_Sn2N2O
_symmetry_space_group_name_H-M   'P 1'
_cell_length_a   8.72918009
_cell_length_b   8.73849328
_cell_length_c   8.73701093
_cell_angle_alpha   109.41760769
_cell_angle_beta   109.24852187
_cell_angle_gamma   109.24751863
_symmetry_Int_Tables_number   1
_chemical_formula_structural   Sn2N2O
_chemical_formula_sum   'Sn16 N16 O8'
_cell_volume   516.18020828
_cell_formula_units_Z   8
loop_
 _symmetry_equiv_pos_site_id
 _symmetry_equiv_pos_as_xyz
  1  'x, y, z'
loop_
 _atom_site_type_symbol
 _atom_site_label
 _atom_site_symmetry_multiplicity
 _atom_site_fract_x
 _atom_site_fract_y
 _atom_site_fract_z
 _atom_site_occupancy
  Sn  Sn0  1  0.97410353  0.22361381  0.26240566  1
  Sn  Sn1  1  0.99055511  0.99726394  0.49034148  1
  Sn  Sn2  1  0.72983372  0.75737515  0.97521217  1
  Sn  Sn3  1  0.77999216  0.24038682  0.53046829  1
  Sn  Sn4  1  0.25334480  0.53354878  0.78668140  1
  Sn  Sn5  1  0.25268892  0.03284741  0.28218932  1
  Sn  Sn6  1  0.53782501  0.28703192  0.75205004  1
  Sn  Sn7  1  0.51464596  0.50439896  0.50190942  1
  Sn  Sn8  1  0.48860519  0.99023384  0.99111462  1
  Sn  Sn9  1  0.00671924  0.50542985  0.01029174  1
  Sn  Sn10  1  0.46540053  0.71465392  0.24981980  1
  Sn  Sn11  1  0.75018715  0.47266721  0.20834778  1
  Sn  Sn12  1  0.73609997  0.95367179  0.70482539  1
  Sn  Sn13  1  0.20769884  0.73316738  0.46218073  1
  Sn  Sn14  1  0.29581645  0.25532952  0.03012728  1
  Sn  Sn15  1  0.03399476  0.78645771  0.74988429  1
  N  N16  1  0.04148509  0.27990036  0.54425242  1
  N  N17  1  0.54175113  0.26353720  0.50102243  1
  N  N18  1  0.22482245  0.45421626  0.99185749  1
  N  N19  1  0.51491811  0.76958573  0.03907694  1
  N  N20  1  0.99471818  0.44928163  0.23077824  1
  N  N21  1  0.72444420  0.96161909  0.45900253  1
  N  N22  1  0.50076092  0.22160392  0.94932935  1
  N  N23  1  0.77919906  0.73854242  0.74386210  1
  N  N24  1  0.23394584  0.77627776  0.23599343  1
  N  N25  1  0.26027059  0.00299087  0.03726439  1
  N  N26  1  0.77202576  0.54267958  0.99574588  1
  N  N27  1  0.45627676  0.72545942  0.50778679  1
  N  N28  1  0.26032398  0.75444485  0.72638227  1
  N  N29  1  0.97025287  0.97056892  0.22723937  1
  N  N30  1  0.95853331  0.73607653  0.46118999  1
  N  N31  1  0.54611353  0.50013474  0.26987831  1
  O  O32  1  0.44786543  0.48276241  0.71702048  1
  O  O33  1  0.04093783  0.05290874  0.77074223  1
  O  O34  1  0.71733873  0.21446478  0.26505431  1
  O  O35  1  0.77576986  0.22543969  0.77938916  1
  O  O36  1  0.73365591  0.01616014  0.95811924  1
  O  O37  1  0.97809287  0.53329019  0.76656392  1
  O  O38  1  0.27054774  0.05374172  0.55162628  1
  O  O39  1  0.23843749  0.28623407  0.28297707  1
