# generated using pymatgen
data_YNb2NO5
_symmetry_space_group_name_H-M   'P 1'
_cell_length_a   5.27900617
_cell_length_b   5.66624218
_cell_length_c   14.97485399
_cell_angle_alpha   89.74525667
_cell_angle_beta   89.94269169
_cell_angle_gamma   89.93153781
_symmetry_Int_Tables_number   1
_chemical_formula_structural   YNb2NO5
_chemical_formula_sum   'Y4 Nb8 N4 O20'
_cell_volume   447.92477220
_cell_formula_units_Z   4
loop_
 _symmetry_equiv_pos_site_id
 _symmetry_equiv_pos_as_xyz
  1  'x, y, z'
loop_
 _atom_site_type_symbol
 _atom_site_label
 _atom_site_symmetry_multiplicity
 _atom_site_fract_x
 _atom_site_fract_y
 _atom_site_fract_z
 _atom_site_occupancy
  Y  Y0  1  0.24959167  0.73938239  0.00088140  1
  Y  Y1  1  0.75013504  0.27088420  0.00014452  1
  Y  Y2  1  0.75045751  0.75536016  0.49990844  1
  Y  Y3  1  0.25594030  0.22550573  0.50040116  1
  Nb  Nb4  1  0.67334491  0.81602756  0.16935660  1
  Nb  Nb5  1  0.18904834  0.18865461  0.16786516  1
  Nb  Nb6  1  0.18828067  0.68940674  0.33226050  1
  Nb  Nb7  1  0.70477108  0.31083640  0.34077100  1
  Nb  Nb8  1  0.30401299  0.69031018  0.67203212  1
  Nb  Nb9  1  0.81716081  0.30237287  0.66434712  1
  Nb  Nb10  1  0.81795838  0.80973003  0.83159868  1
  Nb  Nb11  1  0.31795585  0.19735441  0.83963381  1
  N  N12  1  0.35663062  0.87380605  0.23850031  1
  N  N13  1  0.97364058  0.42818014  0.40784770  1
  N  N14  1  0.12221659  0.86564252  0.75630924  1
  N  N15  1  0.41806792  0.42752223  0.91332642  1
  O  O16  1  0.08000744  0.41883358  0.08528184  1
  O  O17  1  0.57890237  0.59090183  0.08568288  1
  O  O18  1  0.95995270  0.94786658  0.09108040  1
  O  O19  1  0.46476189  0.07136992  0.08815169  1
  O  O20  1  0.85898541  0.13454104  0.23964741  1
  O  O21  1  0.35545904  0.37425304  0.25676836  1
  O  O22  1  0.86173125  0.63534582  0.25768307  1
  O  O23  1  0.47350873  0.55896712  0.40703577  1
  O  O24  1  0.07861736  0.91025955  0.41618646  1
  O  O25  1  0.57787634  0.07626748  0.41764356  1
  O  O26  1  0.42144942  0.90483796  0.58425721  1
  O  O27  1  0.92242843  0.07708433  0.58354158  1
  O  O28  1  0.03112667  0.55660132  0.59160551  1
  O  O29  1  0.54149833  0.42630355  0.58988427  1
  O  O30  1  0.63569844  0.62689967  0.73987980  1
  O  O31  1  0.14016719  0.36631492  0.73676000  1
  O  O32  1  0.64446645  0.13259233  0.75834339  1
  O  O33  1  0.53503147  0.94615037  0.90919435  1
  O  O34  1  0.02689327  0.06401423  0.91057509  1
  O  O35  1  0.92222355  0.58961614  0.91560818  1
