# generated using pymatgen
data_Cs5YO4
_symmetry_space_group_name_H-M   'P 1'
_cell_length_a   6.96213046
_cell_length_b   8.46138923
_cell_length_c   9.83405653
_cell_angle_alpha   90.00000000
_cell_angle_beta   90.00000000
_cell_angle_gamma   90.00000000
_symmetry_Int_Tables_number   1
_chemical_formula_structural   Cs5YO4
_chemical_formula_sum   'Cs10 Y2 O8'
_cell_volume   579.31734398
_cell_formula_units_Z   2
loop_
 _symmetry_equiv_pos_site_id
 _symmetry_equiv_pos_as_xyz
  1  'x, y, z'
loop_
 _atom_site_type_symbol
 _atom_site_label
 _atom_site_symmetry_multiplicity
 _atom_site_fract_x
 _atom_site_fract_y
 _atom_site_fract_z
 _atom_site_occupancy
  Cs  Cs0  1  0.25795415  0.76270865  0.81310173  1
  Cs  Cs1  1  0.25795415  0.23729135  0.81310173  1
  Cs  Cs2  1  0.84013445  0.50000000  0.00000000  1
  Cs  Cs3  1  0.25795415  0.76270865  0.18689827  1
  Cs  Cs4  1  0.25795415  0.23729135  0.18689827  1
  Cs  Cs5  1  0.74204585  0.73729135  0.31310173  1
  Cs  Cs6  1  0.74204585  0.26270865  0.31310173  1
  Cs  Cs7  1  0.15986555  -0.00000000  0.50000000  1
  Cs  Cs8  1  0.74204585  0.73729135  0.68689827  1
  Cs  Cs9  1  0.74204585  0.26270865  0.68689827  1
  Y  Y10  1  0.78093280  -0.00000000  0.00000000  1
  Y  Y11  1  0.21906720  0.50000000  0.50000000  1
  O  O12  1  0.95174638  -0.00000000  0.81480475  1
  O  O13  1  0.61779122  0.78211345  0.00000000  1
  O  O14  1  0.61779122  0.21788655  0.00000000  1
  O  O15  1  0.95174638  -0.00000000  0.18519525  1
  O  O16  1  0.04825362  0.50000000  0.31480475  1
  O  O17  1  0.38220878  0.71788655  0.50000000  1
  O  O18  1  0.38220878  0.28211345  0.50000000  1
  O  O19  1  0.04825362  0.50000000  0.68519525  1
