# generated using pymatgen
data_Na2TiO3
_symmetry_space_group_name_H-M   'P 1'
_cell_length_a   5.30734520
_cell_length_b   5.30734520
_cell_length_c   10.84256332
_cell_angle_alpha   85.19901865
_cell_angle_beta   85.19901865
_cell_angle_gamma   120.02615100
_symmetry_Int_Tables_number   1
_chemical_formula_structural   Na2TiO3
_chemical_formula_sum   'Na8 Ti4 O12'
_cell_volume   260.69135244
_cell_formula_units_Z   4
loop_
 _symmetry_equiv_pos_site_id
 _symmetry_equiv_pos_as_xyz
  1  'x, y, z'
loop_
 _atom_site_type_symbol
 _atom_site_label
 _atom_site_symmetry_multiplicity
 _atom_site_fract_x
 _atom_site_fract_y
 _atom_site_fract_z
 _atom_site_occupancy
  Na  Na0  1  0.84328553  0.68522146  0.49954071  1
  Na  Na1  1  -0.00000000  0.50000000  0.00000000  1
  Na  Na2  1  0.91587800  0.08412200  0.25000000  1
  Na  Na3  1  0.31477854  0.15671447  0.00045929  1
  Na  Na4  1  0.50000000  0.00000000  0.50000000  1
  Na  Na5  1  0.68522146  0.84328553  0.99954071  1
  Na  Na6  1  0.08412200  0.91587800  0.75000000  1
  Na  Na7  1  0.15671447  0.31477854  0.50045929  1
  Ti  Ti8  1  0.74905223  0.25094777  0.75000000  1
  Ti  Ti9  1  0.58297490  0.41702510  0.25000000  1
  Ti  Ti10  1  0.41702510  0.58297490  0.75000000  1
  Ti  Ti11  1  0.25094777  0.74905223  0.25000000  1
  O  O12  1  0.95000618  0.74409084  0.14691399  1
  O  O13  1  0.67335879  0.50418174  0.85234751  1
  O  O14  1  0.88110086  0.42624044  0.35187210  1
  O  O15  1  0.49581826  0.32664121  0.64765249  1
  O  O16  1  0.74409084  0.95000618  0.64691399  1
  O  O17  1  0.42624044  0.88110086  0.85187210  1
  O  O18  1  0.57375956  0.11889914  0.14812790  1
  O  O19  1  0.25590916  0.04999382  0.35308601  1
  O  O20  1  0.50418174  0.67335879  0.35234751  1
  O  O21  1  0.11889914  0.57375956  0.64812790  1
  O  O22  1  0.32664121  0.49581826  0.14765249  1
  O  O23  1  0.04999382  0.25590916  0.85308601  1
