# generated using pymatgen
data_V2O3F
_symmetry_space_group_name_H-M   'P 1'
_cell_length_a   4.59440949
_cell_length_b   4.59440949
_cell_length_c   11.80744098
_cell_angle_alpha   90.00000000
_cell_angle_beta   90.00000000
_cell_angle_gamma   93.13925627
_symmetry_Int_Tables_number   1
_chemical_formula_structural   V2O3F
_chemical_formula_sum   'V8 O12 F4'
_cell_volume   248.86452031
_cell_formula_units_Z   4
loop_
 _symmetry_equiv_pos_site_id
 _symmetry_equiv_pos_as_xyz
  1  'x, y, z'
loop_
 _atom_site_type_symbol
 _atom_site_label
 _atom_site_symmetry_multiplicity
 _atom_site_fract_x
 _atom_site_fract_y
 _atom_site_fract_z
 _atom_site_occupancy
  V  V0  1  -0.00406107  0.00406107  0.62610875  1
  V  V1  1  -0.00406107  0.00406107  0.37389125  1
  V  V2  1  0.98083645  0.01916355  0.12460164  1
  V  V3  1  0.98083645  0.01916355  0.87539836  1
  V  V4  1  0.45702693  0.54297307  0.50000000  1
  V  V5  1  0.52204102  0.47795898  0.00000000  1
  V  V6  1  0.52708277  0.47291723  0.75139999  1
  V  V7  1  0.52708277  0.47291723  0.24860001  1
  O  O8  1  0.80328431  0.19671569  0.75092073  1
  O  O9  1  0.80328431  0.19671569  0.24907927  1
  O  O10  1  0.80214057  0.19785943  0.00000000  1
  O  O11  1  0.30094643  0.30169329  0.62463560  1
  O  O12  1  0.30094643  0.30169329  0.37536440  1
  O  O13  1  0.30210862  0.29505763  0.12671451  1
  O  O14  1  0.30210862  0.29505763  0.87328549  1
  O  O15  1  0.69830671  0.69905357  0.62463560  1
  O  O16  1  0.69830671  0.69905357  0.37536440  1
  O  O17  1  0.70494237  0.69789138  0.12671451  1
  O  O18  1  0.70494237  0.69789138  0.87328549  1
  O  O19  1  0.19256946  0.80743054  0.50000000  1
  F  F20  1  0.79585671  0.20414329  0.50000000  1
  F  F21  1  0.20090858  0.79909142  0.25047025  1
  F  F22  1  0.20165600  0.79834400  0.00000000  1
  F  F23  1  0.20090858  0.79909142  0.74952975  1
