# generated using pymatgen
data_Cs2WO4
_symmetry_space_group_name_H-M   'P 1'
_cell_length_a   6.53691261
_cell_length_b   7.50133793
_cell_length_c   8.29622776
_cell_angle_alpha   66.56550415
_cell_angle_beta   90.00000000
_cell_angle_gamma   64.16910883
_symmetry_Int_Tables_number   1
_chemical_formula_structural   Cs2WO4
_chemical_formula_sum   'Cs4 W2 O8'
_cell_volume   328.48162246
_cell_formula_units_Z   2
loop_
 _symmetry_equiv_pos_site_id
 _symmetry_equiv_pos_as_xyz
  1  'x, y, z'
loop_
 _atom_site_type_symbol
 _atom_site_label
 _atom_site_symmetry_multiplicity
 _atom_site_fract_x
 _atom_site_fract_y
 _atom_site_fract_z
 _atom_site_occupancy
  Cs  Cs0  1  0.51307727  0.97384546  0.24063952  1
  Cs  Cs1  1  0.15542506  0.68915089  0.74225065  1
  Cs  Cs2  1  0.84457494  0.31084911  0.25774935  1
  Cs  Cs3  1  0.48692273  0.02615454  0.75936048  1
  W  W4  1  0.17390799  0.65218401  0.22039540  1
  W  W5  1  0.82609201  0.34781599  0.77960460  1
  O  O6  1  0.09464173  0.81071554  0.34605071  1
  O  O7  1  0.68060343  0.63879214  0.63393900  1
  O  O8  1  0.08177339  0.28514402  0.91739781  1
  O  O9  1  0.63308259  0.28514402  0.91739781  1
  O  O10  1  0.91822661  0.71485598  0.08260219  1
  O  O11  1  0.36691741  0.71485598  0.08260219  1
  O  O12  1  0.31939657  0.36120786  0.36606100  1
  O  O13  1  0.90535827  0.18928446  0.65394929  1
