# generated using pymatgen
data_V6O5F19
_symmetry_space_group_name_H-M   'P 1'
_cell_length_a   5.16475139
_cell_length_b   5.38415812
_cell_length_c   13.85310085
_cell_angle_alpha   100.01494520
_cell_angle_beta   89.97810853
_cell_angle_gamma   90.30060771
_symmetry_Int_Tables_number   1
_chemical_formula_structural   V6O5F19
_chemical_formula_sum   'V6 O5 F19'
_cell_volume   379.34961765
_cell_formula_units_Z   1
loop_
 _symmetry_equiv_pos_site_id
 _symmetry_equiv_pos_as_xyz
  1  'x, y, z'
loop_
 _atom_site_type_symbol
 _atom_site_label
 _atom_site_symmetry_multiplicity
 _atom_site_fract_x
 _atom_site_fract_y
 _atom_site_fract_z
 _atom_site_occupancy
  V  V0  1  0.01034691  0.98520924  0.00012090  1
  V  V1  1  0.51742403  0.10853624  0.33093787  1
  V  V2  1  0.98024154  0.27671123  0.66415656  1
  V  V3  1  0.52784764  0.45621011  0.99664084  1
  V  V4  1  0.98035492  0.60960119  0.33111379  1
  V  V5  1  0.51733277  0.77572179  0.66418912  1
  O  O6  1  0.79738227  0.02666894  0.64077430  1
  O  O7  1  0.70899628  0.20679276  0.97541160  1
  O  O8  1  0.79733320  0.35968158  0.30779359  1
  O  O9  1  0.69875087  0.52687234  0.64095587  1
  O  O10  1  0.69876798  0.85971712  0.30758916  1
  F  F11  1  0.28204280  0.14784302  0.69381608  1
  F  F12  1  0.90799144  0.05534854  0.12161092  1
  F  F13  1  0.58825893  0.23009330  0.45336351  1
  F  F14  1  0.90706175  0.39703237  0.78644466  1
  F  F15  1  0.41160865  0.15006501  0.21497339  1
  F  F16  1  0.08270757  0.31824300  0.54770868  1
  F  F17  1  0.40850427  0.47514473  0.88027491  1
  F  F18  1  0.79959094  0.68918292  0.97324602  1
  F  F19  1  0.22049956  0.29950681  0.02718888  1
  F  F20  1  0.28186767  0.48080621  0.36111089  1
  F  F21  1  0.21403811  0.64582911  0.69420947  1
  F  F22  1  0.58266955  0.56603173  0.12105116  1
  F  F23  1  0.90716654  0.73094110  0.45328559  1
  F  F24  1  0.58770354  0.89759116  0.78666687  1
  F  F25  1  0.08279030  0.64968627  0.21451841  1
  F  F26  1  0.41180928  0.81622319  0.54808847  1
  F  F27  1  0.08144590  0.97591134  0.87677002  1
  F  F28  1  0.29351368  0.80391585  0.02501001  1
  F  F29  1  0.21394911  0.97888277  0.36097846  1
