# generated using pymatgen
data_VOF2
_symmetry_space_group_name_H-M   'P 1'
_cell_length_a   5.05185282
_cell_length_b   5.05723862
_cell_length_c   13.16344999
_cell_angle_alpha   89.47330044
_cell_angle_beta   89.89648719
_cell_angle_gamma   60.51454944
_symmetry_Int_Tables_number   1
_chemical_formula_structural   VOF2
_chemical_formula_sum   'V6 O6 F12'
_cell_volume   292.73358299
_cell_formula_units_Z   6
loop_
 _symmetry_equiv_pos_site_id
 _symmetry_equiv_pos_as_xyz
  1  'x, y, z'
loop_
 _atom_site_type_symbol
 _atom_site_label
 _atom_site_symmetry_multiplicity
 _atom_site_fract_x
 _atom_site_fract_y
 _atom_site_fract_z
 _atom_site_occupancy
  V  V0  1  0.96803524  -0.00024642  0.50706039  1
  V  V1  1  0.00340520  0.97041861  0.00839476  1
  V  V2  1  0.70130608  0.63862751  0.17226789  1
  V  V3  1  0.31816705  0.31087289  0.33810614  1
  V  V4  1  0.65916016  0.64165521  0.67472884  1
  V  V5  1  0.30975941  0.32348764  0.84264562  1
  O  O6  1  -0.00525420  0.41181155  0.24656514  1
  O  O7  1  0.91935654  0.74843631  0.08096869  1
  O  O8  1  0.25526861  0.09299245  0.41503135  1
  O  O9  1  0.58890601  0.42179309  0.74847648  1
  O  O10  1  0.75141169  0.92963732  0.58220493  1
  O  O11  1  0.09274735  0.25119160  0.91789405  1
  F  F12  1  0.60481445  0.00546667  0.24891804  1
  F  F13  1  0.94807156  0.33578995  0.58422462  1
  F  F14  1  0.69340503  0.04768508  0.90613869  1
  F  F15  1  0.71813987  0.34026402  0.07841309  1
  F  F16  1  0.66119042  0.28867161  0.41533519  1
  F  F17  1  0.99660606  0.61743186  0.75290219  1
  F  F18  1  0.38354778  0.01978408  0.74124015  1
  F  F19  1  0.39863144  0.59885765  0.24815749  1
  F  F20  1  0.34961015  0.72469598  0.57404674  1
  F  F21  1  0.29529372  0.65417348  0.91993157  1
  F  F22  1  0.33427606  0.93624440  0.08839699  1
  F  F23  1  0.05414131  0.69025947  0.40795299  1
