# generated using pymatgen
data_Zr2N2O
_symmetry_space_group_name_H-M   'P 1'
_cell_length_a   8.76555564
_cell_length_b   8.79193046
_cell_length_c   8.79927259
_cell_angle_alpha   109.46771139
_cell_angle_beta   109.44499001
_cell_angle_gamma   109.33759473
_symmetry_Int_Tables_number   1
_chemical_formula_structural   Zr2N2O
_chemical_formula_sum   'Zr16 N16 O8'
_cell_volume   523.07097423
_cell_formula_units_Z   8
loop_
 _symmetry_equiv_pos_site_id
 _symmetry_equiv_pos_as_xyz
  1  'x, y, z'
loop_
 _atom_site_type_symbol
 _atom_site_label
 _atom_site_symmetry_multiplicity
 _atom_site_fract_x
 _atom_site_fract_y
 _atom_site_fract_z
 _atom_site_occupancy
  Zr  Zr0  1  0.51239147  0.49939812  0.50093068  1
  Zr  Zr1  1  0.21832650  0.75606503  0.46176565  1
  Zr  Zr2  1  0.96445380  0.21338472  0.25606877  1
  Zr  Zr3  1  0.47111600  0.72034767  0.24733039  1
  Zr  Zr4  1  0.28435251  0.24168383  0.02949630  1
  Zr  Zr5  1  0.00275666  0.00877672  0.50045066  1
  Zr  Zr6  1  0.75677877  0.97053557  0.71198899  1
  Zr  Zr7  1  0.99065975  0.50255888  0.99257771  1
  Zr  Zr8  1  0.24507791  0.53572437  0.78568354  1
  Zr  Zr9  1  0.50169429  0.00691681  0.01158266  1
  Zr  Zr10  1  0.73655749  0.45813049  0.20792117  1
  Zr  Zr11  1  0.25088929  0.02858086  0.28696646  1
  Zr  Zr12  1  0.71883046  0.75046157  0.96908925  1
  Zr  Zr13  1  0.03137130  0.78882943  0.75551077  1
  Zr  Zr14  1  0.53687994  0.28080089  0.74922257  1
  Zr  Zr15  1  0.78375511  0.25025970  0.53609106  1
  N  N16  1  0.76928041  0.72683159  0.73724003  1
  N  N17  1  0.54531547  0.51416607  0.27543910  1
  N  N18  1  0.50745288  0.76677528  0.03796233  1
  N  N19  1  0.72839242  0.23615115  0.26837300  1
  N  N20  1  0.24068306  0.76804469  0.22934805  1
  N  N21  1  0.03369060  0.04709391  0.77174014  1
  N  N22  1  0.05183628  0.27456901  0.53476244  1
  N  N23  1  0.76259077  0.22828890  0.77818094  1
  N  N24  1  0.77162065  0.54518873  0.01165355  1
  N  N25  1  0.96671740  0.95992602  0.22651624  1
  N  N26  1  0.72579010  0.96458365  0.45618590  1
  N  N27  1  0.99417497  0.53608740  0.76560832  1
  N  N28  1  0.25965631  0.98760166  0.03255878  1
  N  N29  1  0.48559717  0.22489452  0.95487021  1
  N  N30  1  0.27186348  0.02695378  0.54602029  1
  N  N31  1  0.53131912  0.26410929  0.48810587  1
  O  O32  1  0.27236402  0.75794151  0.72326706  1
  O  O33  1  0.22653322  0.28007048  0.26239554  1
  O  O34  1  0.46164004  0.73653090  0.51656966  1
  O  O35  1  0.01330586  0.46648683  0.24049794  1
  O  O36  1  0.22533189  0.45145022  0.98414198  1
  O  O37  1  0.96008734  0.72358010  0.46764566  1
  O  O38  1  0.73668931  0.01159769  0.96527158  1
  O  O39  1  0.45217597  0.48862495  0.72296977  1
