# generated using pymatgen
data_CsOs2O9
_symmetry_space_group_name_H-M   'P 1'
_cell_length_a   7.79543182
_cell_length_b   7.79479104
_cell_length_c   10.56781172
_cell_angle_alpha   71.15942732
_cell_angle_beta   71.15498102
_cell_angle_gamma   42.87171420
_symmetry_Int_Tables_number   1
_chemical_formula_structural   CsOs2O9
_chemical_formula_sum   'Cs2 Os4 O18'
_cell_volume   409.74420669
_cell_formula_units_Z   2
loop_
 _symmetry_equiv_pos_site_id
 _symmetry_equiv_pos_as_xyz
  1  'x, y, z'
loop_
 _atom_site_type_symbol
 _atom_site_label
 _atom_site_symmetry_multiplicity
 _atom_site_fract_x
 _atom_site_fract_y
 _atom_site_fract_z
 _atom_site_occupancy
  Cs  Cs0  1  0.36022609  0.33580370  0.77257936  1
  Cs  Cs1  1  0.33576965  0.36040926  0.27251668  1
  Os  Os2  1  0.03035797  0.96530840  0.50238154  1
  Os  Os3  1  0.96531571  0.03039145  0.00230612  1
  Os  Os4  1  0.61820701  0.74582830  0.62432945  1
  Os  Os5  1  0.74587730  0.61822373  0.12441652  1
  O  O6  1  0.13051195  0.09199587  0.37566954  1
  O  O7  1  0.09212451  0.13047853  0.87558545  1
  O  O8  1  0.98443240  0.00375281  0.66631103  1
  O  O9  1  0.00380913  0.98438052  0.16626618  1
  O  O10  1  0.16186715  0.67434705  0.48383520  1
  O  O11  1  0.67429472  0.16200702  0.98375826  1
  O  O12  1  0.72117546  0.16103552  0.47621672  1
  O  O13  1  0.16100825  0.72115900  0.97610299  1
  O  O14  1  0.43607692  0.70207431  0.53770883  1
  O  O15  1  0.70212085  0.43609951  0.03776050  1
  O  O16  1  0.77013752  0.75235923  0.70957615  1
  O  O17  1  0.75232009  0.77031938  0.20960879  1
  O  O18  1  0.37057583  0.06722877  0.57521213  1
  O  O19  1  0.06729858  0.37046361  0.07534471  1
  O  O20  1  0.54529626  0.59457423  0.75306900  1
  O  O21  1  0.59456096  0.54538744  0.25317706  1
  O  O22  1  0.85401730  0.57923466  0.49442010  1
  O  O23  1  0.57941739  0.85393369  0.99445170  1
