# generated using pymatgen
data_VOF3
_symmetry_space_group_name_H-M   'P 1'
_cell_length_a   8.07873528
_cell_length_b   8.07873528
_cell_length_c   3.90662956
_cell_angle_alpha   90.00000000
_cell_angle_beta   90.00000000
_cell_angle_gamma   90.00000000
_symmetry_Int_Tables_number   1
_chemical_formula_structural   VOF3
_chemical_formula_sum   'V4 O4 F12'
_cell_volume   254.96994315
_cell_formula_units_Z   4
loop_
 _symmetry_equiv_pos_site_id
 _symmetry_equiv_pos_as_xyz
  1  'x, y, z'
loop_
 _atom_site_type_symbol
 _atom_site_label
 _atom_site_symmetry_multiplicity
 _atom_site_fract_x
 _atom_site_fract_y
 _atom_site_fract_z
 _atom_site_occupancy
  V  V0  1  0.86296705  0.63703295  0.16920241  1
  V  V1  1  0.36296705  0.86296705  0.83079759  1
  V  V2  1  0.63703295  0.13703295  0.83079759  1
  V  V3  1  0.13703295  0.36296705  0.16920241  1
  O  O4  1  0.87175365  0.62824635  0.76004325  1
  O  O5  1  0.37175365  0.87175365  0.23995675  1
  O  O6  1  0.62824635  0.12824635  0.23995675  1
  O  O7  1  0.12824635  0.37175365  0.76004325  1
  F  F8  1  0.10122952  0.60122952  0.24919057  1
  F  F9  1  0.65468862  0.61141164  0.25238600  1
  F  F10  1  0.38858836  0.65468862  0.74761400  1
  F  F11  1  0.88858836  0.84531138  0.25238600  1
  F  F12  1  0.15468862  0.88858836  0.74761400  1
  F  F13  1  0.60122952  0.89877048  0.75080943  1
  F  F14  1  0.39877048  0.10122952  0.75080943  1
  F  F15  1  0.84531138  0.11141164  0.74761400  1
  F  F16  1  0.11141164  0.15468862  0.25238600  1
  F  F17  1  0.61141164  0.34531138  0.74761400  1
  F  F18  1  0.34531138  0.38858836  0.25238600  1
  F  F19  1  0.89877048  0.39877048  0.24919057  1
