# generated using pymatgen
data_Zr2N2O
_symmetry_space_group_name_H-M   'P 1'
_cell_length_a   8.78810602
_cell_length_b   8.79205674
_cell_length_c   8.79387858
_cell_angle_alpha   109.43133311
_cell_angle_beta   109.61087537
_cell_angle_gamma   109.35774054
_symmetry_Int_Tables_number   1
_chemical_formula_structural   Zr2N2O
_chemical_formula_sum   'Zr16 N16 O8'
_cell_volume   523.13784287
_cell_formula_units_Z   8
loop_
 _symmetry_equiv_pos_site_id
 _symmetry_equiv_pos_as_xyz
  1  'x, y, z'
loop_
 _atom_site_type_symbol
 _atom_site_label
 _atom_site_symmetry_multiplicity
 _atom_site_fract_x
 _atom_site_fract_y
 _atom_site_fract_z
 _atom_site_occupancy
  Zr  Zr0  1  0.75375267  0.22374848  0.96776063  1
  Zr  Zr1  1  0.00994644  0.01069758  0.00356830  1
  Zr  Zr2  1  0.71531807  0.46557552  0.75521254  1
  Zr  Zr3  1  0.00608739  0.50864915  0.49718854  1
  Zr  Zr4  1  0.51380900  0.50834274  0.01035677  1
  Zr  Zr5  1  0.78721123  0.03688747  0.24956188  1
  Zr  Zr6  1  0.53696974  0.24796310  0.27850038  1
  Zr  Zr7  1  0.02355816  0.24276242  0.78775570  1
  Zr  Zr8  1  0.24857879  0.28494693  0.53108636  1
  Zr  Zr9  1  0.74512240  0.71639651  0.46023536  1
  Zr  Zr10  1  0.45897783  0.73718970  0.71131398  1
  Zr  Zr11  1  0.96842075  0.75320897  0.22192191  1
  Zr  Zr12  1  0.49972888  0.98775633  0.49102034  1
  Zr  Zr13  1  0.28571315  0.53533965  0.25384079  1
  Zr  Zr14  1  0.20969013  0.96002940  0.75015393  1
  Zr  Zr15  1  0.25867208  0.79281307  0.04006026  1
  N  N16  1  0.77067381  0.23869872  0.72326760  1
  N  N17  1  0.51201478  0.54310701  0.77139821  1
  N  N18  1  0.95697848  0.96889444  0.72972721  1
  N  N19  1  0.76080028  0.27154750  0.22903909  1
  N  N20  1  0.04623123  0.03461343  0.27264073  1
  N  N21  1  0.54440356  0.77520184  0.51668226  1
  N  N22  1  0.74022906  0.46864235  0.01121542  1
  N  N23  1  0.23802923  0.72567836  0.77196337  1
  N  N24  1  0.48923239  0.45485016  0.22666688  1
  N  N25  1  0.27000165  0.04189065  0.03528793  1
  N  N26  1  0.22318399  0.48344095  0.45324895  1
  N  N27  1  0.72268933  0.77261688  0.23683277  1
  N  N28  1  0.53443380  0.98822885  0.26370583  1
  N  N29  1  0.03020009  0.27043460  0.04358670  1
  N  N30  1  0.00939657  0.73686473  0.46698550  1
  N  N31  1  0.22720219  0.75958337  0.26737120  1
  O  O32  1  0.99229665  0.26062499  0.53535511  1
  O  O33  1  0.96112811  0.72567910  0.94766697  1
  O  O34  1  0.46645421  0.01749140  0.74292397  1
  O  O35  1  0.77275631  0.50950911  0.54783714  1
  O  O36  1  0.27035135  0.22600127  0.75688492  1
  O  O37  1  0.72466340  0.95501427  0.96640203  1
  O  O38  1  0.45730767  0.23146189  0.49103824  1
  O  O39  1  0.25778718  0.52761512  0.98273330  1
