# generated using pymatgen
data_V2O3F
_symmetry_space_group_name_H-M   'P 1'
_cell_length_a   5.45627793
_cell_length_b   5.45627793
_cell_length_c   8.64621162
_cell_angle_alpha   86.96914869
_cell_angle_beta   86.96914869
_cell_angle_gamma   75.22705751
_symmetry_Int_Tables_number   1
_chemical_formula_structural   V2O3F
_chemical_formula_sum   'V8 O12 F4'
_cell_volume   248.34219396
_cell_formula_units_Z   4
loop_
 _symmetry_equiv_pos_site_id
 _symmetry_equiv_pos_as_xyz
  1  'x, y, z'
loop_
 _atom_site_type_symbol
 _atom_site_label
 _atom_site_symmetry_multiplicity
 _atom_site_fract_x
 _atom_site_fract_y
 _atom_site_fract_z
 _atom_site_occupancy
  V  V0  1  0.63309086  0.62239898  0.87572345  1
  V  V1  1  0.89471164  0.85974269  0.62577707  1
  V  V2  1  0.22693390  0.28055765  0.74698971  1
  V  V3  1  0.47960943  0.52039057  0.50000000  1
  V  V4  1  0.71944235  0.77306610  0.25301029  1
  V  V5  1  0.14025731  0.10528836  0.37422293  1
  V  V6  1  0.37760102  0.36690914  0.12427655  1
  V  V7  1  0.04058799  0.95941201  0.00000000  1
  O  O8  1  0.94752738  0.55958565  0.75000108  1
  O  O9  1  0.96782827  0.97477541  0.22595523  1
  O  O10  1  0.22523604  0.22382235  0.97170366  1
  O  O11  1  0.72451643  0.73275619  0.47533717  1
  O  O12  1  0.47619433  0.47324370  0.72803453  1
  O  O13  1  0.02522459  0.03217173  0.77404477  1
  O  O14  1  0.77617765  0.77476396  0.02829634  1
  O  O15  1  0.26724381  0.27548357  0.52466283  1
  O  O16  1  0.52675630  0.52380567  0.27196547  1
  O  O17  1  0.19859238  0.80140762  0.50000000  1
  O  O18  1  0.44041435  0.05247262  0.24999892  1
  O  O19  1  0.30799154  0.69200846  0.00000000  1
  F  F20  1  0.79800058  0.20199942  0.50000000  1
  F  F21  1  0.54879983  0.95150738  0.74939754  1
  F  F22  1  0.70876840  0.29123160  0.00000000  1
  F  F23  1  0.04849262  0.45120017  0.25060246  1
