# generated using pymatgen
data_Rb2S2O7
_symmetry_space_group_name_H-M   'P 1'
_cell_length_a   7.48394293
_cell_length_b   7.61274567
_cell_length_c   14.98677916
_cell_angle_alpha   59.66723108
_cell_angle_beta   90.00000000
_cell_angle_gamma   90.00000000
_symmetry_Int_Tables_number   1
_chemical_formula_structural   Rb2S2O7
_chemical_formula_sum   'Rb8 S8 O28'
_cell_volume   736.96126620
_cell_formula_units_Z   4
loop_
 _symmetry_equiv_pos_site_id
 _symmetry_equiv_pos_as_xyz
  1  'x, y, z'
loop_
 _atom_site_type_symbol
 _atom_site_label
 _atom_site_symmetry_multiplicity
 _atom_site_fract_x
 _atom_site_fract_y
 _atom_site_fract_z
 _atom_site_occupancy
  Rb  Rb0  1  0.19615766  0.68442091  0.12886569  1
  Rb  Rb1  1  0.86633049  0.19931920  0.15900953  1
  Rb  Rb2  1  0.36633049  0.80068080  0.34099047  1
  Rb  Rb3  1  0.69615766  0.31557909  0.37113431  1
  Rb  Rb4  1  0.30384234  0.68442091  0.62886569  1
  Rb  Rb5  1  0.63366951  0.19931920  0.65900953  1
  Rb  Rb6  1  0.13366951  0.80068080  0.84099047  1
  Rb  Rb7  1  0.80384234  0.31557909  0.87113431  1
  S  S8  1  0.32339541  0.23988173  0.08151098  1
  S  S9  1  0.70368383  0.75714661  0.11365081  1
  S  S10  1  0.20368383  0.24285339  0.38634919  1
  S  S11  1  0.82339541  0.76011827  0.41848902  1
  S  S12  1  0.17660459  0.23988173  0.58151098  1
  S  S13  1  0.79631617  0.75714661  0.61365081  1
  S  S14  1  0.29631617  0.24285339  0.88634919  1
  S  S15  1  0.67660459  0.76011827  0.91848902  1
  O  O16  1  0.58658975  0.75911695  0.01971995  1
  O  O17  1  0.21621832  0.42254495  0.04079039  1
  O  O18  1  0.80295266  0.94514291  0.06751721  1
  O  O19  1  0.48038813  0.23728973  0.13730648  1
  O  O20  1  0.21690061  0.05603413  0.13322676  1
  O  O21  1  0.81641722  0.57850781  0.15507433  1
  O  O22  1  0.56198183  0.74162837  0.18242977  1
  O  O23  1  0.06198183  0.25837163  0.31757023  1
  O  O24  1  0.71690061  0.94396587  0.36677324  1
  O  O25  1  0.98038813  0.76271027  0.36269352  1
  O  O26  1  0.31641722  0.42149219  0.34492567  1
  O  O27  1  0.30295266  0.05485709  0.43248279  1
  O  O28  1  0.71621832  0.57745505  0.45920961  1
  O  O29  1  0.08658975  0.24088305  0.48028005  1
  O  O30  1  0.91341025  0.75911695  0.51971995  1
  O  O31  1  0.28378168  0.42254495  0.54079039  1
  O  O32  1  0.69704734  0.94514291  0.56751721  1
  O  O33  1  0.68358278  0.57850781  0.65507433  1
  O  O34  1  0.01961187  0.23728973  0.63730648  1
  O  O35  1  0.28309939  0.05603413  0.63322676  1
  O  O36  1  0.93801817  0.74162837  0.68242977  1
  O  O37  1  0.43801817  0.25837163  0.81757023  1
  O  O38  1  0.18358278  0.42149219  0.84492567  1
  O  O39  1  0.78309939  0.94396587  0.86677324  1
  O  O40  1  0.51961187  0.76271027  0.86269352  1
  O  O41  1  0.19704734  0.05485709  0.93248279  1
  O  O42  1  0.78378168  0.57745505  0.95920961  1
  O  O43  1  0.41341025  0.24088305  0.98028005  1
