# generated using pymatgen
data_VOF2
_symmetry_space_group_name_H-M   'P 1'
_cell_length_a   5.08883604
_cell_length_b   5.08467542
_cell_length_c   13.09214331
_cell_angle_alpha   89.70086817
_cell_angle_beta   89.38748469
_cell_angle_gamma   60.49836178
_symmetry_Int_Tables_number   1
_chemical_formula_structural   VOF2
_chemical_formula_sum   'V6 O6 F12'
_cell_volume   294.82029549
_cell_formula_units_Z   6
loop_
 _symmetry_equiv_pos_site_id
 _symmetry_equiv_pos_as_xyz
  1  'x, y, z'
loop_
 _atom_site_type_symbol
 _atom_site_label
 _atom_site_symmetry_multiplicity
 _atom_site_fract_x
 _atom_site_fract_y
 _atom_site_fract_z
 _atom_site_occupancy
  V  V0  1  -0.00058939  0.02900597  0.49731121  1
  V  V1  1  0.96788893  0.99540744  0.00517829  1
  V  V2  1  0.37154394  0.31849992  0.83817194  1
  V  V3  1  0.69434376  0.70086374  0.66755972  1
  V  V4  1  0.32955980  0.33569531  0.33425239  1
  V  V5  1  0.66012155  0.64332905  0.17153242  1
  O  O6  1  0.59699007  0.98931617  0.74780208  1
  O  O7  1  0.65686414  0.24756844  0.91585386  1
  O  O8  1  0.91260949  0.74603451  0.58270982  1
  O  O9  1  0.57806956  0.42781102  0.24731568  1
  O  O10  1  0.08202717  0.24179402  0.41983797  1
  O  O11  1  0.76401187  0.91840934  0.08535329  1
  F  F12  1  -0.00097769  0.40489928  0.74771035  1
  F  F13  1  0.66373357  0.06542515  0.41634031  1
  F  F14  1  0.95313189  0.32520602  0.08349690  1
  F  F15  1  0.72820538  0.34187516  0.58755379  1
  F  F16  1  0.38625083  0.01380134  0.24513307  1
  F  F17  1  0.99228629  0.61077398  0.25386702  1
  F  F18  1  0.23727764  0.07955470  0.91234931  1
  F  F19  1  0.40763582  0.58854610  0.74755916  1
  F  F20  1  0.27134275  0.65889441  0.42083882  1
  F  F21  1  0.35651997  0.72597753  0.06978712  1
  F  F22  1  0.06015654  0.66830738  0.91164877  1
  F  F23  1  0.33099912  0.92300601  0.59083468  1
