# generated using pymatgen
data_Tb2Ti2O7
_symmetry_space_group_name_H-M   'P 1'
_cell_length_a   5.33223989
_cell_length_b   7.50252599
_cell_length_c   13.07367708
_cell_angle_alpha   81.63215842
_cell_angle_beta   90.00000000
_cell_angle_gamma   90.00000000
_symmetry_Int_Tables_number   1
_chemical_formula_structural   Tb2Ti2O7
_chemical_formula_sum   'Tb8 Ti8 O28'
_cell_volume   517.44802022
_cell_formula_units_Z   4
loop_
 _symmetry_equiv_pos_site_id
 _symmetry_equiv_pos_as_xyz
  1  'x, y, z'
loop_
 _atom_site_type_symbol
 _atom_site_label
 _atom_site_symmetry_multiplicity
 _atom_site_fract_x
 _atom_site_fract_y
 _atom_site_fract_z
 _atom_site_occupancy
  Tb  Tb0  1  0.22823918  0.35410654  0.11429937  1
  Tb  Tb1  1  0.76268049  0.28448518  0.36924406  1
  Tb  Tb2  1  0.15153870  0.85774479  0.06462293  1
  Tb  Tb3  1  0.72823918  0.64589346  0.88570063  1
  Tb  Tb4  1  0.74013984  0.76696803  0.42169028  1
  Tb  Tb5  1  0.26268049  0.71551482  0.63075594  1
  Tb  Tb6  1  0.24013984  0.23303197  0.57830972  1
  Tb  Tb7  1  0.65153870  0.14225521  0.93537707  1
  Ti  Ti8  1  0.21524821  0.41076142  0.82670877  1
  Ti  Ti9  1  0.74356592  0.46994671  0.62495121  1
  Ti  Ti10  1  0.74315044  0.96980788  0.62120484  1
  Ti  Ti11  1  0.24356592  0.53005329  0.37504879  1
  Ti  Ti12  1  0.71524821  0.58923858  0.17329123  1
  Ti  Ti13  1  0.22557783  0.92799551  0.82051196  1
  Ti  Ti14  1  0.24315044  0.03019212  0.37879516  1
  Ti  Ti15  1  0.72557783  0.07200449  0.17948804  1
  O  O16  1  0.97044181  0.05636923  0.47650801  1
  O  O17  1  0.05381687  0.12692817  0.26817306  1
  O  O18  1  0.55324099  0.51248207  0.73474243  1
  O  O19  1  0.07649841  0.42408073  0.67788224  1
  O  O20  1  0.41956796  0.41259387  0.94616170  1
  O  O21  1  0.63326200  0.32654292  0.19540467  1
  O  O22  1  0.91423527  0.36688971  0.88298974  1
  O  O23  1  0.35265385  0.27250762  0.40911050  1
  O  O24  1  0.47341298  0.54391299  0.52531030  1
  O  O25  1  0.05324099  0.48751793  0.26525757  1
  O  O26  1  0.97341298  0.45608701  0.47468970  1
  O  O27  1  0.91956796  0.58740613  0.05383830  1
  O  O28  1  0.44212159  0.86135963  0.93116451  1
  O  O29  1  0.13326200  0.67345708  0.80459533  1
  O  O30  1  0.85265385  0.72749238  0.59088950  1
  O  O31  1  0.83315500  0.82755355  0.18706941  1
  O  O32  1  0.16557074  0.77817191  0.38550137  1
  O  O33  1  0.94734870  0.92521052  0.90744579  1
  O  O34  1  0.41423527  0.63311029  0.11701026  1
  O  O35  1  0.07348420  0.98895880  0.67949952  1
  O  O36  1  0.57649841  0.57591927  0.32211776  1
  O  O37  1  0.47044181  0.94363077  0.52349199  1
  O  O38  1  0.55381687  0.87307183  0.73182694  1
  O  O39  1  0.66557074  0.22182809  0.61449863  1
  O  O40  1  0.94212159  0.13864037  0.06883549  1
  O  O41  1  0.33315500  0.17244645  0.81293059  1
  O  O42  1  0.44734870  0.07478948  0.09255421  1
  O  O43  1  0.57348420  0.01104120  0.32050048  1
