# generated using pymatgen
data_Y2GeO5
_symmetry_space_group_name_H-M   'P 1'
_cell_length_a   3.69471878
_cell_length_b   10.26812966
_cell_length_c   11.01853464
_cell_angle_alpha   90.00000000
_cell_angle_beta   90.00000000
_cell_angle_gamma   90.00000000
_symmetry_Int_Tables_number   1
_chemical_formula_structural   Y2GeO5
_chemical_formula_sum   'Y8 Ge4 O20'
_cell_volume   418.01953081
_cell_formula_units_Z   4
loop_
 _symmetry_equiv_pos_site_id
 _symmetry_equiv_pos_as_xyz
  1  'x, y, z'
loop_
 _atom_site_type_symbol
 _atom_site_label
 _atom_site_symmetry_multiplicity
 _atom_site_fract_x
 _atom_site_fract_y
 _atom_site_fract_z
 _atom_site_occupancy
  Y  Y0  1  0.25000000  0.10767889  0.21921215  1
  Y  Y1  1  0.25000000  0.13631182  0.55565910  1
  Y  Y2  1  0.75000000  0.36368818  0.05565910  1
  Y  Y3  1  0.75000000  0.39232111  0.71921215  1
  Y  Y4  1  0.25000000  0.60767889  0.28078785  1
  Y  Y5  1  0.25000000  0.63631182  0.94434090  1
  Y  Y6  1  0.75000000  0.86368818  0.44434090  1
  Y  Y7  1  0.75000000  0.89232111  0.78078785  1
  Ge  Ge8  1  0.25000000  0.17722008  0.87783503  1
  Ge  Ge9  1  0.75000000  0.32277992  0.37783503  1
  Ge  Ge10  1  0.25000000  0.67722008  0.62216497  1
  Ge  Ge11  1  0.75000000  0.82277992  0.12216497  1
  O  O12  1  0.75000000  0.00787823  0.60489260  1
  O  O13  1  0.25000000  0.01104738  0.84424595  1
  O  O14  1  0.25000000  0.22429628  0.03604839  1
  O  O15  1  0.75000000  0.23005388  0.88015606  1
  O  O16  1  0.75000000  0.23986297  0.23109344  1
  O  O17  1  0.25000000  0.26013703  0.73109344  1
  O  O18  1  0.25000000  0.26994612  0.38015606  1
  O  O19  1  0.75000000  0.27570372  0.53604839  1
  O  O20  1  0.75000000  0.48895262  0.34424595  1
  O  O21  1  0.25000000  0.49212177  0.10489260  1
  O  O22  1  0.75000000  0.50787823  0.89510740  1
  O  O23  1  0.25000000  0.51104738  0.65575405  1
  O  O24  1  0.25000000  0.72429628  0.46395161  1
  O  O25  1  0.75000000  0.73005388  0.61984394  1
  O  O26  1  0.75000000  0.73986297  0.26890656  1
  O  O27  1  0.25000000  0.76013703  0.76890656  1
  O  O28  1  0.25000000  0.76994612  0.11984394  1
  O  O29  1  0.75000000  0.77570372  0.96395161  1
  O  O30  1  0.75000000  0.98895262  0.15575405  1
  O  O31  1  0.25000000  0.99212177  0.39510740  1
