# generated using pymatgen
data_Sr2Hf7O16
_symmetry_space_group_name_H-M   'P 1'
_cell_length_a   9.58991507
_cell_length_b   9.58991507
_cell_length_c   9.58991499
_cell_angle_alpha   38.66123742
_cell_angle_beta   38.66123741
_cell_angle_gamma   38.66124342
_symmetry_Int_Tables_number   1
_chemical_formula_structural   Sr2Hf7O16
_chemical_formula_sum   'Sr2 Hf7 O16'
_cell_volume   309.34569718
_cell_formula_units_Z   1
loop_
 _symmetry_equiv_pos_site_id
 _symmetry_equiv_pos_as_xyz
  1  'x, y, z'
loop_
 _atom_site_type_symbol
 _atom_site_label
 _atom_site_symmetry_multiplicity
 _atom_site_fract_x
 _atom_site_fract_y
 _atom_site_fract_z
 _atom_site_occupancy
  Sr  Sr0  1  0.33367499  0.33367499  0.33367499  1
  Sr  Sr1  1  0.66632501  0.66632501  0.66632501  1
  Hf  Hf2  1  -0.00000000  -0.00000000  0.00000000  1
  Hf  Hf3  1  0.88689833  0.25232565  0.51464868  1
  Hf  Hf4  1  0.48535132  0.11310167  0.74767435  1
  Hf  Hf5  1  0.74767435  0.48535132  0.11310167  1
  Hf  Hf6  1  0.25232565  0.51464868  0.88689833  1
  Hf  Hf7  1  0.51464868  0.88689833  0.25232565  1
  Hf  Hf8  1  0.11310167  0.74767435  0.48535132  1
  O  O9  1  0.23576008  0.23576008  0.23576008  1
  O  O10  1  0.96278565  0.22923230  0.67960873  1
  O  O11  1  0.85067791  0.14976764  0.40980779  1
  O  O12  1  0.59019221  0.14932209  0.85023236  1
  O  O13  1  0.32039127  0.03721435  0.77076770  1
  O  O14  1  0.77076770  0.32039127  0.03721435  1
  O  O15  1  0.85023236  0.59019221  0.14932209  1
  O  O16  1  0.57013733  0.57013733  0.57013733  1
  O  O17  1  0.42986267  0.42986267  0.42986267  1
  O  O18  1  0.14976764  0.40980779  0.85067791  1
  O  O19  1  0.22923230  0.67960873  0.96278565  1
  O  O20  1  0.67960873  0.96278565  0.22923230  1
  O  O21  1  0.40980779  0.85067791  0.14976764  1
  O  O22  1  0.14932209  0.85023236  0.59019221  1
  O  O23  1  0.03721435  0.77076770  0.32039127  1
  O  O24  1  0.76423992  0.76423992  0.76423992  1
