# generated using pymatgen
data_Y2SeO2
_symmetry_space_group_name_H-M   'P 1'
_cell_length_a   3.83060580
_cell_length_b   3.83059377
_cell_length_c   6.79949620
_cell_angle_alpha   89.99996311
_cell_angle_beta   90.00000121
_cell_angle_gamma   120.00008716
_symmetry_Int_Tables_number   1
_chemical_formula_structural   Y2SeO2
_chemical_formula_sum   'Y2 Se1 O2'
_cell_volume   86.40533252
_cell_formula_units_Z   1
loop_
 _symmetry_equiv_pos_site_id
 _symmetry_equiv_pos_as_xyz
  1  'x, y, z'
loop_
 _atom_site_type_symbol
 _atom_site_label
 _atom_site_symmetry_multiplicity
 _atom_site_fract_x
 _atom_site_fract_y
 _atom_site_fract_z
 _atom_site_occupancy
  Y  Y0  1  0.33327748  0.66666876  0.29100558  1
  Y  Y1  1  0.66660868  0.33333124  0.70899441  1
  Se  Se2  1  0.00002428  -0.00000000  0.00000001  1
  O  O3  1  0.33327627  0.66666435  0.62565033  1
  O  O4  1  0.66661229  0.33333565  0.37434967  1
