# generated using pymatgen
data_Li2SnP2O7
_symmetry_space_group_name_H-M   'P 1'
_cell_length_a   10.27695800
_cell_length_b   10.44555781
_cell_length_c   12.03035369
_cell_angle_alpha   75.13476798
_cell_angle_beta   89.96415190
_cell_angle_gamma   89.87018210
_symmetry_Int_Tables_number   1
_chemical_formula_structural   Li2SnP2O7
_chemical_formula_sum   'Li16 Sn8 P16 O56'
_cell_volume   1248.21588891
_cell_formula_units_Z   8
loop_
 _symmetry_equiv_pos_site_id
 _symmetry_equiv_pos_as_xyz
  1  'x, y, z'
loop_
 _atom_site_type_symbol
 _atom_site_label
 _atom_site_symmetry_multiplicity
 _atom_site_fract_x
 _atom_site_fract_y
 _atom_site_fract_z
 _atom_site_occupancy
  Li  Li0  1  0.73001000  0.08808300  0.57692900  1
  Li  Li1  1  0.41800200  0.17821400  0.43605600  1
  Li  Li2  1  0.11101100  0.06954200  0.97383700  1
  Li  Li3  1  0.90322000  0.35839300  0.03876700  1
  Li  Li4  1  0.40227800  0.14039200  0.96068900  1
  Li  Li5  1  0.61142700  0.43010700  0.02654400  1
  Li  Li6  1  0.91806100  0.32186000  0.56370200  1
  Li  Li7  1  0.23052100  0.41287000  0.42316000  1
  Li  Li8  1  0.76947900  0.58713000  0.57684000  1
  Li  Li9  1  0.08193900  0.67814000  0.43629800  1
  Li  Li10  1  0.38857300  0.56989300  0.97345600  1
  Li  Li11  1  0.59772200  0.85960800  0.03931100  1
  Li  Li12  1  0.09678000  0.64160700  0.96123300  1
  Li  Li13  1  0.88898900  0.93045800  0.02616300  1
  Li  Li14  1  0.58199800  0.82178600  0.56394400  1
  Li  Li15  1  0.26999000  0.91191700  0.42307100  1
  Sn  Sn16  1  0.90108600  0.20361100  0.32990600  1
  Sn  Sn17  1  0.22405900  0.25656700  0.16995200  1
  Sn  Sn18  1  0.72392500  0.24320400  0.83020100  1
  Sn  Sn19  1  0.40066500  0.29666700  0.67016400  1
  Sn  Sn20  1  0.59933500  0.70333300  0.32983600  1
  Sn  Sn21  1  0.27607500  0.75679600  0.16979900  1
  Sn  Sn22  1  0.77594100  0.74343300  0.83004800  1
  Sn  Sn23  1  0.09891400  0.79638900  0.67009500  1
  P  P24  1  0.46677900  0.03109700  0.22896600  1
  P  P25  1  0.69791100  0.13433400  0.09402000  1
  P  P26  1  0.95316600  0.05240300  0.74722000  1
  P  P27  1  0.14654000  0.12680600  0.54988700  1
  P  P28  1  0.64653900  0.37301200  0.45006000  1
  P  P29  1  0.45305700  0.44771500  0.25296000  1
  P  P30  1  0.03405900  0.53108100  0.22945500  1
  P  P31  1  0.19743100  0.36595700  0.90599100  1
  P  P32  1  0.80256900  0.63404300  0.09400900  1
  P  P33  1  0.96594100  0.46891900  0.77054500  1
  P  P34  1  0.54694300  0.55228500  0.74704000  1
  P  P35  1  0.35346100  0.62698800  0.54994000  1
  P  P36  1  0.85346000  0.87319400  0.45011300  1
  P  P37  1  0.04683400  0.94759700  0.25278000  1
  P  P38  1  0.30208900  0.86566600  0.90598000  1
  P  P39  1  0.53322100  0.96890300  0.77103400  1
  O  O40  1  0.41946100  0.03810100  0.34756700  1
  O  O41  1  0.84603900  0.99963400  0.49052400  1
  O  O42  1  0.08346500  0.09043100  0.25843300  1
  O  O43  1  0.37852900  0.10871100  0.13050000  1
  O  O44  1  0.60986500  0.10128300  0.21192500  1
  O  O45  1  0.82287700  0.19561100  0.12383400  1
  O  O46  1  0.61813100  0.23978700  0.00297800  1
  O  O47  1  0.28400600  0.99243700  0.94511900  1
  O  O48  1  0.09623100  0.08375200  0.68509800  1
  O  O49  1  0.96775500  0.06153500  0.87068700  1
  O  O50  1  0.51365500  0.11079600  0.78560900  1
  O  O51  1  0.28268500  0.18581800  0.55371700  1
  O  O52  1  0.85879900  0.15367700  0.67414000  1
  O  O53  1  0.05401600  0.23572600  0.48198400  1
  O  O54  1  0.55479600  0.26376700  0.51801700  1
  O  O55  1  0.35874300  0.34682500  0.32599300  1
  O  O56  1  0.78323300  0.31454800  0.44612300  1
  O  O57  1  0.01537400  0.38917300  0.21472200  1
  O  O58  1  0.59621600  0.41567800  0.31491200  1
  O  O59  1  0.46758100  0.43862300  0.12941900  1
  O  O60  1  0.78444200  0.50681700  0.05534500  1
  O  O61  1  0.11712800  0.26151900  0.99729000  1
  O  O62  1  0.32205600  0.30380600  0.87656300  1
  O  O63  1  0.10941700  0.39897100  0.78801300  1
  O  O64  1  0.58336900  0.40939000  0.74103500  1
  O  O65  1  0.87754200  0.39114700  0.86873900  1
  O  O66  1  0.08074400  0.53801100  0.34810200  1
  O  O67  1  0.34678400  0.50053700  0.50955300  1
  O  O68  1  0.65321600  0.49946300  0.49044700  1
  O  O69  1  0.91925600  0.46198900  0.65189800  1
  O  O70  1  0.12245800  0.60885300  0.13126100  1
  O  O71  1  0.41663100  0.59061000  0.25896500  1
  O  O72  1  0.89058300  0.60102900  0.21198700  1
  O  O73  1  0.67794400  0.69619400  0.12343700  1
  O  O74  1  0.88287200  0.73848100  0.00271000  1
  O  O75  1  0.21555800  0.49318300  0.94465500  1
  O  O76  1  0.53241900  0.56137700  0.87058100  1
  O  O77  1  0.40378400  0.58432200  0.68508800  1
  O  O78  1  0.98462600  0.61082700  0.78527800  1
  O  O79  1  0.21676700  0.68545200  0.55387700  1
  O  O80  1  0.64125700  0.65317500  0.67400700  1
  O  O81  1  0.44520400  0.73623300  0.48198300  1
  O  O82  1  0.94598400  0.76427400  0.51801600  1
  O  O83  1  0.14120100  0.84632300  0.32586000  1
  O  O84  1  0.71731500  0.81418200  0.44628300  1
  O  O85  1  0.48634500  0.88920400  0.21439100  1
  O  O86  1  0.03224500  0.93846500  0.12931300  1
  O  O87  1  0.90376900  0.91624800  0.31490200  1
  O  O88  1  0.71599400  0.00756300  0.05488100  1
  O  O89  1  0.38186900  0.76021300  0.99702200  1
  O  O90  1  0.17712300  0.80438900  0.87616600  1
  O  O91  1  0.39013500  0.89871700  0.78807500  1
  O  O92  1  0.62147100  0.89128900  0.86950000  1
  O  O93  1  0.91653500  0.90956900  0.74156700  1
  O  O94  1  0.15396100  0.00036600  0.50947600  1
  O  O95  1  0.58053900  0.96189900  0.65243300  1
