# generated using pymatgen
data_NaI
_symmetry_space_group_name_H-M   'P 1'
_cell_length_a   4.42902700
_cell_length_b   4.42902700
_cell_length_c   8.93089121
_cell_angle_alpha   104.35688930
_cell_angle_beta   104.35688930
_cell_angle_gamma   90.00000000
_symmetry_Int_Tables_number   1
_chemical_formula_structural   NaI
_chemical_formula_sum   'Na2 I2'
_cell_volume   164.06609480
_cell_formula_units_Z   2
loop_
 _symmetry_equiv_pos_site_id
 _symmetry_equiv_pos_as_xyz
  1  'x, y, z'
loop_
 _atom_site_type_symbol
 _atom_site_label
 _atom_site_symmetry_multiplicity
 _atom_site_fract_x
 _atom_site_fract_y
 _atom_site_fract_z
 _atom_site_occupancy
  Na  Na0  1  0.12500000  0.37500000  0.25000000  1
  Na  Na1  1  0.87500000  0.62500000  0.75000000  1
  I  I2  1  0.62500000  0.87500000  0.25000000  1
  I  I3  1  0.37500000  0.12500000  0.75000000  1
