# generated using pymatgen
data_Sb2(SO4)3
_symmetry_space_group_name_H-M   'P 1'
_cell_length_a   8.77123947
_cell_length_b   8.62041632
_cell_length_c   15.44041431
_cell_angle_alpha   56.46086584
_cell_angle_beta   90.00000000
_cell_angle_gamma   90.00000000
_symmetry_Int_Tables_number   1
_chemical_formula_structural   Sb2(SO4)3
_chemical_formula_sum   'Sb8 S12 O48'
_cell_volume   973.10177807
_cell_formula_units_Z   4
loop_
 _symmetry_equiv_pos_site_id
 _symmetry_equiv_pos_as_xyz
  1  'x, y, z'
loop_
 _atom_site_type_symbol
 _atom_site_label
 _atom_site_symmetry_multiplicity
 _atom_site_fract_x
 _atom_site_fract_y
 _atom_site_fract_z
 _atom_site_occupancy
  Sb  Sb0  1  0.46684375  0.35945895  0.38811554  1
  Sb  Sb1  1  0.96684375  0.64054105  0.11188446  1
  Sb  Sb2  1  0.51442349  0.88735325  0.88331510  1
  Sb  Sb3  1  0.01442349  0.11264675  0.61668490  1
  Sb  Sb4  1  0.98557651  0.88735325  0.38331510  1
  Sb  Sb5  1  0.48557651  0.11264675  0.11668490  1
  Sb  Sb6  1  0.03315625  0.35945895  0.88811554  1
  Sb  Sb7  1  0.53315625  0.64054105  0.61188446  1
  S  S8  1  0.74741958  0.47331074  0.49863402  1
  S  S9  1  0.63849011  0.72822397  0.18633343  1
  S  S10  1  0.84678810  0.08712790  0.81623323  1
  S  S11  1  0.13849011  0.27177603  0.31366657  1
  S  S12  1  0.34678810  0.91287210  0.68376677  1
  S  S13  1  0.24741958  0.52668926  0.00136598  1
  S  S14  1  0.75258042  0.47331074  0.99863402  1
  S  S15  1  0.65321190  0.08712790  0.31623323  1
  S  S16  1  0.86150989  0.72822397  0.68633343  1
  S  S17  1  0.15321190  0.91287210  0.18376677  1
  S  S18  1  0.36150989  0.27177603  0.81366657  1
  S  S19  1  0.25258042  0.52668926  0.50136598  1
  O  O20  1  0.13250323  0.39295612  0.56217815  1
  O  O21  1  0.16458475  0.76435719  0.16509677  1
  O  O22  1  0.29707537  0.51347539  0.41229251  1
  O  O23  1  0.37157245  0.13353169  0.78461177  1
  O  O24  1  0.61354934  0.51356687  0.43086500  1
  O  O25  1  0.78664162  0.63296240  0.22101822  1
  O  O26  1  0.61366310  0.81778697  0.07648055  1
  O  O27  1  0.96239547  0.15766217  0.72860201  1
  O  O28  1  0.69788165  0.06862869  0.77617973  1
  O  O29  1  0.79751123  0.28181368  0.54055764  1
  O  O30  1  0.89660140  0.91160015  0.90552764  1
  O  O31  1  0.51228122  0.58835497  0.24343171  1
  O  O32  1  0.01228122  0.41164503  0.25656829  1
  O  O33  1  0.39660140  0.08839985  0.59447236  1
  O  O34  1  0.29751123  0.71818632  0.95944236  1
  O  O35  1  0.19788165  0.93137131  0.72382027  1
  O  O36  1  0.11366310  0.18221303  0.42351945  1
  O  O37  1  0.46239547  0.84233783  0.77139799  1
  O  O38  1  0.28664162  0.36703760  0.27898178  1
  O  O39  1  0.11354934  0.48643313  0.06913500  1
  O  O40  1  0.79707537  0.48652461  0.08770749  1
  O  O41  1  0.66458475  0.23564281  0.33490323  1
  O  O42  1  0.87157245  0.86646831  0.71538823  1
  O  O43  1  0.63250323  0.60704388  0.93782185  1
  O  O44  1  0.36749677  0.39295612  0.06217815  1
  O  O45  1  0.12842755  0.13353169  0.28461177  1
  O  O46  1  0.33541525  0.76435719  0.66509677  1
  O  O47  1  0.20292463  0.51347539  0.91229251  1
  O  O48  1  0.88645066  0.51356687  0.93086500  1
  O  O49  1  0.71335838  0.63296240  0.72101822  1
  O  O50  1  0.53760453  0.15766217  0.22860201  1
  O  O51  1  0.88633690  0.81778697  0.57648055  1
  O  O52  1  0.80211835  0.06862869  0.27617973  1
  O  O53  1  0.70248877  0.28181368  0.04055764  1
  O  O54  1  0.60339860  0.91160015  0.40552764  1
  O  O55  1  0.98771878  0.58835497  0.74343171  1
  O  O56  1  0.48771878  0.41164503  0.75656829  1
  O  O57  1  0.10339860  0.08839985  0.09447236  1
  O  O58  1  0.20248877  0.71818632  0.45944236  1
  O  O59  1  0.30211835  0.93137131  0.22382027  1
  O  O60  1  0.03760453  0.84233783  0.27139799  1
  O  O61  1  0.38633690  0.18221303  0.92351945  1
  O  O62  1  0.21335838  0.36703760  0.77898178  1
  O  O63  1  0.38645066  0.48643313  0.56913500  1
  O  O64  1  0.62842755  0.86646831  0.21538823  1
  O  O65  1  0.70292463  0.48652461  0.58770749  1
  O  O66  1  0.83541525  0.23564281  0.83490323  1
  O  O67  1  0.86749677  0.60704388  0.43782185  1
