# generated using pymatgen
data_V4(OF3)3
_symmetry_space_group_name_H-M   'P 1'
_cell_length_a   5.09105777
_cell_length_b   5.27655229
_cell_length_c   16.96575499
_cell_angle_alpha   88.97661200
_cell_angle_beta   98.13278797
_cell_angle_gamma   118.64304497
_symmetry_Int_Tables_number   1
_chemical_formula_structural   V4(OF3)3
_chemical_formula_sum   'V8 O6 F18'
_cell_volume   395.30345204
_cell_formula_units_Z   2
loop_
 _symmetry_equiv_pos_site_id
 _symmetry_equiv_pos_as_xyz
  1  'x, y, z'
loop_
 _atom_site_type_symbol
 _atom_site_label
 _atom_site_symmetry_multiplicity
 _atom_site_fract_x
 _atom_site_fract_y
 _atom_site_fract_z
 _atom_site_occupancy
  V  V0  1  0.74395776  0.36537922  0.12653613  1
  V  V1  1  0.75276874  0.90782826  0.62480976  1
  V  V2  1  0.50448699  0.71167491  0.25146959  1
  V  V3  1  0.52971237  0.25266271  0.74978982  1
  V  V4  1  0.24727137  0.13425300  0.37131872  1
  V  V5  1  0.21997726  0.61549826  0.87216123  1
  V  V6  1  0.97721201  0.01089327  0.00131514  1
  V  V7  1  0.98376225  0.48445118  0.50318665  1
  O  O8  1  0.79824708  0.20411817  0.56070042  1
  O  O9  1  0.83560792  0.19007022  0.04337440  1
  O  O10  1  0.28459835  0.40999600  0.31464588  1
  O  O11  1  0.85324790  0.43331944  0.83276673  1
  O  O12  1  0.65553061  0.54209354  0.20798877  1
  O  O13  1  0.66653966  0.06226357  0.70745930  1
  F  F14  1  0.32201798  0.14168655  0.08819778  1
  F  F15  1  0.76484349  0.66140906  0.05742724  1
  F  F16  1  0.72356832  0.06936766  0.19504953  1
  F  F17  1  0.30805112  0.92600283  0.28988444  1
  F  F18  1  0.32617027  0.68572745  0.58712367  1
  F  F19  1  0.34696662  0.48093418  0.78664898  1
  F  F20  1  0.16800810  0.58909807  0.16328212  1
  F  F21  1  0.17350085  0.09711589  0.66331350  1
  F  F22  1  0.19820441  0.29632599  0.46553541  1
  F  F23  1  0.72095259  0.57897790  0.68302123  1
  F  F24  1  0.81275159  0.89615694  0.34334223  1
  F  F25  1  0.81744862  0.71920743  0.53369727  1
  F  F26  1  0.17776201  0.79336604  0.96361501  1
  F  F27  1  0.68271830  0.31865190  0.40978743  1
  F  F28  1  0.28576303  0.96291006  0.81645533  1
  F  F29  1  0.23124382  0.31409940  0.93785081  1
  F  F30  1  0.21624513  0.80749921  0.43837685  1
  F  F31  1  0.67086545  0.83696767  0.90986764  1
