# generated using pymatgen
data_Ca3WO6
_symmetry_space_group_name_H-M   'P 1'
_cell_length_a   6.54214033
_cell_length_b   6.54214033
_cell_length_c   6.54214099
_cell_angle_alpha   91.64715566
_cell_angle_beta   91.64715571
_cell_angle_gamma   91.64716318
_symmetry_Int_Tables_number   1
_chemical_formula_structural   Ca3WO6
_chemical_formula_sum   'Ca6 W2 O12'
_cell_volume   279.64712280
_cell_formula_units_Z   2
loop_
 _symmetry_equiv_pos_site_id
 _symmetry_equiv_pos_as_xyz
  1  'x, y, z'
loop_
 _atom_site_type_symbol
 _atom_site_label
 _atom_site_symmetry_multiplicity
 _atom_site_fract_x
 _atom_site_fract_y
 _atom_site_fract_z
 _atom_site_occupancy
  Ca  Ca0  1  0.93404872  0.43611579  0.74720780  1
  Ca  Ca1  1  0.74720780  0.93404872  0.43611579  1
  Ca  Ca2  1  0.56388421  0.25279220  0.06595128  1
  Ca  Ca3  1  0.43611579  0.74720780  0.93404872  1
  Ca  Ca4  1  0.25279220  0.06595128  0.56388421  1
  Ca  Ca5  1  0.06595128  0.56388421  0.25279220  1
  W  W6  1  -0.00000000  -0.00000000  0.00000000  1
  W  W7  1  0.50000000  0.50000000  0.50000000  1
  O  O8  1  0.93820861  0.28142845  0.06902881  1
  O  O9  1  0.93097119  0.06179139  0.71857155  1
  O  O10  1  0.78144272  0.57766231  0.45266360  1
  O  O11  1  0.71857155  0.93097119  0.06179139  1
  O  O12  1  0.57766231  0.45266360  0.78144272  1
  O  O13  1  0.54733640  0.21855728  0.42233769  1
  O  O14  1  0.45266360  0.78144272  0.57766231  1
  O  O15  1  0.42233769  0.54733640  0.21855728  1
  O  O16  1  0.28142845  0.06902881  0.93820861  1
  O  O17  1  0.21855728  0.42233769  0.54733640  1
  O  O18  1  0.06902881  0.93820861  0.28142845  1
  O  O19  1  0.06179139  0.71857155  0.93097119  1
