# generated using pymatgen
data_Li4CrO4
_symmetry_space_group_name_H-M   'P 1'
_cell_length_a   5.33394455
_cell_length_b   10.66654712
_cell_length_c   6.04485033
_cell_angle_alpha   90.00006326
_cell_angle_beta   89.99994815
_cell_angle_gamma   93.88324542
_symmetry_Int_Tables_number   1
_chemical_formula_structural   Li4CrO4
_chemical_formula_sum   'Li16 Cr4 O16'
_cell_volume   343.13077625
_cell_formula_units_Z   4
loop_
 _symmetry_equiv_pos_site_id
 _symmetry_equiv_pos_as_xyz
  1  'x, y, z'
loop_
 _atom_site_type_symbol
 _atom_site_label
 _atom_site_symmetry_multiplicity
 _atom_site_fract_x
 _atom_site_fract_y
 _atom_site_fract_z
 _atom_site_occupancy
  Li  Li0  1  0.16048154  0.41974705  0.49995376  1
  Li  Li1  1  0.16048512  0.91974538  0.49995347  1
  Li  Li2  1  0.16048444  0.41974738  0.00004797  1
  Li  Li3  1  0.16048232  0.91974539  0.00004735  1
  Li  Li4  1  0.83951908  0.08025428  0.99995101  1
  Li  Li5  1  0.83951607  0.58025249  0.99995247  1
  Li  Li6  1  0.83951927  0.08025436  0.50004286  1
  Li  Li7  1  0.83951556  0.58025212  0.50004891  1
  Li  Li8  1  0.12482092  0.21017942  0.74999997  1
  Li  Li9  1  0.12481572  0.71016972  0.75000044  1
  Li  Li10  1  0.57971355  0.43760735  0.25000003  1
  Li  Li11  1  0.57971637  0.93760678  0.24999984  1
  Li  Li12  1  0.87519195  0.28983459  0.24999976  1
  Li  Li13  1  0.87518390  0.78982477  0.25000004  1
  Li  Li14  1  0.42028126  0.06239070  0.75000002  1
  Li  Li15  1  0.42027916  0.56238963  0.75000024  1
  Cr  Cr16  1  0.33997491  0.66995451  0.25000044  1
  Cr  Cr17  1  0.66002724  0.33004216  0.74999981  1
  Cr  Cr18  1  0.33996628  0.16998067  0.24999974  1
  Cr  Cr19  1  0.66003769  0.83001744  0.74999996  1
  O  O20  1  0.26571456  0.33023366  0.24999982  1
  O  O21  1  0.26570564  0.83025478  0.25000074  1
  O  O22  1  0.33955196  0.36719314  0.74999997  1
  O  O23  1  0.33953682  0.86719570  0.75000066  1
  O  O24  1  0.73428166  0.16974254  0.74999865  1
  O  O25  1  0.73426787  0.66976421  0.75000051  1
  O  O26  1  0.66047282  0.13281038  0.24999860  1
  O  O27  1  0.66045545  0.63281323  0.25000070  1
  O  O28  1  0.20378731  0.10193089  0.49598770  1
  O  O29  1  0.20379078  0.60193673  0.49597874  1
  O  O30  1  0.79620709  0.39806137  0.50402390  1
  O  O31  1  0.79621448  0.89806692  0.50401308  1
  O  O32  1  0.79620755  0.39806149  0.99597561  1
  O  O33  1  0.79621477  0.89806687  0.99598699  1
  O  O34  1  0.20378711  0.10193104  0.00401182  1
  O  O35  1  0.20379079  0.60193690  0.00402245  1
