# generated using pymatgen
data_KAs
_symmetry_space_group_name_H-M   'P 1'
_cell_length_a   6.44796365
_cell_length_b   6.70952004
_cell_length_c   11.64504492
_cell_angle_alpha   90.00000000
_cell_angle_beta   90.00000000
_cell_angle_gamma   90.00000000
_symmetry_Int_Tables_number   1
_chemical_formula_structural   KAs
_chemical_formula_sum   'K8 As8'
_cell_volume   503.79656611
_cell_formula_units_Z   8
loop_
 _symmetry_equiv_pos_site_id
 _symmetry_equiv_pos_as_xyz
  1  'x, y, z'
loop_
 _atom_site_type_symbol
 _atom_site_label
 _atom_site_symmetry_multiplicity
 _atom_site_fract_x
 _atom_site_fract_y
 _atom_site_fract_z
 _atom_site_occupancy
  K  K0  1  0.08233120  0.60179559  0.96243380  1
  K  K1  1  0.58233120  0.39820441  0.53756620  1
  K  K2  1  0.41766880  0.10179559  0.03756620  1
  K  K3  1  0.91766880  0.89820441  0.46243380  1
  K  K4  1  0.34837698  0.85681349  0.66779130  1
  K  K5  1  0.84837698  0.14318651  0.83220870  1
  K  K6  1  0.15162302  0.35681349  0.33220870  1
  K  K7  1  0.65162302  0.64318651  0.16779130  1
  As  As8  1  0.84299444  0.68520391  0.71716879  1
  As  As9  1  0.34299444  0.31479609  0.78283121  1
  As  As10  1  0.65700556  0.18520391  0.28283121  1
  As  As11  1  0.15700556  0.81479609  0.21716879  1
  As  As12  1  0.58108845  0.57084727  0.86230127  1
  As  As13  1  0.08108745  0.42915273  0.63769873  1
  As  As14  1  0.91891155  0.07084727  0.13769873  1
  As  As15  1  0.41891255  0.92915273  0.36230127  1
