# generated using pymatgen
data_LuCrO3
_symmetry_space_group_name_H-M   'P 1'
_cell_length_a   5.13477912
_cell_length_b   5.48498586
_cell_length_c   7.45708665
_cell_angle_alpha   90.00000000
_cell_angle_beta   90.00000000
_cell_angle_gamma   90.00000000
_symmetry_Int_Tables_number   1
_chemical_formula_structural   LuCrO3
_chemical_formula_sum   'Lu4 Cr4 O12'
_cell_volume   210.02281173
_cell_formula_units_Z   4
loop_
 _symmetry_equiv_pos_site_id
 _symmetry_equiv_pos_as_xyz
  1  'x, y, z'
loop_
 _atom_site_type_symbol
 _atom_site_label
 _atom_site_symmetry_multiplicity
 _atom_site_fract_x
 _atom_site_fract_y
 _atom_site_fract_z
 _atom_site_occupancy
  Lu  Lu0  1  0.02247452  0.92647791  0.75000000  1
  Lu  Lu1  1  0.47752548  0.42647791  0.75000000  1
  Lu  Lu2  1  0.52247452  0.57352209  0.25000000  1
  Lu  Lu3  1  0.97752548  0.07352209  0.25000000  1
  Cr  Cr4  1  0.00000000  0.50000000  -0.00000000  1
  Cr  Cr5  1  0.00000000  0.50000000  0.50000000  1
  Cr  Cr6  1  0.50000000  -0.00000000  -0.00000000  1
  Cr  Cr7  1  0.50000000  -0.00000000  0.50000000  1
  O  O8  1  0.12348163  0.45328916  0.25000000  1
  O  O9  1  0.18748743  0.19349269  0.56242740  1
  O  O10  1  0.18748743  0.19349269  0.93757260  1
  O  O11  1  0.31251257  0.69349269  0.56242740  1
  O  O12  1  0.31251257  0.69349269  0.93757260  1
  O  O13  1  0.37651837  0.95328916  0.25000000  1
  O  O14  1  0.62348163  0.04671084  0.75000000  1
  O  O15  1  0.68748743  0.30650731  0.06242740  1
  O  O16  1  0.68748743  0.30650731  0.43757260  1
  O  O17  1  0.81251257  0.80650731  0.06242740  1
  O  O18  1  0.81251257  0.80650731  0.43757260  1
  O  O19  1  0.87651837  0.54671084  0.75000000  1
