# generated using pymatgen
data_Te(S2O7)2
_symmetry_space_group_name_H-M   'P 1'
_cell_length_a   6.83444585
_cell_length_b   6.83457817
_cell_length_c   12.02354469
_cell_angle_alpha   80.22742539
_cell_angle_beta   80.43135356
_cell_angle_gamma   77.47752078
_symmetry_Int_Tables_number   1
_chemical_formula_structural   Te(S2O7)2
_chemical_formula_sum   'Te2 S8 O28'
_cell_volume   535.39832560
_cell_formula_units_Z   2
loop_
 _symmetry_equiv_pos_site_id
 _symmetry_equiv_pos_as_xyz
  1  'x, y, z'
loop_
 _atom_site_type_symbol
 _atom_site_label
 _atom_site_symmetry_multiplicity
 _atom_site_fract_x
 _atom_site_fract_y
 _atom_site_fract_z
 _atom_site_occupancy
  Te  Te0  1  0.06471281  0.94575303  0.75067353  1
  Te  Te1  1  0.93976851  0.05484936  0.25018967  1
  S  S2  1  0.46811861  0.92192631  0.85608566  1
  S  S3  1  0.92828287  0.45587520  0.35284802  1
  S  S4  1  0.19831174  0.68841722  0.99885918  1
  S  S5  1  0.30992194  0.80500032  0.50605074  1
  S  S6  1  0.69899708  0.18701525  0.50248463  1
  S  S7  1  0.80156075  0.30632907  0.00393381  1
  S  S8  1  0.21839861  0.49129104  0.68367553  1
  S  S9  1  0.53177076  0.07469624  0.15050819  1
  O  O10  1  0.67734993  0.88105140  0.81613703  1
  O  O11  1  0.88329845  0.66648265  0.31490502  1
  O  O12  1  0.35806202  0.91852923  0.75123290  1
  O  O13  1  0.42742586  0.71913959  0.93344162  1
  O  O14  1  0.62154117  0.90067216  0.09869182  1
  O  O15  1  0.82477323  0.23781067  0.89686406  1
  O  O16  1  0.51138126  0.76879078  0.52827430  1
  O  O17  1  0.90824078  0.34914771  0.25035954  1
  O  O18  1  0.16576255  0.95098862  0.57867700  1
  O  O19  1  0.73234372  0.41552286  0.43778596  1
  O  O20  1  0.06181191  0.84192699  0.92486466  1
  O  O21  1  0.26238443  0.84774247  0.39311506  1
  O  O22  1  0.79713420  0.50964556  0.01209162  1
  O  O23  1  0.77264232  0.15862377  0.60871193  1
  O  O24  1  0.41164605  0.46014229  0.71731843  1
  O  O25  1  0.20274560  0.48545097  0.98910130  1
  O  O26  1  0.93978658  0.15408516  0.07941314  1
  O  O27  1  0.06714266  0.65679603  0.74694355  1
  O  O28  1  0.21913247  0.59428301  0.55410562  1
  O  O29  1  0.84124430  0.04934835  0.42472198  1
  O  O30  1  0.17709693  0.75156101  0.10761153  1
  O  O31  1  0.49214658  0.19795575  0.49858057  1
  O  O32  1  0.37387235  0.09224776  0.91037549  1
  O  O33  1  0.64451721  0.08079909  0.25373840  1
  O  O34  1  0.57413874  0.27496512  0.07040233  1
  O  O35  1  0.11457722  0.32998798  0.69077749  1
  O  O36  1  0.10567770  0.36115944  0.40044420  1
  O  O37  1  0.32244812  0.12172851  0.19011348  1
