# generated using pymatgen
data_Tm2Te5O13
_symmetry_space_group_name_H-M   'P 1'
_cell_length_a   6.95121100
_cell_length_b   8.73573703
_cell_length_c   10.69560570
_cell_angle_alpha   89.00120903
_cell_angle_beta   87.11704145
_cell_angle_gamma   74.73381650
_symmetry_Int_Tables_number   1
_chemical_formula_structural   Tm2Te5O13
_chemical_formula_sum   'Tm4 Te10 O26'
_cell_volume   625.76234066
_cell_formula_units_Z   2
loop_
 _symmetry_equiv_pos_site_id
 _symmetry_equiv_pos_as_xyz
  1  'x, y, z'
loop_
 _atom_site_type_symbol
 _atom_site_label
 _atom_site_symmetry_multiplicity
 _atom_site_fract_x
 _atom_site_fract_y
 _atom_site_fract_z
 _atom_site_occupancy
  Tm  Tm0  1  0.44066500  0.47579400  0.82040600  1
  Tm  Tm1  1  0.55086200  0.52737100  0.17318000  1
  Tm  Tm2  1  0.00488400  0.26544100  0.75343200  1
  Tm  Tm3  1  0.00659400  0.74141400  0.24042600  1
  Te  Te4  1  0.26968900  0.39331500  0.49589900  1
  Te  Te5  1  0.45164000  0.90141000  0.29672600  1
  Te  Te6  1  0.29795200  0.87982000  0.97574800  1
  Te  Te7  1  0.72086900  0.61183800  0.51369800  1
  Te  Te8  1  0.84147500  0.18907200  0.35298000  1
  Te  Te9  1  0.71140200  0.13250500  0.02701200  1
  Te  Te10  1  0.15587900  0.80857400  0.64518300  1
  Te  Te11  1  0.11900200  0.35792700  0.11508200  1
  Te  Te12  1  0.56303700  0.10455800  0.70264400  1
  Te  Te13  1  0.88388700  0.64835900  0.88895000  1
  O  O14  1  0.32015300  0.73050800  0.28111600  1
  O  O15  1  0.64754500  0.01154600  0.87443300  1
  O  O16  1  0.34155200  0.51201200  0.62190000  1
  O  O17  1  0.05400100  0.81148600  0.04153500  1
  O  O18  1  0.33225900  0.22383200  0.78189400  1
  O  O19  1  0.46186500  0.19378500  0.51993500  1
  O  O20  1  0.93515400  0.97744000  0.30553500  1
  O  O21  1  0.46677500  0.67828300  0.99624300  1
  O  O22  1  0.07379100  0.01032400  0.68787600  1
  O  O23  1  0.12869100  0.48488400  0.88741200  1
  O  O24  1  0.67632900  0.77455800  0.22647100  1
  O  O25  1  0.95962500  0.65391500  0.42553900  1
  O  O26  1  0.94342900  0.17282800  0.96373300  1
  O  O27  1  0.92417100  0.73071200  0.71771500  1
  O  O28  1  0.52400600  0.32641800  0.00166000  1
  O  O29  1  0.87896900  0.50759000  0.10239900  1
  O  O30  1  0.03801500  0.35863800  0.56603200  1
  O  O31  1  0.65247000  0.48642800  0.38075200  1
  O  O32  1  0.34449200  0.98924000  0.12520200  1
  O  O33  1  0.66248200  0.25878400  0.22301600  1
  O  O34  1  0.06273100  0.27177700  0.27931400  1
  O  O35  1  0.75943800  0.50949800  0.81840700  1
  O  O36  1  0.22735100  0.50821800  0.18248700  1
  O  O37  1  0.54104600  0.80824600  0.48387000  1
  O  O38  1  0.68584200  0.26709100  0.72115700  1
  O  O39  1  0.34234900  0.73903400  0.77746300  1
