# generated using pymatgen
data_RbSb
_symmetry_space_group_name_H-M   'P 1'
_cell_length_a   7.26320687
_cell_length_b   7.38776068
_cell_length_c   12.96582661
_cell_angle_alpha   90.00000000
_cell_angle_beta   90.00000000
_cell_angle_gamma   90.00000000
_symmetry_Int_Tables_number   1
_chemical_formula_structural   RbSb
_chemical_formula_sum   'Rb8 Sb8'
_cell_volume   695.73113936
_cell_formula_units_Z   8
loop_
 _symmetry_equiv_pos_site_id
 _symmetry_equiv_pos_as_xyz
  1  'x, y, z'
loop_
 _atom_site_type_symbol
 _atom_site_label
 _atom_site_symmetry_multiplicity
 _atom_site_fract_x
 _atom_site_fract_y
 _atom_site_fract_z
 _atom_site_occupancy
  Rb  Rb0  1  0.07907410  0.59924863  0.96109697  1
  Rb  Rb1  1  0.57907410  0.40075137  0.53890303  1
  Rb  Rb2  1  0.42092590  0.09924863  0.03890303  1
  Rb  Rb3  1  0.92092590  0.90075137  0.46109697  1
  Rb  Rb4  1  0.34403219  0.85080132  0.66762876  1
  Rb  Rb5  1  0.84403219  0.14919868  0.83237124  1
  Rb  Rb6  1  0.15596781  0.35080132  0.33237124  1
  Rb  Rb7  1  0.65596781  0.64919868  0.16762876  1
  Sb  Sb8  1  0.84119527  0.69419690  0.71557174  1
  Sb  Sb9  1  0.34119527  0.30580310  0.78442826  1
  Sb  Sb10  1  0.65880473  0.19419690  0.28442826  1
  Sb  Sb11  1  0.15880473  0.80580310  0.21557174  1
  Sb  Sb12  1  0.57770221  0.57935017  0.86902055  1
  Sb  Sb13  1  0.07770221  0.42064983  0.63097945  1
  Sb  Sb14  1  0.92229779  0.07935017  0.13097845  1
  Sb  Sb15  1  0.42229779  0.92064983  0.36902055  1
