# generated using pymatgen
data_Hf2N2O
_symmetry_space_group_name_H-M   'P 1'
_cell_length_a   8.66074018
_cell_length_b   8.66428492
_cell_length_c   8.68052157
_cell_angle_alpha   109.46646677
_cell_angle_beta   109.54351248
_cell_angle_gamma   109.30201909
_symmetry_Int_Tables_number   1
_chemical_formula_structural   Hf2N2O
_chemical_formula_sum   'Hf16 N16 O8'
_cell_volume   502.05795849
_cell_formula_units_Z   8
loop_
 _symmetry_equiv_pos_site_id
 _symmetry_equiv_pos_as_xyz
  1  'x, y, z'
loop_
 _atom_site_type_symbol
 _atom_site_label
 _atom_site_symmetry_multiplicity
 _atom_site_fract_x
 _atom_site_fract_y
 _atom_site_fract_z
 _atom_site_occupancy
  Hf  Hf0  1  0.00394186  0.00804743  0.51201346  1
  Hf  Hf1  1  0.78115031  0.03102074  0.74085947  1
  Hf  Hf2  1  0.24643267  0.27828527  0.02756471  1
  Hf  Hf3  1  0.75552471  0.21789459  0.46040717  1
  Hf  Hf4  1  0.96901177  0.74702348  0.71877886  1
  Hf  Hf5  1  0.46083741  0.74723021  0.21629412  1
  Hf  Hf6  1  0.71459606  0.45601812  0.24657225  1
  Hf  Hf7  1  0.01130980  0.51538096  0.00871917  1
  Hf  Hf8  1  0.49748294  0.00338295  0.98900400  1
  Hf  Hf9  1  0.28025170  0.53148589  0.74558300  1
  Hf  Hf10  1  0.49203981  0.48850082  0.49870655  1
  Hf  Hf11  1  0.53209392  0.25092075  0.78706438  1
  Hf  Hf12  1  0.03999113  0.25855205  0.29199492  1
  Hf  Hf13  1  0.74920589  0.70493118  0.96501197  1
  Hf  Hf14  1  0.25632277  0.78931410  0.53876051  1
  Hf  Hf15  1  0.21376907  0.96750721  0.25305081  1
  N  N16  1  0.72347247  0.95247873  0.46447546  1
  N  N17  1  0.73968568  0.46673444  0.51363921  1
  N  N18  1  0.77089823  0.23401040  0.22403654  1
  N  N19  1  0.23014664  0.48770900  0.95648089  1
  N  N20  1  0.53767497  0.98937117  0.76284705  1
  N  N21  1  0.77741094  0.51412089  0.05046719  1
  N  N22  1  0.27192766  0.22534183  0.25859580  1
  N  N23  1  0.03383598  0.27072754  0.54325997  1
  N  N24  1  0.22776888  0.76206440  0.77334630  1
  N  N25  1  0.00626661  0.73970876  0.96635720  1
  N  N26  1  0.45523827  0.22943289  0.99097266  1
  N  N27  1  0.25954486  0.53307466  0.48234686  1
  N  N28  1  0.24223462  0.72919444  0.27249584  1
  N  N29  1  0.04179113  0.03079866  0.77246330  1
  N  N30  1  0.49329008  0.46113422  0.73015425  1
  N  N31  1  0.26945788  0.04707297  0.53317432  1
  O  O32  1  0.51455821  0.54913211  0.27619248  1
  O  O33  1  0.94992204  0.96241177  0.22619895  1
  O  O34  1  0.76512245  0.27247994  0.72950385  1
  O  O35  1  0.55211761  0.77921557  0.01861514  1
  O  O36  1  0.98296685  0.25994063  0.03051196  1
  O  O37  1  0.72375601  0.77420824  0.73722290  1
  O  O38  1  0.96382068  0.72747863  0.45206544  1
  O  O39  1  0.46313145  0.00666638  0.23419209  1
