# generated using pymatgen
data_Na8CoO6
_symmetry_space_group_name_H-M   'P 1'
_cell_length_a   6.25427664
_cell_length_b   6.25427709
_cell_length_c   12.52529541
_cell_angle_alpha   89.99999982
_cell_angle_beta   89.99999496
_cell_angle_gamma   120.00084407
_symmetry_Int_Tables_number   1
_chemical_formula_structural   Na8CoO6
_chemical_formula_sum   'Na16 Co2 O12'
_cell_volume   424.29617877
_cell_formula_units_Z   2
loop_
 _symmetry_equiv_pos_site_id
 _symmetry_equiv_pos_as_xyz
  1  'x, y, z'
loop_
 _atom_site_type_symbol
 _atom_site_label
 _atom_site_symmetry_multiplicity
 _atom_site_fract_x
 _atom_site_fract_y
 _atom_site_fract_z
 _atom_site_occupancy
  Na  Na0  1  -0.00003015  0.70376471  0.76997920  1
  Na  Na1  1  -0.00004541  0.61177902  0.12371366  1
  Na  Na2  1  0.00004328  0.38818438  0.62381297  1
  Na  Na3  1  0.00002976  0.29623805  0.26998462  1
  Na  Na4  1  0.33333374  0.66666625  0.41233751  1
  Na  Na5  1  0.33333438  0.66666755  0.91228831  1
  Na  Na6  1  0.29623239  0.29623242  0.76997881  1
  Na  Na7  1  0.38817890  0.38817920  0.12370598  1
  Na  Na8  1  0.61185428  0.61185426  0.62380480  1
  Na  Na9  1  0.29623798  0.00003018  0.26998463  1
  Na  Na10  1  0.70376470  0.70376482  0.26998410  1
  Na  Na11  1  0.38818430  0.00004320  0.62381300  1
  Na  Na12  1  0.66666734  0.33333454  0.91228843  1
  Na  Na13  1  0.66666611  0.33333328  0.41233798  1
  Na  Na14  1  0.61177832  0.99995445  0.12371341  1
  Na  Na15  1  0.70376467  0.99997002  0.76997921  1
  Co  Co16  1  -0.00000009  -0.00000007  0.99671168  1
  Co  Co17  1  0.00000177  0.00000139  0.49684022  1
  O  O18  1  -0.00000364  0.72585789  0.95185623  1
  O  O19  1  0.00000769  0.27413257  0.45194599  1
  O  O20  1  0.33332855  0.66666621  0.22127923  1
  O  O21  1  0.00000506  0.00000531  0.14460946  1
  O  O22  1  0.99999494  0.99999492  0.64475491  1
  O  O23  1  0.33333377  0.66667116  0.72130968  1
  O  O24  1  0.27414179  0.27414319  0.95185502  1
  O  O25  1  0.27413123  0.00000394  0.45194611  1
  O  O26  1  0.72587065  0.72587184  0.45194472  1
  O  O27  1  0.66667118  0.33333387  0.72130968  1
  O  O28  1  0.66666584  0.33332859  0.22127936  1
  O  O29  1  0.72585667  0.99999387  0.95185611  1
