# generated using pymatgen
data_HoInO3
_symmetry_space_group_name_H-M   'P 1'
_cell_length_a   6.26308628
_cell_length_b   6.26307956
_cell_length_c   12.24559480
_cell_angle_alpha   90.00000413
_cell_angle_beta   89.99999706
_cell_angle_gamma   120.00011304
_symmetry_Int_Tables_number   1
_chemical_formula_structural   HoInO3
_chemical_formula_sum   'Ho6 In6 O18'
_cell_volume   415.99330878
_cell_formula_units_Z   6
loop_
 _symmetry_equiv_pos_site_id
 _symmetry_equiv_pos_as_xyz
  1  'x, y, z'
loop_
 _atom_site_type_symbol
 _atom_site_label
 _atom_site_symmetry_multiplicity
 _atom_site_fract_x
 _atom_site_fract_y
 _atom_site_fract_z
 _atom_site_occupancy
  Ho  Ho0  1  0.33333304  0.66666712  0.23015139  1
  Ho  Ho1  1  -0.00000060  -0.00000009  0.26585378  1
  Ho  Ho2  1  0.00000040  0.00000020  0.76585397  1
  Ho  Ho3  1  0.33333299  0.66666556  0.73015109  1
  Ho  Ho4  1  0.66666634  0.33333257  0.73015130  1
  Ho  Ho5  1  0.66666725  0.33333401  0.23015132  1
  In  In6  1  0.00000077  0.66669036  0.49593007  1
  In  In7  1  0.00000027  0.33331034  0.99592961  1
  In  In8  1  0.33330992  0.33330959  0.49593006  1
  In  In9  1  0.66669019  0.66669053  0.99592971  1
  In  In10  1  0.33331023  0.00000023  0.99592984  1
  In  In11  1  0.66669012  -0.00000078  0.49593022  1
  O  O12  1  0.00000030  0.69595278  0.66790966  1
  O  O13  1  -0.00000032  0.63512206  0.32618788  1
  O  O14  1  -0.00000005  0.36487700  0.82618857  1
  O  O15  1  -0.00000067  0.30404708  0.16790984  1
  O  O16  1  0.33333323  0.66666683  0.02657895  1
  O  O17  1  0.00000085  0.00000090  0.46197490  1
  O  O18  1  -0.00000012  -0.00000009  0.96197484  1
  O  O19  1  0.33333347  0.66666588  0.52657856  1
  O  O20  1  0.30404824  0.30404800  0.66790932  1
  O  O21  1  0.36487828  0.36487839  0.32618735  1
  O  O22  1  0.30404635  -0.00000050  0.16790971  1
  O  O23  1  0.63512239  0.63512257  0.82618818  1
  O  O24  1  0.69595170  0.69595215  0.16790969  1
  O  O25  1  0.36487713  -0.00000009  0.82618860  1
  O  O26  1  0.66666852  0.33333330  0.52657875  1
  O  O27  1  0.66666670  0.33333333  0.02657900  1
  O  O28  1  0.63512205  0.00000026  0.32618802  1
  O  O29  1  0.69595301  0.00000053  0.66790986  1
