# generated using pymatgen
data_Ti3N2O3
_symmetry_space_group_name_H-M   'P 1'
_cell_length_a   3.83291682
_cell_length_b   5.21650584
_cell_length_c   9.84370510
_cell_angle_alpha   90.46323578
_cell_angle_beta   90.00000000
_cell_angle_gamma   111.55435588
_symmetry_Int_Tables_number   1
_chemical_formula_structural   Ti3N2O3
_chemical_formula_sum   'Ti6 N4 O6'
_cell_volume   183.04870438
_cell_formula_units_Z   2
loop_
 _symmetry_equiv_pos_site_id
 _symmetry_equiv_pos_as_xyz
  1  'x, y, z'
loop_
 _atom_site_type_symbol
 _atom_site_label
 _atom_site_symmetry_multiplicity
 _atom_site_fract_x
 _atom_site_fract_y
 _atom_site_fract_z
 _atom_site_occupancy
  Ti  Ti0  1  0.14583611  0.29167222  0.56518524  1
  Ti  Ti1  1  0.14697848  0.29395696  0.94013313  1
  Ti  Ti2  1  0.20013442  0.40026885  0.24875247  1
  Ti  Ti3  1  0.80044501  0.60089001  0.75699066  1
  Ti  Ti4  1  0.85907715  0.71815430  0.05664708  1
  Ti  Ti5  1  0.86485114  0.72970228  0.43950698  1
  N  N6  1  0.30553191  0.61106081  0.42798533  1
  N  N7  1  0.31085991  0.62171883  0.07935680  1
  N  N8  1  0.23752044  0.47504088  0.74483499  1
  N  N9  1  0.69371606  0.38743113  0.92705357  1
  O  O10  1  0.04736989  0.09473679  0.11782303  1
  O  O11  1  0.04254317  0.08508833  0.37771310  1
  O  O12  1  0.95247043  0.90493885  0.61514513  1
  O  O13  1  0.95445643  0.90891385  0.88149295  1
  O  O14  1  0.68454432  0.36908864  0.57003046  1
  O  O15  1  0.75366714  0.50733527  0.25134908  1
