# generated using pymatgen
data_Li2Si12(NiO6)5
_symmetry_space_group_name_H-M   'P 1'
_cell_length_a   10.15014575
_cell_length_b   10.15014575
_cell_length_c   14.38804200
_cell_angle_alpha   90.00000000
_cell_angle_beta   90.00000000
_cell_angle_gamma   119.99999837
_symmetry_Int_Tables_number   1
_chemical_formula_structural   Li2Si12(NiO6)5
_chemical_formula_sum   'Li4 Si24 Ni10 O60'
_cell_volume   1283.73946549
_cell_formula_units_Z   2
loop_
 _symmetry_equiv_pos_site_id
 _symmetry_equiv_pos_as_xyz
  1  'x, y, z'
loop_
 _atom_site_type_symbol
 _atom_site_label
 _atom_site_symmetry_multiplicity
 _atom_site_fract_x
 _atom_site_fract_y
 _atom_site_fract_z
 _atom_site_occupancy
  Li  Li0  1  0.66666700  0.33333300  0.75000000  1
  Li  Li1  1  0.00000000  0.00000000  0.00000000  1
  Li  Li2  1  0.00000000  0.00000000  0.50000000  1
  Li  Li3  1  0.33333300  0.66666700  0.25000000  1
  Si  Si4  1  0.35510700  0.24045000  0.13918400  1
  Si  Si5  1  0.35510700  0.24045000  0.36081600  1
  Si  Si6  1  0.35456700  0.11709600  0.63941700  1
  Si  Si7  1  0.35456700  0.11709600  0.86058300  1
  Si  Si8  1  0.76252900  0.64543300  0.63941700  1
  Si  Si9  1  0.76252900  0.64543300  0.86058300  1
  Si  Si10  1  0.88534300  0.64489300  0.36081600  1
  Si  Si11  1  0.88534300  0.64489300  0.13918400  1
  Si  Si12  1  0.75955000  0.11465700  0.36081600  1
  Si  Si13  1  0.75955000  0.11465700  0.13918400  1
  Si  Si14  1  0.11465700  0.75955000  0.63918400  1
  Si  Si15  1  0.11465700  0.75955000  0.86081600  1
  Si  Si16  1  0.88290400  0.23747100  0.86058300  1
  Si  Si17  1  0.88290400  0.23747100  0.63941700  1
  Si  Si18  1  0.23747100  0.88290400  0.13941700  1
  Si  Si19  1  0.23747100  0.88290400  0.36058300  1
  Si  Si20  1  0.11709600  0.35456700  0.36058300  1
  Si  Si21  1  0.11709600  0.35456700  0.13941700  1
  Si  Si22  1  0.24045000  0.35510700  0.63918400  1
  Si  Si23  1  0.24045000  0.35510700  0.86081600  1
  Si  Si24  1  0.64489300  0.88534300  0.63918400  1
  Si  Si25  1  0.64489300  0.88534300  0.86081600  1
  Si  Si26  1  0.64543300  0.76252900  0.36058300  1
  Si  Si27  1  0.64543300  0.76252900  0.13941700  1
  Ni  Ni28  1  0.51182400  0.51182400  0.00000000  1
  Ni  Ni29  1  0.51182400  0.51182400  0.50000000  1
  Ni  Ni30  1  0.66666700  0.33333300  0.49868200  1
  Ni  Ni31  1  0.66666700  0.33333300  0.00131800  1
  Ni  Ni32  1  0.00000000  0.48817600  0.50000000  1
  Ni  Ni33  1  0.00000000  0.48817600  0.00000000  1
  Ni  Ni34  1  0.33333300  0.66666700  0.50131800  1
  Ni  Ni35  1  0.33333300  0.66666700  0.99868200  1
  Ni  Ni36  1  0.48817600  0.00000000  0.50000000  1
  Ni  Ni37  1  0.48817600  0.00000000  0.00000000  1
  O  O38  1  0.27097800  0.21425500  0.88728800  1
  O  O39  1  0.27097800  0.21425500  0.61271200  1
  O  O40  1  0.28395800  0.05882300  0.11486500  1
  O  O41  1  0.28395800  0.05882300  0.38513500  1
  O  O42  1  0.39102900  0.26604800  0.25000000  1
  O  O43  1  0.50047900  0.34729600  0.42328600  1
  O  O44  1  0.50047900  0.34729600  0.07671400  1
  O  O45  1  0.40345000  0.14407800  0.75000000  1
  O  O46  1  0.65356600  0.49136100  0.58422100  1
  O  O47  1  0.65356600  0.49136100  0.91577900  1
  O  O48  1  0.77486500  0.71604200  0.38513500  1
  O  O49  1  0.77486500  0.71604200  0.11486500  1
  O  O50  1  0.50863900  0.16220500  0.58422100  1
  O  O51  1  0.50863900  0.16220500  0.91577900  1
  O  O52  1  0.74062800  0.59655000  0.75000000  1
  O  O53  1  0.87501800  0.60897100  0.25000000  1
  O  O54  1  0.65270400  0.15318200  0.07671400  1
  O  O55  1  0.65270400  0.15318200  0.42328600  1
  O  O56  1  0.94327700  0.72902200  0.61271200  1
  O  O57  1  0.94327700  0.72902200  0.88728800  1
  O  O58  1  0.84681800  0.49952100  0.07671400  1
  O  O59  1  0.84681800  0.49952100  0.42328600  1
  O  O60  1  0.05672300  0.78574500  0.38728800  1
  O  O61  1  0.05672300  0.78574500  0.11271200  1
  O  O62  1  0.73395200  0.12498200  0.25000000  1
  O  O63  1  0.83779500  0.34643400  0.91577900  1
  O  O64  1  0.83779500  0.34643400  0.58422100  1
  O  O65  1  0.22513500  0.94117700  0.61486500  1
  O  O66  1  0.22513500  0.94117700  0.88513500  1
  O  O67  1  0.85592200  0.25937200  0.75000000  1
  O  O68  1  0.12498200  0.73395200  0.75000000  1
  O  O69  1  0.78574500  0.05672300  0.61271200  1
  O  O70  1  0.78574500  0.05672300  0.88728800  1
  O  O71  1  0.15318200  0.65270400  0.57671400  1
  O  O72  1  0.15318200  0.65270400  0.92328600  1
  O  O73  1  0.25937200  0.85592200  0.25000000  1
  O  O74  1  0.94117700  0.22513500  0.38513500  1
  O  O75  1  0.94117700  0.22513500  0.11486500  1
  O  O76  1  0.16220500  0.50863900  0.41577900  1
  O  O77  1  0.16220500  0.50863900  0.08422100  1
  O  O78  1  0.05882300  0.28395800  0.61486500  1
  O  O79  1  0.05882300  0.28395800  0.88513500  1
  O  O80  1  0.34643400  0.83779500  0.41577900  1
  O  O81  1  0.34643400  0.83779500  0.08422100  1
  O  O82  1  0.14407800  0.40345000  0.25000000  1
  O  O83  1  0.26604800  0.39102900  0.75000000  1
  O  O84  1  0.49952100  0.84681800  0.57671400  1
  O  O85  1  0.49952100  0.84681800  0.92328600  1
  O  O86  1  0.21425500  0.27097800  0.38728800  1
  O  O87  1  0.21425500  0.27097800  0.11271200  1
  O  O88  1  0.34729600  0.50047900  0.57671400  1
  O  O89  1  0.34729600  0.50047900  0.92328600  1
  O  O90  1  0.60897100  0.87501800  0.75000000  1
  O  O91  1  0.49136100  0.65356600  0.41577900  1
  O  O92  1  0.49136100  0.65356600  0.08422100  1
  O  O93  1  0.59655000  0.74062800  0.25000000  1
  O  O94  1  0.72902200  0.94327700  0.38728800  1
  O  O95  1  0.72902200  0.94327700  0.11271200  1
  O  O96  1  0.71604200  0.77486500  0.61486500  1
  O  O97  1  0.71604200  0.77486500  0.88513500  1
