# generated using pymatgen
data_Ru2C7S10N10(Cl4O3)2
_symmetry_space_group_name_H-M   'P 1'
_cell_length_a   11.62315207
_cell_length_b   11.62315207
_cell_length_c   17.06238680
_cell_angle_alpha   85.44347147
_cell_angle_beta   85.44347147
_cell_angle_gamma   54.97441145
_symmetry_Int_Tables_number   1
_chemical_formula_structural   Ru2C7S10N10(Cl4O3)2
_chemical_formula_sum   'Ru4 C14 S20 N20 Cl16 O12'
_cell_volume   1880.04320484
_cell_formula_units_Z   2
loop_
 _symmetry_equiv_pos_site_id
 _symmetry_equiv_pos_as_xyz
  1  'x, y, z'
loop_
 _atom_site_type_symbol
 _atom_site_label
 _atom_site_symmetry_multiplicity
 _atom_site_fract_x
 _atom_site_fract_y
 _atom_site_fract_z
 _atom_site_occupancy
  Ru  Ru0  1  0.93134500  0.45738000  0.67974300  1
  Ru  Ru1  1  0.54262000  0.06865500  0.82025700  1
  Ru  Ru2  1  0.06865500  0.54262000  0.32025700  1
  Ru  Ru3  1  0.45738000  0.93134500  0.17974300  1
  C  C4  1  0.12055300  0.33535900  0.64260700  1
  C  C5  1  0.66464100  0.87944700  0.85739300  1
  C  C6  1  0.87944700  0.66464100  0.35739300  1
  C  C7  1  0.33535900  0.12055300  0.14260700  1
  C  C8  1  0.97880900  0.44802800  0.78441100  1
  C  C9  1  0.55197200  0.02119100  0.71558900  1
  C  C10  1  0.02119100  0.55197200  0.21558900  1
  C  C11  1  0.44802800  0.97880900  0.28441100  1
  C  C12  1  0.91844300  0.62495500  0.65005500  1
  C  C13  1  0.37504500  0.08155700  0.84994500  1
  C  C14  1  0.08155700  0.37504500  0.34994500  1
  C  C15  1  0.62495500  0.91844300  0.15005500  1
  C  C16  1  0.26608700  0.73391300  0.75000000  1
  C  C17  1  0.73391300  0.26608700  0.25000000  1
  S  S18  1  0.47232000  0.37408100  0.07080200  1
  S  S19  1  0.62591900  0.52768000  0.42919800  1
  S  S20  1  0.52768000  0.62591900  0.92919800  1
  S  S21  1  0.37408100  0.47232000  0.57080200  1
  S  S22  1  0.38968400  0.63222500  0.14276600  1
  S  S23  1  0.36777500  0.61031600  0.35723400  1
  S  S24  1  0.61031600  0.36777500  0.85723400  1
  S  S25  1  0.63222500  0.38968400  0.64276600  1
  S  S26  1  0.11201500  0.85134000  0.08655200  1
  S  S27  1  0.14866000  0.88798500  0.41344800  1
  S  S28  1  0.88798500  0.14866000  0.91344800  1
  S  S29  1  0.85134000  0.11201500  0.58655200  1
  S  S30  1  0.98849900  0.76692300  0.97007300  1
  S  S31  1  0.23307700  0.01150100  0.52992700  1
  S  S32  1  0.01150100  0.23307700  0.02992700  1
  S  S33  1  0.76692300  0.98849900  0.47007300  1
  S  S34  1  0.23835200  0.45675500  0.96920200  1
  S  S35  1  0.54324500  0.76164800  0.53079800  1
  S  S36  1  0.76164800  0.54324500  0.03079800  1
  S  S37  1  0.45675500  0.23835200  0.46920200  1
  N  N38  1  0.48840100  0.47074800  0.12293100  1
  N  N39  1  0.52925200  0.51159900  0.37706900  1
  N  N40  1  0.51159900  0.52925200  0.87706900  1
  N  N41  1  0.47074800  0.48840100  0.62293100  1
  N  N42  1  0.25431700  0.70287600  0.09283900  1
  N  N43  1  0.29712400  0.74568300  0.40716100  1
  N  N44  1  0.74568300  0.29712400  0.90716100  1
  N  N45  1  0.70287600  0.25431700  0.59283900  1
  N  N46  1  0.01495900  0.84957800  0.02717800  1
  N  N47  1  0.15042200  0.98504100  0.47282200  1
  N  N48  1  0.98504100  0.15042200  0.97282200  1
  N  N49  1  0.84957800  0.01495900  0.52717800  1
  N  N50  1  0.09548700  0.60522500  0.95506900  1
  N  N51  1  0.39477500  0.90451300  0.54493100  1
  N  N52  1  0.90451300  0.39477500  0.04493100  1
  N  N53  1  0.60522500  0.09548700  0.45506900  1
  N  N54  1  0.32681200  0.46389000  0.03026400  1
  N  N55  1  0.53611000  0.67318800  0.46973600  1
  N  N56  1  0.67318800  0.53611000  0.96973600  1
  N  N57  1  0.46389000  0.32681200  0.53026400  1
  Cl  Cl58  1  0.86368100  0.45757200  0.54755200  1
  Cl  Cl59  1  0.54242800  0.13631900  0.95244800  1
  Cl  Cl60  1  0.13631900  0.54242800  0.45244800  1
  Cl  Cl61  1  0.45757200  0.86368100  0.04755200  1
  Cl  Cl62  1  0.68463200  0.61135800  0.72635300  1
  Cl  Cl63  1  0.38864200  0.31536800  0.77364700  1
  Cl  Cl64  1  0.31536800  0.38864200  0.27364700  1
  Cl  Cl65  1  0.61135800  0.68463200  0.22635300  1
  Cl  Cl66  1  0.93456800  0.24622200  0.71687000  1
  Cl  Cl67  1  0.75377800  0.06543200  0.78313000  1
  Cl  Cl68  1  0.06543200  0.75377800  0.28313000  1
  Cl  Cl69  1  0.24622200  0.93456800  0.21687000  1
  Cl  Cl70  1  0.13916200  0.79556200  0.68103900  1
  Cl  Cl71  1  0.20443800  0.86083800  0.81896100  1
  Cl  Cl72  1  0.86083800  0.20443800  0.31896100  1
  Cl  Cl73  1  0.79556200  0.13916200  0.18103900  1
  O  O74  1  0.23509500  0.25991100  0.61895500  1
  O  O75  1  0.74008900  0.76490500  0.88104500  1
  O  O76  1  0.76490500  0.74008900  0.38104500  1
  O  O77  1  0.25991100  0.23509500  0.11895500  1
  O  O78  1  0.00512600  0.43877600  0.84953700  1
  O  O79  1  0.56122400  0.99487400  0.65046300  1
  O  O80  1  0.99487400  0.56122400  0.15046300  1
  O  O81  1  0.43877600  0.00512600  0.34953700  1
  O  O82  1  0.90683400  0.72890600  0.63142000  1
  O  O83  1  0.27109400  0.09316600  0.86858000  1
  O  O84  1  0.09316600  0.27109400  0.36858000  1
  O  O85  1  0.72890600  0.90683400  0.13142000  1
