# generated using pymatgen
data_TiO2
_symmetry_space_group_name_H-M   'P 1'
_cell_length_a   8.88288353
_cell_length_b   10.66477464
_cell_length_c   2.96844593
_cell_angle_alpha   90.00000000
_cell_angle_beta   90.00000000
_cell_angle_gamma   90.00000000
_symmetry_Int_Tables_number   1
_chemical_formula_structural   TiO2
_chemical_formula_sum   'Ti8 O16'
_cell_volume   281.21261128
_cell_formula_units_Z   8
loop_
 _symmetry_equiv_pos_site_id
 _symmetry_equiv_pos_as_xyz
  1  'x, y, z'
loop_
 _atom_site_type_symbol
 _atom_site_label
 _atom_site_symmetry_multiplicity
 _atom_site_fract_x
 _atom_site_fract_y
 _atom_site_fract_z
 _atom_site_occupancy
  Ti  Ti0  1  0.05050738  0.11804352  0.75000000  1
  Ti  Ti1  1  0.08898848  0.60047322  0.75000000  1
  Ti  Ti2  1  0.41101152  0.10047322  0.25000000  1
  Ti  Ti3  1  0.44949262  0.61804352  0.25000000  1
  Ti  Ti4  1  0.55050738  0.38195648  0.75000000  1
  Ti  Ti5  1  0.58898848  0.89952678  0.75000000  1
  Ti  Ti6  1  0.91101152  0.39952678  0.25000000  1
  Ti  Ti7  1  0.94949262  0.88195648  0.25000000  1
  O  O8  1  0.02741851  0.71509908  0.25000000  1
  O  O9  1  0.07552784  0.92809814  0.75000000  1
  O  O10  1  0.11311660  0.48689263  0.25000000  1
  O  O11  1  0.20049736  0.14035694  0.25000000  1
  O  O12  1  0.29950264  0.64035694  0.75000000  1
  O  O13  1  0.38688340  0.98689263  0.75000000  1
  O  O14  1  0.42447216  0.42809814  0.25000000  1
  O  O15  1  0.47258249  0.21509908  0.75000000  1
  O  O16  1  0.52741851  0.78490092  0.25000000  1
  O  O17  1  0.57552784  0.57190186  0.75000000  1
  O  O18  1  0.61311660  0.01310737  0.25000000  1
  O  O19  1  0.70049736  0.35964306  0.25000000  1
  O  O20  1  0.79950264  0.85964306  0.75000000  1
  O  O21  1  0.88688340  0.51310737  0.75000000  1
  O  O22  1  0.92447216  0.07190186  0.25000000  1
  O  O23  1  0.97258149  0.28490092  0.75000000  1
