# generated using pymatgen
data_Cs3YO3
_symmetry_space_group_name_H-M   'P 1'
_cell_length_a   7.55992870
_cell_length_b   8.20788487
_cell_length_c   12.16593944
_cell_angle_alpha   84.97761534
_cell_angle_beta   90.00000000
_cell_angle_gamma   90.00000000
_symmetry_Int_Tables_number   1
_chemical_formula_structural   Cs3YO3
_chemical_formula_sum   'Cs12 Y4 O12'
_cell_volume   752.01058588
_cell_formula_units_Z   4
loop_
 _symmetry_equiv_pos_site_id
 _symmetry_equiv_pos_as_xyz
  1  'x, y, z'
loop_
 _atom_site_type_symbol
 _atom_site_label
 _atom_site_symmetry_multiplicity
 _atom_site_fract_x
 _atom_site_fract_y
 _atom_site_fract_z
 _atom_site_occupancy
  Cs  Cs0  1  0.33950334  0.35122874  0.07711659  1
  Cs  Cs1  1  0.62370481  0.93860996  0.15759645  1
  Cs  Cs2  1  0.81770775  0.37988312  0.19038445  1
  Cs  Cs3  1  0.31770775  0.62011688  0.30961555  1
  Cs  Cs4  1  0.12370481  0.06139004  0.34240355  1
  Cs  Cs5  1  0.83950334  0.64877126  0.42288341  1
  Cs  Cs6  1  0.16049666  0.35122874  0.57711659  1
  Cs  Cs7  1  0.87629519  0.93860996  0.65759645  1
  Cs  Cs8  1  0.68229225  0.37988312  0.69038445  1
  Cs  Cs9  1  0.18229225  0.62011688  0.80961555  1
  Cs  Cs10  1  0.37629519  0.06139004  0.84240355  1
  Cs  Cs11  1  0.66049666  0.64877126  0.92288341  1
  Y  Y12  1  0.08910098  0.84300037  0.06939884  1
  Y  Y13  1  0.58910098  0.15699963  0.43060116  1
  Y  Y14  1  0.41089902  0.84300037  0.56939884  1
  Y  Y15  1  0.91089902  0.15699963  0.93060116  1
  O  O16  1  0.34850090  0.75179666  0.05035390  1
  O  O17  1  0.05243303  0.10632571  0.08754853  1
  O  O18  1  0.94863852  0.70322626  0.19354435  1
  O  O19  1  0.44863852  0.29677374  0.30645565  1
  O  O20  1  0.55243303  0.89367429  0.41245147  1
  O  O21  1  0.84850090  0.24820334  0.44964610  1
  O  O22  1  0.15149910  0.75179666  0.55035390  1
  O  O23  1  0.44756697  0.10632571  0.58754853  1
  O  O24  1  0.55136148  0.70322626  0.69354435  1
  O  O25  1  0.05136148  0.29677374  0.80645565  1
  O  O26  1  0.94756697  0.89367429  0.91245147  1
  O  O27  1  0.65149910  0.24820334  0.94964610  1
