# generated using pymatgen
data_BaTl2O4
_symmetry_space_group_name_H-M   'P 1'
_cell_length_a   3.48897024
_cell_length_b   10.39790207
_cell_length_c   12.05973150
_cell_angle_alpha   90.00000000
_cell_angle_beta   90.00000000
_cell_angle_gamma   90.00000000
_symmetry_Int_Tables_number   1
_chemical_formula_structural   BaTl2O4
_chemical_formula_sum   'Ba4 Tl8 O16'
_cell_volume   437.50258819
_cell_formula_units_Z   4
loop_
 _symmetry_equiv_pos_site_id
 _symmetry_equiv_pos_as_xyz
  1  'x, y, z'
loop_
 _atom_site_type_symbol
 _atom_site_label
 _atom_site_symmetry_multiplicity
 _atom_site_fract_x
 _atom_site_fract_y
 _atom_site_fract_z
 _atom_site_occupancy
  Ba  Ba0  1  0.75000000  0.24543354  0.65105367  1
  Ba  Ba1  1  0.25000000  0.25456646  0.15105367  1
  Ba  Ba2  1  0.75000000  0.74543354  0.84894633  1
  Ba  Ba3  1  0.25000000  0.75456646  0.34894633  1
  Tl  Tl4  1  0.75000000  0.07835986  0.39203228  1
  Tl  Tl5  1  0.75000000  0.07420932  0.89172122  1
  Tl  Tl6  1  0.25000000  0.42579068  0.39172122  1
  Tl  Tl7  1  0.25000000  0.42164014  0.89203228  1
  Tl  Tl8  1  0.75000000  0.57835986  0.10796772  1
  Tl  Tl9  1  0.75000000  0.57420932  0.60827878  1
  Tl  Tl10  1  0.25000000  0.92579068  0.10827878  1
  Tl  Tl11  1  0.25000000  0.92164014  0.60796772  1
  O  O12  1  0.25000000  0.02080086  0.28085694  1
  O  O13  1  0.75000000  0.07678339  0.07490011  1
  O  O14  1  0.25000000  0.11914511  0.51652870  1
  O  O15  1  0.25000000  0.20758237  0.83613223  1
  O  O16  1  0.75000000  0.29241763  0.33613223  1
  O  O17  1  0.75000000  0.38085489  0.01652870  1
  O  O18  1  0.25000000  0.42321661  0.57490011  1
  O  O19  1  0.75000000  0.47919914  0.78085694  1
  O  O20  1  0.25000000  0.52080086  0.21914306  1
  O  O21  1  0.75000000  0.57678339  0.42509989  1
  O  O22  1  0.25000000  0.61914511  0.98347130  1
  O  O23  1  0.25000000  0.70758237  0.66386777  1
  O  O24  1  0.75000000  0.79241763  0.16386777  1
  O  O25  1  0.75000000  0.88085489  0.48347130  1
  O  O26  1  0.25000000  0.92321661  0.92509989  1
  O  O27  1  0.75000000  0.97919914  0.71914306  1
