# generated using pymatgen
data_Li6MnO4
_symmetry_space_group_name_H-M   'P 1'
_cell_length_a   8.02473343
_cell_length_b   8.02467273
_cell_length_c   8.02460364
_cell_angle_alpha   109.63268585
_cell_angle_beta   70.61222317
_cell_angle_gamma   70.61201693
_symmetry_Int_Tables_number   1
_chemical_formula_structural   Li6MnO4
_chemical_formula_sum   'Li24 Mn4 O16'
_cell_volume   397.81908554
_cell_formula_units_Z   4
loop_
 _symmetry_equiv_pos_site_id
 _symmetry_equiv_pos_as_xyz
  1  'x, y, z'
loop_
 _atom_site_type_symbol
 _atom_site_label
 _atom_site_symmetry_multiplicity
 _atom_site_fract_x
 _atom_site_fract_y
 _atom_site_fract_z
 _atom_site_occupancy
  Li  Li0  1  0.25000919  0.35706722  0.10706016  1
  Li  Li1  1  0.25000769  0.85707148  0.60705938  1
  Li  Li2  1  0.25002941  0.10704693  0.85703524  1
  Li  Li3  1  0.25002663  0.60704764  0.35703817  1
  Li  Li4  1  0.75001203  0.14292539  0.39292270  1
  Li  Li5  1  0.75000841  0.64292714  0.89292306  1
  Li  Li6  1  0.74997691  0.39295979  0.64294568  1
  Li  Li7  1  0.74998615  0.89295500  0.14293980  1
  Li  Li8  1  0.03421609  0.62498063  0.09073535  1
  Li  Li9  1  0.03421858  0.12497470  0.59073825  1
  Li  Li10  1  0.03419699  0.84084800  0.87507375  1
  Li  Li11  1  0.03419700  0.34085385  0.37506825  1
  Li  Li12  1  0.46574732  0.40929175  0.87506249  1
  Li  Li13  1  0.46574547  0.90928761  0.37506915  1
  Li  Li14  1  0.46576482  0.62497737  0.65919334  1
  Li  Li15  1  0.46576081  0.12498291  0.15919132  1
  Li  Li16  1  0.53428607  0.87499458  0.84075050  1
  Li  Li17  1  0.53427880  0.37499938  0.34075972  1
  Li  Li18  1  0.53425810  0.09070000  0.62492143  1
  Li  Li19  1  0.53426136  0.59069587  0.12491874  1
  Li  Li20  1  0.96580726  0.65916318  0.62494854  1
  Li  Li21  1  0.96580088  0.15916806  0.12494835  1
  Li  Li22  1  0.96580960  0.87502163  0.40922181  1
  Li  Li23  1  0.96581714  0.37502229  0.90921527  1
  Mn  Mn24  1  0.25001226  0.87499305  0.12500602  1
  Mn  Mn25  1  0.74998766  0.62499995  0.37499668  1
  Mn  Mn26  1  0.25000904  0.37499533  0.62500376  1
  Mn  Mn27  1  0.74998823  0.12500292  0.87499864  1
  O  O28  1  0.01614574  0.60352077  0.35359739  1
  O  O29  1  0.01614802  0.10352198  0.85359566  1
  O  O30  1  0.25006536  0.11967698  0.10352424  1
  O  O31  1  0.25006698  0.61965977  0.60352263  1
  O  O32  1  0.24992468  0.35359774  0.86970643  1
  O  O33  1  0.24992438  0.85359733  0.36971112  1
  O  O34  1  0.48389651  0.36969879  0.11962362  1
  O  O35  1  0.48389764  0.86969819  0.61961850  1
  O  O36  1  0.51611261  0.13029310  0.38035889  1
  O  O37  1  0.51609925  0.63030832  0.88037385  1
  O  O38  1  0.74993619  0.38037380  0.39646504  1
  O  O39  1  0.74993810  0.88037028  0.89646560  1
  O  O40  1  0.75008588  0.14639570  0.63028173  1
  O  O41  1  0.75008778  0.64639393  0.13027549  1
  O  O42  1  0.98391182  0.89647076  0.14639070  1
  O  O43  1  0.98390218  0.39646989  0.64638853  1
