# generated using pymatgen
data_Y5Tm11O24
_symmetry_space_group_name_H-M   'P 1'
_cell_length_a   9.05360226
_cell_length_b   9.05360226
_cell_length_c   10.45078139
_cell_angle_alpha   54.71312378
_cell_angle_beta   54.71312378
_cell_angle_gamma   70.50645223
_symmetry_Int_Tables_number   1
_chemical_formula_structural   Y5Tm11O24
_chemical_formula_sum   'Y5 Tm11 O24'
_cell_volume   570.76742686
_cell_formula_units_Z   1
loop_
 _symmetry_equiv_pos_site_id
 _symmetry_equiv_pos_as_xyz
  1  'x, y, z'
loop_
 _atom_site_type_symbol
 _atom_site_label
 _atom_site_symmetry_multiplicity
 _atom_site_fract_x
 _atom_site_fract_y
 _atom_site_fract_z
 _atom_site_occupancy
  Y  Y0  1  0.50105244  -0.00000287  0.74957132  1
  Y  Y1  1  0.03139096  0.96860904  0.00000000  1
  Y  Y2  1  0.49842868  0.00008398  0.25013176  1
  Y  Y3  1  0.99991602  0.50157132  0.74986824  1
  Y  Y4  1  0.00000287  0.49894756  0.25042868  1
  Tm  Tm5  1  0.28303397  0.78202224  0.71701626  1
  Tm  Tm6  1  0.21797776  0.71696603  0.28298374  1
  Tm  Tm7  1  0.25053043  0.25028626  0.46704525  1
  Tm  Tm8  1  0.25027233  0.25110495  0.96782073  1
  Tm  Tm9  1  0.46787130  0.53212870  0.50000000  1
  Tm  Tm10  1  0.53213004  0.46786996  0.00000000  1
  Tm  Tm11  1  0.74889505  0.74972767  0.03217927  1
  Tm  Tm12  1  0.74971374  0.74946957  0.53295475  1
  Tm  Tm13  1  0.71739544  0.21874053  0.78138313  1
  Tm  Tm14  1  0.78125947  0.28260456  0.21861687  1
  Tm  Tm15  1  0.96805075  0.03194925  0.50000000  1
  O  O16  1  0.24205901  0.45617854  0.52058472  1
  O  O17  1  0.26160007  0.04346357  0.71556820  1
  O  O18  1  0.73046895  0.03058065  0.47640745  1
  O  O19  1  0.03033706  0.72804342  0.97606418  1
  O  O20  1  0.53112684  0.22976983  0.26203110  1
  O  O21  1  0.23107453  0.53134492  0.76138478  1
  O  O22  1  0.95653643  0.73839993  0.28443180  1
  O  O23  1  0.54382146  0.75794099  0.47941528  1
  O  O24  1  0.27351617  0.51247376  0.20650169  1
  O  O25  1  0.22638436  0.98740884  0.49252546  1
  O  O26  1  0.98741026  0.23040481  0.99242985  1
  O  O27  1  0.51255070  0.27345420  0.70645648  1
  O  O28  1  0.76959519  0.01258974  0.00757015  1
  O  O29  1  0.01259116  0.77361564  0.50747454  1
  O  O30  1  0.72654580  0.48744930  0.29354352  1
  O  O31  1  0.48752624  0.72648383  0.79349831  1
  O  O32  1  0.45619588  0.24354749  0.01972565  1
  O  O33  1  0.04319647  0.25720753  0.21968186  1
  O  O34  1  0.77023017  0.46887316  0.73796890  1
  O  O35  1  0.46865508  0.76892547  0.23861522  1
  O  O36  1  0.96941935  0.26953105  0.52359255  1
  O  O37  1  0.27195658  0.96966294  0.02393582  1
  O  O38  1  0.75645251  0.54380412  0.98027435  1
  O  O39  1  0.74279247  0.95680353  0.78031814  1
