# generated using pymatgen
data_Cs6Ti2O7
_symmetry_space_group_name_H-M   'P 1'
_cell_length_a   10.01986071
_cell_length_b   7.21940021
_cell_length_c   12.19208161
_cell_angle_alpha   55.59970122
_cell_angle_beta   90.00000000
_cell_angle_gamma   90.00000000
_symmetry_Int_Tables_number   1
_chemical_formula_structural   Cs6Ti2O7
_chemical_formula_sum   'Cs12 Ti4 O14'
_cell_volume   727.70071953
_cell_formula_units_Z   2
loop_
 _symmetry_equiv_pos_site_id
 _symmetry_equiv_pos_as_xyz
  1  'x, y, z'
loop_
 _atom_site_type_symbol
 _atom_site_label
 _atom_site_symmetry_multiplicity
 _atom_site_fract_x
 _atom_site_fract_y
 _atom_site_fract_z
 _atom_site_occupancy
  Cs  Cs0  1  0.21515358  0.60165145  0.77815956  1
  Cs  Cs1  1  0.35065939  0.96368383  0.41849143  1
  Cs  Cs2  1  0.47492778  0.20370177  0.04947097  1
  Cs  Cs3  1  0.97492778  0.79629823  0.45052903  1
  Cs  Cs4  1  0.71515358  0.39834855  0.72184044  1
  Cs  Cs5  1  0.85065939  0.03631617  0.08150857  1
  Cs  Cs6  1  0.14934061  0.96368383  0.91849143  1
  Cs  Cs7  1  0.28484642  0.60165145  0.27815956  1
  Cs  Cs8  1  0.02507222  0.20370177  0.54947097  1
  Cs  Cs9  1  0.52507222  0.79629823  0.95052903  1
  Cs  Cs10  1  0.64934061  0.03631617  0.58150857  1
  Cs  Cs11  1  0.78484642  0.39834855  0.22184044  1
  Ti  Ti12  1  0.13478396  0.32354893  0.12723925  1
  Ti  Ti13  1  0.63478396  0.67645107  0.37276075  1
  Ti  Ti14  1  0.36521604  0.32354893  0.62723925  1
  Ti  Ti15  1  0.86521604  0.67645107  0.87276075  1
  O  O16  1  0.00000000  0.50000000  0.00000000  1
  O  O17  1  0.91337168  0.74079511  0.71174763  1
  O  O18  1  0.71528606  0.50682688  0.92717840  1
  O  O19  1  0.66167669  0.93191708  0.36578431  1
  O  O20  1  0.16167669  0.06808292  0.13421569  1
  O  O21  1  0.21528606  0.49317312  0.57282160  1
  O  O22  1  0.41337168  0.25920489  0.78825237  1
  O  O23  1  0.50000000  0.50000000  0.50000000  1
  O  O24  1  0.58662832  0.74079511  0.21174763  1
  O  O25  1  0.78471394  0.50682688  0.42717840  1
  O  O26  1  0.83832331  0.93191708  0.86578431  1
  O  O27  1  0.33832331  0.06808292  0.63421569  1
  O  O28  1  0.28471394  0.49317312  0.07282160  1
  O  O29  1  0.08662832  0.25920489  0.28825237  1
