# generated using pymatgen
data_Na4VO4
_symmetry_space_group_name_H-M   'P 1'
_cell_length_a   5.70232275
_cell_length_b   5.71372333
_cell_length_c   8.54017588
_cell_angle_alpha   79.52400516
_cell_angle_beta   69.61666950
_cell_angle_gamma   68.76680266
_symmetry_Int_Tables_number   1
_chemical_formula_structural   Na4VO4
_chemical_formula_sum   'Na8 V2 O8'
_cell_volume   242.62774931
_cell_formula_units_Z   2
loop_
 _symmetry_equiv_pos_site_id
 _symmetry_equiv_pos_as_xyz
  1  'x, y, z'
loop_
 _atom_site_type_symbol
 _atom_site_label
 _atom_site_symmetry_multiplicity
 _atom_site_fract_x
 _atom_site_fract_y
 _atom_site_fract_z
 _atom_site_occupancy
  Na  Na0  1  0.47780512  0.73067933  0.56606368  1
  Na  Na1  1  0.94858467  0.23415347  0.60722765  1
  Na  Na2  1  0.52219488  0.26932067  0.43393632  1
  Na  Na3  1  0.05141533  0.76584653  0.39277235  1
  Na  Na4  1  0.60813344  0.74028221  0.17825532  1
  Na  Na5  1  0.75954487  0.24736110  0.01454912  1
  Na  Na6  1  0.24045513  0.75263890  0.98545088  1
  Na  Na7  1  0.39186656  0.25971779  0.82174468  1
  V  V8  1  0.15823114  0.28196031  0.24507174  1
  V  V9  1  0.84176886  0.71803969  0.75492826  1
  O  O10  1  0.69513065  0.97416761  0.62291774  1
  O  O11  1  0.16302499  0.51581647  0.64255384  1
  O  O12  1  0.83697501  0.48418353  0.35744616  1
  O  O13  1  0.30486935  0.02583239  0.37708226  1
  O  O14  1  0.36635593  0.47687822  0.19989293  1
  O  O15  1  0.13969667  0.13749643  0.08266271  1
  O  O16  1  0.63364407  0.52312178  0.80010707  1
  O  O17  1  0.86030333  0.86250357  0.91733729  1
