# generated using pymatgen
data_TiP2O7
_symmetry_space_group_name_H-M   'P 1'
_cell_length_a   5.17148839
_cell_length_b   8.72706735
_cell_length_c   13.17328123
_cell_angle_alpha   63.55533455
_cell_angle_beta   90.00000000
_cell_angle_gamma   90.00000000
_symmetry_Int_Tables_number   1
_chemical_formula_structural   TiP2O7
_chemical_formula_sum   'Ti4 P8 O28'
_cell_volume   532.32626502
_cell_formula_units_Z   4
loop_
 _symmetry_equiv_pos_site_id
 _symmetry_equiv_pos_as_xyz
  1  'x, y, z'
loop_
 _atom_site_type_symbol
 _atom_site_label
 _atom_site_symmetry_multiplicity
 _atom_site_fract_x
 _atom_site_fract_y
 _atom_site_fract_z
 _atom_site_occupancy
  Ti  Ti0  1  0.25197771  0.72771796  0.53562496  1
  Ti  Ti1  1  0.75197771  0.27228204  0.96437504  1
  Ti  Ti2  1  0.24802229  0.72771796  0.03562496  1
  Ti  Ti3  1  0.74802229  0.27228204  0.46437504  1
  P  P4  1  0.73927158  0.84013312  0.63871624  1
  P  P5  1  0.26330636  0.31568189  0.11515524  1
  P  P6  1  0.23927158  0.15986688  0.86128376  1
  P  P7  1  0.23669364  0.31568189  0.61515524  1
  P  P8  1  0.76330636  0.68431811  0.38484476  1
  P  P9  1  0.76072842  0.84013312  0.13871624  1
  P  P10  1  0.73669364  0.68431811  0.88484476  1
  P  P11  1  0.26072842  0.15986688  0.36128376  1
  O  O12  1  0.47691825  0.76097720  0.64198842  1
  O  O13  1  0.95570641  0.73868593  0.61999784  1
  O  O14  1  0.76394786  0.51763200  0.87641261  1
  O  O15  1  0.53109259  0.29504513  0.07735171  1
  O  O16  1  0.22056981  0.16667706  0.23982285  1
  O  O17  1  0.05550226  0.28706481  0.04567172  1
  O  O18  1  0.24610775  0.97352331  0.44356960  1
  O  O19  1  0.26394786  0.48236800  0.62358739  1
  O  O20  1  0.45570641  0.26131407  0.88000216  1
  O  O21  1  0.97691825  0.23902280  0.85801158  1
  O  O22  1  0.74610775  0.02647669  0.05643040  1
  O  O23  1  0.96890741  0.29504513  0.57735171  1
  O  O24  1  0.55550226  0.71293519  0.45432828  1
  O  O25  1  0.72056981  0.83332294  0.26017715  1
  O  O26  1  0.27943019  0.16667706  0.73982285  1
  O  O27  1  0.44449774  0.28706481  0.54567172  1
  O  O28  1  0.03109259  0.70495487  0.42264829  1
  O  O29  1  0.25389225  0.97352331  0.94356960  1
  O  O30  1  0.02308175  0.76097720  0.14198842  1
  O  O31  1  0.54429359  0.73868593  0.11999784  1
  O  O32  1  0.73605214  0.51763200  0.37641261  1
  O  O33  1  0.75389225  0.02647669  0.55643040  1
  O  O34  1  0.94449774  0.71293519  0.95432828  1
  O  O35  1  0.77943019  0.83332294  0.76017715  1
  O  O36  1  0.46890741  0.70495487  0.92264829  1
  O  O37  1  0.23605214  0.48236800  0.12358739  1
  O  O38  1  0.04429359  0.26131407  0.38000216  1
  O  O39  1  0.52308175  0.23902280  0.35801158  1
