# generated using pymatgen
data_NiPH6NO5
_symmetry_space_group_name_H-M   'P 1'
_cell_length_a   4.69663327
_cell_length_b   5.54116161
_cell_length_c   8.79731682
_cell_angle_alpha   90.00000000
_cell_angle_beta   90.00000000
_cell_angle_gamma   90.00000000
_symmetry_Int_Tables_number   1
_chemical_formula_structural   NiPH6NO5
_chemical_formula_sum   'Ni2 P2 H12 N2 O10'
_cell_volume   228.94844572
_cell_formula_units_Z   2
loop_
 _symmetry_equiv_pos_site_id
 _symmetry_equiv_pos_as_xyz
  1  'x, y, z'
loop_
 _atom_site_type_symbol
 _atom_site_label
 _atom_site_symmetry_multiplicity
 _atom_site_fract_x
 _atom_site_fract_y
 _atom_site_fract_z
 _atom_site_occupancy
  Ni  Ni0  1  0.07155619  0.00000000  0.98057465  1
  Ni  Ni1  1  0.57155619  0.50000000  0.01942535  1
  P  P2  1  0.49785176  0.00000000  0.19005535  1
  P  P3  1  0.99785176  0.50000000  0.80994465  1
  H  H4  1  0.48863191  0.14064569  0.81594089  1
  H  H5  1  0.48863191  0.85935431  0.81594089  1
  H  H6  1  0.98863191  0.35935431  0.18405911  1
  H  H7  1  0.98863191  0.64064569  0.18405911  1
  H  H8  1  0.75106207  0.00000000  0.46044659  1
  H  H9  1  0.25106207  0.50000000  0.53955341  1
  H  H10  1  0.11463212  0.00000000  0.45495942  1
  H  H11  1  0.61463212  0.50000000  0.54504058  1
  H  H12  1  0.94126324  0.15296467  0.59235595  1
  H  H13  1  0.94126324  0.84703533  0.59235595  1
  H  H14  1  0.44126324  0.34703533  0.40764405  1
  H  H15  1  0.44126324  0.65296467  0.40764405  1
  N  N16  1  0.93663053  0.00000000  0.52612069  1
  N  N17  1  0.43663053  0.50000000  0.47387931  1
  O  O18  1  0.36512731  0.00000000  0.80164812  1
  O  O19  1  0.86512731  0.50000000  0.19835188  1
  O  O20  1  0.81689489  0.00000000  0.16469960  1
  O  O21  1  0.31689489  0.50000000  0.83530040  1
  O  O22  1  0.34960344  0.22152429  0.11420886  1
  O  O23  1  0.34960344  0.77847571  0.11420886  1
  O  O24  1  0.84960344  0.27847571  0.88579114  1
  O  O25  1  0.84960344  0.72152429  0.88579114  1
  O  O26  1  0.43824594  0.00000000  0.36181379  1
  O  O27  1  0.93824594  0.50000000  0.63818621  1
