# generated using pymatgen
data_K3(TcCl4)2
_symmetry_space_group_name_H-M   'P 1'
_cell_length_a   12.75040318
_cell_length_b   12.75071526
_cell_length_c   8.14393495
_cell_angle_alpha   90.00975739
_cell_angle_beta   89.98845571
_cell_angle_gamma   120.00326109
_symmetry_Int_Tables_number   1
_chemical_formula_structural   K3(TcCl4)2
_chemical_formula_sum   'K9 Tc6 Cl24'
_cell_volume   1146.59253587
_cell_formula_units_Z   3
loop_
 _symmetry_equiv_pos_site_id
 _symmetry_equiv_pos_as_xyz
  1  'x, y, z'
loop_
 _atom_site_type_symbol
 _atom_site_label
 _atom_site_symmetry_multiplicity
 _atom_site_fract_x
 _atom_site_fract_y
 _atom_site_fract_z
 _atom_site_occupancy
  K  K0  1  0.33200185  0.81960396  0.92186039  1
  K  K1  1  0.48765198  0.66844825  0.58829319  1
  K  K2  1  0.18053190  0.51229251  0.25588411  1
  K  K3  1  0.66841926  0.48774001  0.41170024  1
  K  K4  1  0.81977978  0.33208085  0.07814771  1
  K  K5  1  0.51218901  0.18044248  0.74411770  1
  K  K6  1  0.70673385  0.00003021  0.33312000  1
  K  K7  1  0.29300804  0.29303932  -0.00004764  1
  K  K8  1  0.00001521  0.70668050  0.66683613  1
  Tc  Tc9  1  0.35828985  0.91736578  0.39864062  1
  Tc  Tc10  1  0.55902347  0.64170592  0.06556697  1
  Tc  Tc11  1  0.08262740  0.44094982  0.73257450  1
  Tc  Tc12  1  0.64157889  0.55913797  0.93445210  1
  Tc  Tc13  1  0.91761737  0.35841343  0.60139918  1
  Tc  Tc14  1  0.44082629  0.08238537  0.26746305  1
  Cl  Cl15  1  0.25302718  0.94644936  0.61811134  1
  Cl  Cl16  1  0.69342929  0.74700187  0.28501950  1
  Cl  Cl17  1  0.05336319  0.30650904  0.95189111  1
  Cl  Cl18  1  0.74691174  0.69352904  0.71498257  1
  Cl  Cl19  1  0.94665877  0.25315972  0.38188159  1
  Cl  Cl20  1  0.30642222  0.05316517  0.04814014  1
  Cl  Cl21  1  0.50197413  0.93789176  0.60463138  1
  Cl  Cl22  1  0.43581207  0.49823693  0.27168727  1
  Cl  Cl23  1  0.06219391  0.56406572  0.93876982  1
  Cl  Cl24  1  0.49816551  0.43593305  0.72830485  1
  Cl  Cl25  1  0.93812773  0.50208344  0.39538949  1
  Cl  Cl26  1  0.56397343  0.06199099  0.06130475  1
  Cl  Cl27  1  0.17300283  0.80038252  0.26648921  1
  Cl  Cl28  1  0.62734618  0.82698151  0.93325174  1
  Cl  Cl29  1  0.19961302  0.37264856  0.60024233  1
  Cl  Cl30  1  0.82684323  0.62744541  0.06670078  1
  Cl  Cl31  1  0.80062878  0.17311080  0.73347401  1
  Cl  Cl32  1  0.37248741  0.19933910  0.39972696  1
  Cl  Cl33  1  0.42280308  0.79207231  0.26635284  1
  Cl  Cl34  1  0.36935555  0.57704000  0.93298804  1
  Cl  Cl35  1  0.20776014  0.63076613  0.60014308  1
  Cl  Cl36  1  0.57689647  0.36945547  0.06699450  1
  Cl  Cl37  1  0.79228466  0.42287751  0.73366391  1
  Cl  Cl38  1  0.63062833  0.20754920  0.39985155  1
