# generated using pymatgen
data_Li4Ti2Mn3O10
_symmetry_space_group_name_H-M   'P 1'
_cell_length_a   6.51353200
_cell_length_b   7.88577653
_cell_length_c   7.97892205
_cell_angle_alpha   97.99869048
_cell_angle_beta   113.06139788
_cell_angle_gamma   89.40443615
_symmetry_Int_Tables_number   1
_chemical_formula_structural   Li4Ti2Mn3O10
_chemical_formula_sum   'Li8 Ti4 Mn6 O20'
_cell_volume   372.97355734
_cell_formula_units_Z   2
loop_
 _symmetry_equiv_pos_site_id
 _symmetry_equiv_pos_as_xyz
  1  'x, y, z'
loop_
 _atom_site_type_symbol
 _atom_site_label
 _atom_site_symmetry_multiplicity
 _atom_site_fract_x
 _atom_site_fract_y
 _atom_site_fract_z
 _atom_site_occupancy
  Li  Li0  1  0.59463753  0.21281898  0.76300929  1
  Li  Li1  1  0.30838569  0.08911373  0.40243845  1
  Li  Li2  1  0.75379260  0.25873249  0.48248550  1
  Li  Li3  1  0.24620740  0.74126751  0.51751450  1
  Li  Li4  1  0.69161431  0.91088627  0.59756155  1
  Li  Li5  1  0.40536247  0.78718102  0.23699071  1
  Li  Li6  1  0.81631561  0.57395001  0.39703621  1
  Li  Li7  1  0.18368439  0.42604999  0.60296379  1
  Ti  Ti8  1  0.84579101  0.94520106  0.31606980  1
  Ti  Ti9  1  0.15420899  0.05479894  0.68393020  1
  Ti  Ti10  1  0.33411727  0.43212621  0.31913609  1
  Ti  Ti11  1  0.66588273  0.56787379  0.68086391  1
  Mn  Mn12  1  0.46613698  0.14982527  0.11099951  1
  Mn  Mn13  1  0.53386302  0.85017473  0.88900049  1
  Mn  Mn14  1  -0.00000000  -0.00000000  -0.00000000  1
  Mn  Mn15  1  0.50000000  0.50000000  -0.00000000  1
  Mn  Mn16  1  0.96212137  0.64243553  0.11542174  1
  Mn  Mn17  1  0.03787863  0.35756447  0.88457826  1
  O  O18  1  0.28619844  0.95082349  0.93697314  1
  O  O19  1  0.41259101  0.98854587  0.65251592  1
  O  O20  1  0.58740899  0.01145413  0.34748408  1
  O  O21  1  0.89904686  0.13462760  0.76691188  1
  O  O22  1  0.02669309  0.14781024  0.46059826  1
  O  O23  1  0.71380156  0.04917651  0.06302686  1
  O  O24  1  0.40845827  0.63012948  0.76383069  1
  O  O25  1  0.21108586  0.21621092  0.16519647  1
  O  O26  1  0.52560393  0.65298714  0.45581790  1
  O  O27  1  0.78891414  0.78378908  0.83480353  1
  O  O28  1  0.70485497  0.71859408  0.16453098  1
  O  O29  1  0.97330691  0.85218976  0.53940174  1
  O  O30  1  0.29514503  0.28140592  0.83546902  1
  O  O31  1  0.10095314  0.86537240  0.23308812  1
  O  O32  1  0.78159664  0.44572722  0.92680983  1
  O  O33  1  0.47439607  0.34701286  0.54418210  1
  O  O34  1  0.59154173  0.36987052  0.23616931  1
  O  O35  1  0.90624928  0.47455652  0.64347676  1
  O  O36  1  0.09375072  0.52544348  0.35652324  1
  O  O37  1  0.21840336  0.55427278  0.07319017  1
