# generated using pymatgen
data_SbAsO4
_symmetry_space_group_name_H-M   'P 1'
_cell_length_a   6.97658234
_cell_length_b   4.80222498
_cell_length_c   5.39676060
_cell_angle_alpha   85.12720528
_cell_angle_beta   90.00000000
_cell_angle_gamma   90.00000000
_symmetry_Int_Tables_number   1
_chemical_formula_structural   SbAsO4
_chemical_formula_sum   'Sb2 As2 O8'
_cell_volume   180.15481920
_cell_formula_units_Z   2
loop_
 _symmetry_equiv_pos_site_id
 _symmetry_equiv_pos_as_xyz
  1  'x, y, z'
loop_
 _atom_site_type_symbol
 _atom_site_label
 _atom_site_symmetry_multiplicity
 _atom_site_fract_x
 _atom_site_fract_y
 _atom_site_fract_z
 _atom_site_occupancy
  Sb  Sb0  1  0.75000000  0.19608847  0.32273444  1
  Sb  Sb1  1  0.25000000  0.80391153  0.67726556  1
  As  As2  1  0.75000000  0.71544555  0.89253319  1
  As  As3  1  0.25000000  0.28455445  0.10746681  1
  O  O4  1  0.55950629  0.81799633  0.71805390  1
  O  O5  1  0.05950629  0.18200367  0.28194610  1
  O  O6  1  0.44049371  0.18200367  0.28194610  1
  O  O7  1  0.94049371  0.81799633  0.71805390  1
  O  O8  1  0.75000000  0.81870099  0.18998401  1
  O  O9  1  0.25000000  0.18129901  0.81001599  1
  O  O10  1  0.75000000  0.36006345  0.96061033  1
  O  O11  1  0.25000000  0.63993655  0.03938967  1
