# generated using pymatgen
data_SnP2O7
_symmetry_space_group_name_H-M   'P 1'
_cell_length_a   5.21660132
_cell_length_b   8.18882930
_cell_length_c   13.43414248
_cell_angle_alpha   71.06201620
_cell_angle_beta   90.00000000
_cell_angle_gamma   90.00000000
_symmetry_Int_Tables_number   1
_chemical_formula_structural   SnP2O7
_chemical_formula_sum   'Sn4 P8 O28'
_cell_volume   542.81401947
_cell_formula_units_Z   4
loop_
 _symmetry_equiv_pos_site_id
 _symmetry_equiv_pos_as_xyz
  1  'x, y, z'
loop_
 _atom_site_type_symbol
 _atom_site_label
 _atom_site_symmetry_multiplicity
 _atom_site_fract_x
 _atom_site_fract_y
 _atom_site_fract_z
 _atom_site_occupancy
  Sn  Sn0  1  0.24720467  0.26846507  0.14745343  1
  Sn  Sn1  1  0.25279533  0.26846507  0.64745343  1
  Sn  Sn2  1  0.74720467  0.73153493  0.35254657  1
  Sn  Sn3  1  0.75279533  0.73153493  0.85254657  1
  P  P4  1  0.27260658  0.82538142  0.69862580  1
  P  P5  1  0.25737893  0.70073767  0.51901247  1
  P  P6  1  0.75737893  0.29926233  0.98098753  1
  P  P7  1  0.77260658  0.17461858  0.80137420  1
  P  P8  1  0.22739342  0.82538142  0.19862580  1
  P  P9  1  0.24262107  0.70073767  0.01901247  1
  P  P10  1  0.74262107  0.29926233  0.48098753  1
  P  P11  1  0.72739342  0.17461858  0.30137420  1
  O  O12  1  0.53301875  0.74018039  0.72640927  1
  O  O13  1  0.22274881  0.83638471  0.57995991  1
  O  O14  1  0.06274063  0.71544343  0.76569844  1
  O  O15  1  0.69415412  0.47347076  0.90286342  1
  O  O16  1  0.53404520  0.71322938  0.48237184  1
  O  O17  1  0.03404520  0.28677062  0.01762816  1
  O  O18  1  0.19415412  0.52652924  0.59713658  1
  O  O19  1  0.57333466  0.23813085  0.07167479  1
  O  O20  1  0.72747757  0.99196885  0.30066400  1
  O  O21  1  0.56274063  0.28455657  0.73430156  1
  O  O22  1  0.72274881  0.16361529  0.92004009  1
  O  O23  1  0.03301875  0.25981961  0.77359073  1
  O  O24  1  0.22747757  0.00803115  0.19933600  1
  O  O25  1  0.07333466  0.76186915  0.42832521  1
  O  O26  1  0.92666534  0.23813085  0.57167479  1
  O  O27  1  0.77252243  0.99196885  0.80066400  1
  O  O28  1  0.96698125  0.74018039  0.22640927  1
  O  O29  1  0.27725119  0.83638471  0.07995991  1
  O  O30  1  0.43725937  0.71544343  0.26569844  1
  O  O31  1  0.27252243  0.00803115  0.69933600  1
  O  O32  1  0.42666534  0.76186915  0.92832521  1
  O  O33  1  0.80584588  0.47347076  0.40286342  1
  O  O34  1  0.96595480  0.71322938  0.98237184  1
  O  O35  1  0.46595480  0.28677062  0.51762816  1
  O  O36  1  0.30584588  0.52652924  0.09713658  1
  O  O37  1  0.93725937  0.28455657  0.23430156  1
  O  O38  1  0.77725119  0.16361529  0.42004009  1
  O  O39  1  0.46698125  0.25981961  0.27359073  1
