# generated using pymatgen
data_TiP2O7
_symmetry_space_group_name_H-M   'P 1'
_cell_length_a   8.13196510
_cell_length_b   7.12151822
_cell_length_c   9.38073496
_cell_angle_alpha   70.39509435
_cell_angle_beta   90.00018843
_cell_angle_gamma   90.00010581
_symmetry_Int_Tables_number   1
_chemical_formula_structural   TiP2O7
_chemical_formula_sum   'Ti4 P8 O28'
_cell_volume   511.76326563
_cell_formula_units_Z   4
loop_
 _symmetry_equiv_pos_site_id
 _symmetry_equiv_pos_as_xyz
  1  'x, y, z'
loop_
 _atom_site_type_symbol
 _atom_site_label
 _atom_site_symmetry_multiplicity
 _atom_site_fract_x
 _atom_site_fract_y
 _atom_site_fract_z
 _atom_site_occupancy
  Ti  Ti0  1  0.50834799  0.71983092  0.74400974  1
  Ti  Ti1  1  0.99164769  0.71983128  0.24401139  1
  Ti  Ti2  1  0.00835457  0.28017147  0.75598629  1
  Ti  Ti3  1  0.49165151  0.28016499  0.25598952  1
  P  P4  1  0.76334960  0.92054680  0.94284622  1
  P  P5  1  0.73664224  0.92054129  0.44285443  1
  P  P6  1  0.19738773  0.68037616  0.54894989  1
  P  P7  1  0.69739484  0.31961763  0.95105924  1
  P  P8  1  0.30261622  0.68037691  0.04895140  1
  P  P9  1  0.80260232  0.31961786  0.45105734  1
  P  P10  1  0.26334569  0.07946710  0.55714390  1
  P  P11  1  0.23665512  0.07948060  0.05714177  1
  O  O12  1  0.90935891  0.01134058  0.84365622  1
  O  O13  1  0.64633051  0.80808056  0.87656928  1
  O  O14  1  0.59064025  0.01134054  0.34366444  1
  O  O15  1  0.15554189  0.90228873  0.53922226  1
  O  O16  1  0.32604412  0.66790604  0.89317287  1
  O  O17  1  0.68463131  0.78957765  0.59949767  1
  O  O18  1  0.85366182  0.80806724  0.37657726  1
  O  O19  1  0.37348936  0.64089467  0.60416658  1
  O  O20  1  0.34445504  0.90229552  0.03922580  1
  O  O21  1  0.17394682  0.66791455  0.39316396  1
  O  O22  1  0.57774910  0.44966364  0.83623188  1
  O  O23  1  0.81536878  0.78957568  0.09949722  1
  O  O24  1  0.07775009  0.55034565  0.66377158  1
  O  O25  1  0.87348897  0.35910347  0.89583474  1
  O  O26  1  0.12651198  0.64089610  0.10417270  1
  O  O27  1  0.92224938  0.44965689  0.33622344  1
  O  O28  1  0.18463419  0.21041912  0.90050266  1
  O  O29  1  0.42224947  0.55034486  0.16377277  1
  O  O30  1  0.82604937  0.33208879  0.60682601  1
  O  O31  1  0.65554586  0.09771238  0.96077217  1
  O  O32  1  0.62651322  0.35909816  0.39583423  1
  O  O33  1  0.14633721  0.19192368  0.62342353  1
  O  O34  1  0.31536616  0.21041887  0.40050231  1
  O  O35  1  0.67395881  0.33208627  0.10683430  1
  O  O36  1  0.84446118  0.09770567  0.46077636  1
  O  O37  1  0.40936410  0.98865422  0.65634014  1
  O  O38  1  0.35366685  0.19192334  0.12342583  1
  O  O39  1  0.09063873  0.98865715  0.15633965  1
