# generated using pymatgen
data_Sr7W4O19
_symmetry_space_group_name_H-M   'P 1'
_cell_length_a   7.41833254
_cell_length_b   7.41833254
_cell_length_c   10.46969975
_cell_angle_alpha   82.39178767
_cell_angle_beta   82.39178767
_cell_angle_gamma   44.39364213
_symmetry_Int_Tables_number   1
_chemical_formula_structural   Sr7W4O19
_chemical_formula_sum   'Sr7 W4 O19'
_cell_volume   398.93351709
_cell_formula_units_Z   1
loop_
 _symmetry_equiv_pos_site_id
 _symmetry_equiv_pos_as_xyz
  1  'x, y, z'
loop_
 _atom_site_type_symbol
 _atom_site_label
 _atom_site_symmetry_multiplicity
 _atom_site_fract_x
 _atom_site_fract_y
 _atom_site_fract_z
 _atom_site_occupancy
  Sr  Sr0  1  0.86000679  0.86000679  0.95320222  1
  Sr  Sr1  1  0.41693492  0.41693492  0.16117710  1
  Sr  Sr2  1  0.79142070  0.79142070  0.58757990  1
  Sr  Sr3  1  0.20857930  0.20857930  0.41242010  1
  Sr  Sr4  1  0.58306508  0.58306508  0.83882290  1
  Sr  Sr5  1  0.13999321  0.13999321  0.04679778  1
  Sr  Sr6  1  0.50000000  0.50000000  0.50000000  1
  W  W7  1  0.96395326  0.96395326  0.31931349  1
  W  W8  1  0.32534545  0.32534545  0.78227436  1
  W  W9  1  0.67465455  0.67465455  0.21772564  1
  W  W10  1  0.03604674  0.03604674  0.68068651  1
  O  O11  1  0.68788677  0.16919401  0.71470700  1
  O  O12  1  0.16919401  0.68788677  0.71470700  1
  O  O13  1  0.39924260  0.39924260  0.92788616  1
  O  O14  1  0.95377271  0.95377271  0.14388659  1
  O  O15  1  0.63200058  0.12344464  0.37047340  1
  O  O16  1  0.12344464  0.63200058  0.37047340  1
  O  O17  1  0.30463822  0.30463822  0.61128666  1
  O  O18  1  -0.00027906  0.48433740  0.84635441  1
  O  O19  1  0.48433740  -0.00027906  0.84635441  1
  O  O20  1  0.51566260  0.00027906  0.15364559  1
  O  O21  1  0.00027906  0.51566260  0.15364559  1
  O  O22  1  0.69536178  0.69536178  0.38871334  1
  O  O23  1  0.36799942  0.87655536  0.62952660  1
  O  O24  1  0.87655536  0.36799942  0.62952660  1
  O  O25  1  0.04622729  0.04622729  0.85611341  1
  O  O26  1  0.60075740  0.60075740  0.07211384  1
  O  O27  1  0.83080599  0.31211323  0.28529300  1
  O  O28  1  0.31211323  0.83080599  0.28529300  1
  O  O29  1  0.00000000  0.00000000  0.50000000  1
