# generated using pymatgen
data_V4O7F5
_symmetry_space_group_name_H-M   'P 1'
_cell_length_a   5.11398684
_cell_length_b   5.21298881
_cell_length_c   8.85823981
_cell_angle_alpha   73.34836792
_cell_angle_beta   73.84708772
_cell_angle_gamma   61.39671548
_symmetry_Int_Tables_number   1
_chemical_formula_structural   V4O7F5
_chemical_formula_sum   'V4 O7 F5'
_cell_volume   195.82606409
_cell_formula_units_Z   1
loop_
 _symmetry_equiv_pos_site_id
 _symmetry_equiv_pos_as_xyz
  1  'x, y, z'
loop_
 _atom_site_type_symbol
 _atom_site_label
 _atom_site_symmetry_multiplicity
 _atom_site_fract_x
 _atom_site_fract_y
 _atom_site_fract_z
 _atom_site_occupancy
  V  V0  1  0.21516845  0.27528005  0.22968522  1
  V  V1  1  0.04616671  0.01618072  0.98524010  1
  V  V2  1  0.45479039  0.50499040  0.48824817  1
  V  V3  1  0.74707594  0.71427090  0.74266311  1
  O  O4  1  0.10157285  0.64353282  0.58710843  1
  O  O5  1  0.08711593  0.06925110  0.17320528  1
  O  O6  1  0.59913755  0.57637916  0.66468800  1
  O  O7  1  0.42331685  0.39490892  0.33799674  1
  O  O8  1  0.41301037  0.84160079  0.91554869  1
  O  O9  1  0.95388882  0.36546479  0.88431361  1
  O  O10  1  0.05889395  0.60137683  0.12140742  1
  F  F11  1  0.46865189  0.85841953  0.38060398  1
  F  F12  1  0.58535763  0.13840564  0.09397350  1
  F  F13  1  0.56386626  0.12204137  0.62416005  1
  F  F14  1  0.91523366  0.91194774  0.84159998  1
  F  F15  1  0.92900174  0.32832525  0.41739772  1
