# generated using pymatgen
data_PrBiO4
_symmetry_space_group_name_H-M   'P 1'
_cell_length_a   5.61547189
_cell_length_b   5.70105124
_cell_length_c   10.89375836
_cell_angle_alpha   90.00000000
_cell_angle_beta   90.00000000
_cell_angle_gamma   90.00000000
_symmetry_Int_Tables_number   1
_chemical_formula_structural   PrBiO4
_chemical_formula_sum   'Pr4 Bi4 O16'
_cell_volume   348.75379306
_cell_formula_units_Z   4
loop_
 _symmetry_equiv_pos_site_id
 _symmetry_equiv_pos_as_xyz
  1  'x, y, z'
loop_
 _atom_site_type_symbol
 _atom_site_label
 _atom_site_symmetry_multiplicity
 _atom_site_fract_x
 _atom_site_fract_y
 _atom_site_fract_z
 _atom_site_occupancy
  Pr  Pr0  1  0.19566191  0.75000000  0.75000000  1
  Pr  Pr1  1  0.30433809  0.75000000  0.25000000  1
  Pr  Pr2  1  0.69566191  0.25000000  0.75000000  1
  Pr  Pr3  1  0.80433809  0.25000000  0.25000000  1
  Bi  Bi4  1  0.25000000  0.20209329  0.00000000  1
  Bi  Bi5  1  0.25000000  0.29790671  0.50000000  1
  Bi  Bi6  1  0.75000000  0.70209329  0.50000000  1
  Bi  Bi7  1  0.75000000  0.79790671  0.00000000  1
  O  O8  1  0.98324103  0.44753249  0.61557328  1
  O  O9  1  0.98324103  0.05246751  0.88442672  1
  O  O10  1  0.11899637  0.42812627  0.12886694  1
  O  O11  1  0.11899637  0.07187373  0.37113306  1
  O  O12  1  0.38100363  0.07187373  0.62886694  1
  O  O13  1  0.38100363  0.42812627  0.87113306  1
  O  O14  1  0.51675897  0.05246751  0.11557328  1
  O  O15  1  0.51675897  0.44753249  0.38442672  1
  O  O16  1  0.48324103  0.55246751  0.61557328  1
  O  O17  1  0.48324103  0.94753249  0.88442672  1
  O  O18  1  0.61899637  0.57187373  0.12886694  1
  O  O19  1  0.61899637  0.92812627  0.37113306  1
  O  O20  1  0.88100363  0.92812627  0.62886694  1
  O  O21  1  0.88100363  0.57187373  0.87113306  1
  O  O22  1  0.01675897  0.94753249  0.11557328  1
  O  O23  1  0.01675897  0.55246751  0.38442672  1
