# generated using pymatgen
data_Zr3N4
_symmetry_space_group_name_H-M   'P 1'
_cell_length_a   6.46496179
_cell_length_b   6.46496179
_cell_length_c   6.46496179
_cell_angle_alpha   60.00000000
_cell_angle_beta   90.00000000
_cell_angle_gamma   120.00000000
_symmetry_Int_Tables_number   1
_chemical_formula_structural   Zr3N4
_chemical_formula_sum   'Zr6 N8'
_cell_volume   191.06576999
_cell_formula_units_Z   2
loop_
 _symmetry_equiv_pos_site_id
 _symmetry_equiv_pos_as_xyz
  1  'x, y, z'
loop_
 _atom_site_type_symbol
 _atom_site_label
 _atom_site_symmetry_multiplicity
 _atom_site_fract_x
 _atom_site_fract_y
 _atom_site_fract_z
 _atom_site_occupancy
  Zr  Zr0  1  0.50000000  -0.00000000  0.00000000  1
  Zr  Zr1  1  0.50000000  -0.00000000  0.50000000  1
  Zr  Zr2  1  0.12500000  0.25000000  0.12500000  1
  Zr  Zr3  1  0.50000000  0.50000000  0.50000000  1
  Zr  Zr4  1  0.87500000  0.75000000  0.87500000  1
  Zr  Zr5  1  0.00000000  0.50000000  0.50000000  1
  N  N6  1  0.74210329  0.48420659  0.27369112  1
  N  N7  1  0.74210329  0.01579341  0.74210329  1
  N  N8  1  0.74210329  0.48420659  0.74210329  1
  N  N9  1  0.27369112  0.01579341  0.74210329  1
  N  N10  1  0.25789671  0.51579341  0.25789671  1
  N  N11  1  0.72630888  0.98420659  0.25789671  1
  N  N12  1  0.25789671  0.51579341  0.72630888  1
  N  N13  1  0.25789671  0.98420659  0.25789671  1
