# generated using pymatgen
data_V4(OF3)3
_symmetry_space_group_name_H-M   'P 1'
_cell_length_a   5.09172957
_cell_length_b   5.28667450
_cell_length_c   17.05014324
_cell_angle_alpha   89.15560630
_cell_angle_beta   98.33591270
_cell_angle_gamma   118.87047784
_symmetry_Int_Tables_number   1
_chemical_formula_structural   V4(OF3)3
_chemical_formula_sum   'V8 O6 F18'
_cell_volume   396.86257887
_cell_formula_units_Z   2
loop_
 _symmetry_equiv_pos_site_id
 _symmetry_equiv_pos_as_xyz
  1  'x, y, z'
loop_
 _atom_site_type_symbol
 _atom_site_label
 _atom_site_symmetry_multiplicity
 _atom_site_fract_x
 _atom_site_fract_y
 _atom_site_fract_z
 _atom_site_occupancy
  V  V0  1  0.24488613  0.62056920  0.87461919  1
  V  V1  1  0.25978363  0.15598179  0.37203973  1
  V  V2  1  0.54388156  0.26231348  0.74812492  1
  V  V3  1  0.49223704  0.72498634  0.25167258  1
  V  V4  1  0.75478569  0.89799958  0.62521009  1
  V  V5  1  0.71734538  0.37826120  0.12813693  1
  V  V6  1  0.95176781  0.97700017  0.99950630  1
  V  V7  1  0.01198013  0.50096442  0.49139341  1
  O  O8  1  0.08019128  0.34404370  0.41835883  1
  O  O9  1  0.59046339  0.78725578  0.95861612  1
  O  O10  1  0.45748688  0.44328238  0.31596754  1
  O  O11  1  0.61293878  0.08120432  0.66729374  1
  O  O12  1  0.57524194  0.56407393  0.16769850  1
  O  O13  1  0.90240061  0.45736490  0.79309459  1
  F  F14  1  0.08982789  0.84834740  0.91493956  1
  F  F15  1  0.02752235  0.32086171  0.94176843  1
  F  F16  1  0.02579982  0.82396262  0.43382019  1
  F  F17  1  0.47096540  0.92926895  0.81231703  1
  F  F18  1  0.09885353  0.02294496  0.70890198  1
  F  F19  1  0.06666787  0.52833506  0.21395484  1
  F  F20  1  0.39628702  0.39543809  0.83267397  1
  F  F21  1  0.42878408  0.92183662  0.33927150  1
  F  F22  1  0.44164692  0.74405715  0.53288357  1
  F  F23  1  0.52597770  0.54866858  0.68068266  1
  F  F24  1  0.57282003  0.29295412  0.46386484  1
  F  F25  1  0.40665466  0.19682682  0.03837353  1
  F  F26  1  0.92994968  0.67818057  0.58044808  1
  F  F27  1  0.92435707  0.96095172  0.28611702  1
  F  F28  1  0.51402146  0.04228413  0.18888975  1
  F  F29  1  0.96865370  0.67717193  0.06361771  1
  F  F30  1  0.00402445  0.21552608  0.56497295  1
  F  F31  1  0.91179408  0.15708632  0.09076793  1
