# generated using pymatgen
data_Dy2WO6
_symmetry_space_group_name_H-M   'P 1'
_cell_length_a   5.21875940
_cell_length_b   9.05048439
_cell_length_c   9.88835073
_cell_angle_alpha   90.00000000
_cell_angle_beta   90.00000000
_cell_angle_gamma   90.00000000
_symmetry_Int_Tables_number   1
_chemical_formula_structural   Dy2WO6
_chemical_formula_sum   'Dy8 W4 O24'
_cell_volume   467.04955298
_cell_formula_units_Z   4
loop_
 _symmetry_equiv_pos_site_id
 _symmetry_equiv_pos_as_xyz
  1  'x, y, z'
loop_
 _atom_site_type_symbol
 _atom_site_label
 _atom_site_symmetry_multiplicity
 _atom_site_fract_x
 _atom_site_fract_y
 _atom_site_fract_z
 _atom_site_occupancy
  Dy  Dy0  1  0.01924416  0.39654334  0.03422950  1
  Dy  Dy1  1  0.03794354  0.28049779  0.62787436  1
  Dy  Dy2  1  0.46205646  0.71950221  0.12787436  1
  Dy  Dy3  1  0.48075584  0.60345666  0.53422950  1
  Dy  Dy4  1  0.51924416  0.10345666  0.96577050  1
  Dy  Dy5  1  0.53794354  0.21950221  0.37212564  1
  Dy  Dy6  1  0.96205646  0.78049779  0.87212564  1
  Dy  Dy7  1  0.98075584  0.89654334  0.46577050  1
  W  W8  1  0.03939182  0.00476675  0.15278728  1
  W  W9  1  0.46060818  0.99523325  0.65278728  1
  W  W10  1  0.53939182  0.49523325  0.84721272  1
  W  W11  1  0.96060818  0.50476675  0.34721272  1
  O  O12  1  0.08327282  0.65622452  0.46975015  1
  O  O13  1  0.17577066  0.54700177  0.20273480  1
  O  O14  1  0.18120941  0.86255932  0.68082039  1
  O  O15  1  0.19317975  0.85988640  0.26422694  1
  O  O16  1  0.23090133  0.38617306  0.43249403  1
  O  O17  1  0.25165321  0.08990075  0.50607700  1
  O  O18  1  0.24834679  0.91009925  0.00607700  1
  O  O19  1  0.26909867  0.61382694  0.93249403  1
  O  O20  1  0.30682025  0.14011360  0.76422694  1
  O  O21  1  0.31879059  0.13744068  0.18082039  1
  O  O22  1  0.32422934  0.45299823  0.70273480  1
  O  O23  1  0.41672718  0.34377548  0.96975015  1
  O  O24  1  0.58327282  0.84377548  0.53024985  1
  O  O25  1  0.67577066  0.95299823  0.79726520  1
  O  O26  1  0.68120941  0.63744068  0.31917961  1
  O  O27  1  0.69317975  0.64011360  0.73577306  1
  O  O28  1  0.73090133  0.11382694  0.56750597  1
  O  O29  1  0.75165321  0.41009925  0.49392300  1
  O  O30  1  0.74834679  0.58990075  0.99392300  1
  O  O31  1  0.76909867  0.88617306  0.06750597  1
  O  O32  1  0.80682025  0.35988640  0.23577306  1
  O  O33  1  0.81879059  0.36255932  0.81917961  1
  O  O34  1  0.82422934  0.04700177  0.29726520  1
  O  O35  1  0.91672718  0.15622452  0.03024985  1
