# generated using pymatgen
data_Gd3Y5O12
_symmetry_space_group_name_H-M   'P 1'
_cell_length_a   9.24481741
_cell_length_b   9.25212582
_cell_length_c   9.25235597
_cell_angle_alpha   109.48677069
_cell_angle_beta   109.41490990
_cell_angle_gamma   109.44901116
_symmetry_Int_Tables_number   1
_chemical_formula_structural   Gd3Y5O12
_chemical_formula_sum   'Gd6 Y10 O24'
_cell_volume   609.68741420
_cell_formula_units_Z   2
loop_
 _symmetry_equiv_pos_site_id
 _symmetry_equiv_pos_as_xyz
  1  'x, y, z'
loop_
 _atom_site_type_symbol
 _atom_site_label
 _atom_site_symmetry_multiplicity
 _atom_site_fract_x
 _atom_site_fract_y
 _atom_site_fract_z
 _atom_site_occupancy
  Gd  Gd0  1  0.46837944  0.25028599  0.71927038  1
  Gd  Gd1  1  0.53285575  0.74984504  0.28258631  1
  Gd  Gd2  1  0.03124605  0.74909512  0.78095114  1
  Gd  Gd3  1  0.75101675  0.21855132  0.46749145  1
  Gd  Gd4  1  0.24927091  0.28233984  0.03187117  1
  Gd  Gd5  1  0.28087363  0.03196809  0.24995925  1
  Y  Y6  1  0.50078753  0.99885021  0.99898927  1
  Y  Y7  1  0.71691088  0.96675535  0.75073847  1
  Y  Y8  1  0.74926688  0.71766449  0.96755784  1
  Y  Y9  1  0.24980350  0.78122551  0.53262237  1
  Y  Y10  1  0.96644565  0.25032311  0.21658896  1
  Y  Y11  1  0.49884987  0.50116034  0.50114535  1
  Y  Y12  1  0.00004409  0.99956307  0.49881182  1
  Y  Y13  1  0.21718328  0.46722922  0.74896161  1
  Y  Y14  1  0.99973916  0.50010766  0.00079671  1
  Y  Y15  1  0.78417129  0.53342955  0.25013266  1
  O  O16  1  0.73200116  0.46038136  0.97142383  1
  O  O17  1  0.51066769  0.03908952  0.77181474  1
  O  O18  1  0.26305388  0.03078226  0.98817290  1
  O  O19  1  0.45757309  0.72835401  0.49145301  1
  O  O20  1  0.23531393  0.22780909  0.76686212  1
  O  O21  1  0.04316486  0.53195057  0.27100378  1
  O  O22  1  0.76722797  0.73869231  0.72822097  1
  O  O23  1  0.98910420  0.76070360  0.52865968  1
  O  O24  1  0.46895212  0.51336042  0.74095385  1
  O  O25  1  0.72845268  0.27040685  0.23508102  1
  O  O26  1  0.96480306  0.22953588  0.95798251  1
  O  O27  1  0.22735686  0.98637538  0.45885430  1
  O  O28  1  0.27302203  0.72839234  0.75980830  1
  O  O29  1  0.77428386  0.01065117  0.54495005  1
  O  O30  1  0.53438926  0.48947713  0.26380378  1
  O  O31  1  0.02791941  0.76810352  0.04135221  1
  O  O32  1  0.01266161  0.23936728  0.46750489  1
  O  O33  1  0.22882153  0.26363135  0.27348784  1
  O  O34  1  0.76383800  0.77225471  0.22962000  1
  O  O35  1  0.96041332  0.46829265  0.73239395  1
  O  O36  1  0.54204937  0.27502202  0.51145715  1
  O  O37  1  0.73986534  0.96841880  0.01139723  1
  O  O38  1  0.26840561  0.54191503  0.02893500  1
  O  O39  1  0.48981451  0.95863788  0.22633212  1
