# generated using pymatgen
data_VF5
_symmetry_space_group_name_H-M   'P 1'
_cell_length_a   4.99644499
_cell_length_b   4.99644499
_cell_length_c   8.46635757
_cell_angle_alpha   64.73724851
_cell_angle_beta   64.73724851
_cell_angle_gamma   72.44260863
_symmetry_Int_Tables_number   1
_chemical_formula_structural   VF5
_chemical_formula_sum   'V2 F10'
_cell_volume   171.00683015
_cell_formula_units_Z   2
loop_
 _symmetry_equiv_pos_site_id
 _symmetry_equiv_pos_as_xyz
  1  'x, y, z'
loop_
 _atom_site_type_symbol
 _atom_site_label
 _atom_site_symmetry_multiplicity
 _atom_site_fract_x
 _atom_site_fract_y
 _atom_site_fract_z
 _atom_site_occupancy
  V  V0  1  0.01269001  0.98381157  0.03980934  1
  V  V1  1  0.98381157  0.01269001  0.53980934  1
  F  F2  1  0.21713589  0.67172017  0.97663487  1
  F  F3  1  0.30192389  0.17809526  0.86070224  1
  F  F4  1  0.81806995  0.69480309  0.62302355  1
  F  F5  1  0.92551876  0.07059455  0.73849866  1
  F  F6  1  0.67172017  0.21713589  0.47663487  1
  F  F7  1  0.32616491  0.77919196  0.50541134  1
  F  F8  1  0.07059455  0.92551876  0.23849866  1
  F  F9  1  0.17809526  0.30192389  0.36070224  1
  F  F10  1  0.69480309  0.81806995  0.12302355  1
  F  F11  1  0.77919196  0.32616491  0.00541134  1
