# generated using pymatgen
data_La2P4O13
_symmetry_space_group_name_H-M   'P 1'
_cell_length_a   9.70512427
_cell_length_b   9.70512427
_cell_length_c   8.85819271
_cell_angle_alpha   90.00000000
_cell_angle_beta   90.00000000
_cell_angle_gamma   135.65183650
_symmetry_Int_Tables_number   1
_chemical_formula_structural   La2P4O13
_chemical_formula_sum   'La4 P8 O26'
_cell_volume   583.22328016
_cell_formula_units_Z   2
loop_
 _symmetry_equiv_pos_site_id
 _symmetry_equiv_pos_as_xyz
  1  'x, y, z'
loop_
 _atom_site_type_symbol
 _atom_site_label
 _atom_site_symmetry_multiplicity
 _atom_site_fract_x
 _atom_site_fract_y
 _atom_site_fract_z
 _atom_site_occupancy
  La  La0  1  0.60481248  0.89714426  0.13980741  1
  La  La1  1  0.10285574  0.39518752  0.36019259  1
  La  La2  1  0.39518752  0.10285574  0.63980741  1
  La  La3  1  0.89714426  0.60481248  0.86019259  1
  P  P4  1  0.72977786  0.85711355  0.76406296  1
  P  P5  1  0.14288645  0.27022214  0.73593704  1
  P  P6  1  0.09935412  0.41504127  0.99881628  1
  P  P7  1  0.58495873  0.90064588  0.50118372  1
  P  P8  1  0.41504127  0.09935412  0.00118372  1
  P  P9  1  0.90064588  0.58495873  0.49881628  1
  P  P10  1  0.85711355  0.72977786  0.23593704  1
  P  P11  1  0.27022214  0.14288645  0.26406296  1
  O  O12  1  0.75966206  0.79568007  0.21533404  1
  O  O13  1  0.20431993  0.24033794  0.28466596  1
  O  O14  1  0.91097104  0.08902896  0.75000000  1
  O  O15  1  0.19770095  0.36528493  0.89848375  1
  O  O16  1  0.63471507  0.80229905  0.60151625  1
  O  O17  1  0.59899966  0.82251309  0.88255070  1
  O  O18  1  0.17748691  0.40100034  0.61744930  1
  O  O19  1  0.93425859  0.23315122  0.09311199  1
  O  O20  1  0.76684878  0.06574141  0.40688801  1
  O  O21  1  0.42817747  0.73916167  0.39033832  1
  O  O22  1  0.26083833  0.57182253  0.10966168  1
  O  O23  1  0.03237405  0.47941285  0.89503557  1
  O  O24  1  0.52058715  0.96762595  0.60496443  1
  O  O25  1  0.47941285  0.03237405  0.10496443  1
  O  O26  1  0.96762595  0.52058715  0.39503557  1
  O  O27  1  0.57182253  0.26083833  0.89033832  1
  O  O28  1  0.73916167  0.42817747  0.60966168  1
  O  O29  1  0.06574141  0.76684878  0.59311199  1
  O  O30  1  0.23315122  0.93425859  0.90688801  1
  O  O31  1  0.82251309  0.59899966  0.11744930  1
  O  O32  1  0.40100034  0.17748691  0.38255070  1
  O  O33  1  0.36528493  0.19770095  0.10151625  1
  O  O34  1  0.80229905  0.63471507  0.39848375  1
  O  O35  1  0.08902896  0.91097104  0.25000000  1
  O  O36  1  0.24033794  0.20431993  0.71533404  1
  O  O37  1  0.79568007  0.75966206  0.78466596  1
