# generated using pymatgen
data_Zr2N2O
_symmetry_space_group_name_H-M   'P 1'
_cell_length_a   8.80614723
_cell_length_b   8.78181946
_cell_length_c   8.76571229
_cell_angle_alpha   109.35226425
_cell_angle_beta   109.32752198
_cell_angle_gamma   109.56911784
_symmetry_Int_Tables_number   1
_chemical_formula_structural   Zr2N2O
_chemical_formula_sum   'Zr16 N16 O8'
_cell_volume   522.89434621
_cell_formula_units_Z   8
loop_
 _symmetry_equiv_pos_site_id
 _symmetry_equiv_pos_as_xyz
  1  'x, y, z'
loop_
 _atom_site_type_symbol
 _atom_site_label
 _atom_site_symmetry_multiplicity
 _atom_site_fract_x
 _atom_site_fract_y
 _atom_site_fract_z
 _atom_site_occupancy
  Zr  Zr0  1  0.50030165  0.99976830  0.98742330  1
  Zr  Zr1  1  0.74852409  0.29139381  0.53403945  1
  Zr  Zr2  1  0.21752592  0.96296607  0.24865188  1
  Zr  Zr3  1  0.72015834  0.47209130  0.24786229  1
  Zr  Zr4  1  0.24281147  0.21225829  0.95559092  1
  Zr  Zr5  1  0.00945649  0.50970244  0.00607070  1
  Zr  Zr6  1  0.53358662  0.74965180  0.29189279  1
  Zr  Zr7  1  0.99734193  0.99607309  0.50527751  1
  Zr  Zr8  1  0.50250708  0.50015336  0.50946665  1
  Zr  Zr9  1  0.97155829  0.25878898  0.21434026  1
  Zr  Zr10  1  0.46234233  0.25636288  0.71895785  1
  Zr  Zr11  1  0.02783083  0.73985230  0.77674236  1
  Zr  Zr12  1  0.75224568  0.78168208  0.03290409  1
  Zr  Zr13  1  0.78851938  0.03287546  0.75961584  1
  Zr  Zr14  1  0.27989202  0.53283279  0.74588959  1
  Zr  Zr15  1  0.25152606  0.70777230  0.46703207  1
  N  N16  1  0.72872369  0.98988964  0.96008215  1
  N  N17  1  0.51442993  0.23876744  0.96859887  1
  N  N18  1  0.77000226  0.54134359  0.52704056  1
  N  N19  1  0.76835806  0.73064874  0.26128868  1
  N  N20  1  0.46541702  0.22481684  0.45589138  1
  N  N21  1  0.04921989  0.27573957  0.01490950  1
  N  N22  1  0.95806950  0.73269699  0.99079052  1
  N  N23  1  0.96475515  0.50822169  0.23909005  1
  N  N24  1  0.27464562  0.74293986  0.22593407  1
  N  N25  1  0.53624803  0.77276915  0.54211974  1
  N  N26  1  0.22812550  0.45295454  0.46723135  1
  N  N27  1  0.54541967  0.53373611  0.77593590  1
  N  N28  1  0.98800498  0.95596489  0.72681894  1
  N  N29  1  0.22530680  0.26675340  0.73460806  1
  N  N30  1  0.02900627  0.48342638  0.75773939  1
  N  N31  1  0.26592092  0.77904704  0.73073109  1
  O  O32  1  0.76382821  0.03680397  0.48731977  1
  O  O33  1  0.27549723  0.01304596  0.04753809  1
  O  O34  1  0.73549903  0.21938349  0.27416752  1
  O  O35  1  0.45117090  0.46808125  0.22462013  1
  O  O36  1  0.22820899  0.96175498  0.50398063  1
  O  O37  1  0.72619677  0.25520542  0.76803589  1
  O  O38  1  0.01503524  0.04704955  0.27779427  1
  O  O39  1  0.48678115  0.76473727  0.03597389  1
