# generated using pymatgen
data_Li2Ti4O9
_symmetry_space_group_name_H-M   'P 1'
_cell_length_a   5.02225007
_cell_length_b   5.02224980
_cell_length_c   13.81786819
_cell_angle_alpha   89.99998025
_cell_angle_beta   90.00001402
_cell_angle_gamma   119.99968916
_symmetry_Int_Tables_number   1
_chemical_formula_structural   Li2Ti4O9
_chemical_formula_sum   'Li4 Ti8 O18'
_cell_volume   301.83505767
_cell_formula_units_Z   2
loop_
 _symmetry_equiv_pos_site_id
 _symmetry_equiv_pos_as_xyz
  1  'x, y, z'
loop_
 _atom_site_type_symbol
 _atom_site_label
 _atom_site_symmetry_multiplicity
 _atom_site_fract_x
 _atom_site_fract_y
 _atom_site_fract_z
 _atom_site_occupancy
  Li  Li0  1  -0.00000988  -0.00000946  0.14527225  1
  Li  Li1  1  -0.00000833  -0.00000889  0.35471096  1
  Li  Li2  1  0.00000835  0.00000851  0.64528893  1
  Li  Li3  1  0.00000998  0.00000932  0.85472779  1
  Ti  Ti4  1  0.33333293  0.66666648  0.02486791  1
  Ti  Ti5  1  0.33333170  0.66666521  0.31225758  1
  Ti  Ti6  1  0.33333357  0.66666696  0.52486073  1
  Ti  Ti7  1  0.33333468  0.66666794  0.81228135  1
  Ti  Ti8  1  0.66666542  0.33333194  0.18771848  1
  Ti  Ti9  1  0.66666846  0.33333447  0.68774237  1
  Ti  Ti10  1  0.66666648  0.33333283  0.47513919  1
  Ti  Ti11  1  0.66666705  0.33333335  0.97513214  1
  O  O12  1  0.99997671  0.66163873  0.75002243  1
  O  O13  1  0.02561413  0.64281410  0.41834677  1
  O  O14  1  0.35713033  0.97435849  0.91836410  1
  O  O15  1  0.00002344  0.33836201  0.24997761  1
  O  O16  1  0.02564308  0.38277231  0.91836412  1
  O  O17  1  0.35718639  0.38280105  0.41834679  1
  O  O18  1  0.33835929  0.33833557  0.75002245  1
  O  O19  1  0.38277291  0.35713148  0.08163561  1
  O  O20  1  0.61719938  0.97438430  0.41834674  1
  O  O21  1  0.33833877  0.99997644  0.24997758  1
  O  O22  1  0.38280052  0.02561564  0.58165330  1
  O  O23  1  0.61722723  0.64286919  0.91836416  1
  O  O24  1  0.66163986  0.66166333  0.24997754  1
  O  O25  1  0.64281402  0.61719880  0.58165323  1
  O  O26  1  0.97435749  0.61722744  0.08163567  1
  O  O27  1  0.64286899  0.02564094  0.08163565  1
  O  O28  1  0.66166240  0.00002330  0.75002232  1
  O  O29  1  0.97438563  0.35718524  0.58165325  1
