# generated using pymatgen
data_V2OF5
_symmetry_space_group_name_H-M   'P 1'
_cell_length_a   5.08955136
_cell_length_b   5.31083291
_cell_length_c   11.32005362
_cell_angle_alpha   99.37626823
_cell_angle_beta   102.86085658
_cell_angle_gamma   90.03253851
_symmetry_Int_Tables_number   1
_chemical_formula_structural   V2OF5
_chemical_formula_sum   'V6 O3 F15'
_cell_volume   294.10113574
_cell_formula_units_Z   3
loop_
 _symmetry_equiv_pos_site_id
 _symmetry_equiv_pos_as_xyz
  1  'x, y, z'
loop_
 _atom_site_type_symbol
 _atom_site_label
 _atom_site_symmetry_multiplicity
 _atom_site_fract_x
 _atom_site_fract_y
 _atom_site_fract_z
 _atom_site_occupancy
  V  V0  1  0.16705613  0.16859440  0.33736493  1
  V  V1  1  0.36094389  0.34393235  0.68783898  1
  V  V2  1  0.49191181  0.50649266  0.01405145  1
  V  V3  1  0.66455425  0.66641922  0.33222539  1
  V  V4  1  0.99231683  0.99678443  0.99473202  1
  V  V5  1  0.84021792  0.82578517  0.65015277  1
  O  O6  1  0.51227199  0.41672627  0.83349392  1
  O  O7  1  0.84116625  0.75418377  0.50136007  1
  O  O8  1  0.49012433  0.58049443  0.16361526  1
  F  F9  1  0.80859072  0.91196351  0.82442266  1
  F  F10  1  0.62988242  0.13177700  0.63091819  1
  F  F11  1  0.50416753  0.62766718  0.63132711  1
  F  F12  1  0.15624834  0.25189060  0.50573853  1
  F  F13  1  0.82803270  0.70080361  0.03255421  1
  F  F14  1  0.16803935  0.03802467  0.70277852  1
  F  F15  1  0.96331430  0.45979083  0.29964726  1
  F  F16  1  0.28903223  0.79189827  0.95996075  1
  F  F17  1  0.69981514  0.20175143  0.03341100  1
  F  F18  1  0.16291632  0.29533860  0.96062215  1
  F  F19  1  0.83036405  0.96019113  0.29716093  1
  F  F20  1  0.04137340  0.53654930  0.70146256  1
  F  F21  1  0.50238950  0.37532911  0.37120589  1
  F  F22  1  0.36637742  0.87106077  0.36691461  1
  F  F23  1  0.18889420  0.08654730  0.16704283  1
