# generated using pymatgen
data_PbC2S2(BrN2)2
_symmetry_space_group_name_H-M   'P 1'
_cell_length_a   13.79865800
_cell_length_b   4.23245400
_cell_length_c   10.08692476
_cell_angle_alpha   88.04076614
_cell_angle_beta   90.00000000
_cell_angle_gamma   90.00000000
_symmetry_Int_Tables_number   1
_chemical_formula_structural   PbC2S2(BrN2)2
_chemical_formula_sum   'Pb2 C4 S4 Br4 N8'
_cell_volume   588.75406473
_cell_formula_units_Z   2
loop_
 _symmetry_equiv_pos_site_id
 _symmetry_equiv_pos_as_xyz
  1  'x, y, z'
loop_
 _atom_site_type_symbol
 _atom_site_label
 _atom_site_symmetry_multiplicity
 _atom_site_fract_x
 _atom_site_fract_y
 _atom_site_fract_z
 _atom_site_occupancy
  Pb  Pb0  1  0.09254400  0.83255600  0.22719000  1
  Pb  Pb1  1  0.59254400  0.16744400  0.77281000  1
  C  C2  1  0.38051700  0.11146000  0.22898500  1
  C  C3  1  0.88051700  0.88854000  0.77101500  1
  C  C4  1  0.81092000  0.06363600  0.31170200  1
  C  C5  1  0.31092000  0.93636400  0.68829800  1
  S  S6  1  0.29646800  0.16213900  0.33440100  1
  S  S7  1  0.79646800  0.83786100  0.66559900  1
  S  S8  1  0.95200100  0.31976700  0.19635300  1
  S  S9  1  0.45200100  0.68023300  0.80364700  1
  Br  Br10  1  0.15074700  0.45724600  0.01859700  1
  Br  Br11  1  0.65074700  0.54275400  0.98140300  1
  Br  Br12  1  0.12570000  0.61189600  0.47589300  1
  Br  Br13  1  0.62570000  0.38810400  0.52410700  1
  N  N14  1  0.47860400  0.06348100  0.19871800  1
  N  N15  1  0.97860400  0.93651900  0.80128200  1
  N  N16  1  0.41773900  0.07803500  0.10088100  1
  N  N17  1  0.91773900  0.92196500  0.89911900  1
  N  N18  1  0.74507800  0.88756200  0.30482300  1
  N  N19  1  0.24507800  0.11243800  0.69517700  1
  N  N20  1  0.88308300  0.26392900  0.32485200  1
  N  N21  1  0.38308300  0.73607100  0.67514800  1
