# generated using pymatgen
data_K5Ce2H2S6O25
_symmetry_space_group_name_H-M   'P 1'
_cell_length_a   9.62181196
_cell_length_b   9.62181196
_cell_length_c   19.58826225
_cell_angle_alpha   69.67730190
_cell_angle_beta   110.32269810
_cell_angle_gamma   136.72214472
_symmetry_Int_Tables_number   1
_chemical_formula_structural   K5Ce2H2S6O25
_chemical_formula_sum   'K10 Ce4 H4 S12 O50'
_cell_volume   1153.15908038
_cell_formula_units_Z   2
loop_
 _symmetry_equiv_pos_site_id
 _symmetry_equiv_pos_as_xyz
  1  'x, y, z'
loop_
 _atom_site_type_symbol
 _atom_site_label
 _atom_site_symmetry_multiplicity
 _atom_site_fract_x
 _atom_site_fract_y
 _atom_site_fract_z
 _atom_site_occupancy
  K  K0  1  0.93074302  0.22755485  0.76564593  1
  K  K1  1  0.77244515  0.06925698  0.26564593  1
  K  K2  1  0.43639036  0.29185122  0.80563825  1
  K  K3  1  0.70814878  0.56360964  0.30563825  1
  K  K4  1  0.39077890  0.81372356  0.91617337  1
  K  K5  1  0.18627644  0.60922110  0.41617337  1
  K  K6  1  0.51519195  0.68013506  0.60086996  1
  K  K7  1  0.31986494  0.48480805  0.10086996  1
  K  K8  1  -0.00134527  0.72931319  0.72621304  1
  K  K9  1  0.27068681  0.00134527  0.22621304  1
  Ce  Ce10  1  0.07306689  0.07114567  0.50034394  1
  Ce  Ce11  1  0.92885433  0.92693311  0.00034394  1
  Ce  Ce12  1  0.63137130  0.22489691  0.53098088  1
  Ce  Ce13  1  0.77510309  0.36862870  0.03098088  1
  H  H14  1  0.51504518  0.74326691  0.78717277  1
  H  H15  1  0.25673309  0.48495482  0.28717277  1
  H  H16  1  0.40861421  0.82126733  0.75138051  1
  H  H17  1  0.17873267  0.59138579  0.25138051  1
  S  S18  1  0.95909367  0.81372578  0.87384296  1
  S  S19  1  0.18627422  0.04090633  0.37384296  1
  S  S20  1  0.87652434  0.30922402  0.91066411  1
  S  S21  1  0.69077598  0.12347566  0.41066411  1
  S  S22  1  0.40936702  0.43183314  0.93766287  1
  S  S23  1  0.56816686  0.59063298  0.43766287  1
  S  S24  1  0.51785526  0.25169353  0.65854282  1
  S  S25  1  0.74830647  0.48214474  0.15854282  1
  S  S26  1  0.01256797  0.16741932  0.62088510  1
  S  S27  1  0.83258068  0.98743203  0.12088510  1
  S  S28  1  0.13974846  0.70582630  0.59481619  1
  S  S29  1  0.29417370  0.86025154  0.09481619  1
  O  O30  1  0.78522252  0.68630009  0.81894078  1
  O  O31  1  0.31369991  0.21477748  0.31894078  1
  O  O32  1  0.98229468  0.98417458  0.87733150  1
  O  O33  1  0.01582542  0.01770532  0.37733150  1
  O  O34  1  0.92212940  0.69825797  0.95182824  1
  O  O35  1  0.30174203  0.07787060  0.45182824  1
  O  O36  1  0.14952296  0.89550986  0.85969417  1
  O  O37  1  0.10449014  0.85047704  0.35969417  1
  O  O38  1  0.01965073  0.42604197  0.97471674  1
  O  O39  1  0.57395803  0.98034927  0.47471674  1
  O  O40  1  0.67851036  0.24055202  0.91340558  1
  O  O41  1  0.75944798  0.32148964  0.41340558  1
  O  O42  1  0.83696423  0.12276677  0.92034110  1
  O  O43  1  0.87723323  0.16303577  0.42034110  1
  O  O44  1  0.95637457  0.43961749  0.84152295  1
  O  O45  1  0.56038251  0.04362543  0.34152295  1
  O  O46  1  0.56096209  0.64374186  0.95676296  1
  O  O47  1  0.35625814  0.43903791  0.45676296  1
  O  O48  1  0.50881102  0.35227598  0.95736422  1
  O  O49  1  0.64772402  0.49118898  0.45736422  1
  O  O50  1  0.24267037  0.29592452  0.98385367  1
  O  O51  1  0.70407548  0.75732963  0.48385367  1
  O  O52  1  0.33017529  0.43387104  0.85919769  1
  O  O53  1  0.56612896  0.66982471  0.35919769  1
  O  O54  1  0.40130807  0.21134213  0.58084444  1
  O  O55  1  0.78865787  0.59869193  0.08084444  1
  O  O56  1  0.69329810  0.28319339  0.65459863  1
  O  O57  1  0.71680661  0.30670190  0.15459863  1
  O  O58  1  0.39170925  0.07694406  0.71345626  1
  O  O59  1  0.92305594  0.60829075  0.21345626  1
  O  O60  1  0.59456744  0.43952750  0.67305086  1
  O  O61  1  0.56047250  0.40543256  0.17305086  1
  O  O62  1  0.12989426  0.31557462  0.55755654  1
  O  O63  1  0.68442538  0.87010574  0.05755654  1
  O  O64  1  0.93833952  0.96969075  0.61316886  1
  O  O65  1  0.03030925  0.06166048  0.11316886  1
  O  O66  1  0.14294338  0.23589468  0.69124734  1
  O  O67  1  0.76410532  0.85705662  0.19124734  1
  O  O68  1  0.82830529  0.12960728  0.61444566  1
  O  O69  1  0.87039272  0.17169471  0.11444566  1
  O  O70  1  0.35860573  0.86995227  0.58060875  1
  O  O71  1  0.13004773  0.64139427  0.08060875  1
  O  O72  1  0.04786144  0.79272035  0.57510704  1
  O  O73  1  0.20727965  0.95213856  0.07510704  1
  O  O74  1  0.01918812  0.54637457  0.54700238  1
  O  O75  1  0.45362543  0.98081188  0.04700238  1
  O  O76  1  0.13872367  0.62109489  0.67329784  1
  O  O77  1  0.37890511  0.86127633  0.17329784  1
  O  O78  1  0.52300844  0.84958673  0.78821314  1
  O  O79  1  0.15041327  0.47699156  0.28821314  1
