# generated using pymatgen
data_Na9Fe3P8O29
_symmetry_space_group_name_H-M   'P 1'
_cell_length_a   10.18179018
_cell_length_b   10.18179018
_cell_length_c   14.71585100
_cell_angle_alpha   90.00000000
_cell_angle_beta   90.00000000
_cell_angle_gamma   120.00000115
_symmetry_Int_Tables_number   1
_chemical_formula_structural   Na9Fe3P8O29
_chemical_formula_sum   'Na18 Fe6 P16 O58'
_cell_volume   1321.18700847
_cell_formula_units_Z   2
loop_
 _symmetry_equiv_pos_site_id
 _symmetry_equiv_pos_as_xyz
  1  'x, y, z'
loop_
 _atom_site_type_symbol
 _atom_site_label
 _atom_site_symmetry_multiplicity
 _atom_site_fract_x
 _atom_site_fract_y
 _atom_site_fract_z
 _atom_site_occupancy
  Na  Na0  1  0.35154900  0.24765700  0.05804000  1
  Na  Na1  1  0.35154900  0.10389200  0.55804000  1
  Na  Na2  1  0.75234300  0.64845100  0.55804000  1
  Na  Na3  1  0.00000000  0.00000000  0.00000000  1
  Na  Na4  1  0.00000000  0.00000000  0.50000000  1
  Na  Na5  1  0.66666700  0.33333300  0.87511500  1
  Na  Na6  1  0.66666700  0.33333300  0.37511500  1
  Na  Na7  1  0.89610800  0.64845100  0.05804000  1
  Na  Na8  1  0.75234300  0.10389200  0.05804000  1
  Na  Na9  1  0.10389200  0.75234300  0.44196000  1
  Na  Na10  1  0.89610800  0.24765700  0.55804000  1
  Na  Na11  1  0.24765700  0.89610800  0.94196000  1
  Na  Na12  1  0.10389200  0.35154900  0.94196000  1
  Na  Na13  1  0.33333300  0.66666700  0.62488500  1
  Na  Na14  1  0.33333300  0.66666700  0.12488500  1
  Na  Na15  1  0.24765700  0.35154900  0.44196000  1
  Na  Na16  1  0.64845100  0.89610800  0.44196000  1
  Na  Na17  1  0.64845100  0.75234300  0.94196000  1
  Fe  Fe18  1  0.43718200  0.43718200  0.25000000  1
  Fe  Fe19  1  0.56281800  0.56281800  0.75000000  1
  Fe  Fe20  1  0.00000000  0.56281800  0.25000000  1
  Fe  Fe21  1  0.00000000  0.43718200  0.75000000  1
  Fe  Fe22  1  0.43718200  0.00000000  0.75000000  1
  Fe  Fe23  1  0.56281800  0.00000000  0.25000000  1
  P  P24  1  0.31719200  0.22676500  0.83727500  1
  P  P25  1  0.31719200  0.09042700  0.33727500  1
  P  P26  1  0.77323500  0.68280800  0.33727500  1
  P  P27  1  0.66666700  0.33333300  0.13616100  1
  P  P28  1  0.66666700  0.33333300  0.63616100  1
  P  P29  1  0.90957300  0.68280800  0.83727500  1
  P  P30  1  0.09042700  0.77323500  0.66272500  1
  P  P31  1  0.77323500  0.09042700  0.83727500  1
  P  P32  1  0.22676500  0.90957300  0.16272500  1
  P  P33  1  0.90957300  0.22676500  0.33727500  1
  P  P34  1  0.09042700  0.31719200  0.16272500  1
  P  P35  1  0.33333300  0.66666700  0.86383900  1
  P  P36  1  0.33333300  0.66666700  0.36383900  1
  P  P37  1  0.22676500  0.31719200  0.66272500  1
  P  P38  1  0.68280800  0.90957300  0.66272500  1
  P  P39  1  0.68280800  0.77323500  0.16272500  1
  O  O40  1  0.21498500  0.21498500  0.75000000  1
  O  O41  1  0.21823400  0.22778800  0.57807900  1
  O  O42  1  0.34249500  0.25285800  0.33442300  1
  O  O43  1  0.21823400  0.99044600  0.07807900  1
  O  O44  1  0.34249500  0.08963800  0.83442300  1
  O  O45  1  0.47018500  0.37568900  0.83015100  1
  O  O46  1  0.52362900  0.33537900  0.17248500  1
  O  O47  1  0.62431100  0.52981500  0.33015100  1
  O  O48  1  0.77221200  0.78176600  0.07807900  1
  O  O49  1  0.78501500  0.78501500  0.25000000  1
  O  O50  1  0.74714200  0.65750500  0.83442300  1
  O  O51  1  0.52362900  0.18825000  0.67248500  1
  O  O52  1  0.47018500  0.09449600  0.33015100  1
  O  O53  1  0.66462100  0.47637100  0.67248500  1
  O  O54  1  0.66666700  0.33333300  0.53186000  1
  O  O55  1  0.66666700  0.33333300  0.03186000  1
  O  O56  1  0.81175000  0.47637100  0.17248500  1
  O  O57  1  0.62431100  0.09449600  0.83015100  1
  O  O58  1  0.66462100  0.18825000  0.17248500  1
  O  O59  1  0.91036200  0.65750500  0.33442300  1
  O  O60  1  0.00000000  0.78501500  0.75000000  1
  O  O61  1  0.00955400  0.78176600  0.57807900  1
  O  O62  1  0.99044600  0.77221200  0.92192100  1
  O  O63  1  0.90550400  0.52981500  0.83015100  1
  O  O64  1  0.81175000  0.33537900  0.67248500  1
  O  O65  1  0.08963800  0.74714200  0.16557700  1
  O  O66  1  0.90550400  0.37568900  0.33015100  1
  O  O67  1  0.74714200  0.08963800  0.33442300  1
  O  O68  1  0.21498500  0.00000000  0.25000000  1
  O  O69  1  0.22778800  0.00955400  0.42192100  1
  O  O70  1  0.77221200  0.99044600  0.57807900  1
  O  O71  1  0.25285800  0.91036200  0.66557700  1
  O  O72  1  0.09449600  0.62431100  0.66984900  1
  O  O73  1  0.91036200  0.25285800  0.83442300  1
  O  O74  1  0.18825000  0.66462100  0.32751500  1
  O  O75  1  0.09449600  0.47018500  0.16984900  1
  O  O76  1  0.00955400  0.22778800  0.07807900  1
  O  O77  1  0.99044600  0.21823400  0.42192100  1
  O  O78  1  0.00000000  0.21498500  0.25000000  1
  O  O79  1  0.08963800  0.34249500  0.66557700  1
  O  O80  1  0.33537900  0.81175000  0.82751500  1
  O  O81  1  0.37568900  0.90550400  0.16984900  1
  O  O82  1  0.18825000  0.52362900  0.82751500  1
  O  O83  1  0.33333300  0.66666700  0.96814000  1
  O  O84  1  0.33333300  0.66666700  0.46814000  1
  O  O85  1  0.33537900  0.52362900  0.32751500  1
  O  O86  1  0.52981500  0.90550400  0.66984900  1
  O  O87  1  0.47637100  0.81175000  0.32751500  1
  O  O88  1  0.25285800  0.34249500  0.16557700  1
  O  O89  1  0.22778800  0.21823400  0.92192100  1
  O  O90  1  0.37568900  0.47018500  0.66984900  1
  O  O91  1  0.47637100  0.66462100  0.82751500  1
  O  O92  1  0.52981500  0.62431100  0.16984900  1
  O  O93  1  0.65750500  0.91036200  0.16557700  1
  O  O94  1  0.78176600  0.00955400  0.92192100  1
  O  O95  1  0.78501500  0.00000000  0.75000000  1
  O  O96  1  0.65750500  0.74714200  0.66557700  1
  O  O97  1  0.78176600  0.77221200  0.42192100  1
