# generated using pymatgen
data_Sr(IO3)2
_symmetry_space_group_name_H-M   'P 1'
_cell_length_a   5.98058699
_cell_length_b   6.03758902
_cell_length_c   17.80009409
_cell_angle_alpha   90.00000000
_cell_angle_beta   90.00000000
_cell_angle_gamma   90.00000000
_symmetry_Int_Tables_number   1
_chemical_formula_structural   Sr(IO3)2
_chemical_formula_sum   'Sr4 I8 O24'
_cell_volume   642.73160636
_cell_formula_units_Z   4
loop_
 _symmetry_equiv_pos_site_id
 _symmetry_equiv_pos_as_xyz
  1  'x, y, z'
loop_
 _atom_site_type_symbol
 _atom_site_label
 _atom_site_symmetry_multiplicity
 _atom_site_fract_x
 _atom_site_fract_y
 _atom_site_fract_z
 _atom_site_occupancy
  Sr  Sr0  1  0.70799656  0.19019767  0.09676704  1
  Sr  Sr1  1  0.20799656  0.30980233  0.90323296  1
  Sr  Sr2  1  0.29200344  0.69019767  0.40323296  1
  Sr  Sr3  1  0.79200344  0.80980233  0.59676704  1
  I  I4  1  0.94738945  0.15153027  0.42341155  1
  I  I5  1  0.24760384  0.22568345  0.21493886  1
  I  I6  1  0.74760384  0.27431655  0.78506114  1
  I  I7  1  0.44738945  0.34846973  0.57658845  1
  I  I8  1  0.05261055  0.65153027  0.07658845  1
  I  I9  1  0.75239616  0.72568345  0.28506114  1
  I  I10  1  0.25239616  0.77431655  0.71493886  1
  I  I11  1  0.55261055  0.84846973  0.92341155  1
  O  O12  1  0.11598096  0.04758527  0.34527363  1
  O  O13  1  0.03461454  0.04649235  0.17549828  1
  O  O14  1  0.48249466  0.03648191  0.21253288  1
  O  O15  1  0.47828774  0.07737501  0.98473790  1
  O  O16  1  0.83139457  0.12807017  0.87079533  1
  O  O17  1  0.64603593  0.15351923  0.53656251  1
  O  O18  1  0.14603593  0.34648077  0.46343749  1
  O  O19  1  0.33139457  0.37192983  0.12920467  1
  O  O20  1  0.97828774  0.42262499  0.01526210  1
  O  O21  1  0.98249466  0.46351809  0.78746712  1
  O  O22  1  0.53461454  0.45350765  0.82450172  1
  O  O23  1  0.61598096  0.45241473  0.65472637  1
  O  O24  1  0.88401904  0.54758527  0.15472637  1
  O  O25  1  0.96538546  0.54649235  0.32450172  1
  O  O26  1  0.51750534  0.53648191  0.28746712  1
  O  O27  1  0.52171226  0.57737501  0.51526210  1
  O  O28  1  0.16860543  0.62807017  0.62920467  1
  O  O29  1  0.35396407  0.65351923  0.96343749  1
  O  O30  1  0.85396407  0.84648077  0.03656251  1
  O  O31  1  0.66860543  0.87192983  0.37079533  1
  O  O32  1  0.02171226  0.92262499  0.48473790  1
  O  O33  1  0.01750534  0.96351809  0.71253288  1
  O  O34  1  0.46538546  0.95350765  0.67549828  1
  O  O35  1  0.38401904  0.95241473  0.84527363  1
