# generated using pymatgen
data_V2(OF)3
_symmetry_space_group_name_H-M   'P 1'
_cell_length_a   5.11710749
_cell_length_b   5.12246558
_cell_length_c   12.97056177
_cell_angle_alpha   91.04722544
_cell_angle_beta   89.74519794
_cell_angle_gamma   119.62682135
_symmetry_Int_Tables_number   1
_chemical_formula_structural   V2(OF)3
_chemical_formula_sum   'V6 O9 F9'
_cell_volume   295.48488996
_cell_formula_units_Z   3
loop_
 _symmetry_equiv_pos_site_id
 _symmetry_equiv_pos_as_xyz
  1  'x, y, z'
loop_
 _atom_site_type_symbol
 _atom_site_label
 _atom_site_symmetry_multiplicity
 _atom_site_fract_x
 _atom_site_fract_y
 _atom_site_fract_z
 _atom_site_occupancy
  V  V0  1  0.04424672  0.99169850  0.49939163  1
  V  V1  1  0.96609946  0.96095553  0.98983842  1
  V  V2  1  0.65561345  0.29240785  0.16029385  1
  V  V3  1  0.36869446  0.69135594  0.31893713  1
  V  V4  1  0.69375806  0.33668331  0.65950354  1
  V  V5  1  0.29919810  0.67831812  0.83158310  1
  O  O6  1  0.42201197  -0.00566259  0.25101401  1
  O  O7  1  0.32632131  0.09798373  0.58322792  1
  O  O8  1  0.00247908  0.58481707  0.75415302  1
  O  O9  1  0.75822912  0.09547354  0.08395311  1
  O  O10  1  0.08707419  0.76437521  0.41889770  1
  O  O11  1  0.56787710  0.57529651  0.25275423  1
  O  O12  1  0.89772682  0.25352821  0.58364738  1
  O  O13  1  0.25090732  0.89664123  0.92160884  1
  O  O14  1  0.67443636  0.74913164  0.91719125  1
  F  F15  1  0.99267182  0.41258262  0.25678421  1
  F  F16  1  0.08692222  0.32656665  0.91435930  1
  F  F17  1  0.33043254  0.25759031  0.08265744  1
  F  F18  1  0.23513550  0.33550367  0.41974048  1
  F  F19  1  0.58837589  0.00268540  0.75255902  1
  F  F20  1  0.42500458  0.42839814  0.75124076  1
  F  F21  1  0.74467175  0.68526464  0.58455711  1
  F  F22  1  0.92460174  0.67510638  0.09094522  1
  F  F23  1  0.65751344  0.91330137  0.42116234  1
