# generated using pymatgen
data_YScS3
_symmetry_space_group_name_H-M   'P 1'
_cell_length_a   6.38688086
_cell_length_b   7.00935017
_cell_length_c   9.52905468
_cell_angle_alpha   90.00000000
_cell_angle_beta   90.00000000
_cell_angle_gamma   90.00000000
_symmetry_Int_Tables_number   1
_chemical_formula_structural   YScS3
_chemical_formula_sum   'Y4 Sc4 S12'
_cell_volume   426.59561875
_cell_formula_units_Z   4
loop_
 _symmetry_equiv_pos_site_id
 _symmetry_equiv_pos_as_xyz
  1  'x, y, z'
loop_
 _atom_site_type_symbol
 _atom_site_label
 _atom_site_symmetry_multiplicity
 _atom_site_fract_x
 _atom_site_fract_y
 _atom_site_fract_z
 _atom_site_occupancy
  Y  Y0  1  0.45951062  0.10039840  0.25000000  1
  Y  Y1  1  0.54048938  0.89960160  0.75000000  1
  Y  Y2  1  0.04048938  0.60039840  0.25000000  1
  Y  Y3  1  0.95951062  0.39960160  0.75000000  1
  Sc  Sc4  1  -0.00000000  -0.00000000  0.50000000  1
  Sc  Sc5  1  -0.00000000  -0.00000000  0.00000000  1
  Sc  Sc6  1  0.50000000  0.50000000  0.50000000  1
  Sc  Sc7  1  0.50000000  0.50000000  0.00000000  1
  S  S8  1  0.14433078  0.04839842  0.75000000  1
  S  S9  1  0.85566922  0.95160158  0.25000000  1
  S  S10  1  0.35566922  0.54839842  0.75000000  1
  S  S11  1  0.64433078  0.45160158  0.25000000  1
  S  S12  1  0.17600039  0.31577638  0.42905200  1
  S  S13  1  0.82399961  0.68422362  0.92905200  1
  S  S14  1  0.32399961  0.81577638  0.42905200  1
  S  S15  1  0.67600039  0.18422362  0.92905200  1
  S  S16  1  0.67600039  0.18422362  0.57094800  1
  S  S17  1  0.32399961  0.81577638  0.07094800  1
  S  S18  1  0.82399961  0.68422362  0.57094800  1
  S  S19  1  0.17600039  0.31577638  0.07094800  1
