# generated using pymatgen
data_Tm2TiO5
_symmetry_space_group_name_H-M   'P 1'
_cell_length_a   3.62264530
_cell_length_b   10.18658303
_cell_length_c   11.12635398
_cell_angle_alpha   90.00000000
_cell_angle_beta   90.00000000
_cell_angle_gamma   90.00000000
_symmetry_Int_Tables_number   1
_chemical_formula_structural   Tm2TiO5
_chemical_formula_sum   'Tm8 Ti4 O20'
_cell_volume   410.58891073
_cell_formula_units_Z   4
loop_
 _symmetry_equiv_pos_site_id
 _symmetry_equiv_pos_as_xyz
  1  'x, y, z'
loop_
 _atom_site_type_symbol
 _atom_site_label
 _atom_site_symmetry_multiplicity
 _atom_site_fract_x
 _atom_site_fract_y
 _atom_site_fract_z
 _atom_site_occupancy
  Tm  Tm0  1  0.25000000  0.11974075  0.27519012  1
  Tm  Tm1  1  0.25000000  0.13526987  0.94338915  1
  Tm  Tm2  1  0.75000000  0.36473013  0.44338915  1
  Tm  Tm3  1  0.75000000  0.38025925  0.77519012  1
  Tm  Tm4  1  0.25000000  0.61974075  0.22480988  1
  Tm  Tm5  1  0.25000000  0.63526987  0.55661085  1
  Tm  Tm6  1  0.75000000  0.86473013  0.05661085  1
  Tm  Tm7  1  0.75000000  0.88025925  0.72480988  1
  Ti  Ti8  1  0.25000000  0.17011193  0.61693861  1
  Ti  Ti9  1  0.75000000  0.32988807  0.11693861  1
  Ti  Ti10  1  0.25000000  0.67011193  0.88306139  1
  Ti  Ti11  1  0.75000000  0.82988807  0.38306139  1
  O  O12  1  0.75000000  0.00506325  0.89441576  1
  O  O13  1  0.25000000  -0.00027571  0.65309289  1
  O  O14  1  0.25000000  0.22564015  0.45378921  1
  O  O15  1  0.75000000  0.23675889  0.61427685  1
  O  O16  1  0.75000000  0.24808474  0.27046002  1
  O  O17  1  0.25000000  0.25191526  0.77046002  1
  O  O18  1  0.25000000  0.26324111  0.11427685  1
  O  O19  1  0.75000000  0.27435985  0.95378921  1
  O  O20  1  0.75000000  0.50027571  0.15309289  1
  O  O21  1  0.25000000  0.49493675  0.39441576  1
  O  O22  1  0.75000000  0.50506325  0.60558424  1
  O  O23  1  0.25000000  0.49972429  0.84690711  1
  O  O24  1  0.25000000  0.72564015  0.04621079  1
  O  O25  1  0.75000000  0.73675889  0.88572315  1
  O  O26  1  0.75000000  0.74808474  0.22953998  1
  O  O27  1  0.25000000  0.75191526  0.72953998  1
  O  O28  1  0.25000000  0.76324111  0.38572315  1
  O  O29  1  0.75000000  0.77435985  0.54621079  1
  O  O30  1  0.75000000  0.00027571  0.34690711  1
  O  O31  1  0.25000000  0.99493675  0.10558424  1
