# generated using pymatgen
data_TiO2
_symmetry_space_group_name_H-M   'P 1'
_cell_length_a   5.72007379
_cell_length_b   8.71132655
_cell_length_c   3.70675392
_cell_angle_alpha   90.00000000
_cell_angle_beta   90.00000000
_cell_angle_gamma   90.00000000
_symmetry_Int_Tables_number   1
_chemical_formula_structural   TiO2
_chemical_formula_sum   'Ti4 O8'
_cell_volume   184.70543749
_cell_formula_units_Z   4
loop_
 _symmetry_equiv_pos_site_id
 _symmetry_equiv_pos_as_xyz
  1  'x, y, z'
loop_
 _atom_site_type_symbol
 _atom_site_label
 _atom_site_symmetry_multiplicity
 _atom_site_fract_x
 _atom_site_fract_y
 _atom_site_fract_z
 _atom_site_occupancy
  Ti  Ti0  1  0.17084964  0.63175777  0.50001266  1
  Ti  Ti1  1  0.32915036  0.36824223  0.00001266  1
  Ti  Ti2  1  0.67084964  0.86824223  0.49998734  1
  Ti  Ti3  1  0.82915036  0.13175777  -0.00001266  1
  O  O4  1  0.15795451  0.56799565  -0.00012431  1
  O  O5  1  0.37018519  0.78690937  0.50086171  1
  O  O6  1  0.12981381  0.21309063  0.00086171  1
  O  O7  1  0.34204549  0.43200435  0.49987569  1
  O  O8  1  0.65795451  0.93200435  0.00012431  1
  O  O9  1  0.87018619  0.71309063  0.49913829  1
  O  O10  1  0.62981381  0.28690937  -0.00086171  1
  O  O11  1  0.84204549  0.06799565  0.50012431  1
