# generated using pymatgen
data_Y11Tm5O24
_symmetry_space_group_name_H-M   'P 1'
_cell_length_a   9.12281885
_cell_length_b   9.12237218
_cell_length_c   9.12248852
_cell_angle_alpha   109.42449811
_cell_angle_beta   109.45307599
_cell_angle_gamma   109.46009227
_symmetry_Int_Tables_number   1
_chemical_formula_structural   Y11Tm5O24
_chemical_formula_sum   'Y11 Tm5 O24'
_cell_volume   584.97174408
_cell_formula_units_Z   1
loop_
 _symmetry_equiv_pos_site_id
 _symmetry_equiv_pos_as_xyz
  1  'x, y, z'
loop_
 _atom_site_type_symbol
 _atom_site_label
 _atom_site_symmetry_multiplicity
 _atom_site_fract_x
 _atom_site_fract_y
 _atom_site_fract_z
 _atom_site_occupancy
  Y  Y0  1  0.75013860  0.78218336  0.03234420  1
  Y  Y1  1  0.49772289  0.99941313  0.99918542  1
  Y  Y2  1  0.03379400  0.24965073  0.28168124  1
  Y  Y3  1  0.21851548  0.46746968  0.75108357  1
  Y  Y4  1  0.71837528  0.96820343  0.74929045  1
  Y  Y5  1  0.00160721  0.99991798  0.50121638  1
  Y  Y6  1  0.25034134  0.71922722  0.46709653  1
  Y  Y7  1  0.00024223  0.50125075  0.99983649  1
  Y  Y8  1  0.74890402  0.28173813  0.53226028  1
  Y  Y9  1  0.50038634  0.49942784  0.49876137  1
  Y  Y10  1  0.78021273  0.53182345  0.24963468  1
  Tm  Tm11  1  0.46617943  0.74986235  0.21636256  1
  Tm  Tm12  1  0.28306516  0.03247470  0.24909443  1
  Tm  Tm13  1  0.53173078  0.24955530  0.78231570  1
  Tm  Tm14  1  0.96817128  0.75108564  0.71872329  1
  Tm  Tm15  1  0.25043946  0.21660398  0.96721941  1
  O  O16  1  0.27321981  0.51200327  0.54300371  1
  O  O17  1  0.46789844  0.72955129  0.95973034  1
  O  O18  1  0.72683816  0.76185479  0.27232139  1
  O  O19  1  0.22597533  0.95716739  0.96844660  1
  O  O20  1  0.01204531  0.54593751  0.77205472  1
  O  O21  1  0.51116899  0.73975325  0.46521538  1
  O  O22  1  0.22994877  0.77322974  0.23766444  1
  O  O23  1  0.03492951  0.98771825  0.26063362  1
  O  O24  1  0.74238222  0.72867650  0.77027360  1
  O  O25  1  0.95762463  0.22759949  0.48888150  1
  O  O26  1  0.24228079  0.46819490  0.01434958  1
  O  O27  1  0.45773089  0.97185878  0.72884739  1
  O  O28  1  0.75603417  0.52767085  0.98549923  1
  O  O29  1  0.04167281  0.77076498  0.51416800  1
  O  O30  1  0.53933163  0.02904615  0.27023360  1
  O  O31  1  0.26237764  0.26924853  0.22651058  1
  O  O32  1  0.77056556  0.23039203  0.76152568  1
  O  O33  1  0.97245632  0.01277580  0.74299089  1
  O  O34  1  0.98906049  0.45822378  0.22824297  1
  O  O35  1  0.48465878  0.25645177  0.53060419  1
  O  O36  1  0.27358636  0.23892546  0.73099076  1
  O  O37  1  0.77028204  0.04245214  0.03148312  1
  O  O38  1  0.73005766  0.49057222  0.45979371  1
  O  O39  1  0.52804544  0.27004047  0.04042902  1
