# generated using pymatgen
data_V2OF5
_symmetry_space_group_name_H-M   'P 1'
_cell_length_a   8.71967351
_cell_length_b   5.30481071
_cell_length_c   7.37778021
_cell_angle_alpha   86.57101951
_cell_angle_beta   66.50102637
_cell_angle_gamma   105.93372455
_symmetry_Int_Tables_number   1
_chemical_formula_structural   V2OF5
_chemical_formula_sum   'V6 O3 F15'
_cell_volume   295.34523033
_cell_formula_units_Z   3
loop_
 _symmetry_equiv_pos_site_id
 _symmetry_equiv_pos_as_xyz
  1  'x, y, z'
loop_
 _atom_site_type_symbol
 _atom_site_label
 _atom_site_symmetry_multiplicity
 _atom_site_fract_x
 _atom_site_fract_y
 _atom_site_fract_z
 _atom_site_occupancy
  V  V0  1  0.00657883  0.99439806  -0.00174669  1
  V  V1  1  0.99853666  0.98395848  0.50222043  1
  V  V2  1  0.34131138  0.63795510  0.33545837  1
  V  V3  1  0.32204784  0.68240567  0.84348200  1
  V  V4  1  0.65990167  0.33080328  0.17381741  1
  V  V5  1  0.68189048  0.35822426  0.66617938  1
  O  O6  1  0.14253331  0.78391373  0.96843535  1
  O  O7  1  0.46554991  0.43931403  0.31084274  1
  O  O8  1  0.85523926  0.63202794  0.61911661  1
  F  F9  1  0.20343492  0.89676340  0.34680574  1
  F  F10  1  0.41023622  0.71764077  0.04673585  1
  F  F11  1  0.12592368  0.36815590  0.37611268  1
  F  F12  1  0.53487140  0.96280119  0.29221728  1
  F  F13  1  0.25391246  0.62284251  0.62112827  1
  F  F14  1  0.07760031  0.05093086  0.70590380  1
  F  F15  1  0.80175997  0.69849979  0.04141066  1
  F  F16  1  0.19877948  0.30609751  0.96550797  1
  F  F17  1  0.92372603  0.95659309  0.29012459  1
  F  F18  1  0.51957691  0.55665372  0.68710163  1
  F  F19  1  0.86895284  0.22969342  0.01195420  1
  F  F20  1  0.74096800  0.37097453  0.37835621  1
  F  F21  1  0.47704793  0.03727274  0.70483297  1
  F  F22  1  0.59031075  0.28806165  0.95758136  1
  F  F23  1  0.79931175  0.09401738  0.65642618  1
