# generated using pymatgen
data_Y2TeO6
_symmetry_space_group_name_H-M   'P 1'
_cell_length_a   9.05270852
_cell_length_b   9.05278757
_cell_length_c   5.18453336
_cell_angle_alpha   90.00044034
_cell_angle_beta   89.99995656
_cell_angle_gamma   119.99936174
_symmetry_Int_Tables_number   1
_chemical_formula_structural   Y2TeO6
_chemical_formula_sum   'Y6 Te3 O18'
_cell_volume   367.96284223
_cell_formula_units_Z   3
loop_
 _symmetry_equiv_pos_site_id
 _symmetry_equiv_pos_as_xyz
  1  'x, y, z'
loop_
 _atom_site_type_symbol
 _atom_site_label
 _atom_site_symmetry_multiplicity
 _atom_site_fract_x
 _atom_site_fract_y
 _atom_site_fract_z
 _atom_site_occupancy
  Y  Y0  1  0.00000198  0.61754212  0.99999955  1
  Y  Y1  1  0.00000428  0.28067754  0.49999456  1
  Y  Y2  1  0.38244513  0.38244726  -0.00000608  1
  Y  Y3  1  0.28068364  0.00001073  0.50002785  1
  Y  Y4  1  0.71931402  0.71932742  0.49999495  1
  Y  Y5  1  0.61755171  0.00001078  0.00000178  1
  Te  Te6  1  0.33333734  0.66666900  0.49690843  1
  Te  Te7  1  0.00000090  0.00000502  0.00001924  1
  Te  Te8  1  0.66668623  0.33331310  0.50309221  1
  O  O9  1  0.07642275  0.87748919  0.78903718  1
  O  O10  1  0.22662842  0.76142878  0.28328281  1
  O  O11  1  0.13380920  0.54413991  0.70927073  1
  O  O12  1  0.41032118  0.86618815  0.70927976  1
  O  O13  1  0.23858446  0.46522831  0.28327606  1
  O  O14  1  0.12250595  0.19890866  0.78901643  1
  O  O15  1  0.19891597  0.12250034  0.21098514  1
  O  O16  1  0.53476655  0.77336612  0.28329665  1
  O  O17  1  0.45584935  0.58967112  0.70927280  1
  O  O18  1  0.80107042  0.92356694  0.78903389  1
  O  O19  1  0.46523321  0.23859636  0.71670773  1
  O  O20  1  0.58967041  0.45587191  0.29069870  1
  O  O21  1  0.54414094  0.13382115  0.29072188  1
  O  O22  1  0.77337048  0.53478254  0.71670192  1
  O  O23  1  0.92358480  0.80107187  0.21098900  1
  O  O24  1  0.76141979  0.22664298  0.71668662  1
  O  O25  1  0.86618744  0.41032558  0.29071683  1
  O  O26  1  0.87749345  0.07639814  0.21099238  1
