# generated using pymatgen
data_CaHfO3
_symmetry_space_group_name_H-M   'P 1'
_cell_length_a   5.54646636
_cell_length_b   5.72177289
_cell_length_c   7.94978423
_cell_angle_alpha   90.00000000
_cell_angle_beta   90.00000000
_cell_angle_gamma   90.00000000
_symmetry_Int_Tables_number   1
_chemical_formula_structural   CaHfO3
_chemical_formula_sum   'Ca4 Hf4 O12'
_cell_volume   252.29133819
_cell_formula_units_Z   4
loop_
 _symmetry_equiv_pos_site_id
 _symmetry_equiv_pos_as_xyz
  1  'x, y, z'
loop_
 _atom_site_type_symbol
 _atom_site_label
 _atom_site_symmetry_multiplicity
 _atom_site_fract_x
 _atom_site_fract_y
 _atom_site_fract_z
 _atom_site_occupancy
  Ca  Ca0  1  0.01273086  0.94973653  0.75000000  1
  Ca  Ca1  1  0.48726914  0.44973653  0.75000000  1
  Ca  Ca2  1  0.51273086  0.55026347  0.25000000  1
  Ca  Ca3  1  0.98726914  0.05026347  0.25000000  1
  Hf  Hf4  1  -0.00000000  0.50000000  -0.00000000  1
  Hf  Hf5  1  -0.00000000  0.50000000  0.50000000  1
  Hf  Hf6  1  0.50000000  0.00000000  -0.00000000  1
  Hf  Hf7  1  0.50000000  0.00000000  0.50000000  1
  O  O8  1  0.10088503  0.46355889  0.25000000  1
  O  O9  1  0.19967153  0.20205897  0.55327561  1
  O  O10  1  0.19967153  0.20205897  0.94672439  1
  O  O11  1  0.30032847  0.70205897  0.55327561  1
  O  O12  1  0.30032847  0.70205897  0.94672439  1
  O  O13  1  0.39911497  0.96355889  0.25000000  1
  O  O14  1  0.60088503  0.03644111  0.75000000  1
  O  O15  1  0.69967153  0.29794103  0.05327561  1
  O  O16  1  0.69967153  0.29794103  0.44672439  1
  O  O17  1  0.80032847  0.79794103  0.05327561  1
  O  O18  1  0.80032847  0.79794103  0.44672439  1
  O  O19  1  0.89911497  0.53644111  0.75000000  1
