# generated using pymatgen
data_K2WO4
_symmetry_space_group_name_H-M   'P 1'
_cell_length_a   8.07429345
_cell_length_b   6.22738173
_cell_length_c   12.03988645
_cell_angle_alpha   64.00755142
_cell_angle_beta   90.00000000
_cell_angle_gamma   90.00000000
_symmetry_Int_Tables_number   1
_chemical_formula_structural   K2WO4
_chemical_formula_sum   'K8 W4 O16'
_cell_volume   544.15234810
_cell_formula_units_Z   4
loop_
 _symmetry_equiv_pos_site_id
 _symmetry_equiv_pos_as_xyz
  1  'x, y, z'
loop_
 _atom_site_type_symbol
 _atom_site_label
 _atom_site_symmetry_multiplicity
 _atom_site_fract_x
 _atom_site_fract_y
 _atom_site_fract_z
 _atom_site_occupancy
  K  K0  1  0.25789645  0.78838474  0.91272784  1
  K  K1  1  0.50214731  0.50348048  0.74212260  1
  K  K2  1  0.24210355  0.78838474  0.41272784  1
  K  K3  1  0.00214731  0.49651952  0.75787740  1
  K  K4  1  0.99785269  0.50348048  0.24212260  1
  K  K5  1  0.75789645  0.21161526  0.58727216  1
  K  K6  1  0.49785269  0.49651952  0.25787740  1
  K  K7  1  0.74210355  0.21161526  0.08727216  1
  W  W8  1  0.74949590  0.85577537  0.92515515  1
  W  W9  1  0.75050410  0.85577537  0.42515515  1
  W  W10  1  0.24949590  0.14422463  0.57484485  1
  W  W11  1  0.25050410  0.14422463  0.07484485  1
  O  O12  1  0.93529346  0.74337915  0.89003075  1
  O  O13  1  0.57709917  0.73908594  0.87637256  1
  O  O14  1  0.76238673  0.75967567  0.58904375  1
  O  O15  1  0.24854059  0.82292891  0.65060885  1
  O  O16  1  0.56470654  0.74337915  0.39003075  1
  O  O17  1  0.92290083  0.73908594  0.37637256  1
  O  O18  1  0.74854059  0.17707109  0.84939115  1
  O  O19  1  0.26238673  0.24032433  0.91095625  1
  O  O20  1  0.73761327  0.75967567  0.08904375  1
  O  O21  1  0.25145941  0.82292891  0.15060885  1
  O  O22  1  0.07709917  0.26091406  0.62362744  1
  O  O23  1  0.43529346  0.25662085  0.60996925  1
  O  O24  1  0.75145941  0.17707109  0.34939115  1
  O  O25  1  0.23761327  0.24032433  0.41095625  1
  O  O26  1  0.42290083  0.26091406  0.12362744  1
  O  O27  1  0.06470654  0.25662085  0.10996925  1
