# generated using pymatgen
data_Pr4S3N2
_symmetry_space_group_name_H-M   'P 1'
_cell_length_a   10.33326583
_cell_length_b   10.33326583
_cell_length_c   12.84751275
_cell_angle_alpha   52.15402681
_cell_angle_beta   52.15402681
_cell_angle_gamma   57.83791175
_symmetry_Int_Tables_number   1
_chemical_formula_structural   Pr4S3N2
_chemical_formula_sum   'Pr16 S12 N8'
_cell_volume   828.25667018
_cell_formula_units_Z   4
loop_
 _symmetry_equiv_pos_site_id
 _symmetry_equiv_pos_as_xyz
  1  'x, y, z'
loop_
 _atom_site_type_symbol
 _atom_site_label
 _atom_site_symmetry_multiplicity
 _atom_site_fract_x
 _atom_site_fract_y
 _atom_site_fract_z
 _atom_site_occupancy
  Pr  Pr0  1  0.28418400  0.36717200  0.56342800  1
  Pr  Pr1  1  0.81704500  0.91523700  0.02533600  1
  Pr  Pr2  1  0.91710000  0.80634400  0.52958900  1
  Pr  Pr3  1  0.71238500  0.63481700  0.44184300  1
  Pr  Pr4  1  0.35855100  0.28631200  0.06226000  1
  Pr  Pr5  1  0.38714400  0.79768800  0.31881900  1
  Pr  Pr6  1  0.19069500  0.57243800  0.74810200  1
  Pr  Pr7  1  0.61213800  0.20291400  0.68892200  1
  Pr  Pr8  1  0.79941500  0.39075400  0.81446700  1
  Pr  Pr9  1  0.63259500  0.72242900  0.93443400  1
  Pr  Pr10  1  0.08382800  0.18840700  0.47826900  1
  Pr  Pr11  1  0.58193500  0.19137900  0.24222800  1
  Pr  Pr12  1  0.18524700  0.07861800  0.97723700  1
  Pr  Pr13  1  0.80602600  0.42315200  0.25694300  1
  Pr  Pr14  1  0.42686800  0.81257200  0.75445900  1
  Pr  Pr15  1  0.20316200  0.60709300  0.18740500  1
  S  S16  1  0.90751100  0.89502100  0.22567100  1
  S  S17  1  0.47945500  0.52496500  0.25062700  1
  S  S18  1  0.61116600  0.11295000  0.51145200  1
  S  S19  1  0.88533400  0.38511700  0.99383700  1
  S  S20  1  0.52628900  0.48075600  0.74600100  1
  S  S21  1  0.89977000  0.90719700  0.72074500  1
  S  S22  1  0.09678400  0.10102000  0.78025700  1
  S  S23  1  0.38873400  0.89358200  0.49005300  1
  S  S24  1  0.00309900  0.49469700  0.50288800  1
  S  S25  1  0.09995100  0.09353600  0.28026100  1
  S  S26  1  0.11240800  0.60960500  0.00481400  1
  S  S27  1  0.49638700  0.99790800  0.00538300  1
  N  N28  1  0.70273400  0.68096300  0.74194400  1
  N  N29  1  0.68564300  0.70225900  0.24420600  1
  N  N30  1  0.35640700  0.80815900  0.96476800  1
  N  N31  1  0.32110100  0.30300800  0.75215900  1
  N  N32  1  0.30256000  0.31316600  0.26016000  1
  N  N33  1  0.64368100  0.18514600  0.03460900  1
  N  N34  1  0.18603000  0.63993500  0.53805600  1
  N  N35  1  0.81042000  0.35097000  0.46554500  1
