# generated using pymatgen
data_Rb17Fe5O16
_symmetry_space_group_name_H-M   'P 1'
_cell_length_a   18.79569058
_cell_length_b   18.79569058
_cell_length_c   7.00865662
_cell_angle_alpha   84.75852423
_cell_angle_beta   84.75852423
_cell_angle_gamma   158.60885963
_symmetry_Int_Tables_number   1
_chemical_formula_structural   Rb17Fe5O16
_chemical_formula_sum   'Rb17 Fe5 O16'
_cell_volume   786.09912887
_cell_formula_units_Z   1
loop_
 _symmetry_equiv_pos_site_id
 _symmetry_equiv_pos_as_xyz
  1  'x, y, z'
loop_
 _atom_site_type_symbol
 _atom_site_label
 _atom_site_symmetry_multiplicity
 _atom_site_fract_x
 _atom_site_fract_y
 _atom_site_fract_z
 _atom_site_occupancy
  Rb  Rb0  1  0.40371823  0.68254483  0.05515719  1
  Rb  Rb1  1  0.49182749  0.58484833  0.07150915  1
  Rb  Rb2  1  0.31493641  0.78404150  0.06953189  1
  Rb  Rb3  1  0.07862824  0.91319664  0.19547236  1
  Rb  Rb4  1  0.16729344  0.83468803  0.46470316  1
  Rb  Rb5  1  0.31818723  0.59212954  0.60019231  1
  Rb  Rb6  1  0.21859755  0.67143234  0.60953005  1
  Rb  Rb7  1  0.41175020  0.50294494  0.61205932  1
  Rb  Rb8  1  0.68254483  0.40371823  0.05515719  1
  Rb  Rb9  1  0.58484833  0.49182749  0.07150915  1
  Rb  Rb10  1  0.78404150  0.31493641  0.06953189  1
  Rb  Rb11  1  0.91319664  0.07862824  0.19547236  1
  Rb  Rb12  1  0.83468803  0.16729344  0.46470316  1
  Rb  Rb13  1  0.59212954  0.31818723  0.60019231  1
  Rb  Rb14  1  0.67143234  0.21859755  0.60953005  1
  Rb  Rb15  1  0.50294494  0.41175020  0.61205932  1
  Rb  Rb16  1  0.00052494  0.00052494  0.48650214  1
  Fe  Fe17  1  0.99790469  0.99790469  0.98946943  1
  Fe  Fe18  1  0.08646757  0.90876459  0.69142652  1
  Fe  Fe19  1  0.17600991  0.81996531  0.98344945  1
  Fe  Fe20  1  0.90876459  0.08646757  0.69142652  1
  Fe  Fe21  1  0.81996531  0.17600991  0.98344945  1
  O  O22  1  0.07075303  0.44339912  -0.00136862  1
  O  O23  1  0.15980847  0.34349711  0.41717094  1
  O  O24  1  0.44339912  0.07075303  -0.00136862  1
  O  O25  1  0.25501121  0.25501121  0.00886726  1
  O  O26  1  0.55697592  0.92619929  0.25556431  1
  O  O27  1  0.20575920  0.78307421  0.78149916  1
  O  O28  1  0.04063094  0.95506218  0.82906826  1
  O  O29  1  0.12872086  0.87278084  0.87312931  1
  O  O30  1  0.34349711  0.15980847  0.41717094  1
  O  O31  1  0.64954912  0.83339925  0.67111843  1
  O  O32  1  0.92619929  0.55697592  0.25556431  1
  O  O33  1  0.74297531  0.74297531  0.26323478  1
  O  O34  1  0.78307421  0.20575920  0.78149916  1
  O  O35  1  0.95506218  0.04063094  0.82906826  1
  O  O36  1  0.87278084  0.12872086  0.87312931  1
  O  O37  1  0.83339925  0.64954912  0.67111843  1
