# generated using pymatgen
data_YSeO3
_symmetry_space_group_name_H-M   'P 1'
_cell_length_a   12.23956373
_cell_length_b   5.93853708
_cell_length_c   8.89516006
_cell_angle_alpha   73.87316778
_cell_angle_beta   90.00000000
_cell_angle_gamma   90.00000000
_symmetry_Int_Tables_number   1
_chemical_formula_structural   YSeO3
_chemical_formula_sum   'Y8 Se8 O24'
_cell_volume   621.10352510
_cell_formula_units_Z   8
loop_
 _symmetry_equiv_pos_site_id
 _symmetry_equiv_pos_as_xyz
  1  'x, y, z'
loop_
 _atom_site_type_symbol
 _atom_site_label
 _atom_site_symmetry_multiplicity
 _atom_site_fract_x
 _atom_site_fract_y
 _atom_site_fract_z
 _atom_site_occupancy
  Y  Y0  1  0.56187495  0.76058081  0.91596807  1
  Y  Y1  1  0.93812505  0.76058081  0.41596807  1
  Y  Y2  1  0.24270709  0.63566159  0.84223635  1
  Y  Y3  1  0.25729291  0.63566159  0.34223635  1
  Y  Y4  1  0.74270709  0.36433841  0.65776365  1
  Y  Y5  1  0.75729291  0.36433841  0.15776365  1
  Y  Y6  1  0.06187495  0.23941919  0.58403193  1
  Y  Y7  1  0.43812505  0.23941919  0.08403193  1
  Se  Se8  1  0.84212425  0.95700884  0.01692016  1
  Se  Se9  1  0.65787575  0.95700884  0.51692016  1
  Se  Se10  1  0.98527456  0.63194776  0.82049827  1
  Se  Se11  1  0.51472544  0.63194776  0.32049827  1
  Se  Se12  1  0.48527456  0.36805224  0.67950173  1
  Se  Se13  1  0.01472544  0.36805224  0.17950173  1
  Se  Se14  1  0.34212425  0.04299116  0.48307984  1
  Se  Se15  1  0.15787575  0.04299116  0.98307984  1
  O  O16  1  0.17833669  0.01958169  0.79755711  1
  O  O17  1  0.32166331  0.01958169  0.29755711  1
  O  O18  1  0.98418305  0.86540673  0.64574591  1
  O  O19  1  0.27530974  0.78527253  0.57528628  1
  O  O20  1  0.75312157  0.75200137  0.50726933  1
  O  O21  1  0.51581695  0.86540673  0.14574591  1
  O  O22  1  0.40469535  0.59397832  0.91865753  1
  O  O23  1  0.22469026  0.78527253  0.07528628  1
  O  O24  1  0.74687843  0.75200137  0.00726933  1
  O  O25  1  0.58892840  0.55467461  0.72199418  1
  O  O26  1  0.09530465  0.59397832  0.41865753  1
  O  O27  1  0.08892840  0.44532539  0.77800582  1
  O  O28  1  0.91107160  0.55467461  0.22199418  1
  O  O29  1  0.90469535  0.40602168  0.58134247  1
  O  O30  1  0.41107160  0.44532539  0.27800582  1
  O  O31  1  0.25312157  0.24799863  0.99273067  1
  O  O32  1  0.77530974  0.21472747  0.92471372  1
  O  O33  1  0.59530465  0.40602168  0.08134247  1
  O  O34  1  0.48418305  0.13459327  0.85425409  1
  O  O35  1  0.24687843  0.24799863  0.49273067  1
  O  O36  1  0.72469026  0.21472747  0.42471372  1
  O  O37  1  0.01581695  0.13459327  0.35425409  1
  O  O38  1  0.67833669  0.98041831  0.70244289  1
  O  O39  1  0.82166331  0.98041831  0.20244289  1
