# generated using pymatgen
data_Tb2SeO2
_symmetry_space_group_name_H-M   'P 1'
_cell_length_a   3.84715368
_cell_length_b   3.84715915
_cell_length_c   6.82099191
_cell_angle_alpha   89.99994938
_cell_angle_beta   89.99999143
_cell_angle_gamma   119.99993761
_symmetry_Int_Tables_number   1
_chemical_formula_structural   Tb2SeO2
_chemical_formula_sum   'Tb2 Se1 O2'
_cell_volume   87.42952660
_cell_formula_units_Z   1
loop_
 _symmetry_equiv_pos_site_id
 _symmetry_equiv_pos_as_xyz
  1  'x, y, z'
loop_
 _atom_site_type_symbol
 _atom_site_label
 _atom_site_symmetry_multiplicity
 _atom_site_fract_x
 _atom_site_fract_y
 _atom_site_fract_z
 _atom_site_occupancy
  Tb  Tb0  1  0.33330678  0.66666747  0.29091385  1
  Tb  Tb1  1  0.66663831  0.33333253  0.70908615  1
  Se  Se2  1  0.99991075  -0.00000000  -0.00000000  1
  O  O3  1  0.33330314  0.66666312  0.62531274  1
  O  O4  1  0.66664002  0.33333588  0.37468726  1
