# generated using pymatgen
data_Sn5C6S9(NO)2
_symmetry_space_group_name_H-M   'P 1'
_cell_length_a   12.80308000
_cell_length_b   12.80308000
_cell_length_c   15.13140800
_cell_angle_alpha   90.00000000
_cell_angle_beta   90.00000000
_cell_angle_gamma   90.00000000
_symmetry_Int_Tables_number   1
_chemical_formula_structural   Sn5C6S9(NO)2
_chemical_formula_sum   'Sn20 C24 S36 N8 O8'
_cell_volume   2480.32311152
_cell_formula_units_Z   4
loop_
 _symmetry_equiv_pos_site_id
 _symmetry_equiv_pos_as_xyz
  1  'x, y, z'
loop_
 _atom_site_type_symbol
 _atom_site_label
 _atom_site_symmetry_multiplicity
 _atom_site_fract_x
 _atom_site_fract_y
 _atom_site_fract_z
 _atom_site_occupancy
  Sn  Sn0  1  0.32492200  0.39554200  0.50466000  1
  Sn  Sn1  1  0.17507800  0.89554200  0.00466000  1
  Sn  Sn2  1  0.60445800  0.32492200  0.49534000  1
  Sn  Sn3  1  0.89554200  0.82492200  0.99534000  1
  Sn  Sn4  1  0.67507800  0.60445800  0.50466000  1
  Sn  Sn5  1  0.82492200  0.10445800  0.00466000  1
  Sn  Sn6  1  0.39554200  0.67507800  0.49534000  1
  Sn  Sn7  1  0.10445800  0.17507800  0.99534000  1
  Sn  Sn8  1  0.50000000  0.50000000  0.67901200  1
  Sn  Sn9  1  0.00000000  0.00000000  0.17901200  1
  Sn  Sn10  1  0.50000000  0.50000000  0.32098800  1
  Sn  Sn11  1  0.00000000  0.00000000  0.82098800  1
  Sn  Sn12  1  0.41625200  0.24217200  0.67378700  1
  Sn  Sn13  1  0.08374800  0.74217200  0.17378700  1
  Sn  Sn14  1  0.75782800  0.41625200  0.32621300  1
  Sn  Sn15  1  0.74217200  0.91625200  0.82621300  1
  Sn  Sn16  1  0.58374800  0.75782800  0.67378700  1
  Sn  Sn17  1  0.91625200  0.25782800  0.17378700  1
  Sn  Sn18  1  0.24217200  0.58374800  0.32621300  1
  Sn  Sn19  1  0.25782800  0.08374800  0.82621300  1
  C  C20  1  0.14342700  0.44709200  0.01108200  1
  C  C21  1  0.35657300  0.94709200  0.51108200  1
  C  C22  1  0.55290800  0.14342700  0.98891800  1
  C  C23  1  0.94709200  0.64342700  0.48891800  1
  C  C24  1  0.85657300  0.55290800  0.01108200  1
  C  C25  1  0.64342700  0.05290800  0.51108200  1
  C  C26  1  0.44709200  0.85657300  0.98891800  1
  C  C27  1  0.05290800  0.35657300  0.48891800  1
  C  C28  1  0.18488500  0.51252700  0.96259900  1
  C  C29  1  0.31511500  0.01252700  0.46259900  1
  C  C30  1  0.48747300  0.18488500  0.03740100  1
  C  C31  1  0.01252700  0.68488500  0.53740100  1
  C  C32  1  0.81511500  0.48747300  0.96259900  1
  C  C33  1  0.68488500  0.98747300  0.46259900  1
  C  C34  1  0.51252700  0.81511500  0.03740100  1
  C  C35  1  0.98747300  0.31511500  0.53740100  1
  C  C36  1  0.28131200  0.62154200  0.85302400  1
  C  C37  1  0.21868800  0.12154200  0.35302400  1
  C  C38  1  0.37845800  0.28131200  0.14697600  1
  C  C39  1  0.12154200  0.78131200  0.64697600  1
  C  C40  1  0.71868800  0.37845800  0.85302400  1
  C  C41  1  0.78131200  0.87845800  0.35302400  1
  C  C42  1  0.62154200  0.71868800  0.14697600  1
  C  C43  1  0.87845800  0.21868800  0.64697600  1
  S  S44  1  0.25741000  0.24624100  0.59216600  1
  S  S45  1  0.24259000  0.74624100  0.09216600  1
  S  S46  1  0.75375900  0.25741000  0.40783400  1
  S  S47  1  0.74624100  0.75741000  0.90783400  1
  S  S48  1  0.74259000  0.75375900  0.59216600  1
  S  S49  1  0.75741000  0.25375900  0.09216600  1
  S  S50  1  0.24624100  0.74259000  0.40783400  1
  S  S51  1  0.25375900  0.24259000  0.90783400  1
  S  S52  1  0.42488700  0.07511300  0.75000000  1
  S  S53  1  0.07511300  0.57511300  0.25000000  1
  S  S54  1  0.92488700  0.42488700  0.25000000  1
  S  S55  1  0.57511300  0.92488700  0.75000000  1
  S  S56  1  0.53843400  0.63761800  0.78823700  1
  S  S57  1  0.96156600  0.13761800  0.28823700  1
  S  S58  1  0.36238200  0.53843400  0.21176300  1
  S  S59  1  0.13761800  0.03843400  0.71176300  1
  S  S60  1  0.46156600  0.36238200  0.78823700  1
  S  S61  1  0.03843400  0.86238200  0.28823700  1
  S  S62  1  0.63761800  0.46156600  0.21176300  1
  S  S63  1  0.86238200  0.96156600  0.71176300  1
  S  S64  1  0.31362800  0.54960900  0.61586700  1
  S  S65  1  0.18637200  0.04960900  0.11586700  1
  S  S66  1  0.45039100  0.31362800  0.38413300  1
  S  S67  1  0.04960900  0.81362800  0.88413300  1
  S  S68  1  0.68637200  0.45039100  0.61586700  1
  S  S69  1  0.81362800  0.95039100  0.11586700  1
  S  S70  1  0.54960900  0.68637200  0.38413300  1
  S  S71  1  0.95039100  0.18637200  0.88413300  1
  S  S72  1  0.38768500  0.85572800  0.58435300  1
  S  S73  1  0.11231500  0.35572800  0.08435300  1
  S  S74  1  0.14427200  0.38768500  0.41564700  1
  S  S75  1  0.35572800  0.88768500  0.91564700  1
  S  S76  1  0.61231500  0.14427200  0.58435300  1
  S  S77  1  0.88768500  0.64427200  0.08435300  1
  S  S78  1  0.85572800  0.61231500  0.41564700  1
  S  S79  1  0.64427200  0.11231500  0.91564700  1
  N  N80  1  0.23413000  0.57206000  0.90724000  1
  N  N81  1  0.26587000  0.07206000  0.40724000  1
  N  N82  1  0.42794000  0.23413000  0.09276000  1
  N  N83  1  0.07206000  0.73413000  0.59276000  1
  N  N84  1  0.76587000  0.42794000  0.90724000  1
  N  N85  1  0.73413000  0.92794000  0.40724000  1
  N  N86  1  0.57206000  0.76587000  0.09276000  1
  N  N87  1  0.92794000  0.26587000  0.59276000  1
  O  O88  1  0.63292300  0.47202100  0.41977600  1
  O  O89  1  0.86707700  0.97202100  0.91977600  1
  O  O90  1  0.52797900  0.63292300  0.58022400  1
  O  O91  1  0.97202100  0.13292300  0.08022400  1
  O  O92  1  0.36707700  0.52797900  0.41977600  1
  O  O93  1  0.13292300  0.02797900  0.91977600  1
  O  O94  1  0.47202100  0.36707700  0.58022400  1
  O  O95  1  0.02797900  0.86707700  0.08022400  1
