# generated using pymatgen
data_DyY3O6
_symmetry_space_group_name_H-M   'P 1'
_cell_length_a   9.18314860
_cell_length_b   9.18314671
_cell_length_c   10.60195449
_cell_angle_alpha   54.74207825
_cell_angle_beta   54.74207654
_cell_angle_gamma   70.53864204
_symmetry_Int_Tables_number   1
_chemical_formula_structural   DyY3O6
_chemical_formula_sum   'Dy4 Y12 O24'
_cell_volume   596.13843863
_cell_formula_units_Z   4
loop_
 _symmetry_equiv_pos_site_id
 _symmetry_equiv_pos_as_xyz
  1  'x, y, z'
loop_
 _atom_site_type_symbol
 _atom_site_label
 _atom_site_symmetry_multiplicity
 _atom_site_fract_x
 _atom_site_fract_y
 _atom_site_fract_z
 _atom_site_occupancy
  Dy  Dy0  1  0.53250902  0.46749089  0.50000007  1
  Dy  Dy1  1  0.28255555  0.78253483  0.71740729  1
  Dy  Dy2  1  0.21746488  0.71744449  0.28259266  1
  Dy  Dy3  1  0.03265087  0.96734928  0.50000004  1
  Y  Y4  1  0.96756694  0.03243307  -0.00000004  1
  Y  Y5  1  0.00015710  0.50010123  0.74995713  1
  Y  Y6  1  0.71754619  0.21751318  0.78241896  1
  Y  Y7  1  0.78248679  0.28245373  0.21758109  1
  Y  Y8  1  0.25002088  0.24999395  0.03253284  1
  Y  Y9  1  0.25001095  0.24998534  0.53240095  1
  Y  Y10  1  0.49989879  0.99984281  0.25004291  1
  Y  Y11  1  0.00001189  0.49991256  0.25007771  1
  Y  Y12  1  0.46742611  0.53257387  -0.00000004  1
  Y  Y13  1  0.50008739  0.99998798  0.74992227  1
  Y  Y14  1  0.75001464  0.74998916  0.46759911  1
  Y  Y15  1  0.75000587  0.74997915  0.96746719  1
  O  O16  1  0.45773111  0.23955415  0.78102439  1
  O  O17  1  0.04258167  0.26082585  0.97817301  1
  O  O18  1  0.03158480  0.72816985  0.76109313  1
  O  O19  1  0.72820051  0.03148039  0.26096193  1
  O  O20  1  0.22803543  0.53167071  0.97924355  1
  O  O21  1  0.53144332  0.22830548  0.47926698  1
  O  O22  1  0.73917416  0.95741826  0.02182701  1
  O  O23  1  0.76044579  0.54226884  0.21897567  1
  O  O24  1  0.98902333  0.22921722  0.29269284  1
  O  O25  1  0.51089460  0.27067120  0.01091661  1
  O  O26  1  0.22939682  0.98875758  0.79226688  1
  O  O27  1  0.27072840  0.51130988  0.51042853  1
  O  O28  1  0.48869021  0.72927148  0.48957153  1
  O  O29  1  0.01124228  0.77060321  0.20773317  1
  O  O30  1  0.77078270  0.01097667  0.70730721  1
  O  O31  1  0.72932863  0.48910544  0.98908356  1
  O  O32  1  0.23917434  0.45745989  0.28154434  1
  O  O33  1  0.26044212  0.04223033  0.47832104  1
  O  O34  1  0.77169451  0.46855675  0.52073307  1
  O  O35  1  0.46832913  0.77196452  0.02075521  1
  O  O36  1  0.27183013  0.96841512  0.23890694  1
  O  O37  1  0.96851953  0.27179959  0.73903804  1
  O  O38  1  0.54254009  0.76082544  0.71845573  1
  O  O39  1  0.95776951  0.73955962  0.52167846  1
