# generated using pymatgen
data_HoTa3O9
_symmetry_space_group_name_H-M   'P 1'
_cell_length_a   7.43822089
_cell_length_b   5.23692014
_cell_length_c   8.22463621
_cell_angle_alpha   87.52642159
_cell_angle_beta   90.00000000
_cell_angle_gamma   90.00000000
_symmetry_Int_Tables_number   1
_chemical_formula_structural   HoTa3O9
_chemical_formula_sum   'Ho2 Ta6 O18'
_cell_volume   320.07876956
_cell_formula_units_Z   2
loop_
 _symmetry_equiv_pos_site_id
 _symmetry_equiv_pos_as_xyz
  1  'x, y, z'
loop_
 _atom_site_type_symbol
 _atom_site_label
 _atom_site_symmetry_multiplicity
 _atom_site_fract_x
 _atom_site_fract_y
 _atom_site_fract_z
 _atom_site_occupancy
  Ho  Ho0  1  0.25000000  0.96698051  0.43496717  1
  Ho  Ho1  1  0.75000000  0.03301949  0.56503283  1
  Ta  Ta2  1  0.00000000  0.00000000  0.00000000  1
  Ta  Ta3  1  0.50000000  0.00000000  0.00000000  1
  Ta  Ta4  1  0.49226706  0.52799252  0.69742528  1
  Ta  Ta5  1  0.00773294  0.52799252  0.69742528  1
  Ta  Ta6  1  0.99226706  0.47200748  0.30257472  1
  Ta  Ta7  1  0.50773294  0.47200748  0.30257472  1
  O  O8  1  0.25000000  0.89769522  0.97807531  1
  O  O9  1  0.93441963  0.85434443  0.78337460  1
  O  O10  1  0.56558037  0.85434443  0.78337460  1
  O  O11  1  0.95585663  0.74258262  0.46674772  1
  O  O12  1  0.54414337  0.74258262  0.46674772  1
  O  O13  1  0.25000000  0.66838518  0.65278606  1
  O  O14  1  0.94254275  0.67269956  0.11860802  1
  O  O15  1  0.55745725  0.67269956  0.11860802  1
  O  O16  1  0.25000000  0.57970261  0.31296288  1
  O  O17  1  0.75000000  0.42029739  0.68703712  1
  O  O18  1  0.05745725  0.32730044  0.88139198  1
  O  O19  1  0.44254275  0.32730044  0.88139198  1
  O  O20  1  0.75000000  0.33161482  0.34721394  1
  O  O21  1  0.04414337  0.25741738  0.53325228  1
  O  O22  1  0.45585663  0.25741738  0.53325228  1
  O  O23  1  0.06558037  0.14565557  0.21662540  1
  O  O24  1  0.43441963  0.14565557  0.21662540  1
  O  O25  1  0.75000000  0.10230478  0.02192469  1
