# generated using pymatgen
data_Ti2CoO5
_symmetry_space_group_name_H-M   'P 1'
_cell_length_a   5.19689574
_cell_length_b   7.40689253
_cell_length_c   10.06394314
_cell_angle_alpha   89.99999412
_cell_angle_beta   90.00000192
_cell_angle_gamma   70.13215210
_symmetry_Int_Tables_number   1
_chemical_formula_structural   Ti2CoO5
_chemical_formula_sum   'Ti8 Co4 O20'
_cell_volume   364.33200027
_cell_formula_units_Z   4
loop_
 _symmetry_equiv_pos_site_id
 _symmetry_equiv_pos_as_xyz
  1  'x, y, z'
loop_
 _atom_site_type_symbol
 _atom_site_label
 _atom_site_symmetry_multiplicity
 _atom_site_fract_x
 _atom_site_fract_y
 _atom_site_fract_z
 _atom_site_occupancy
  Ti  Ti0  1  0.20171825  0.06722212  0.56735798  1
  Ti  Ti1  1  0.70172042  0.56722078  0.56735574  1
  Ti  Ti2  1  0.20171887  0.06722397  0.93264142  1
  Ti  Ti3  1  0.70172226  0.56722185  0.93264470  1
  Ti  Ti4  1  0.79827550  0.93277961  0.06736165  1
  Ti  Ti5  1  0.29828298  0.43277848  0.06735841  1
  Ti  Ti6  1  0.79827863  0.93277971  0.43264073  1
  Ti  Ti7  1  0.29828142  0.43277983  0.43264083  1
  Co  Co8  1  0.78580192  0.59534570  0.24999980  1
  Co  Co9  1  0.71410192  0.90475122  0.74999989  1
  Co  Co10  1  0.28579349  0.09534908  0.24999986  1
  Co  Co11  1  0.21410438  0.40474834  0.74999970  1
  O  O12  1  0.32562859  0.10845348  0.74999994  1
  O  O13  1  0.82563126  0.60845592  0.74999990  1
  O  O14  1  0.67443412  0.89146396  0.24999975  1
  O  O15  1  0.17444021  0.39146832  0.25000001  1
  O  O16  1  0.07084115  0.02358327  0.11277738  1
  O  O17  1  0.57085581  0.52357544  0.11277633  1
  O  O18  1  0.07084157  0.02358385  0.38722287  1
  O  O19  1  0.57085548  0.52357570  0.38722338  1
  O  O20  1  0.92913439  0.97643420  0.88722322  1
  O  O21  1  0.42914320  0.47643098  0.88722368  1
  O  O22  1  0.92913552  0.97643415  0.61277628  1
  O  O23  1  0.42914431  0.47643116  0.61277590  1
  O  O24  1  0.47135407  0.15710769  0.06034432  1
  O  O25  1  0.97136111  0.65710812  0.06034173  1
  O  O26  1  0.47135390  0.15710787  0.43965590  1
  O  O27  1  0.97136203  0.65710847  0.43965804  1
  O  O28  1  0.52866896  0.84286959  0.56033631  1
  O  O29  1  0.02867470  0.34287146  0.56033919  1
  O  O30  1  0.52866881  0.84286950  0.93966372  1
  O  O31  1  0.02867478  0.34287117  0.93966044  1
