# generated using pymatgen
data_TmTaO4
_symmetry_space_group_name_H-M   'P 1'
_cell_length_a   5.24267362
_cell_length_b   7.48501242
_cell_length_c   7.46047481
_cell_angle_alpha   82.17995891
_cell_angle_beta   90.00000000
_cell_angle_gamma   90.00000000
_symmetry_Int_Tables_number   1
_chemical_formula_structural   TmTaO4
_chemical_formula_sum   'Tm4 Ta4 O16'
_cell_volume   290.03747369
_cell_formula_units_Z   4
loop_
 _symmetry_equiv_pos_site_id
 _symmetry_equiv_pos_as_xyz
  1  'x, y, z'
loop_
 _atom_site_type_symbol
 _atom_site_label
 _atom_site_symmetry_multiplicity
 _atom_site_fract_x
 _atom_site_fract_y
 _atom_site_fract_z
 _atom_site_occupancy
  Tm  Tm0  1  0.27712241  0.38535482  0.35497023  1
  Tm  Tm1  1  0.22287759  0.88535482  0.35497023  1
  Tm  Tm2  1  0.77712241  0.11464518  0.64502977  1
  Tm  Tm3  1  0.72287759  0.61464518  0.64502977  1
  Ta  Ta4  1  0.77050242  0.18248728  0.16458398  1
  Ta  Ta5  1  0.72949758  0.68248728  0.16458398  1
  Ta  Ta6  1  0.27050242  0.31751272  0.83541602  1
  Ta  Ta7  1  0.22949758  0.81751272  0.83541602  1
  O  O8  1  0.09957536  0.31266940  0.06985314  1
  O  O9  1  0.40042464  0.81266940  0.06985314  1
  O  O10  1  0.61866458  0.43332587  0.17056698  1
  O  O11  1  0.88133542  0.93332587  0.17056698  1
  O  O12  1  0.49211289  0.11474055  0.32458908  1
  O  O13  1  0.98601773  0.17180989  0.39255897  1
  O  O14  1  0.00788711  0.61474055  0.32458908  1
  O  O15  1  0.51398227  0.67180989  0.39255897  1
  O  O16  1  0.48601773  0.32819011  0.60744103  1
  O  O17  1  0.99211289  0.38525945  0.67541092  1
  O  O18  1  0.01398227  0.82819011  0.60744103  1
  O  O19  1  0.50788711  0.88525945  0.67541092  1
  O  O20  1  0.11866458  0.06667413  0.82943302  1
  O  O21  1  0.38133542  0.56667413  0.82943302  1
  O  O22  1  0.59957536  0.18733060  0.93014686  1
  O  O23  1  0.90042464  0.68733060  0.93014686  1
