# generated using pymatgen
data_Hf3Sc4O12
_symmetry_space_group_name_H-M   'P 1'
_cell_length_a   6.14533519
_cell_length_b   6.14245361
_cell_length_c   12.21281294
_cell_angle_alpha   99.33993006
_cell_angle_beta   99.38071259
_cell_angle_gamma   99.63456725
_symmetry_Int_Tables_number   1
_chemical_formula_structural   Hf3Sc4O12
_chemical_formula_sum   'Hf6 Sc8 O24'
_cell_volume   439.82369641
_cell_formula_units_Z   2
loop_
 _symmetry_equiv_pos_site_id
 _symmetry_equiv_pos_as_xyz
  1  'x, y, z'
loop_
 _atom_site_type_symbol
 _atom_site_label
 _atom_site_symmetry_multiplicity
 _atom_site_fract_x
 _atom_site_fract_y
 _atom_site_fract_z
 _atom_site_occupancy
  Hf  Hf0  1  0.14069570  0.61091271  0.40609426  1
  Hf  Hf1  1  0.68226631  0.85800922  0.94461347  1
  Hf  Hf2  1  0.99501552  0.99627796  0.25058911  1
  Hf  Hf3  1  0.00498448  0.00372204  0.74941089  1
  Hf  Hf4  1  0.31773369  0.14199078  0.05538653  1
  Hf  Hf5  1  0.85930430  0.38908729  0.59390574  1
  Sc  Sc6  1  0.13586946  0.60545411  0.90548204  1
  Sc  Sc7  1  0.39197884  0.68976673  0.68033207  1
  Sc  Sc8  1  0.39402023  0.67999837  0.18145414  1
  Sc  Sc9  1  0.68084868  0.85898647  0.44549079  1
  Sc  Sc10  1  0.31915132  0.14101353  0.55450921  1
  Sc  Sc11  1  0.60802116  0.31023327  0.31966793  1
  Sc  Sc12  1  0.60597977  0.32000163  0.81854586  1
  Sc  Sc13  1  0.86413054  0.39454589  0.09451796  1
  O  O14  1  0.09320658  0.93799475  0.41016253  1
  O  O15  1  0.09291516  0.94725286  0.91183186  1
  O  O16  1  0.05241724  0.68196649  0.70074240  1
  O  O17  1  0.06105048  0.67551741  0.21163782  1
  O  O18  1  0.41412096  0.81732448  0.53670382  1
  O  O19  1  0.42695048  0.82487630  0.03984985  1
  O  O20  1  0.17883656  0.41521709  0.03673272  1
  O  O21  1  0.17402104  0.41983789  0.53603294  1
  O  O22  1  0.67704453  0.90640761  0.27792327  1
  O  O23  1  0.68483312  0.90847405  0.78278535  1
  O  O24  1  0.41862628  0.57087329  0.34059770  1
  O  O25  1  0.42331453  0.58625147  0.84170988  1
  O  O26  1  0.58137372  0.42912671  0.65940230  1
  O  O27  1  0.57668547  0.41374853  0.15829012  1
  O  O28  1  0.32295547  0.09359239  0.72207673  1
  O  O29  1  0.31516688  0.09152595  0.21721465  1
  O  O30  1  0.82597896  0.58016211  0.46396706  1
  O  O31  1  0.82116344  0.58478291  0.96326728  1
  O  O32  1  0.57304952  0.17512370  0.96015015  1
  O  O33  1  0.58587904  0.18267552  0.46329618  1
  O  O34  1  0.94758276  0.31803351  0.29925760  1
  O  O35  1  0.93894952  0.32448259  0.78836218  1
  O  O36  1  0.90679342  0.06200525  0.58983747  1
  O  O37  1  0.90708484  0.05274714  0.08816814  1
