# generated using pymatgen
data_Sr(IO3)2
_symmetry_space_group_name_H-M   'P 1'
_cell_length_a   7.19186540
_cell_length_b   7.19186540
_cell_length_c   7.92135475
_cell_angle_alpha   59.98857362
_cell_angle_beta   59.98857362
_cell_angle_gamma   67.24564542
_symmetry_Int_Tables_number   1
_chemical_formula_structural   Sr(IO3)2
_chemical_formula_sum   'Sr2 I4 O12'
_cell_volume   302.07441364
_cell_formula_units_Z   2
loop_
 _symmetry_equiv_pos_site_id
 _symmetry_equiv_pos_as_xyz
  1  'x, y, z'
loop_
 _atom_site_type_symbol
 _atom_site_label
 _atom_site_symmetry_multiplicity
 _atom_site_fract_x
 _atom_site_fract_y
 _atom_site_fract_z
 _atom_site_occupancy
  Sr  Sr0  1  0.35322400  0.64677600  0.75000000  1
  Sr  Sr1  1  0.64677600  0.35322400  0.25000000  1
  I  I2  1  0.84645459  0.78615350  0.20631324  1
  I  I3  1  0.78615350  0.84645459  0.70631324  1
  I  I4  1  0.21384650  0.15354541  0.29368676  1
  I  I5  1  0.15354541  0.21384650  0.79368676  1
  O  O6  1  0.92528622  0.24790661  0.42221649  1
  O  O7  1  0.70915707  0.92726299  0.48815749  1
  O  O8  1  0.40984138  0.31159322  0.64397556  1
  O  O9  1  0.68840678  0.59015862  0.85602444  1
  O  O10  1  0.24790661  0.92528622  0.92221649  1
  O  O11  1  0.92726299  0.70915707  0.98815749  1
  O  O12  1  0.07273701  0.29084293  0.01184251  1
  O  O13  1  0.75209339  0.07471378  0.07778351  1
  O  O14  1  0.31159322  0.40984138  0.14397556  1
  O  O15  1  0.59015862  0.68840678  0.35602444  1
  O  O16  1  0.29084293  0.07273701  0.51184251  1
  O  O17  1  0.07471378  0.75209339  0.57778351  1
