# generated using pymatgen
data_LaTa3O9
_symmetry_space_group_name_H-M   'P 1'
_cell_length_a   8.78212478
_cell_length_b   8.78212478
_cell_length_c   9.69314935
_cell_angle_alpha   57.02979353
_cell_angle_beta   57.02979353
_cell_angle_gamma   36.82842331
_symmetry_Int_Tables_number   1
_chemical_formula_structural   LaTa3O9
_chemical_formula_sum   'La2 Ta6 O18'
_cell_volume   367.08143107
_cell_formula_units_Z   2
loop_
 _symmetry_equiv_pos_site_id
 _symmetry_equiv_pos_as_xyz
  1  'x, y, z'
loop_
 _atom_site_type_symbol
 _atom_site_label
 _atom_site_symmetry_multiplicity
 _atom_site_fract_x
 _atom_site_fract_y
 _atom_site_fract_z
 _atom_site_occupancy
  La  La0  1  0.33195838  0.33195838  0.00084323  1
  La  La1  1  0.66804162  0.66804162  0.99915677  1
  Ta  Ta2  1  0.58446439  0.58446439  0.74792027  1
  Ta  Ta3  1  0.74756024  0.74756024  0.26543094  1
  Ta  Ta4  1  0.92376348  0.92376348  0.74034071  1
  Ta  Ta5  1  0.07623652  0.07623652  0.25965929  1
  Ta  Ta6  1  0.25243976  0.25243976  0.73456906  1
  Ta  Ta7  1  0.41553561  0.41553561  0.25207973  1
  O  O8  1  0.57566762  0.09403871  0.23363367  1
  O  O9  1  0.66492315  0.66492315  0.50344631  1
  O  O10  1  0.50000000  0.50000000  0.00000000  1
  O  O11  1  0.42415770  0.92378707  0.22826784  1
  O  O12  1  0.09403871  0.57566762  0.23363367  1
  O  O13  1  0.25037838  0.73081921  0.76752082  1
  O  O14  1  0.26918079  0.74962162  0.23247918  1
  O  O15  1  0.92378707  0.42415770  0.22826784  1
  O  O16  1  0.73081921  0.25037838  0.76752082  1
  O  O17  1  -0.00000000  -0.00000000  0.50000000  1
  O  O18  1  0.07621293  0.57584230  0.77173216  1
  O  O19  1  0.17507760  0.17507760  0.99998018  1
  O  O20  1  0.82492240  0.82492240  0.00001982  1
  O  O21  1  0.74962162  0.26918079  0.23247918  1
  O  O22  1  0.90596129  0.42433238  0.76636633  1
  O  O23  1  0.57584230  0.07621293  0.77173216  1
  O  O24  1  0.42433238  0.90596129  0.76636633  1
  O  O25  1  0.33507685  0.33507685  0.49655369  1
