# generated using pymatgen
data_Rb4SiO4
_symmetry_space_group_name_H-M   'P 1'
_cell_length_a   6.60167190
_cell_length_b   10.66530122
_cell_length_c   10.96500685
_cell_angle_alpha   67.12796663
_cell_angle_beta   90.00000000
_cell_angle_gamma   90.00000000
_symmetry_Int_Tables_number   1
_chemical_formula_structural   Rb4SiO4
_chemical_formula_sum   'Rb16 Si4 O16'
_cell_volume   711.33225584
_cell_formula_units_Z   4
loop_
 _symmetry_equiv_pos_site_id
 _symmetry_equiv_pos_as_xyz
  1  'x, y, z'
loop_
 _atom_site_type_symbol
 _atom_site_label
 _atom_site_symmetry_multiplicity
 _atom_site_fract_x
 _atom_site_fract_y
 _atom_site_fract_z
 _atom_site_occupancy
  Rb  Rb0  1  0.57828817  0.28790190  0.07398422  1
  Rb  Rb1  1  0.12375379  0.42976012  0.14926086  1
  Rb  Rb2  1  0.92171183  0.78790190  0.07398422  1
  Rb  Rb3  1  0.32471383  0.10446061  0.37853244  1
  Rb  Rb4  1  0.82775480  0.21862397  0.41117537  1
  Rb  Rb5  1  0.37624621  0.92976012  0.14926086  1
  Rb  Rb6  1  0.17528617  0.60446061  0.37853244  1
  Rb  Rb7  1  0.32775480  0.28137603  0.58882463  1
  Rb  Rb8  1  0.67224520  0.71862397  0.41117537  1
  Rb  Rb9  1  0.82471383  0.39553939  0.62146756  1
  Rb  Rb10  1  0.62375379  0.07023988  0.85073914  1
  Rb  Rb11  1  0.17224520  0.78137603  0.58882463  1
  Rb  Rb12  1  0.67528617  0.89553939  0.62146756  1
  Rb  Rb13  1  0.07828817  0.21209810  0.92601578  1
  Rb  Rb14  1  0.87624621  0.57023988  0.85073914  1
  Rb  Rb15  1  0.42171183  0.71209810  0.92601578  1
  Si  Si16  1  0.87907152  0.01524523  0.23885857  1
  Si  Si17  1  0.62092848  0.51524523  0.23885857  1
  Si  Si18  1  0.37907152  0.48475477  0.76114143  1
  Si  Si19  1  0.12092848  0.98475477  0.76114143  1
  O  O20  1  0.78180958  0.01908643  0.09912435  1
  O  O21  1  0.01113501  0.15655642  0.20741458  1
  O  O22  1  0.71819042  0.51908643  0.09912435  1
  O  O23  1  0.47422346  0.37923977  0.31057745  1
  O  O24  1  0.48886499  0.65655642  0.20741458  1
  O  O25  1  0.81173487  0.50757077  0.34064302  1
  O  O26  1  0.02577654  0.87923977  0.31057745  1
  O  O27  1  0.31173487  -0.00757077  0.65935698  1
  O  O28  1  0.68826513  0.00757077  0.34064302  1
  O  O29  1  0.97422346  0.12076023  0.68942255  1
  O  O30  1  0.18826513  0.49242923  0.65935698  1
  O  O31  1  0.51113501  0.34344358  0.79258542  1
  O  O32  1  0.52577654  0.62076023  0.68942255  1
  O  O33  1  0.28180958  0.48091357  0.90087565  1
  O  O34  1  -0.01113501  0.84344358  0.79258542  1
  O  O35  1  0.21819042  0.98091357  0.90087565  1
