# generated using pymatgen
data_Rb4PbO4
_symmetry_space_group_name_H-M   'P 1'
_cell_length_a   6.89327708
_cell_length_b   6.86651394
_cell_length_c   10.26888547
_cell_angle_alpha   78.91887704
_cell_angle_beta   71.52516828
_cell_angle_gamma   66.88920991
_symmetry_Int_Tables_number   1
_chemical_formula_structural   Rb4PbO4
_chemical_formula_sum   'Rb8 Pb2 O8'
_cell_volume   422.72511014
_cell_formula_units_Z   2
loop_
 _symmetry_equiv_pos_site_id
 _symmetry_equiv_pos_as_xyz
  1  'x, y, z'
loop_
 _atom_site_type_symbol
 _atom_site_label
 _atom_site_symmetry_multiplicity
 _atom_site_fract_x
 _atom_site_fract_y
 _atom_site_fract_z
 _atom_site_occupancy
  Rb  Rb0  1  0.23849451  0.76015915  0.96998309  1
  Rb  Rb1  1  0.49225464  0.72274470  0.55949419  1
  Rb  Rb2  1  0.58575217  0.74629908  0.16734644  1
  Rb  Rb3  1  0.03653257  0.78239051  0.38193013  1
  Rb  Rb4  1  0.96346743  0.21760949  0.61806987  1
  Rb  Rb5  1  0.41424783  0.25370092  0.83265356  1
  Rb  Rb6  1  0.50774536  0.27725530  0.44050581  1
  Rb  Rb7  1  0.76150549  0.23984085  0.03001691  1
  Pb  Pb8  1  0.84544804  0.72122573  0.75369635  1
  Pb  Pb9  1  0.15455196  0.27877427  0.24630365  1
  O  O10  1  0.83659669  0.87682357  0.91184174  1
  O  O11  1  0.69814013  0.96949596  0.62132687  1
  O  O12  1  0.65451584  0.52876782  0.80986005  1
  O  O13  1  0.84097655  0.46334205  0.35590738  1
  O  O14  1  0.15902345  0.53665795  0.64409262  1
  O  O15  1  0.34548416  0.47123218  0.19013995  1
  O  O16  1  0.30185987  0.03050404  0.37867313  1
  O  O17  1  0.16340331  0.12317643  0.08815826  1
