# generated using pymatgen
data_Mn2PO5
_symmetry_space_group_name_H-M   'P 1'
_cell_length_a   6.13308685
_cell_length_b   7.67199853
_cell_length_c   8.08323246
_cell_angle_alpha   90.00000000
_cell_angle_beta   90.00000000
_cell_angle_gamma   90.00000000
_symmetry_Int_Tables_number   1
_chemical_formula_structural   Mn2PO5
_chemical_formula_sum   'Mn8 P4 O20'
_cell_volume   380.34060609
_cell_formula_units_Z   4
loop_
 _symmetry_equiv_pos_site_id
 _symmetry_equiv_pos_as_xyz
  1  'x, y, z'
loop_
 _atom_site_type_symbol
 _atom_site_label
 _atom_site_symmetry_multiplicity
 _atom_site_fract_x
 _atom_site_fract_y
 _atom_site_fract_z
 _atom_site_occupancy
  Mn  Mn0  1  -0.00000000  -0.00000000  0.00000000  1
  Mn  Mn1  1  0.50000000  -0.00000000  0.00000000  1
  Mn  Mn2  1  0.25000000  0.12107122  0.34907647  1
  Mn  Mn3  1  0.25000000  0.37892878  0.84907647  1
  Mn  Mn4  1  -0.00000000  0.50000000  0.50000000  1
  Mn  Mn5  1  0.50000000  0.50000000  0.50000000  1
  Mn  Mn6  1  0.75000000  0.62107122  0.15092353  1
  Mn  Mn7  1  0.75000000  0.87892878  0.65092353  1
  P  P8  1  0.75000000  0.16791578  0.32053349  1
  P  P9  1  0.75000000  0.33208422  0.82053349  1
  P  P10  1  0.25000000  0.66791578  0.17946651  1
  P  P11  1  0.25000000  0.83208422  0.67946651  1
  O  O12  1  0.75000000  0.06057761  0.47591018  1
  O  O13  1  0.95695796  0.13347442  0.21658078  1
  O  O14  1  0.54304204  0.13347442  0.21658078  1
  O  O15  1  0.75000000  0.13586082  0.86461917  1
  O  O16  1  0.25000000  0.14008111  0.95214392  1
  O  O17  1  0.25000000  0.35991889  0.45214392  1
  O  O18  1  0.75000000  0.36413918  0.36461917  1
  O  O19  1  0.54304204  0.36652558  0.71658078  1
  O  O20  1  0.95695796  0.36652558  0.71658078  1
  O  O21  1  0.75000000  0.43942239  0.97591018  1
  O  O22  1  0.25000000  0.56057761  0.02408982  1
  O  O23  1  0.04304204  0.63347442  0.28341922  1
  O  O24  1  0.45695796  0.63347442  0.28341922  1
  O  O25  1  0.25000000  0.63586082  0.63538083  1
  O  O26  1  0.75000000  0.64008111  0.54785608  1
  O  O27  1  0.75000000  0.85991889  0.04785608  1
  O  O28  1  0.25000000  0.86413918  0.13538083  1
  O  O29  1  0.04304204  0.86652558  0.78341922  1
  O  O30  1  0.45695796  0.86652558  0.78341922  1
  O  O31  1  0.25000000  0.93942239  0.52408982  1
