# generated using pymatgen
data_Na4CoO4
_symmetry_space_group_name_H-M   'P 1'
_cell_length_a   10.06936000
_cell_length_b   6.06736425
_cell_length_c   17.84961048
_cell_angle_alpha   90.17019252
_cell_angle_beta   92.44344296
_cell_angle_gamma   90.01650684
_symmetry_Int_Tables_number   1
_chemical_formula_structural   Na4CoO4
_chemical_formula_sum   'Na32 Co8 O32'
_cell_volume   1089.51617625
_cell_formula_units_Z   8
loop_
 _symmetry_equiv_pos_site_id
 _symmetry_equiv_pos_as_xyz
  1  'x, y, z'
loop_
 _atom_site_type_symbol
 _atom_site_label
 _atom_site_symmetry_multiplicity
 _atom_site_fract_x
 _atom_site_fract_y
 _atom_site_fract_z
 _atom_site_occupancy
  Na  Na0  1  0.13837400  0.18328500  0.86139900  1
  Na  Na1  1  0.14830100  0.33343200  0.36075600  1
  Na  Na2  1  0.20359300  0.64106600  0.14013600  1
  Na  Na3  1  0.27148800  0.50803200  0.61049500  1
  Na  Na4  1  0.23950000  0.57368700  0.78207400  1
  Na  Na5  1  0.25154800  0.93770100  0.28731300  1
  Na  Na6  1  0.32898900  0.40245700  0.00442500  1
  Na  Na7  1  0.31422700  0.06190400  0.50276900  1
  Na  Na8  1  0.39063300  0.34257800  0.23533900  1
  Na  Na9  1  0.36789800  0.11488800  0.73704100  1
  Na  Na10  1  0.35295600  0.86131000  0.91844400  1
  Na  Na11  1  0.37248700  0.62210700  0.41384700  1
  Na  Na12  1  0.54780100  0.06779400  0.05638900  1
  Na  Na13  1  0.56264300  0.42271300  0.55659100  1
  Na  Na14  1  0.59482700  0.86936600  0.25599900  1
  Na  Na15  1  0.58967600  0.61866700  0.75460200  1
  Na  Na16  1  0.65183100  0.59183900  0.00371300  1
  Na  Na17  1  0.66928700  0.91049700  0.50684500  1
  Na  Na18  1  0.68334900  0.09848800  0.68487600  1
  Na  Na19  1  0.68765100  0.39052600  0.17905800  1
  Na  Na20  1  0.69898000  0.55560100  0.37408400  1
  Na  Na21  1  0.68857200  0.94076100  0.87414800  1
  Na  Na22  1  0.80550400  0.08909500  0.36707600  1
  Na  Na23  1  0.79790900  0.41010900  0.86509300  1
  Na  Na24  1  0.84145500  0.58975600  0.67369000  1
  Na  Na25  1  0.84794500  0.91804000  0.17482600  1
  Na  Na26  1  0.91527400  0.40846500  0.50396100  1
  Na  Na27  1  0.90475100  0.08704500  0.00639900  1
  Na  Na28  1  0.97454000  0.00818100  0.74042700  1
  Na  Na29  1  0.95535200  0.45399200  0.24584700  1
  Na  Na30  1  0.97535200  0.58806300  0.04797600  1
  Na  Na31  1  0.01330200  0.89794600  0.54660800  1
  Co  Co32  1  0.07003200  0.18491900  0.13481400  1
  Co  Co33  1  0.05230400  0.31240500  0.63652100  1
  Co  Co34  1  0.47642300  0.66900800  0.12482600  1
  Co  Co35  1  0.47206000  0.83163400  0.62136800  1
  Co  Co36  1  0.53268800  0.15150800  0.37867500  1
  Co  Co37  1  0.52349300  0.33915900  0.87757400  1
  Co  Co38  1  0.95937000  0.69601600  0.37509900  1
  Co  Co39  1  0.94894100  0.81005600  0.87401300  1
  O  O40  1  0.04448100  0.89563000  0.11684700  1
  O  O41  1  0.04042700  0.60468000  0.62111800  1
  O  O42  1  0.15425400  0.26562700  0.22320000  1
  O  O43  1  0.14992800  0.25726400  0.72249900  1
  O  O44  1  0.12883000  0.21410800  0.55302100  1
  O  O45  1  0.13553600  0.33203400  0.05834100  1
  O  O46  1  0.13609000  0.73743100  0.37385900  1
  O  O47  1  0.12514100  0.77256000  0.86732600  1
  O  O48  1  0.36039600  0.23444800  0.37990500  1
  O  O49  1  0.35385300  0.24515900  0.88073500  1
  O  O50  1  0.39743900  0.77100600  0.04094400  1
  O  O51  1  0.40158500  0.70762900  0.53705200  1
  O  O52  1  0.38761200  0.73647000  0.70211600  1
  O  O53  1  0.39110400  0.73229400  0.21010100  1
  O  O54  1  0.48337600  0.37402500  0.11522000  1
  O  O55  1  0.47055800  0.12757200  0.61484300  1
  O  O56  1  0.54935100  0.85569300  0.38329400  1
  O  O57  1  0.53563100  0.63691800  0.88138700  1
  O  O58  1  0.60781500  0.24440200  0.29227600  1
  O  O59  1  0.59976100  0.24513900  0.79237500  1
  O  O60  1  0.63062500  0.23232600  0.95376700  1
  O  O61  1  0.64060900  0.26569700  0.45310500  1
  O  O62  1  0.64784600  0.77268700  0.13140800  1
  O  O63  1  0.64490900  0.73532800  0.62969600  1
  O  O64  1  0.88264700  0.20653000  0.63845600  1
  O  O65  1  0.89323100  0.28933300  0.13520500  1
  O  O66  1  0.86887300  0.79311300  0.45430700  1
  O  O67  1  0.85542200  0.71195000  0.95220900  1
  O  O68  1  0.84571700  0.72366300  0.79193800  1
  O  O69  1  0.85709800  0.78077600  0.29285900  1
  O  O70  1  0.93204100  0.39734100  0.37434200  1
  O  O71  1  0.92504200  0.10707600  0.87523000  1
