# generated using pymatgen
data_V6O11F
_symmetry_space_group_name_H-M   'P 1'
_cell_length_a   4.56681607
_cell_length_b   5.39920259
_cell_length_c   7.32610508
_cell_angle_alpha   83.63067528
_cell_angle_beta   89.33116332
_cell_angle_gamma   89.10274029
_symmetry_Int_Tables_number   1
_chemical_formula_structural   V6O11F
_chemical_formula_sum   'V6 O11 F1'
_cell_volume   179.49498183
_cell_formula_units_Z   1
loop_
 _symmetry_equiv_pos_site_id
 _symmetry_equiv_pos_as_xyz
  1  'x, y, z'
loop_
 _atom_site_type_symbol
 _atom_site_label
 _atom_site_symmetry_multiplicity
 _atom_site_fract_x
 _atom_site_fract_y
 _atom_site_fract_z
 _atom_site_occupancy
  V  V0  1  0.52094093  0.83762363  0.67559174  1
  V  V1  1  0.48917175  0.49439426  0.99669581  1
  V  V2  1  0.49781215  0.17421959  0.33096238  1
  V  V3  1  0.98955391  0.31063118  0.66940245  1
  V  V4  1  0.97800585  0.67329637  0.31367114  1
  V  V5  1  0.01101517  0.00814823  0.00456779  1
  O  O6  1  0.81060749  0.37420289  0.43556321  1
  O  O7  1  0.79558806  0.69837601  0.10071008  1
  O  O8  1  0.79871909  0.03209442  0.76648552  1
  O  O9  1  0.70294229  0.19851205  0.10193364  1
  O  O10  1  0.70269618  0.53283400  0.76384504  1
  O  O11  1  0.70047276  0.86645531  0.43704091  1
  O  O12  1  0.30481557  0.12737578  0.56920930  1
  O  O13  1  0.29591534  0.46776174  0.23754436  1
  O  O14  1  0.29913494  0.80357918  0.89658948  1
  O  O15  1  0.20152255  0.96446886  0.23719968  1
  O  O16  1  0.20042530  0.30475673  0.89745502  1
  F  F17  1  0.20065968  0.63127178  0.56553446  1
