# generated using pymatgen
data_SrLa9MgGa9O29
_symmetry_space_group_name_H-M   'P 1'
_cell_length_a   5.55738500
_cell_length_b   5.58375844
_cell_length_c   23.04752378
_cell_angle_alpha   96.58194415
_cell_angle_beta   90.17295764
_cell_angle_gamma   119.83340414
_symmetry_Int_Tables_number   1
_chemical_formula_structural   SrLa9MgGa9O29
_chemical_formula_sum   'Sr1 La9 Mg1 Ga9 O29'
_cell_volume   614.82284957
_cell_formula_units_Z   1
loop_
 _symmetry_equiv_pos_site_id
 _symmetry_equiv_pos_as_xyz
  1  'x, y, z'
loop_
 _atom_site_type_symbol
 _atom_site_label
 _atom_site_symmetry_multiplicity
 _atom_site_fract_x
 _atom_site_fract_y
 _atom_site_fract_z
 _atom_site_occupancy
  Sr  Sr0  1  0.76395100  0.21385600  0.84591600  1
  La  La1  1  0.24639600  0.39316300  0.95451600  1
  La  La2  1  0.74997300  0.79663600  0.65143800  1
  La  La3  1  0.29231800  0.03124700  0.74399300  1
  La  La4  1  0.74963100  0.39482200  0.44843000  1
  La  La5  1  0.24878300  0.60281900  0.55304700  1
  La  La6  1  0.74745800  0.99365500  0.24920200  1
  La  La7  1  0.24842100  0.20221900  0.35256500  1
  La  La8  1  0.73592200  0.58739100  0.05102400  1
  La  La9  1  0.24785000  0.80139900  0.15217400  1
  Mg  Mg10  1  0.46992700  0.58359900  0.79717500  1
  Ga  Ga11  1  0.02948200  0.81153700  0.90514700  1
  Ga  Ga12  1  0.00067900  0.39896700  0.70142000  1
  Ga  Ga13  1  0.99995300  0.99986700  0.50047800  1
  Ga  Ga14  1  0.50161400  0.20238100  0.59814600  1
  Ga  Ga15  1  0.99936300  0.59895800  0.30031300  1
  Ga  Ga16  1  0.49863500  0.79878400  0.40062300  1
  Ga  Ga17  1  0.99890900  0.19873000  0.10091400  1
  Ga  Ga18  1  0.49790400  0.39844100  0.20084000  1
  Ga  Ga19  1  0.50463100  0.00529700  0.99901600  1
  O  O20  1  0.73101900  0.38467500  0.93378300  1
  O  O21  1  0.69792700  0.83080100  0.95375400  1
  O  O22  1  0.75696800  0.97210100  0.73713700  1
  O  O23  1  0.72898000  0.45255900  0.75826200  1
  O  O24  1  0.18909000  0.81591900  0.96596900  1
  O  O25  1  0.78019900  0.36293300  0.64439100  1
  O  O26  1  0.26252200  0.76565400  0.84093000  1
  O  O27  1  0.75442800  0.56672300  0.53265700  1
  O  O28  1  0.23821500  0.22628400  0.86891000  1
  O  O29  1  0.70809600  0.02905600  0.55876900  1
  O  O30  1  0.22864500  0.42367000  0.75024500  1
  O  O31  1  0.79772200  0.97476400  0.44052900  1
  O  O32  1  0.29398000  0.37103900  0.63782600  1
  O  O33  1  0.75071700  0.16708100  0.33306500  1
  O  O34  1  0.25819200  0.83702500  0.66358700  1
  O  O35  1  0.70447500  0.62791500  0.35847200  1
  O  O36  1  0.20411800  0.02230400  0.55827900  1
  O  O37  1  0.79798100  0.57410300  0.24020100  1
  O  O38  1  0.29724700  0.97583800  0.43996800  1
  O  O39  1  0.74744600  0.76650200  0.13387800  1
  O  O40  1  0.25210400  0.43499500  0.46653000  1
  O  O41  1  0.70355500  0.22907900  0.15773500  1
  O  O42  1  0.20464600  0.62624700  0.35886600  1
  O  O43  1  0.79779200  0.16819200  0.03975200  1
  O  O44  1  0.29687300  0.57478000  0.24064200  1
  O  O45  1  0.25171800  0.03345100  0.26637300  1
  O  O46  1  0.20253600  0.22501200  0.15981200  1
  O  O47  1  0.29508900  0.16987400  0.04303400  1
  O  O48  1  0.25932100  0.63149800  0.06679000  1
