# generated using pymatgen
data_MoO3
_symmetry_space_group_name_H-M   'P 1'
_cell_length_a   7.49524362
_cell_length_b   7.49524362
_cell_length_c   3.72756563
_cell_angle_alpha   90.00000000
_cell_angle_beta   90.00000000
_cell_angle_gamma   151.03220508
_symmetry_Int_Tables_number   1
_chemical_formula_structural   MoO3
_chemical_formula_sum   'Mo2 O6'
_cell_volume   101.42087571
_cell_formula_units_Z   2
loop_
 _symmetry_equiv_pos_site_id
 _symmetry_equiv_pos_as_xyz
  1  'x, y, z'
loop_
 _atom_site_type_symbol
 _atom_site_label
 _atom_site_symmetry_multiplicity
 _atom_site_fract_x
 _atom_site_fract_y
 _atom_site_fract_z
 _atom_site_occupancy
  Mo  Mo0  1  0.10324806  0.89675194  0.25000000  1
  Mo  Mo1  1  0.89675194  0.10324806  0.75000000  1
  O  O2  1  0.93255075  0.06744925  0.25000000  1
  O  O3  1  0.06744925  0.93255075  0.75000000  1
  O  O4  1  0.58306601  0.41693399  0.25000000  1
  O  O5  1  0.41693399  0.58306601  0.75000000  1
  O  O6  1  0.21747633  0.78252367  0.25000000  1
  O  O7  1  0.78252367  0.21747633  0.75000000  1
