# generated using pymatgen
data_Dy2Te4O11
_symmetry_space_group_name_H-M   'P 1'
_cell_length_a   6.76348768
_cell_length_b   6.76348768
_cell_length_c   17.74352269
_cell_angle_alpha   64.73828013
_cell_angle_beta   64.73828013
_cell_angle_gamma   44.99237711
_symmetry_Int_Tables_number   1
_chemical_formula_structural   Dy2Te4O11
_chemical_formula_sum   'Dy4 Te8 O22'
_cell_volume   508.97709333
_cell_formula_units_Z   2
loop_
 _symmetry_equiv_pos_site_id
 _symmetry_equiv_pos_as_xyz
  1  'x, y, z'
loop_
 _atom_site_type_symbol
 _atom_site_label
 _atom_site_symmetry_multiplicity
 _atom_site_fract_x
 _atom_site_fract_y
 _atom_site_fract_z
 _atom_site_occupancy
  Dy  Dy0  1  0.66053200  0.67326900  0.96676800  1
  Dy  Dy1  1  0.34797600  0.32857900  0.53394500  1
  Dy  Dy2  1  0.33182900  0.34805000  0.03395800  1
  Dy  Dy3  1  0.67163500  0.65838100  0.46698200  1
  Te  Te4  1  0.95265100  0.04714900  0.62130300  1
  Te  Te5  1  0.97316300  0.02668500  0.87517600  1
  Te  Te6  1  0.02972600  0.97304800  0.37572600  1
  Te  Te7  1  0.01890400  0.96925700  0.12649500  1
  Te  Te8  1  0.35697700  0.30730500  0.80435900  1
  Te  Te9  1  0.70443200  0.65853200  0.69530300  1
  Te  Te10  1  0.64794800  0.70596500  0.19400300  1
  Te  Te11  1  0.31373400  0.34510800  0.30152000  1
  O  O12  1  0.05176000  0.67657800  0.62843600  1
  O  O13  1  0.32118300  0.95088200  0.86648700  1
  O  O14  1  0.93546900  0.32624100  0.37163100  1
  O  O15  1  0.67733300  0.05693000  0.12414300  1
  O  O16  1  0.69414200  0.29377500  0.55094500  1
  O  O17  1  0.71585400  0.30626700  0.94832400  1
  O  O18  1  0.28555400  0.72783700  0.44786200  1
  O  O19  1  0.28934400  0.68894700  0.05379700  1
  O  O20  1  0.25903700  0.00732200  0.54477600  1
  O  O21  1  0.01019300  0.71039900  0.95750000  1
  O  O22  1  0.71942600  0.99271500  0.45841400  1
  O  O23  1  0.98728300  0.28001000  0.04503500  1
  O  O24  1  0.83807300  0.50721000  0.59822000  1
  O  O25  1  0.47741600  0.15669400  0.90742500  1
  O  O26  1  0.14977500  0.48941100  0.40166800  1
  O  O27  1  0.51815400  0.84933000  0.09527000  1
  O  O28  1  0.43595200  0.04074300  0.66637600  1
  O  O29  1  0.95775100  0.57506200  0.83225900  1
  O  O30  1  0.58207300  0.96285400  0.32965200  1
  O  O31  1  0.05468200  0.41728100  0.16314700  1
  O  O32  1  0.39983200  0.61438800  0.75091700  1
  O  O33  1  0.60025000  0.39924200  0.25260400  1
