# generated using pymatgen
data_InH5(NF)2
_symmetry_space_group_name_H-M   'P 1'
_cell_length_a   5.47927800
_cell_length_b   7.83749300
_cell_length_c   8.84796975
_cell_angle_alpha   95.10802236
_cell_angle_beta   90.00000000
_cell_angle_gamma   90.00000000
_symmetry_Int_Tables_number   1
_chemical_formula_structural   InH5(NF)2
_chemical_formula_sum   'In4 H20 N8 F8'
_cell_volume   378.45647807
_cell_formula_units_Z   4
loop_
 _symmetry_equiv_pos_site_id
 _symmetry_equiv_pos_as_xyz
  1  'x, y, z'
loop_
 _atom_site_type_symbol
 _atom_site_label
 _atom_site_symmetry_multiplicity
 _atom_site_fract_x
 _atom_site_fract_y
 _atom_site_fract_z
 _atom_site_occupancy
  In  In0  1  0.56185500  0.64410400  0.36104200  1
  In  In1  1  0.93814500  0.14410400  0.86104200  1
  In  In2  1  0.43814500  0.35589600  0.63895800  1
  In  In3  1  0.06185500  0.85589600  0.13895800  1
  H  H4  1  0.79026000  0.95196200  0.39116500  1
  H  H5  1  0.70974000  0.45196200  0.89116500  1
  H  H6  1  0.20974000  0.04803800  0.60883500  1
  H  H7  1  0.29026000  0.54803800  0.10883500  1
  H  H8  1  0.99309500  0.80636300  0.42566600  1
  H  H9  1  0.50690500  0.30636300  0.92566600  1
  H  H10  1  0.00690500  0.19363700  0.57433400  1
  H  H11  1  0.49309500  0.69363700  0.07433400  1
  H  H12  1  0.97728000  0.43950500  0.33604500  1
  H  H13  1  0.52272000  0.93950500  0.83604500  1
  H  H14  1  0.02272000  0.56049500  0.66395500  1
  H  H15  1  0.47728000  0.06049500  0.16395500  1
  H  H16  1  0.74122100  0.31031500  0.31521600  1
  H  H17  1  0.75877900  0.81031500  0.81521600  1
  H  H18  1  0.25877900  0.68968500  0.68478400  1
  H  H19  1  0.24122100  0.18968500  0.18478400  1
  H  H20  1  0.84425700  0.41132000  0.16867500  1
  H  H21  1  0.65574300  0.91132000  0.66867500  1
  H  H22  1  0.15574300  0.58868000  0.83132500  1
  H  H23  1  0.34425700  0.08868000  0.33132500  1
  N  N24  1  0.85662400  0.83349800  0.35106600  1
  N  N25  1  0.64337600  0.33349800  0.85106600  1
  N  N26  1  0.14337600  0.16650200  0.64893400  1
  N  N27  1  0.35662400  0.66650200  0.14893400  1
  N  N28  1  0.81060700  0.42366000  0.28313500  1
  N  N29  1  0.68939300  0.92366000  0.78313500  1
  N  N30  1  0.18939300  0.57634000  0.71686500  1
  N  N31  1  0.31060700  0.07634000  0.21686500  1
  F  F32  1  0.69522000  0.56199100  0.58516000  1
  F  F33  1  0.80478000  0.06199100  0.08516000  1
  F  F34  1  0.30478000  0.43800900  0.41484000  1
  F  F35  1  0.19522000  0.93800900  0.91484000  1
  F  F36  1  0.33829500  0.81789200  0.50019700  1
  F  F37  1  0.16170500  0.31789200  0.00019700  1
  F  F38  1  0.66170500  0.18210800  0.49980300  1
  F  F39  1  0.83829500  0.68210800  0.99980300  1
