# generated using pymatgen
data_V4(OF3)3
_symmetry_space_group_name_H-M   'P 1'
_cell_length_a   5.08965812
_cell_length_b   5.28264805
_cell_length_c   16.92010550
_cell_angle_alpha   83.47148775
_cell_angle_beta   81.77600098
_cell_angle_gamma   61.01841218
_symmetry_Int_Tables_number   1
_chemical_formula_structural   V4(OF3)3
_chemical_formula_sum   'V8 O6 F18'
_cell_volume   393.34999868
_cell_formula_units_Z   2
loop_
 _symmetry_equiv_pos_site_id
 _symmetry_equiv_pos_as_xyz
  1  'x, y, z'
loop_
 _atom_site_type_symbol
 _atom_site_label
 _atom_site_symmetry_multiplicity
 _atom_site_fract_x
 _atom_site_fract_y
 _atom_site_fract_z
 _atom_site_occupancy
  V  V0  1  0.38184543  0.33594357  0.86993479  1
  V  V1  1  0.89270936  0.88507109  0.38123355  1
  V  V2  1  0.74992324  0.74242583  0.74939499  1
  V  V3  1  0.24309192  0.26421237  0.24751800  1
  V  V4  1  0.11722133  0.14888046  0.62893358  1
  V  V5  1  0.66816410  0.61083091  0.12316307  1
  V  V6  1  -0.00105796  0.96745418  0.00070640  1
  V  V7  1  0.50385477  0.49691025  0.49352964  1
  O  O8  1  0.75139512  0.21821452  0.43729296  1
  O  O9  1  0.47240140  0.06630185  0.81181873  1
  O  O10  1  0.23034445  0.69562702  0.41785413  1
  O  O11  1  0.02453033  0.41864142  0.68757274  1
  O  O12  1  0.99207403  0.42379205  0.16681858  1
  O  O13  1  0.81185324  0.78613446  0.03879878  1
  F  F14  1  0.77884281  0.15730232  0.90874887  1
  F  F15  1  0.30284921  0.66974163  0.93369264  1
  F  F16  1  0.97719254  0.94033661  0.71265232  1
  F  F17  1  0.45330011  0.47556252  0.21274717  1
  F  F18  1  0.21842108  0.19846972  0.96373450  1
  F  F19  1  0.97489150  0.58471545  0.84062593  1
  F  F20  1  0.49963738  0.08021249  0.33686946  1
  F  F21  1  0.26464724  0.30225405  0.53471170  1
  F  F22  1  0.96225922  0.56606260  0.31645415  1
  F  F23  1  0.52542217  0.90580892  0.65872687  1
  F  F24  1  0.69619333  0.73614218  0.46702753  1
  F  F25  1  0.72414282  0.32758338  0.58834881  1
  F  F26  1  0.52326074  0.54416350  0.78618833  1
  F  F27  1  0.03341156  0.04498610  0.28668531  1
  F  F28  1  0.53485082  0.94766465  0.18741269  1
  F  F29  1  0.71428872  0.31246500  0.05941137  1
  F  F30  1  0.22058779  0.81013142  0.56519156  1
  F  F31  1  0.25745024  0.83595649  0.08620085  1
