# generated using pymatgen
data_Sr2HfO4
_symmetry_space_group_name_H-M   'P 1'
_cell_length_a   5.79631372
_cell_length_b   5.79631372
_cell_length_c   12.61355157
_cell_angle_alpha   90.00000000
_cell_angle_beta   90.00000000
_cell_angle_gamma   90.00000000
_symmetry_Int_Tables_number   1
_chemical_formula_structural   Sr2HfO4
_chemical_formula_sum   'Sr8 Hf4 O16'
_cell_volume   423.78068005
_cell_formula_units_Z   4
loop_
 _symmetry_equiv_pos_site_id
 _symmetry_equiv_pos_as_xyz
  1  'x, y, z'
loop_
 _atom_site_type_symbol
 _atom_site_label
 _atom_site_symmetry_multiplicity
 _atom_site_fract_x
 _atom_site_fract_y
 _atom_site_fract_z
 _atom_site_occupancy
  Sr  Sr0  1  0.26210619  0.76210619  0.10183542  1
  Sr  Sr1  1  0.26210619  0.23789381  0.60183542  1
  Sr  Sr2  1  0.73789381  0.76210619  0.60183542  1
  Sr  Sr3  1  0.73789381  0.23789381  0.10183542  1
  Sr  Sr4  1  0.76210619  0.26210619  0.39816458  1
  Sr  Sr5  1  0.76210619  0.73789381  0.89816458  1
  Sr  Sr6  1  0.23789381  0.26210619  0.89816458  1
  Sr  Sr7  1  0.23789381  0.73789381  0.39816458  1
  Hf  Hf8  1  0.25000000  0.75000000  0.75000000  1
  Hf  Hf9  1  0.25000000  0.25000000  0.25000000  1
  Hf  Hf10  1  0.75000000  0.25000000  0.75000000  1
  Hf  Hf11  1  0.75000000  0.75000000  0.25000000  1
  O  O12  1  0.29130547  0.20869453  0.08708261  1
  O  O13  1  0.29130547  0.79130547  0.58708261  1
  O  O14  1  0.50000000  -0.00000000  0.77470970  1
  O  O15  1  0.50000000  -0.00000000  0.27470970  1
  O  O16  1  0.50000000  0.50000000  0.75000000  1
  O  O17  1  0.50000000  0.50000000  0.25000000  1
  O  O18  1  0.70869453  0.20869453  0.58708261  1
  O  O19  1  0.70869453  0.79130547  0.08708261  1
  O  O20  1  0.79130547  0.29130547  0.91291739  1
  O  O21  1  0.79130547  0.70869453  0.41291739  1
  O  O22  1  -0.00000000  -0.00000000  0.25000000  1
  O  O23  1  -0.00000000  0.50000000  0.22529030  1
  O  O24  1  -0.00000000  -0.00000000  0.75000000  1
  O  O25  1  -0.00000000  0.50000000  0.72529030  1
  O  O26  1  0.20869453  0.70869453  0.91291739  1
  O  O27  1  0.20869453  0.29130547  0.41291739  1
