# generated using pymatgen
data_ScGaO3
_symmetry_space_group_name_H-M   'P 1'
_cell_length_a   5.73468053
_cell_length_b   5.73467626
_cell_length_c   11.53189412
_cell_angle_alpha   90.00004384
_cell_angle_beta   89.99993244
_cell_angle_gamma   119.99997088
_symmetry_Int_Tables_number   1
_chemical_formula_structural   ScGaO3
_chemical_formula_sum   'Sc6 Ga6 O18'
_cell_volume   328.43508194
_cell_formula_units_Z   6
loop_
 _symmetry_equiv_pos_site_id
 _symmetry_equiv_pos_as_xyz
  1  'x, y, z'
loop_
 _atom_site_type_symbol
 _atom_site_label
 _atom_site_symmetry_multiplicity
 _atom_site_fract_x
 _atom_site_fract_y
 _atom_site_fract_z
 _atom_site_occupancy
  Sc  Sc0  1  0.33335046  0.66667326  0.23778046  1
  Sc  Sc1  1  0.00000170  0.00000419  0.27642113  1
  Sc  Sc2  1  0.00000215  -0.00000198  0.77641828  1
  Sc  Sc3  1  0.33332854  0.66666030  0.73778502  1
  Sc  Sc4  1  0.66665989  0.33332332  0.73778249  1
  Sc  Sc5  1  0.66667116  0.33334043  0.23779090  1
  Ga  Ga6  1  -0.00001635  0.66596152  0.50333915  1
  Ga  Ga7  1  0.00001433  0.33403809  0.00333906  1
  Ga  Ga8  1  0.33401608  0.33401746  0.50333917  1
  Ga  Ga9  1  0.66598323  0.66598286  0.00333750  1
  Ga  Ga10  1  0.33403792  0.00001773  0.00333906  1
  Ga  Ga11  1  0.66596044  -0.00001706  0.50333957  1
  O  O12  1  -0.00000183  0.69446896  0.67039675  1
  O  O13  1  -0.00000068  0.63827417  0.33835320  1
  O  O14  1  -0.00000061  0.36172498  0.83835330  1
  O  O15  1  0.00000078  0.30553078  0.17039801  1
  O  O16  1  0.33334197  0.66667578  0.02475866  1
  O  O17  1  -0.00000654  -0.00000431  0.47703978  1
  O  O18  1  0.00000485  0.00000523  0.97704018  1
  O  O19  1  0.33332410  0.66665900  0.52475783  1
  O  O20  1  0.30552717  0.30552733  0.67039692  1
  O  O21  1  0.36172761  0.36172490  0.33835255  1
  O  O22  1  0.30553082  0.00000061  0.17039798  1
  O  O23  1  0.63827264  0.63827654  0.83835187  1
  O  O24  1  0.69447162  0.69447222  0.17039745  1
  O  O25  1  0.36172435  0.00000007  0.83835302  1
  O  O26  1  0.66665709  0.33332404  0.52475771  1
  O  O27  1  0.66667478  0.33334199  0.02475823  1
  O  O28  1  0.63827358  -0.00000054  0.33835289  1
  O  O29  1  0.69446874  -0.00000084  0.67039689  1
