# generated using pymatgen
data_Na4CoO4
_symmetry_space_group_name_H-M   'P 1'
_cell_length_a   6.04844200
_cell_length_b   10.07274700
_cell_length_c   17.83544613
_cell_angle_alpha   88.91936810
_cell_angle_beta   90.00000000
_cell_angle_gamma   90.00000000
_symmetry_Int_Tables_number   1
_chemical_formula_structural   Na4CoO4
_chemical_formula_sum   'Na32 Co8 O32'
_cell_volume   1086.42105791
_cell_formula_units_Z   8
loop_
 _symmetry_equiv_pos_site_id
 _symmetry_equiv_pos_as_xyz
  1  'x, y, z'
loop_
 _atom_site_type_symbol
 _atom_site_label
 _atom_site_symmetry_multiplicity
 _atom_site_fract_x
 _atom_site_fract_y
 _atom_site_fract_z
 _atom_site_occupancy
  Na  Na0  1  0.58817500  0.14603900  0.14340000  1
  Na  Na1  1  0.41182500  0.14603900  0.64340000  1
  Na  Na2  1  0.11215000  0.19980300  0.85717400  1
  Na  Na3  1  0.88785000  0.19980300  0.35717400  1
  Na  Na4  1  0.18741800  0.25560700  0.21028900  1
  Na  Na5  1  0.81258200  0.25560700  0.71028900  1
  Na  Na6  1  0.66135800  0.32839500  0.49762100  1
  Na  Na7  1  0.33864200  0.32839500  0.99762100  1
  Na  Na8  1  0.40296100  0.38734800  0.76415700  1
  Na  Na9  1  0.59703900  0.38734800  0.26415700  1
  Na  Na10  1  0.87665700  0.36324600  0.08109100  1
  Na  Na11  1  0.12334300  0.36324600  0.58109100  1
  Na  Na12  1  0.68056600  0.54782800  0.94244000  1
  Na  Na13  1  0.31943400  0.54782800  0.44244000  1
  Na  Na14  1  0.87819900  0.59161600  0.74561700  1
  Na  Na15  1  0.12180100  0.59161600  0.24561700  1
  Na  Na16  1  0.15742000  0.65066800  0.99680300  1
  Na  Na17  1  0.84258000  0.65066800  0.49680300  1
  Na  Na18  1  0.64465500  0.68652600  0.32300900  1
  Na  Na19  1  0.35534500  0.68652600  0.82300900  1
  Na  Na20  1  0.19034800  0.69384200  0.62754400  1
  Na  Na21  1  0.80965200  0.69384200  0.12754400  1
  Na  Na22  1  0.66385300  0.80213100  0.63386400  1
  Na  Na23  1  0.33614700  0.80213100  0.13386400  1
  Na  Na24  1  0.16392300  0.84677500  0.32544000  1
  Na  Na25  1  0.83607700  0.84677500  0.82544000  1
  Na  Na26  1  0.33563900  0.90171500  0.49293500  1
  Na  Na27  1  0.66436100  0.90171500  0.99293500  1
  Na  Na28  1  0.69273200  0.94919400  0.25397400  1
  Na  Na29  1  0.30726800  0.94919400  0.75397400  1
  Na  Na30  1  0.83660900  0.97645900  0.45335000  1
  Na  Na31  1  0.16339100  0.97645900  0.95335000  1
  Co  Co32  1  0.56738000  0.06927100  0.86678500  1
  Co  Co33  1  0.43262000  0.06927100  0.36678500  1
  Co  Co34  1  0.07942500  0.47503100  0.87565000  1
  Co  Co35  1  0.92057500  0.47503100  0.37565000  1
  Co  Co36  1  0.59082800  0.52889300  0.62391900  1
  Co  Co37  1  0.40917200  0.52889300  0.12391900  1
  Co  Co38  1  0.05916900  0.95361100  0.62567000  1
  Co  Co39  1  0.94083100  0.95361100  0.12567000  1
  O  O40  1  0.85670800  0.04363100  0.88463200  1
  O  O41  1  0.14329200  0.04363100  0.38463200  1
  O  O42  1  0.48372500  0.15147400  0.77919100  1
  O  O43  1  0.51627500  0.15147400  0.27919100  1
  O  O44  1  0.58122300  0.13644900  0.44334500  1
  O  O45  1  0.41877700  0.13644900  0.94334500  1
  O  O46  1  0.98517800  0.12905700  0.12949300  1
  O  O47  1  0.01482200  0.12905700  0.62949300  1
  O  O48  1  0.50359900  0.35743800  0.62398700  1
  O  O49  1  0.49640100  0.35743800  0.12398700  1
  O  O50  1  0.97657200  0.39970000  0.95971600  1
  O  O51  1  0.02342800  0.39970000  0.45971600  1
  O  O52  1  0.98471000  0.38850300  0.29030800  1
  O  O53  1  0.01529000  0.38850300  0.79030800  1
  O  O54  1  0.37472200  0.48233700  0.88490700  1
  O  O55  1  0.62527800  0.48233700  0.38490700  1
  O  O56  1  0.11158500  0.54038400  0.11873200  1
  O  O57  1  0.88841500  0.54038400  0.61873200  1
  O  O58  1  0.50119700  0.61017800  0.70951600  1
  O  O59  1  0.49880300  0.61017800  0.20951600  1
  O  O60  1  0.52132200  0.62898000  0.04760000  1
  O  O61  1  0.47867800  0.62898000  0.54760000  1
  O  O62  1  0.02391000  0.64650000  0.36985500  1
  O  O63  1  0.97609000  0.64650000  0.86985500  1
  O  O64  1  0.53662200  0.89182800  0.36605600  1
  O  O65  1  0.46337800  0.89182800  0.86605600  1
  O  O66  1  0.96082200  0.85553100  0.54788200  1
  O  O67  1  0.03917800  0.85553100  0.04788200  1
  O  O68  1  0.02156500  0.85263100  0.20798200  1
  O  O69  1  0.97843500  0.85263100  0.70798200  1
  O  O70  1  0.35885200  0.92978600  0.62359400  1
  O  O71  1  0.64114800  0.92978600  0.12359400  1
