# generated using pymatgen
data_Os(CO)4
_symmetry_space_group_name_H-M   'P 1'
_cell_length_a   9.45793500
_cell_length_b   13.13229900
_cell_length_c   17.77412691
_cell_angle_alpha   83.70481464
_cell_angle_beta   90.00000000
_cell_angle_gamma   90.00000000
_symmetry_Int_Tables_number   1
_chemical_formula_structural   Os(CO)4
_chemical_formula_sum   'Os12 C48 O48'
_cell_volume   2194.31370905
_cell_formula_units_Z   12
loop_
 _symmetry_equiv_pos_site_id
 _symmetry_equiv_pos_as_xyz
  1  'x, y, z'
loop_
 _atom_site_type_symbol
 _atom_site_label
 _atom_site_symmetry_multiplicity
 _atom_site_fract_x
 _atom_site_fract_y
 _atom_site_fract_z
 _atom_site_occupancy
  Os  Os0  1  0.74510300  0.18784500  0.28121000  1
  Os  Os1  1  0.24510300  0.81215500  0.21879000  1
  Os  Os2  1  0.25489700  0.81215500  0.71879000  1
  Os  Os3  1  0.75489700  0.18784500  0.78121000  1
  Os  Os4  1  0.87467000  0.27500100  0.40366000  1
  Os  Os5  1  0.37467000  0.72499900  0.09634000  1
  Os  Os6  1  0.12533000  0.72499900  0.59634000  1
  Os  Os7  1  0.62533000  0.27500100  0.90366000  1
  Os  Os8  1  0.49594800  0.25696800  0.34992200  1
  Os  Os9  1  0.99594800  0.74303200  0.15007800  1
  Os  Os10  1  0.50405200  0.74303200  0.65007800  1
  Os  Os11  1  0.00405200  0.25696800  0.84992200  1
  C  C12  1  0.62712000  0.13764700  0.20464400  1
  C  C13  1  0.12712000  0.86235300  0.29535600  1
  C  C14  1  0.37288000  0.86235300  0.79535600  1
  C  C15  1  0.87288000  0.13764700  0.70464400  1
  C  C16  1  0.93184200  0.15268500  0.24976000  1
  C  C17  1  0.43184200  0.84731500  0.25024000  1
  C  C18  1  0.06815800  0.84731500  0.75024000  1
  C  C19  1  0.56815800  0.15268500  0.74976000  1
  C  C20  1  0.72715000  0.06492900  0.35345900  1
  C  C21  1  0.22715000  0.93507100  0.14654100  1
  C  C22  1  0.27285000  0.93507100  0.64654100  1
  C  C23  1  0.77285000  0.06492900  0.85345900  1
  C  C24  1  0.75765000  0.32595500  0.22881200  1
  C  C25  1  0.25765000  0.67404500  0.27118800  1
  C  C26  1  0.24235000  0.67404500  0.77118800  1
  C  C27  1  0.74235000  0.32595500  0.72881200  1
  C  C28  1  0.91284000  0.34386800  0.49138700  1
  C  C29  1  0.41284000  0.65613200  0.00861300  1
  C  C30  1  0.08716000  0.65613200  0.50861300  1
  C  C31  1  0.58716000  0.34386800  0.99138700  1
  C  C32  1  0.99125300  0.36000700  0.33974800  1
  C  C33  1  0.49125300  0.63999300  0.16025200  1
  C  C34  1  0.00874700  0.63999300  0.66025200  1
  C  C35  1  0.50874700  0.36000700  0.83974800  1
  C  C36  1  0.98568800  0.16090400  0.43691200  1
  C  C37  1  0.48568800  0.83909600  0.06308800  1
  C  C38  1  0.01431200  0.83909600  0.56308800  1
  C  C39  1  0.51431200  0.16090400  0.93691200  1
  C  C40  1  0.36249900  0.31284700  0.41547700  1
  C  C41  1  0.86249900  0.68715300  0.08452300  1
  C  C42  1  0.63750100  0.68715300  0.58452300  1
  C  C43  1  0.13750100  0.31284700  0.91547700  1
  C  C44  1  0.42543800  0.33242900  0.26273100  1
  C  C45  1  0.92543800  0.66757100  0.23726900  1
  C  C46  1  0.57456200  0.66757100  0.73726900  1
  C  C47  1  0.07456200  0.33242900  0.76273100  1
  C  C48  1  0.40855400  0.12919700  0.35505500  1
  C  C49  1  0.90855400  0.87080300  0.14494500  1
  C  C50  1  0.59144600  0.87080300  0.64494500  1
  C  C51  1  0.09144600  0.12919700  0.85505500  1
  C  C52  1  0.60328300  0.19040100  0.55477300  1
  C  C53  1  0.10328300  0.80959900  0.94522700  1
  C  C54  1  0.39671700  0.80959900  0.44522700  1
  C  C55  1  0.89671700  0.19040100  0.05477300  1
  C  C56  1  0.62843200  0.51198500  0.40099800  1
  C  C57  1  0.12843200  0.48801500  0.09900200  1
  C  C58  1  0.37156800  0.48801500  0.59900200  1
  C  C59  1  0.87156800  0.51198500  0.90099800  1
  O  O60  1  0.55520800  0.10908000  0.15819000  1
  O  O61  1  0.05520800  0.89092000  0.34181000  1
  O  O62  1  0.44479200  0.89092000  0.84181000  1
  O  O63  1  0.94479200  0.10908000  0.65819000  1
  O  O64  1  0.04553000  0.13263500  0.23151200  1
  O  O65  1  0.54553000  0.86736500  0.26848800  1
  O  O66  1  0.95447000  0.86736500  0.76848800  1
  O  O67  1  0.45447000  0.13263500  0.73151200  1
  O  O68  1  0.71855500  0.99029700  0.39481200  1
  O  O69  1  0.21855500  0.00970300  0.10518800  1
  O  O70  1  0.28144500  0.00970300  0.60518800  1
  O  O71  1  0.78144500  0.99029700  0.89481200  1
  O  O72  1  0.77134000  0.40567900  0.19408800  1
  O  O73  1  0.27134000  0.59432100  0.30591200  1
  O  O74  1  0.22866000  0.59432100  0.80591200  1
  O  O75  1  0.72866000  0.40567900  0.69408800  1
  O  O76  1  0.93091500  0.38609000  0.54493900  1
  O  O77  1  0.43091500  0.61391000  0.95506100  1
  O  O78  1  0.06908500  0.61391000  0.45506100  1
  O  O79  1  0.56908500  0.38609000  0.04493900  1
  O  O80  1  0.07700300  0.40370100  0.30117000  1
  O  O81  1  0.57700300  0.59629900  0.19883000  1
  O  O82  1  0.92299700  0.59629900  0.69883000  1
  O  O83  1  0.42299700  0.40370100  0.80117000  1
  O  O84  1  0.06976600  0.09726700  0.45347300  1
  O  O85  1  0.56976600  0.90273300  0.04652700  1
  O  O86  1  0.93023400  0.90273300  0.54652700  1
  O  O87  1  0.43023400  0.09726700  0.95347300  1
  O  O88  1  0.28496300  0.34807100  0.45661400  1
  O  O89  1  0.78496300  0.65192900  0.04338600  1
  O  O90  1  0.71503700  0.65192900  0.54338600  1
  O  O91  1  0.21503700  0.34807100  0.95661400  1
  O  O92  1  0.37096300  0.37048200  0.20762300  1
  O  O93  1  0.87096300  0.62951800  0.29237700  1
  O  O94  1  0.62903700  0.62951800  0.79237700  1
  O  O95  1  0.12903700  0.37048200  0.70762300  1
  O  O96  1  0.34555000  0.05308600  0.35207800  1
  O  O97  1  0.84555000  0.94691400  0.14792200  1
  O  O98  1  0.65445000  0.94691400  0.64792200  1
  O  O99  1  0.15445000  0.05308600  0.85207800  1
  O  O100  1  0.63670900  0.20210500  0.49209800  1
  O  O101  1  0.13670900  0.79789500  0.00790200  1
  O  O102  1  0.36329100  0.79789500  0.50790200  1
  O  O103  1  0.86329100  0.20210500  0.99209800  1
  O  O104  1  0.64986300  0.43006400  0.38660500  1
  O  O105  1  0.14986300  0.56993600  0.11339500  1
  O  O106  1  0.35013700  0.56993600  0.61339500  1
  O  O107  1  0.85013700  0.43006400  0.88660500  1
