# generated using pymatgen
data_Na3V2P2O10F
_symmetry_space_group_name_H-M   'P 1'
_cell_length_a   6.47986600
_cell_length_b   6.48215329
_cell_length_c   10.63429532
_cell_angle_alpha   89.72660031
_cell_angle_beta   89.69305383
_cell_angle_gamma   89.92680419
_symmetry_Int_Tables_number   1
_chemical_formula_structural   Na3V2P2O10F
_chemical_formula_sum   'Na6 V4 P4 O20 F2'
_cell_volume   446.66561597
_cell_formula_units_Z   2
loop_
 _symmetry_equiv_pos_site_id
 _symmetry_equiv_pos_as_xyz
  1  'x, y, z'
loop_
 _atom_site_type_symbol
 _atom_site_label
 _atom_site_symmetry_multiplicity
 _atom_site_fract_x
 _atom_site_fract_y
 _atom_site_fract_z
 _atom_site_occupancy
  Na  Na0  1  0.18416300  0.24784000  0.50160100  1
  Na  Na1  1  0.68415700  0.75041200  0.00149900  1
  Na  Na2  1  0.24063700  0.76705000  0.50022700  1
  Na  Na3  1  0.75912300  0.77427300  0.49762000  1
  Na  Na4  1  0.25060900  0.31430300  0.99844600  1
  Na  Na5  1  0.73598500  0.26320000  0.00003500  1
  V  V6  1  0.50300400  0.49399100  0.30106000  1
  V  V7  1  0.00487900  0.99427900  0.80164000  1
  V  V8  1  0.00535700  0.99494900  0.19854400  1
  V  V9  1  0.50385300  0.49472600  0.69900800  1
  P  P10  1  0.99739400  0.50211500  0.24953400  1
  P  P11  1  0.49808400  0.00193100  0.74926700  1
  P  P12  1  0.49702400  0.00284000  0.25061000  1
  P  P13  1  0.99660200  0.50278300  0.75056900  1
  O  O14  1  0.99601800  0.69113600  0.16049100  1
  O  O15  1  0.18894600  0.50156200  0.33742200  1
  O  O16  1  0.80785900  0.50184800  0.33870700  1
  O  O17  1  0.51025500  0.49406700  0.14344600  1
  O  O18  1  0.99947000  0.30988900  0.16255600  1
  O  O19  1  0.49509500  0.19196600  0.66087600  1
  O  O20  1  0.49142700  0.19061000  0.33978700  1
  O  O21  1  0.69000600  0.00144400  0.83680200  1
  O  O22  1  0.30893000  0.00188900  0.83868800  1
  O  O23  1  0.01201800  0.99260900  0.64408300  1
  O  O24  1  0.00615100  0.98704100  0.35612700  1
  O  O25  1  0.69103700  0.00404700  0.16375600  1
  O  O26  1  0.30999900  0.00583100  0.16061700  1
  O  O27  1  0.50094000  0.80962800  0.66202700  1
  O  O28  1  0.49760700  0.80844500  0.33700300  1
  O  O29  1  0.99218600  0.68985200  0.84016100  1
  O  O30  1  0.50540700  0.48975200  0.85663900  1
  O  O31  1  0.19023700  0.50422600  0.66332400  1
  O  O32  1  0.80927200  0.50472000  0.66077100  1
  O  O33  1  0.99704600  0.30880500  0.83704300  1
  F  F34  1  0.49206800  0.50696900  0.49994400  1
  F  F35  1  0.99215300  0.00796700  0.00006800  1
