# generated using pymatgen
data_Hf2N2O
_symmetry_space_group_name_H-M   'P 1'
_cell_length_a   8.66334050
_cell_length_b   8.67221100
_cell_length_c   8.68045346
_cell_angle_alpha   109.41866271
_cell_angle_beta   109.47319463
_cell_angle_gamma   109.39964705
_symmetry_Int_Tables_number   1
_chemical_formula_structural   Hf2N2O
_chemical_formula_sum   'Hf16 N16 O8'
_cell_volume   502.79229184
_cell_formula_units_Z   8
loop_
 _symmetry_equiv_pos_site_id
 _symmetry_equiv_pos_as_xyz
  1  'x, y, z'
loop_
 _atom_site_type_symbol
 _atom_site_label
 _atom_site_symmetry_multiplicity
 _atom_site_fract_x
 _atom_site_fract_y
 _atom_site_fract_z
 _atom_site_occupancy
  Hf  Hf0  1  0.99849719  0.01172131  0.50838273  1
  Hf  Hf1  1  0.24440179  0.70611734  0.46252429  1
  Hf  Hf2  1  0.29329506  0.04250849  0.25616501  1
  Hf  Hf3  1  0.77611417  0.52726330  0.24783801  1
  Hf  Hf4  1  0.74401678  0.78589787  0.03636657  1
  Hf  Hf5  1  0.95738178  0.74138155  0.70857951  1
  Hf  Hf6  1  0.00220933  0.49036307  0.99238199  1
  Hf  Hf7  1  0.51034835  0.00407999  0.01138447  1
  Hf  Hf8  1  0.03400932  0.25775530  0.28480028  1
  Hf  Hf9  1  0.48804858  0.48253483  0.48989289  1
  Hf  Hf10  1  0.53255252  0.24997758  0.78599856  1
  Hf  Hf11  1  0.47200724  0.74963319  0.20848547  1
  Hf  Hf12  1  0.25045860  0.21838268  0.96207711  1
  Hf  Hf13  1  0.21430604  0.46465773  0.74857422  1
  Hf  Hf14  1  0.72421388  0.97459325  0.75533294  1
  Hf  Hf15  1  0.75227381  0.28769236  0.53730284  1
  N  N16  1  0.96350823  0.00445749  0.73679737  1
  N  N17  1  0.73001647  0.75979260  0.27236214  1
  N  N18  1  0.53555570  0.27094313  0.04231165  1
  N  N19  1  0.54073185  0.03211142  0.26886306  1
  N  N20  1  0.98784895  0.46173153  0.22954824  1
  N  N21  1  0.27054853  0.23555515  0.72356114  1
  N  N22  1  0.72931090  0.49650394  0.45789846  1
  N  N23  1  0.01295386  0.55176618  0.77914232  1
  N  N24  1  0.77233231  0.22791079  0.76609754  1
  N  N25  1  0.24006653  0.46773050  0.01670492  1
  N  N26  1  0.25986559  0.26646661  0.22654397  1
  N  N27  1  0.48620495  0.26104766  0.53338387  1
  N  N28  1  0.77433931  0.04232536  0.03048366  1
  N  N29  1  0.46882307  0.72855607  0.95383868  1
  N  N30  1  0.95221813  0.22427694  0.48411107  1
  N  N31  1  0.27714610  0.51903261  0.54719845  1
  O  O32  1  0.05683719  0.77802465  0.52160638  1
  O  O33  1  0.03626329  0.98025629  0.26132904  1
  O  O34  1  0.44863251  0.96370529  0.72231018  1
  O  O35  1  0.51138977  0.74665274  0.47071179  1
  O  O36  1  0.73706039  0.72258486  0.77293996  1
  O  O37  1  0.75787453  0.53562864  0.98005601  1
  O  O38  1  0.22852604  0.95272389  0.96318603  1
  O  O39  1  0.22781336  0.77565381  0.24293119  1
