# generated using pymatgen
data_SrV2(PO5)2
_symmetry_space_group_name_H-M   'P 1'
_cell_length_a   10.09306592
_cell_length_b   8.90573030
_cell_length_c   7.04206910
_cell_angle_alpha   77.55386256
_cell_angle_beta   59.49952162
_cell_angle_gamma   42.94661581
_symmetry_Int_Tables_number   1
_chemical_formula_structural   SrV2(PO5)2
_chemical_formula_sum   'Sr2 V4 P4 O20'
_cell_volume   358.22689744
_cell_formula_units_Z   2
loop_
 _symmetry_equiv_pos_site_id
 _symmetry_equiv_pos_as_xyz
  1  'x, y, z'
loop_
 _atom_site_type_symbol
 _atom_site_label
 _atom_site_symmetry_multiplicity
 _atom_site_fract_x
 _atom_site_fract_y
 _atom_site_fract_z
 _atom_site_occupancy
  Sr  Sr0  1  0.99565200  0.99964700  0.00222800  1
  Sr  Sr1  1  0.24484300  0.25154400  0.25180700  1
  V  V2  1  0.64885800  0.08493200  0.62200300  1
  V  V3  1  0.63079600  0.60863100  0.59133400  1
  V  V4  1  0.63704700  0.62623300  0.08284600  1
  V  V5  1  0.15886200  0.60390100  0.60619700  1
  P  P6  1  0.79445200  0.78074600  0.20606800  1
  P  P7  1  0.05601800  0.02791400  0.44428700  1
  P  P8  1  0.22191100  0.19491800  0.78633700  1
  P  P9  1  0.46833500  0.45417900  0.02518900  1
  O  O10  1  0.29224700  0.90556000  0.23568400  1
  O  O11  1  0.18177500  0.34617300  0.61338400  1
  O  O12  1  0.69303300  0.99531200  0.33146600  1
  O  O13  1  0.67811600  0.64750500  0.82196300  1
  O  O14  1  0.62330700  0.84248500  0.17181700  1
  O  O15  1  0.90267300  0.05938800  0.39717600  1
  O  O16  1  0.59547900  0.57827500  0.41114100  1
  O  O17  1  0.32846300  0.97224600  0.68853400  1
  O  O18  1  0.57152500  0.23096600  0.90941400  1
  O  O19  1  0.85417900  0.60727600  0.34759900  1
  O  O20  1  0.83623700  0.83415100  0.65740700  1
  O  O21  1  0.36549500  0.17014900  0.84616800  1
  O  O22  1  0.08972500  0.88302400  0.61661800  1
  O  O23  1  0.40325700  0.62434400  0.89165700  1
  O  O24  1  0.42047300  0.40750200  0.57003500  1
  O  O25  1  0.63499700  0.39725000  0.07503800  1
  O  O26  1  0.25846300  0.54507500  0.27598200  1
  O  O27  1  0.00981800  0.68907600  0.97276200  1
  O  O28  1  0.98120600  0.32123600  0.99075500  1
  O  O29  1  0.92748900  0.26721900  0.54291700  1
