# generated using pymatgen
data_LiMnCO4
_symmetry_space_group_name_H-M   'P 1'
_cell_length_a   9.19137200
_cell_length_b   3.30942600
_cell_length_c   9.44776104
_cell_angle_alpha   84.46389923
_cell_angle_beta   90.00000000
_cell_angle_gamma   90.00000000
_symmetry_Int_Tables_number   1
_chemical_formula_structural   LiMnCO4
_chemical_formula_sum   'Li4 Mn4 C4 O16'
_cell_volume   286.04308973
_cell_formula_units_Z   4
loop_
 _symmetry_equiv_pos_site_id
 _symmetry_equiv_pos_as_xyz
  1  'x, y, z'
loop_
 _atom_site_type_symbol
 _atom_site_label
 _atom_site_symmetry_multiplicity
 _atom_site_fract_x
 _atom_site_fract_y
 _atom_site_fract_z
 _atom_site_occupancy
  Li  Li0  1  0.68488100  0.76625800  0.90308200  1
  Li  Li1  1  0.81511900  0.76625800  0.40308200  1
  Li  Li2  1  0.18488100  0.23374200  0.59691800  1
  Li  Li3  1  0.31511900  0.23374200  0.09691800  1
  Mn  Mn4  1  0.06378200  0.75945300  0.88528300  1
  Mn  Mn5  1  0.43621800  0.75945300  0.38528300  1
  Mn  Mn6  1  0.56378200  0.24054700  0.61471700  1
  Mn  Mn7  1  0.93621800  0.24054700  0.11471700  1
  C  C8  1  0.36910300  0.77302400  0.84080000  1
  C  C9  1  0.13089700  0.77302400  0.34080000  1
  C  C10  1  0.86910300  0.22697600  0.65920000  1
  C  C11  1  0.63089700  0.22697600  0.15920000  1
  O  O12  1  0.49168800  0.79598700  0.76773000  1
  O  O13  1  0.88860000  0.72950000  0.99485100  1
  O  O14  1  0.24672900  0.76374000  0.76818100  1
  O  O15  1  0.00831200  0.79598700  0.26773000  1
  O  O16  1  0.61140000  0.72950000  0.49485100  1
  O  O17  1  0.25327100  0.76374000  0.26818100  1
  O  O18  1  0.36984300  0.75469400  0.97441700  1
  O  O19  1  0.13015700  0.75469400  0.47441700  1
  O  O20  1  0.86984300  0.24530600  0.52558300  1
  O  O21  1  0.63015700  0.24530600  0.02558300  1
  O  O22  1  0.74672900  0.23626000  0.73181900  1
  O  O23  1  0.38860000  0.27050000  0.50514900  1
  O  O24  1  0.99168800  0.20401300  0.73227000  1
  O  O25  1  0.75327100  0.23626000  0.23181900  1
  O  O26  1  0.11140000  0.27050000  0.00514900  1
  O  O27  1  0.50831200  0.20401300  0.23227000  1
