# generated using pymatgen
data_VOF2
_symmetry_space_group_name_H-M   'P 1'
_cell_length_a   5.06049738
_cell_length_b   5.09149609
_cell_length_c   9.13835435
_cell_angle_alpha   75.21600866
_cell_angle_beta   74.49434056
_cell_angle_gamma   60.81083807
_symmetry_Int_Tables_number   1
_chemical_formula_structural   VOF2
_chemical_formula_sum   'V4 O4 F8'
_cell_volume   195.88188862
_cell_formula_units_Z   4
loop_
 _symmetry_equiv_pos_site_id
 _symmetry_equiv_pos_as_xyz
  1  'x, y, z'
loop_
 _atom_site_type_symbol
 _atom_site_label
 _atom_site_symmetry_multiplicity
 _atom_site_fract_x
 _atom_site_fract_y
 _atom_site_fract_z
 _atom_site_occupancy
  V  V0  1  0.99729712  0.00351437  0.00176308  1
  V  V1  1  0.20899755  0.26819619  0.24897274  1
  V  V2  1  0.52566245  0.52013207  0.50110123  1
  V  V3  1  0.77507482  0.74708930  0.75599537  1
  O  O4  1  0.05168045  0.20932617  0.12788236  1
  O  O5  1  0.53545162  0.69093479  0.62916884  1
  O  O6  1  0.94969170  0.79355319  0.87206564  1
  O  O7  1  0.86804644  0.46634933  0.37727476  1
  F  F8  1  0.27259739  0.87569728  0.37987763  1
  F  F9  1  0.36740664  0.98206416  0.86931140  1
  F  F10  1  0.23187892  0.62647560  0.12377839  1
  F  F11  1  0.13260126  0.51309079  0.61988734  1
  F  F12  1  0.45694533  0.29288109  0.37175474  1
  F  F13  1  0.77084871  0.37355528  0.87697555  1
  F  F14  1  0.63079449  0.02437048  0.13365544  1
  F  F15  1  0.72502711  0.11277291  0.61053247  1
