# generated using pymatgen
data_Hf2N2O
_symmetry_space_group_name_H-M   'P 1'
_cell_length_a   8.65232940
_cell_length_b   8.66651933
_cell_length_c   8.67183442
_cell_angle_alpha   109.38853684
_cell_angle_beta   109.34501779
_cell_angle_gamma   109.36701809
_symmetry_Int_Tables_number   1
_chemical_formula_structural   Hf2N2O
_chemical_formula_sum   'Hf16 N16 O8'
_cell_volume   502.49715188
_cell_formula_units_Z   8
loop_
 _symmetry_equiv_pos_site_id
 _symmetry_equiv_pos_as_xyz
  1  'x, y, z'
loop_
 _atom_site_type_symbol
 _atom_site_label
 _atom_site_symmetry_multiplicity
 _atom_site_fract_x
 _atom_site_fract_y
 _atom_site_fract_z
 _atom_site_occupancy
  Hf  Hf0  1  0.48320821  0.99147379  0.98994602  1
  Hf  Hf1  1  0.72384193  0.97395053  0.75315555  1
  Hf  Hf2  1  0.75434768  0.71669621  0.96735668  1
  Hf  Hf3  1  0.24967991  0.78456134  0.53378522  1
  Hf  Hf4  1  0.96699943  0.25815058  0.21726391  1
  Hf  Hf5  1  0.45926358  0.23473250  0.70200437  1
  Hf  Hf6  1  0.51331930  0.50080164  0.50223725  1
  Hf  Hf7  1  0.99475796  0.00362546  0.49086370  1
  Hf  Hf8  1  0.78628897  0.54177479  0.25112810  1
  Hf  Hf9  1  0.01145869  0.50119933  0.00132215  1
  Hf  Hf10  1  0.20592382  0.46973479  0.74793018  1
  Hf  Hf11  1  0.53763080  0.75129148  0.28215636  1
  Hf  Hf12  1  0.03080698  0.74958476  0.79249728  1
  Hf  Hf13  1  0.25271573  0.28724756  0.03719488  1
  Hf  Hf14  1  0.74898785  0.20989359  0.46643291  1
  Hf  Hf15  1  0.28839139  0.03062215  0.24857777  1
  N  N16  1  0.96969124  0.22557293  0.96016094  1
  N  N17  1  0.51887438  0.04943886  0.77554819  1
  N  N18  1  0.04266267  0.53391938  0.27542301  1
  N  N19  1  0.22510443  0.98774305  0.45734533  1
  N  N20  1  0.77163845  0.00970627  0.54564614  1
  N  N21  1  0.53908989  0.48676963  0.26764085  1
  N  N22  1  0.27381764  0.72642790  0.75888469  1
  N  N23  1  0.76491887  0.77317180  0.22799894  1
  N  N24  1  0.95143521  0.46447788  0.72803866  1
  N  N25  1  0.26058792  0.03654211  0.98770387  1
  N  N26  1  0.01265930  0.23754684  0.46281638  1
  N  N27  1  0.27374975  0.54443298  0.03235730  1
  N  N28  1  0.76783798  0.73861891  0.72610557  1
  N  N29  1  0.48872824  0.95490620  0.22489676  1
  N  N30  1  0.54389276  0.27466854  0.51200379  1
  N  N31  1  0.03027790  0.77192968  0.04773617  1
  O  O32  1  0.44851824  0.72207511  0.48490323  1
  O  O33  1  0.22979179  0.26952512  0.27693307  1
  O  O34  1  0.72098525  0.45561612  0.96681528  1
  O  O35  1  0.98602319  0.76039276  0.53454335  1
  O  O36  1  0.73917460  0.96504878  0.01685286  1
  O  O37  1  0.23982277  0.22898440  0.77339386  1
  O  O38  1  0.46631803  0.50789759  0.74149753  1
  O  O39  1  0.72677628  0.26924466  0.23090689  1
