# generated using pymatgen
data_V4(OF3)3
_symmetry_space_group_name_H-M   'P 1'
_cell_length_a   5.06953791
_cell_length_b   5.28181066
_cell_length_c   17.12300303
_cell_angle_alpha   89.30478043
_cell_angle_beta   98.58890358
_cell_angle_gamma   118.77763131
_symmetry_Int_Tables_number   1
_chemical_formula_structural   V4(OF3)3
_chemical_formula_sum   'V8 O6 F18'
_cell_volume   396.41258937
_cell_formula_units_Z   2
loop_
 _symmetry_equiv_pos_site_id
 _symmetry_equiv_pos_as_xyz
  1  'x, y, z'
loop_
 _atom_site_type_symbol
 _atom_site_label
 _atom_site_symmetry_multiplicity
 _atom_site_fract_x
 _atom_site_fract_y
 _atom_site_fract_z
 _atom_site_occupancy
  V  V0  1  0.24948615  0.62347498  0.87467170  1
  V  V1  1  0.21747341  0.12229163  0.37082327  1
  V  V2  1  0.54346482  0.26135294  0.74855742  1
  V  V3  1  0.52158401  0.75950967  0.25065088  1
  V  V4  1  0.74907287  0.89142443  0.62574739  1
  V  V5  1  0.73231229  0.39251388  0.12805568  1
  V  V6  1  0.96136886  0.98415850  0.99937471  1
  V  V7  1  0.00015728  0.49048550  0.49160117  1
  O  O8  1  0.07744492  0.34485809  0.41807292  1
  O  O9  1  0.59895052  0.78943627  0.95820889  1
  O  O10  1  0.61520091  0.08206902  0.66806926  1
  O  O11  1  0.59837450  0.58500088  0.16806477  1
  O  O12  1  0.90318681  0.46134699  0.79377620  1
  O  O13  1  0.90901650  0.97409479  0.29281210  1
  F  F14  1  0.10294717  0.85803504  0.91552340  1
  F  F15  1  0.03149876  0.32596847  0.94170929  1
  F  F16  1  0.01016901  0.81945113  0.43831264  1
  F  F17  1  0.47703744  0.92939550  0.81237087  1
  F  F18  1  0.09770959  0.01609717  0.70862976  1
  F  F19  1  0.08509714  0.52766116  0.21213432  1
  F  F20  1  0.39286418  0.39100163  0.83277108  1
  F  F21  1  0.39979427  0.89555643  0.33818503  1
  F  F22  1  0.42839265  0.73547873  0.53508210  1
  F  F23  1  0.51842706  0.54566491  0.68185577  1
  F  F24  1  0.47946588  0.43333443  0.31266375  1
  F  F25  1  0.56348096  0.28341082  0.45914154  1
  F  F26  1  0.41882950  0.21352804  0.03835760  1
  F  F27  1  0.91096385  0.65894008  0.58122123  1
  F  F28  1  0.51030005  0.05337827  0.18652633  1
  F  F29  1  0.98635060  0.68909789  0.06381827  1
  F  F30  1  0.99365968  0.20042982  0.56329221  1
  F  F31  1  0.91592137  0.16155588  0.08991145  1
