# generated using pymatgen
data_LiPW4O13
_symmetry_space_group_name_H-M   'P 1'
_cell_length_a   10.05416400
_cell_length_b   10.17700300
_cell_length_c   10.47855700
_cell_angle_alpha   90.00000000
_cell_angle_beta   90.00000000
_cell_angle_gamma   90.00000000
_symmetry_Int_Tables_number   1
_chemical_formula_structural   LiPW4O13
_chemical_formula_sum   'Li4 P4 W16 O52'
_cell_volume   1072.17912578
_cell_formula_units_Z   4
loop_
 _symmetry_equiv_pos_site_id
 _symmetry_equiv_pos_as_xyz
  1  'x, y, z'
loop_
 _atom_site_type_symbol
 _atom_site_label
 _atom_site_symmetry_multiplicity
 _atom_site_fract_x
 _atom_site_fract_y
 _atom_site_fract_z
 _atom_site_occupancy
  Li  Li0  1  0.05199000  0.26036400  0.00000000  1
  Li  Li1  1  0.54828100  0.29683300  0.50000000  1
  Li  Li2  1  0.94801000  0.76036400  0.00000000  1
  Li  Li3  1  0.45171900  0.79683300  0.50000000  1
  P  P4  1  0.32475200  0.25037100  0.00000000  1
  P  P5  1  0.82321400  0.25366400  0.50000000  1
  P  P6  1  0.67524800  0.75037100  0.00000000  1
  P  P7  1  0.17678600  0.75366400  0.50000000  1
  W  W8  1  0.50066100  0.00070700  0.83778200  1
  W  W9  1  0.50066100  0.00070700  0.16221800  1
  W  W10  1  0.28583400  0.24829100  0.32410200  1
  W  W11  1  0.28583400  0.24829100  0.67589800  1
  W  W12  1  0.78535600  0.25217500  0.82363700  1
  W  W13  1  0.78535600  0.25217500  0.17636300  1
  W  W14  1  0.00237600  0.50039000  0.33798400  1
  W  W15  1  0.00237600  0.50039000  0.66201600  1
  W  W16  1  0.49933900  0.50070700  0.83778200  1
  W  W17  1  0.49933900  0.50070700  0.16221800  1
  W  W18  1  0.71416600  0.74829100  0.32410200  1
  W  W19  1  0.71416600  0.74829100  0.67589800  1
  W  W20  1  0.21464400  0.75217500  0.82363700  1
  W  W21  1  0.21464400  0.75217500  0.17636300  1
  W  W22  1  0.99762400  0.00039000  0.33798400  1
  W  W23  1  0.99762400  0.00039000  0.66201600  1
  O  O24  1  0.15011700  0.11555600  0.35365800  1
  O  O25  1  0.15011700  0.11555600  0.64634200  1
  O  O26  1  0.65125900  0.11179200  0.85187800  1
  O  O27  1  0.65125900  0.11179200  0.14812200  1
  O  O28  1  0.41623900  0.12334500  0.00000000  1
  O  O29  1  0.91217000  0.12519200  0.50000000  1
  O  O30  1  0.41327900  0.10876100  0.28656700  1
  O  O31  1  0.41327900  0.10876100  0.71343300  1
  O  O32  1  0.91249000  0.11568100  0.21627300  1
  O  O33  1  0.91249000  0.11568100  0.78372700  1
  O  O34  1  0.23273200  0.25086700  0.88184400  1
  O  O35  1  0.23273200  0.25086700  0.11815600  1
  O  O36  1  0.35600300  0.25077800  0.50000000  1
  O  O37  1  0.85484100  0.25130500  0.00000000  1
  O  O38  1  0.73142200  0.25734200  0.38167500  1
  O  O39  1  0.73142200  0.25734200  0.61832500  1
  O  O40  1  0.41252400  0.38382800  0.28459700  1
  O  O41  1  0.41252400  0.38382800  0.71540300  1
  O  O42  1  0.91193900  0.39062000  0.78580500  1
  O  O43  1  0.91193900  0.39062000  0.21419500  1
  O  O44  1  0.41410400  0.37843600  0.00000000  1
  O  O45  1  0.91554900  0.38049000  0.50000000  1
  O  O46  1  0.14917100  0.39002200  0.35443000  1
  O  O47  1  0.14917100  0.39002200  0.64557000  1
  O  O48  1  0.64870600  0.38790400  0.85588600  1
  O  O49  1  0.64870600  0.38790400  0.14411400  1
  O  O50  1  0.84988300  0.61555600  0.35365800  1
  O  O51  1  0.84988300  0.61555600  0.64634200  1
  O  O52  1  0.34874100  0.61179200  0.85187800  1
  O  O53  1  0.34874100  0.61179200  0.14812200  1
  O  O54  1  0.58376100  0.62334500  0.00000000  1
  O  O55  1  0.08783000  0.62519200  0.50000000  1
  O  O56  1  0.58672100  0.60876100  0.28656700  1
  O  O57  1  0.58672100  0.60876100  0.71343300  1
  O  O58  1  0.08751000  0.61568100  0.21627300  1
  O  O59  1  0.08751000  0.61568100  0.78372700  1
  O  O60  1  0.76726800  0.75086700  0.11815600  1
  O  O61  1  0.76726800  0.75086700  0.88184400  1
  O  O62  1  0.64399700  0.75077800  0.50000000  1
  O  O63  1  0.14515900  0.75130500  0.00000000  1
  O  O64  1  0.26857800  0.75734200  0.38167500  1
  O  O65  1  0.26857800  0.75734200  0.61832500  1
  O  O66  1  0.58747600  0.88382800  0.28459700  1
  O  O67  1  0.58747600  0.88382800  0.71540300  1
  O  O68  1  0.08806100  0.89062000  0.78580500  1
  O  O69  1  0.08806100  0.89062000  0.21419500  1
  O  O70  1  0.58589600  0.87843600  0.00000000  1
  O  O71  1  0.08445100  0.88049000  0.50000000  1
  O  O72  1  0.85082900  0.89002200  0.35443000  1
  O  O73  1  0.85082900  0.89002200  0.64557000  1
  O  O74  1  0.35129400  0.88790400  0.14411400  1
  O  O75  1  0.35129400  0.88790400  0.85588600  1
