# generated using pymatgen
data_BaRuO5
_symmetry_space_group_name_H-M   'P 1'
_cell_length_a   10.36302507
_cell_length_b   10.36302507
_cell_length_c   10.36302429
_cell_angle_alpha   55.31865430
_cell_angle_beta   55.31865430
_cell_angle_gamma   55.31865163
_symmetry_Int_Tables_number   1
_chemical_formula_structural   BaRuO5
_chemical_formula_sum   'Ba6 Ru6 O30'
_cell_volume   701.34420719
_cell_formula_units_Z   6
loop_
 _symmetry_equiv_pos_site_id
 _symmetry_equiv_pos_as_xyz
  1  'x, y, z'
loop_
 _atom_site_type_symbol
 _atom_site_label
 _atom_site_symmetry_multiplicity
 _atom_site_fract_x
 _atom_site_fract_y
 _atom_site_fract_z
 _atom_site_occupancy
  Ba  Ba0  1  -0.00000000  0.00000000  -0.00000000  1
  Ba  Ba1  1  0.50000000  0.50000000  0.50000000  1
  Ba  Ba2  1  0.83629937  0.83629937  0.83629937  1
  Ba  Ba3  1  0.33629937  0.33629937  0.33629937  1
  Ba  Ba4  1  0.16370063  0.16370063  0.16370063  1
  Ba  Ba5  1  0.66370063  0.66370063  0.66370063  1
  Ru  Ru6  1  0.39606825  0.10393175  0.75000000  1
  Ru  Ru7  1  0.75000000  0.39606825  0.10393175  1
  Ru  Ru8  1  0.10393175  0.75000000  0.39606825  1
  Ru  Ru9  1  0.25000000  0.60393175  0.89606825  1
  Ru  Ru10  1  0.89606825  0.25000000  0.60393175  1
  Ru  Ru11  1  0.60393175  0.89606825  0.25000000  1
  O  O12  1  0.57913865  0.92086135  0.75000000  1
  O  O13  1  0.75000000  0.57913865  0.92086135  1
  O  O14  1  0.92086135  0.75000000  0.57913865  1
  O  O15  1  0.25000000  0.42086135  0.07913865  1
  O  O16  1  0.07913865  0.25000000  0.42086135  1
  O  O17  1  0.42086135  0.07913865  0.25000000  1
  O  O18  1  0.36624246  0.24840360  0.81268451  1
  O  O19  1  0.81268451  0.36624246  0.24840360  1
  O  O20  1  0.24840360  0.81268451  0.36624246  1
  O  O21  1  0.31268451  0.74840360  0.86624246  1
  O  O22  1  0.86624246  0.31268451  0.74840360  1
  O  O23  1  0.74840360  0.86624246  0.31268451  1
  O  O24  1  0.63375754  0.75159640  0.18731549  1
  O  O25  1  0.18731549  0.63375754  0.75159640  1
  O  O26  1  0.75159640  0.18731549  0.63375754  1
  O  O27  1  0.68731549  0.25159640  0.13375754  1
  O  O28  1  0.13375754  0.68731549  0.25159640  1
  O  O29  1  0.25159640  0.13375754  0.68731549  1
  O  O30  1  0.28503338  0.99766715  0.96545162  1
  O  O31  1  0.96545162  0.28503338  0.99766715  1
  O  O32  1  0.99766715  0.96545162  0.28503338  1
  O  O33  1  0.46545162  0.49766715  0.78503338  1
  O  O34  1  0.78503338  0.46545162  0.49766715  1
  O  O35  1  0.49766715  0.78503338  0.46545162  1
  O  O36  1  0.71496662  0.00233285  0.03454838  1
  O  O37  1  0.03454838  0.71496662  0.00233285  1
  O  O38  1  0.00233285  0.03454838  0.71496662  1
  O  O39  1  0.53454838  0.50233285  0.21496662  1
  O  O40  1  0.21496662  0.53454838  0.50233285  1
  O  O41  1  0.50233285  0.21496662  0.53454838  1
