# generated using pymatgen
data_Li5V3Cu(PO4)4
_symmetry_space_group_name_H-M   'P 1'
_cell_length_a   7.65290046
_cell_length_b   7.65290046
_cell_length_c   10.41523274
_cell_angle_alpha   90.06211455
_cell_angle_beta   90.06211455
_cell_angle_gamma   103.37855639
_symmetry_Int_Tables_number   1
_chemical_formula_structural   Li5V3Cu(PO4)4
_chemical_formula_sum   'Li10 V6 Cu2 P8 O32'
_cell_volume   593.43332036
_cell_formula_units_Z   2
loop_
 _symmetry_equiv_pos_site_id
 _symmetry_equiv_pos_as_xyz
  1  'x, y, z'
loop_
 _atom_site_type_symbol
 _atom_site_label
 _atom_site_symmetry_multiplicity
 _atom_site_fract_x
 _atom_site_fract_y
 _atom_site_fract_z
 _atom_site_occupancy
  Li  Li0  1  0.02890375  0.29637476  0.86492157  1
  Li  Li1  1  0.25545573  0.51726659  0.49287881  1
  Li  Li2  1  0.51726659  0.25545573  0.49287881  1
  Li  Li3  1  0.75085420  0.50205026  0.99579291  1
  Li  Li4  1  0.50205026  0.75085420  0.99579291  1
  Li  Li5  1  0.29637476  0.02890375  0.86492157  1
  Li  Li6  1  0.16565621  0.16565621  0.07606543  1
  Li  Li7  1  0.73538492  0.99275141  0.47302613  1
  Li  Li8  1  0.99275141  0.73538492  0.47302613  1
  Li  Li9  1  0.89665681  0.89665681  0.68051984  1
  V  V10  1  0.37104059  0.37104059  0.22694968  1
  V  V11  1  0.86425690  0.35909098  0.26656075  1
  V  V12  1  0.35909098  0.86425690  0.26656075  1
  V  V13  1  0.85459779  0.85459779  0.21732916  1
  V  V14  1  0.13886374  0.64100989  0.77380838  1
  V  V15  1  0.64100989  0.13886374  0.77380838  1
  Cu  Cu16  1  0.21257737  0.21257737  0.65782076  1
  Cu  Cu17  1  0.62165947  0.62165947  0.71583049  1
  P  P18  1  0.08322275  0.56814656  0.08702738  1
  P  P19  1  0.42314231  0.42314231  0.91387413  1
  P  P20  1  0.57936826  0.57936826  0.40461070  1
  P  P21  1  0.07174585  0.07174585  0.39917337  1
  P  P22  1  0.42690693  0.91589655  0.59013051  1
  P  P23  1  0.91589655  0.42690693  0.59013051  1
  P  P24  1  0.56814656  0.08322275  0.08702738  1
  P  P25  1  0.91312952  0.91312952  0.91647799  1
  O  O26  1  0.26075022  0.26075022  0.91390639  1
  O  O27  1  0.07451870  0.38641310  0.67319799  1
  O  O28  1  0.11501880  0.39486195  0.15563370  1
  O  O29  1  0.02282404  0.51770221  0.94786622  1
  O  O30  1  0.48369021  0.48369021  0.05130799  1
  O  O31  1  0.37809770  0.58638638  0.84606374  1
  O  O32  1  0.07230745  0.87339747  0.83772597  1
  O  O33  1  0.58638638  0.37809770  0.84606374  1
  O  O34  1  0.24418078  0.72447051  0.09709594  1
  O  O35  1  0.61706726  0.41111851  0.33461492  1
  O  O36  1  0.41111851  0.61706726  0.33461492  1
  O  O37  1  0.10622026  0.90248316  0.32906235  1
  O  O38  1  0.26973387  0.75297965  0.59531410  1
  O  O39  1  0.75297965  0.26973387  0.59531410  1
  O  O40  1  0.51603992  0.51603992  0.53870213  1
  O  O41  1  0.00846945  0.00846945  0.53453795  1
  O  O42  1  0.98474611  0.47100707  0.45232944  1
  O  O43  1  0.47100707  0.98474611  0.45232944  1
  O  O44  1  0.23202808  0.23202808  0.39694815  1
  O  O45  1  0.73985929  0.73985929  0.39880627  1
  O  O46  1  0.75370653  0.75370653  0.91830379  1
  O  O47  1  0.60570074  0.89310250  0.65075222  1
  O  O48  1  0.38641310  0.07451870  0.67319799  1
  O  O49  1  0.89310250  0.60570074  0.65075222  1
  O  O50  1  0.60340471  0.91415473  0.15760625  1
  O  O51  1  0.39486195  0.11501880  0.15563370  1
  O  O52  1  0.91415473  0.60340471  0.15760625  1
  O  O53  1  0.51770221  0.02282404  0.94786622  1
  O  O54  1  0.97641449  0.97641449  0.05138026  1
  O  O55  1  0.87339747  0.07230745  0.83772597  1
  O  O56  1  0.72447051  0.24418078  0.09709594  1
  O  O57  1  0.90248316  0.10622026  0.32906235  1
