# generated using pymatgen
data_VCrO3
_symmetry_space_group_name_H-M   'P 1'
_cell_length_a   5.03828051
_cell_length_b   5.41324721
_cell_length_c   8.89454031
_cell_angle_alpha   85.15339314
_cell_angle_beta   73.64880116
_cell_angle_gamma   117.87386464
_symmetry_Int_Tables_number   1
_chemical_formula_structural   VCrO3
_chemical_formula_sum   'V4 Cr4 O12'
_cell_volume   198.97637091
_cell_formula_units_Z   4
loop_
 _symmetry_equiv_pos_site_id
 _symmetry_equiv_pos_as_xyz
  1  'x, y, z'
loop_
 _atom_site_type_symbol
 _atom_site_label
 _atom_site_symmetry_multiplicity
 _atom_site_fract_x
 _atom_site_fract_y
 _atom_site_fract_z
 _atom_site_occupancy
  V  V0  1  0.14603751  0.87378989  0.57373372  1
  V  V1  1  0.15234715  0.37139713  0.07815324  1
  V  V2  1  0.35829275  0.87644918  0.17179619  1
  V  V3  1  0.85244769  0.13053565  0.42472832  1
  Cr  Cr4  1  0.34490090  0.36953520  0.67629555  1
  Cr  Cr5  1  0.65459108  0.63093184  0.32479718  1
  Cr  Cr6  1  0.64808791  0.12567453  0.82658468  1
  Cr  Cr7  1  0.85098145  0.62326940  0.92419372  1
  O  O8  1  0.05202183  0.52386617  0.72273826  1
  O  O9  1  0.05318222  0.02487033  0.22247781  1
  O  O10  1  0.44540665  0.87384663  0.37314894  1
  O  O11  1  0.56265803  0.62432474  0.12466951  1
  O  O12  1  0.24772049  0.77247960  0.97251857  1
  O  O13  1  0.25142064  0.28173346  0.47166037  1
  O  O14  1  0.74479301  0.72040544  0.52884680  1
  O  O15  1  0.74823189  0.22485493  0.02673429  1
  O  O16  1  0.44674082  0.37479630  0.87504725  1
  O  O17  1  0.55225682  0.12658139  0.62665475  1
  O  O18  1  0.94364751  0.97381605  0.77770779  1
  O  O19  1  0.94423267  0.47684113  0.27751205  1
