# generated using pymatgen
data_Ho2TeO6
_symmetry_space_group_name_H-M   'P 1'
_cell_length_a   9.00666657
_cell_length_b   9.00666127
_cell_length_c   5.15445525
_cell_angle_alpha   90.00014951
_cell_angle_beta   89.99990743
_cell_angle_gamma   120.00015998
_symmetry_Int_Tables_number   1
_chemical_formula_structural   Ho2TeO6
_chemical_formula_sum   'Ho6 Te3 O18'
_cell_volume   362.11008477
_cell_formula_units_Z   3
loop_
 _symmetry_equiv_pos_site_id
 _symmetry_equiv_pos_as_xyz
  1  'x, y, z'
loop_
 _atom_site_type_symbol
 _atom_site_label
 _atom_site_symmetry_multiplicity
 _atom_site_fract_x
 _atom_site_fract_y
 _atom_site_fract_z
 _atom_site_occupancy
  Ho  Ho0  1  -0.00000093  0.61740342  0.00000004  1
  Ho  Ho1  1  0.00000200  0.28051609  0.50000196  1
  Ho  Ho2  1  0.38259585  0.38259581  -0.00000011  1
  Ho  Ho3  1  0.28051468  0.00000159  0.49999832  1
  Ho  Ho4  1  0.71948408  0.71948313  0.50000159  1
  Ho  Ho5  1  0.61740304  -0.00000182  0.00000040  1
  Te  Te6  1  0.33333269  0.66665914  0.49684674  1
  Te  Te7  1  0.00000848  0.00000814  -0.00000073  1
  Te  Te8  1  0.66665885  0.33333091  0.50315246  1
  O  O9  1  0.07683271  0.87685295  0.78839202  1
  O  O10  1  0.22665868  0.76253049  0.28214752  1
  O  O11  1  0.13267709  0.54416060  0.70994433  1
  O  O12  1  0.41148498  0.86732518  0.70994361  1
  O  O13  1  0.12314314  0.19997649  0.78838943  1
  O  O14  1  0.23746761  0.46412977  0.28215074  1
  O  O15  1  0.53587314  0.77334108  0.28214759  1
  O  O16  1  0.19997761  0.12314442  0.21160621  1
  O  O17  1  0.45583984  0.58851828  0.70994208  1
  O  O18  1  0.46412963  0.23746724  0.71784869  1
  O  O19  1  0.80002234  0.92316804  0.78839085  1
  O  O20  1  0.58851858  0.45583969  0.29005928  1
  O  O21  1  0.54416005  0.13267624  0.29005516  1
  O  O22  1  0.92316829  0.80002363  0.21161076  1
  O  O23  1  0.77334018  0.53587099  0.71785372  1
  O  O24  1  0.76253016  0.22665851  0.71785426  1
  O  O25  1  0.86732452  0.41148419  0.29005694  1
  O  O26  1  0.87685474  0.07683380  0.21160815  1
