# generated using pymatgen
data_Li2Sn(SO4)2
_symmetry_space_group_name_H-M   'P 1'
_cell_length_a   10.01087888
_cell_length_b   10.04275703
_cell_length_c   14.68668564
_cell_angle_alpha   90.00000000
_cell_angle_beta   90.00000000
_cell_angle_gamma   90.00000000
_symmetry_Int_Tables_number   1
_chemical_formula_structural   Li2Sn(SO4)2
_chemical_formula_sum   'Li16 Sn8 S16 O64'
_cell_volume   1476.55273298
_cell_formula_units_Z   8
loop_
 _symmetry_equiv_pos_site_id
 _symmetry_equiv_pos_as_xyz
  1  'x, y, z'
loop_
 _atom_site_type_symbol
 _atom_site_label
 _atom_site_symmetry_multiplicity
 _atom_site_fract_x
 _atom_site_fract_y
 _atom_site_fract_z
 _atom_site_occupancy
  Li  Li0  1  0.01609747  0.23596492  0.37242612  1
  Li  Li1  1  0.01609747  0.26403508  0.87242612  1
  Li  Li2  1  0.21338770  0.95022481  0.36603773  1
  Li  Li3  1  0.21338770  0.54977519  0.86603773  1
  Li  Li4  1  0.28661230  0.04977519  0.86603773  1
  Li  Li5  1  0.28661230  0.45022481  0.36603773  1
  Li  Li6  1  0.48390253  0.73596492  0.37242612  1
  Li  Li7  1  0.48390253  0.76403508  0.87242612  1
  Li  Li8  1  0.51609747  0.23596492  0.12757388  1
  Li  Li9  1  0.51609747  0.26403508  0.62757388  1
  Li  Li10  1  0.71338770  0.54977519  0.63396227  1
  Li  Li11  1  0.71338770  0.95022481  0.13396227  1
  Li  Li12  1  0.78661230  0.45022481  0.13396227  1
  Li  Li13  1  0.78661230  0.04977519  0.63396227  1
  Li  Li14  1  0.98390253  0.76403508  0.62757388  1
  Li  Li15  1  0.98390253  0.73596492  0.12757388  1
  Sn  Sn16  1  0.14525608  0.10192992  0.12327886  1
  Sn  Sn17  1  0.14525608  0.39807008  0.62327886  1
  Sn  Sn18  1  0.35474392  0.60192992  0.12327886  1
  Sn  Sn19  1  0.35474392  0.89807008  0.62327886  1
  Sn  Sn20  1  0.64525608  0.10192992  0.37672114  1
  Sn  Sn21  1  0.64525608  0.39807008  0.87672114  1
  Sn  Sn22  1  0.85474392  0.60192992  0.37672114  1
  Sn  Sn23  1  0.85474392  0.89807008  0.87672114  1
  S  S24  1  0.06665848  0.08024260  0.74024957  1
  S  S25  1  0.06665848  0.41975740  0.24024957  1
  S  S26  1  0.43334152  0.91975740  0.24024957  1
  S  S27  1  0.43334152  0.58024260  0.74024957  1
  S  S28  1  0.56665848  0.41975740  0.25975043  1
  S  S29  1  0.56665848  0.08024260  0.75975043  1
  S  S30  1  0.93334152  0.58024260  0.75975043  1
  S  S31  1  0.93334152  0.91975740  0.25975043  1
  S  S32  1  0.16317941  0.69017473  0.48384707  1
  S  S33  1  0.16317941  0.80982527  0.98384707  1
  S  S34  1  0.33682059  0.19017473  0.48384707  1
  S  S35  1  0.33682059  0.30982527  0.98384707  1
  S  S36  1  0.66317941  0.69017473  0.01615293  1
  S  S37  1  0.66317941  0.80982527  0.51615293  1
  S  S38  1  0.83682059  0.19017473  0.01615293  1
  S  S39  1  0.83682059  0.30982527  0.51615293  1
  O  O40  1  0.01492160  0.70409392  0.47011437  1
  O  O41  1  0.01492160  0.79590608  0.97011437  1
  O  O42  1  0.01501357  0.99882690  0.32452138  1
  O  O43  1  0.01501357  0.50117310  0.82452138  1
  O  O44  1  0.02534016  0.44363409  0.33769248  1
  O  O45  1  0.02534016  0.05636591  0.83769248  1
  O  O46  1  0.04762301  0.22729686  0.72721701  1
  O  O47  1  0.04762301  0.27270314  0.22721701  1
  O  O48  1  0.18250963  0.76130620  0.07989375  1
  O  O49  1  0.18250963  0.73869380  0.57989375  1
  O  O50  1  0.20769792  0.95112944  0.97703633  1
  O  O51  1  0.20769792  0.54887056  0.47703633  1
  O  O52  1  0.21058926  0.04397426  0.73487516  1
  O  O53  1  0.21058926  0.45602574  0.23487516  1
  O  O54  1  0.24016098  0.77006585  0.41768525  1
  O  O55  1  0.24016098  0.72993415  0.91768525  1
  O  O56  1  0.25983902  0.27006585  0.41768525  1
  O  O57  1  0.25983902  0.22993415  0.91768525  1
  O  O58  1  0.28941074  0.95602574  0.23487516  1
  O  O59  1  0.28941074  0.54397426  0.73487516  1
  O  O60  1  0.29230208  0.04887056  0.47703633  1
  O  O61  1  0.29230208  0.45112944  0.97703633  1
  O  O62  1  0.31749037  0.26130620  0.07989375  1
  O  O63  1  0.31749037  0.23869380  0.57989375  1
  O  O64  1  0.45237699  0.77270314  0.22721701  1
  O  O65  1  0.45237699  0.72729686  0.72721701  1
  O  O66  1  0.47465984  0.55636591  0.83769248  1
  O  O67  1  0.47465984  0.94363409  0.33769248  1
  O  O68  1  0.48498643  0.49882690  0.32452138  1
  O  O69  1  0.48498643  0.00117310  0.82452138  1
  O  O70  1  0.48507840  0.20409392  0.47011437  1
  O  O71  1  0.48507840  0.29590608  0.97011437  1
  O  O72  1  0.51492160  0.70409392  0.02988563  1
  O  O73  1  0.51492160  0.79590608  0.52988563  1
  O  O74  1  0.51501357  0.50117310  0.67547862  1
  O  O75  1  0.51501357  0.99882690  0.17547862  1
  O  O76  1  0.52534016  0.44363409  0.16230752  1
  O  O77  1  0.52534016  0.05636591  0.66230752  1
  O  O78  1  0.54762301  0.27270314  0.27278299  1
  O  O79  1  0.54762301  0.22729686  0.77278299  1
  O  O80  1  0.68250963  0.76130620  0.42010625  1
  O  O81  1  0.68250963  0.73869380  0.92010625  1
  O  O82  1  0.70769792  0.54887056  0.02296367  1
  O  O83  1  0.70769792  0.95112944  0.52296367  1
  O  O84  1  0.71058926  0.45602574  0.26512484  1
  O  O85  1  0.71058926  0.04397426  0.76512484  1
  O  O86  1  0.74016098  0.77006585  0.08231475  1
  O  O87  1  0.74016098  0.72993415  0.58231475  1
  O  O88  1  0.75983902  0.27006585  0.08231475  1
  O  O89  1  0.75983902  0.22993415  0.58231475  1
  O  O90  1  0.78941074  0.54397426  0.76512484  1
  O  O91  1  0.78941074  0.95602574  0.26512484  1
  O  O92  1  0.79230208  0.45112944  0.52296367  1
  O  O93  1  0.79230208  0.04887056  0.02296367  1
  O  O94  1  0.81749037  0.26130620  0.42010625  1
  O  O95  1  0.81749037  0.23869380  0.92010625  1
  O  O96  1  0.95237699  0.72729686  0.77278299  1
  O  O97  1  0.95237699  0.77270314  0.27278299  1
  O  O98  1  0.97465984  0.55636591  0.66230752  1
  O  O99  1  0.97465984  0.94363409  0.16230752  1
  O  O100  1  0.98498643  0.00117310  0.67547862  1
  O  O101  1  0.98498643  0.49882690  0.17547862  1
  O  O102  1  0.98507840  0.20409392  0.02988563  1
  O  O103  1  0.98507840  0.29590608  0.52988563  1
