# generated using pymatgen
data_V2O3F
_symmetry_space_group_name_H-M   'P 1'
_cell_length_a   5.46993433
_cell_length_b   5.46993663
_cell_length_c   5.46993586
_cell_angle_alpha   70.05777965
_cell_angle_beta   104.49270933
_cell_angle_gamma   65.87860047
_symmetry_Int_Tables_number   1
_chemical_formula_structural   V2O3F
_chemical_formula_sum   'V4 O6 F2'
_cell_volume   125.09824781
_cell_formula_units_Z   2
loop_
 _symmetry_equiv_pos_site_id
 _symmetry_equiv_pos_as_xyz
  1  'x, y, z'
loop_
 _atom_site_type_symbol
 _atom_site_label
 _atom_site_symmetry_multiplicity
 _atom_site_fract_x
 _atom_site_fract_y
 _atom_site_fract_z
 _atom_site_occupancy
  V  V0  1  0.79116824  0.75000105  0.54116928  1
  V  V1  1  0.20883423  0.24999882  0.45883406  1
  V  V2  1  -0.00000313  0.00000221  -0.00000092  1
  V  V3  1  0.50000070  0.49999791  -0.00000139  1
  O  O4  1  0.05849084  0.75000220  0.80849204  1
  O  O5  1  -0.00000399  0.30403536  0.69596943  1
  O  O6  1  0.50000497  0.80402977  0.69596599  1
  O  O7  1  0.50000497  0.19596202  0.30403473  1
  O  O8  1  -0.00000399  0.69597343  0.30403137  1
  O  O9  1  0.94152283  0.24999833  0.19152116  1
  F  F10  1  0.54507654  0.24999960  0.79507614  1
  F  F11  1  0.45490882  0.75000030  0.20490912  1
