# generated using pymatgen
data_Hf2N2O
_symmetry_space_group_name_H-M   'P 1'
_cell_length_a   8.65610431
_cell_length_b   8.66425777
_cell_length_c   8.68094031
_cell_angle_alpha   109.42041965
_cell_angle_beta   109.41815780
_cell_angle_gamma   109.41776626
_symmetry_Int_Tables_number   1
_chemical_formula_structural   Hf2N2O
_chemical_formula_sum   'Hf16 N16 O8'
_cell_volume   502.15646583
_cell_formula_units_Z   8
loop_
 _symmetry_equiv_pos_site_id
 _symmetry_equiv_pos_as_xyz
  1  'x, y, z'
loop_
 _atom_site_type_symbol
 _atom_site_label
 _atom_site_symmetry_multiplicity
 _atom_site_fract_x
 _atom_site_fract_y
 _atom_site_fract_z
 _atom_site_occupancy
  Hf  Hf0  1  0.51159246  0.49872759  0.50097237  1
  Hf  Hf1  1  0.21229505  0.75706628  0.46432996  1
  Hf  Hf2  1  0.47046168  0.72078666  0.24727309  1
  Hf  Hf3  1  0.96422891  0.21436188  0.25834295  1
  Hf  Hf4  1  0.29178261  0.24804067  0.03476824  1
  Hf  Hf5  1  0.74783804  0.96582169  0.70776275  1
  Hf  Hf6  1  0.99127452  0.50338054  0.99487764  1
  Hf  Hf7  1  0.24542432  0.53466240  0.78488579  1
  Hf  Hf8  1  0.50049752  0.00791174  0.01075749  1
  Hf  Hf9  1  0.25287155  0.02922234  0.28612967  1
  Hf  Hf10  1  0.99981001  0.99653760  0.48975036  1
  Hf  Hf11  1  0.74389840  0.46530643  0.21541591  1
  Hf  Hf12  1  0.71860556  0.75071451  0.96884084  1
  Hf  Hf13  1  0.02744222  0.77981161  0.74936578  1
  Hf  Hf14  1  0.53876334  0.28175149  0.75013113  1
  Hf  Hf15  1  0.78630518  0.24979104  0.53612217  1
  N  N16  1  0.77043121  0.73012814  0.73740202  1
  N  N17  1  0.53876833  0.51020372  0.27170079  1
  N  N18  1  0.50771324  0.76718494  0.03939754  1
  N  N19  1  0.95756369  0.72545900  0.46931778  1
  N  N20  1  0.24041872  0.76797810  0.22915284  1
  N  N21  1  0.72841764  0.23617689  0.26949345  1
  N  N22  1  0.72648691  0.96271357  0.45741833  1
  N  N23  1  0.76387451  0.22673758  0.77890547  1
  N  N24  1  0.99561605  0.53824329  0.76650156  1
  N  N25  1  0.77287070  0.54676002  0.01166122  1
  N  N26  1  0.48355118  0.22438256  0.95181513  1
  N  N27  1  0.96615007  0.95871092  0.22555505  1
  N  N28  1  0.05295438  0.27523619  0.53600769  1
  N  N29  1  0.25815924  0.98961117  0.03141905  1
  N  N30  1  0.27324833  0.03199105  0.54724517  1
  N  N31  1  0.53427863  0.26509857  0.48803660  1
  O  O32  1  0.27872139  0.75885465  0.72475161  1
  O  O33  1  0.46351528  0.73949949  0.52065980  1
  O  O34  1  0.22668814  0.28071471  0.26477593  1
  O  O35  1  0.01402889  0.46187491  0.23598043  1
  O  O36  1  0.22152056  0.44493038  0.97998776  1
  O  O37  1  0.03325290  0.05280308  0.77611491  1
  O  O38  1  0.45262264  0.48907402  0.72298993  1
  O  O39  1  0.73605199  0.01173758  0.96398478  1
