# generated using pymatgen
data_Cr2O3
_symmetry_space_group_name_H-M   'P 1'
_cell_length_a   5.03937035
_cell_length_b   5.21089174
_cell_length_c   7.19470457
_cell_angle_alpha   89.99998066
_cell_angle_beta   90.00002784
_cell_angle_gamma   90.00000000
_symmetry_Int_Tables_number   1
_chemical_formula_structural   Cr2O3
_chemical_formula_sum   'Cr8 O12'
_cell_volume   188.93016004
_cell_formula_units_Z   4
loop_
 _symmetry_equiv_pos_site_id
 _symmetry_equiv_pos_as_xyz
  1  'x, y, z'
loop_
 _atom_site_type_symbol
 _atom_site_label
 _atom_site_symmetry_multiplicity
 _atom_site_fract_x
 _atom_site_fract_y
 _atom_site_fract_z
 _atom_site_occupancy
  Cr  Cr0  1  0.24990804  0.46723059  0.60665242  1
  Cr  Cr1  1  0.24990804  0.03277041  0.39334758  1
  Cr  Cr2  1  0.25009196  0.53277041  0.10665242  1
  Cr  Cr3  1  0.25009196  0.96723059  0.89334758  1
  Cr  Cr4  1  0.74990804  0.03276941  0.10665242  1
  Cr  Cr5  1  0.74990804  0.46723059  0.89334758  1
  Cr  Cr6  1  0.75009196  0.53277041  0.39334758  1
  Cr  Cr7  1  0.75009196  0.96722959  0.60665242  1
  O  O8  1  0.05034427  0.25000000  -0.00000000  1
  O  O9  1  0.10760795  0.39380701  0.34863089  1
  O  O10  1  0.10760795  0.10619299  0.65136911  1
  O  O11  1  0.39239105  0.60619599  0.84863289  1
  O  O12  1  0.39239105  0.89380401  0.15136711  1
  O  O13  1  0.44965873  0.75000000  0.50000000  1
  O  O14  1  0.55034427  0.25000000  0.50000000  1
  O  O15  1  0.60760795  0.39380701  0.15136911  1
  O  O16  1  0.60760795  0.10619299  0.84863089  1
  O  O17  1  0.89239105  0.60619599  0.65136711  1
  O  O18  1  0.89239105  0.89380401  0.34863289  1
  O  O19  1  0.94965873  0.75000000  0.00000000  1
