# generated using pymatgen
data_Ti(FeO2)2
_symmetry_space_group_name_H-M   'P 1'
_cell_length_a   5.98759485
_cell_length_b   5.98714495
_cell_length_c   10.19615169
_cell_angle_alpha   74.68027828
_cell_angle_beta   74.67388857
_cell_angle_gamma   61.20153451
_symmetry_Int_Tables_number   1
_chemical_formula_structural   Ti(FeO2)2
_chemical_formula_sum   'Ti4 Fe8 O16'
_cell_volume   304.84083961
_cell_formula_units_Z   4
loop_
 _symmetry_equiv_pos_site_id
 _symmetry_equiv_pos_as_xyz
  1  'x, y, z'
loop_
 _atom_site_type_symbol
 _atom_site_label
 _atom_site_symmetry_multiplicity
 _atom_site_fract_x
 _atom_site_fract_y
 _atom_site_fract_z
 _atom_site_occupancy
  Ti  Ti0  1  0.01413960  0.98601863  0.49992776  1
  Ti  Ti1  1  0.48598976  0.51385352  0.00005510  1
  Ti  Ti2  1  0.75000729  0.25007809  0.25001567  1
  Ti  Ti3  1  0.74993205  0.24998996  0.74997193  1
  Fe  Fe4  1  0.74989519  0.74995830  0.75008244  1
  Fe  Fe5  1  0.24993406  0.74997028  0.74996775  1
  Fe  Fe6  1  0.18328166  0.18933814  0.93744114  1
  Fe  Fe7  1  0.31672441  0.31060559  0.56258704  1
  Fe  Fe8  1  0.24998683  0.25012223  0.24996065  1
  Fe  Fe9  1  0.25002983  0.75007757  0.25002068  1
  Fe  Fe10  1  0.68943559  0.68340531  0.43748462  1
  Fe  Fe11  1  0.81062890  0.81662577  0.06249081  1
  O  O12  1  0.10245717  0.12001402  0.14181001  1
  O  O13  1  0.39751754  0.38012631  0.35821600  1
  O  O14  1  0.61986067  0.60234187  0.64171425  1
  O  O15  1  0.88003100  0.89766880  0.85826089  1
  O  O16  1  0.09384777  0.13190611  0.62852081  1
  O  O17  1  0.63191605  0.59385176  0.12857103  1
  O  O18  1  0.40615155  0.36807435  0.87144930  1
  O  O19  1  0.86809664  0.90615895  0.37143523  1
  O  O20  1  0.15427586  0.60253436  0.11543401  1
  O  O21  1  0.10211848  0.65430327  0.61549870  1
  O  O22  1  0.34587236  0.89758662  0.38450820  1
  O  O23  1  0.39773955  0.84556706  0.88456759  1
  O  O24  1  0.62073301  0.15469176  0.12360762  1
  O  O25  1  0.65470827  0.12052325  0.62360237  1
  O  O26  1  0.87934090  0.34529028  0.37645911  1
  O  O27  1  0.84535200  0.37931884  0.87634029  1
