# generated using pymatgen
data_YHO2
_symmetry_space_group_name_H-M   'P 1'
_cell_length_a   3.49259899
_cell_length_b   4.83342039
_cell_length_c   5.45703628
_cell_angle_alpha   90.00000000
_cell_angle_beta   90.00000000
_cell_angle_gamma   90.00000000
_symmetry_Int_Tables_number   1
_chemical_formula_structural   YHO2
_chemical_formula_sum   'Y2 H2 O4'
_cell_volume   92.12131633
_cell_formula_units_Z   2
loop_
 _symmetry_equiv_pos_site_id
 _symmetry_equiv_pos_as_xyz
  1  'x, y, z'
loop_
 _atom_site_type_symbol
 _atom_site_label
 _atom_site_symmetry_multiplicity
 _atom_site_fract_x
 _atom_site_fract_y
 _atom_site_fract_z
 _atom_site_occupancy
  Y  Y0  1  -0.00000000  0.72009858  0.98495365  1
  Y  Y1  1  0.50000000  0.27990142  0.48495365  1
  H  H2  1  0.50000000  0.18485113  0.96130083  1
  H  H3  1  0.00000000  0.81514887  0.46130083  1
  O  O4  1  0.50000000  0.01660631  0.85392665  1
  O  O5  1  -0.00000000  0.51858148  0.62259587  1
  O  O6  1  -0.00000000  0.98339369  0.35392665  1
  O  O7  1  0.50000000  0.48141852  0.12259587  1
