# generated using pymatgen
data_Li2AlFeO4
_symmetry_space_group_name_H-M   'P 1'
_cell_length_a   4.96818596
_cell_length_b   6.18239862
_cell_length_c   10.89372988
_cell_angle_alpha   90.00000000
_cell_angle_beta   90.00000000
_cell_angle_gamma   90.00000000
_symmetry_Int_Tables_number   1
_chemical_formula_structural   Li2AlFeO4
_chemical_formula_sum   'Li8 Al4 Fe4 O16'
_cell_volume   334.60424700
_cell_formula_units_Z   4
loop_
 _symmetry_equiv_pos_site_id
 _symmetry_equiv_pos_as_xyz
  1  'x, y, z'
loop_
 _atom_site_type_symbol
 _atom_site_label
 _atom_site_symmetry_multiplicity
 _atom_site_fract_x
 _atom_site_fract_y
 _atom_site_fract_z
 _atom_site_occupancy
  Li  Li0  1  0.18047651  0.00051831  0.58561190  1
  Li  Li1  1  0.31952349  0.00051831  0.08561190  1
  Li  Li2  1  0.31952349  0.49948169  0.08561190  1
  Li  Li3  1  0.18047651  0.49948169  0.58561190  1
  Li  Li4  1  0.68047651  0.50051831  0.91438810  1
  Li  Li5  1  0.81952349  0.50051831  0.41438810  1
  Li  Li6  1  0.81952349  0.99948169  0.41438810  1
  Li  Li7  1  0.68047651  0.99948169  0.91438810  1
  Al  Al8  1  0.17336577  0.25000000  0.83484245  1
  Al  Al9  1  0.32663423  0.25000000  0.33484245  1
  Al  Al10  1  0.67336577  0.75000000  0.66515755  1
  Al  Al11  1  0.82663423  0.75000000  0.16515755  1
  Fe  Fe12  1  0.67599789  0.25000000  0.66654008  1
  Fe  Fe13  1  0.82400211  0.25000000  0.16654008  1
  Fe  Fe14  1  0.32400211  0.75000000  0.33345992  1
  Fe  Fe15  1  0.17599789  0.75000000  0.83345992  1
  O  O16  1  0.78107048  0.98872394  0.59067229  1
  O  O17  1  0.71892952  0.98872394  0.09067229  1
  O  O18  1  0.29782855  0.25000000  0.68210325  1
  O  O19  1  0.68267616  0.25000000  0.32740865  1
  O  O20  1  0.81732384  0.25000000  0.82740865  1
  O  O21  1  0.20217145  0.25000000  0.18210325  1
  O  O22  1  0.71892952  0.51127606  0.09067229  1
  O  O23  1  0.78107048  0.51127606  0.59067229  1
  O  O24  1  0.21892952  0.48872394  0.40932771  1
  O  O25  1  0.28107048  0.48872394  0.90932771  1
  O  O26  1  0.70217145  0.75000000  0.31789675  1
  O  O27  1  0.79782855  0.75000000  0.81789675  1
  O  O28  1  0.31732384  0.75000000  0.67259135  1
  O  O29  1  0.18267616  0.75000000  0.17259135  1
  O  O30  1  0.21892952  0.01127606  0.40932771  1
  O  O31  1  0.28107048  0.01127606  0.90932771  1
