# generated using pymatgen
data_Rb3HoO3
_symmetry_space_group_name_H-M   'P 1'
_cell_length_a   7.30021769
_cell_length_b   7.80596990
_cell_length_c   11.63271465
_cell_angle_alpha   86.37061065
_cell_angle_beta   90.00000000
_cell_angle_gamma   90.00000000
_symmetry_Int_Tables_number   1
_chemical_formula_structural   Rb3HoO3
_chemical_formula_sum   'Rb12 Ho4 O12'
_cell_volume   661.56398996
_cell_formula_units_Z   4
loop_
 _symmetry_equiv_pos_site_id
 _symmetry_equiv_pos_as_xyz
  1  'x, y, z'
loop_
 _atom_site_type_symbol
 _atom_site_label
 _atom_site_symmetry_multiplicity
 _atom_site_fract_x
 _atom_site_fract_y
 _atom_site_fract_z
 _atom_site_occupancy
  Rb  Rb0  1  0.33541011  0.36047906  0.07936150  1
  Rb  Rb1  1  0.62549795  0.92556875  0.15723711  1
  Rb  Rb2  1  0.80124512  0.37390056  0.18991357  1
  Rb  Rb3  1  0.30124512  0.62609944  0.31008643  1
  Rb  Rb4  1  0.12549795  0.07443125  0.34276289  1
  Rb  Rb5  1  0.83541011  0.63952094  0.42063850  1
  Rb  Rb6  1  0.16458989  0.36047906  0.57936150  1
  Rb  Rb7  1  0.87450205  0.92556875  0.65723711  1
  Rb  Rb8  1  0.69875488  0.37390056  0.68991357  1
  Rb  Rb9  1  0.19875488  0.62609944  0.81008643  1
  Rb  Rb10  1  0.37450205  0.07443125  0.84276289  1
  Rb  Rb11  1  0.66458989  0.63952094  0.92063850  1
  Ho  Ho12  1  0.08981596  0.83830089  0.06852966  1
  Ho  Ho13  1  0.58981596  0.16169911  0.43147034  1
  Ho  Ho14  1  0.41018404  0.83830089  0.56852966  1
  Ho  Ho15  1  0.91018404  0.16169911  0.93147034  1
  O  O16  1  0.35565023  0.74240102  0.04708864  1
  O  O17  1  0.04981443  0.11109841  0.09504432  1
  O  O18  1  0.94231656  0.69166399  0.19202002  1
  O  O19  1  0.44231656  0.30833601  0.30797998  1
  O  O20  1  0.54981443  0.88890159  0.40495568  1
  O  O21  1  0.85565023  0.25759898  0.45291136  1
  O  O22  1  0.14434977  0.74240102  0.54708864  1
  O  O23  1  0.45018557  0.11109841  0.59504432  1
  O  O24  1  0.55768344  0.69166399  0.69202002  1
  O  O25  1  0.05768344  0.30833601  0.80797998  1
  O  O26  1  0.95018557  0.88890159  0.90495568  1
  O  O27  1  0.64434977  0.25759898  0.95291136  1
