# generated using pymatgen
data_K2SnBr6
_symmetry_space_group_name_H-M   'P 1'
_cell_length_a   7.35115126
_cell_length_b   7.35115126
_cell_length_c   11.10649257
_cell_angle_alpha   90.00000000
_cell_angle_beta   90.00000000
_cell_angle_gamma   90.00000000
_symmetry_Int_Tables_number   1
_chemical_formula_structural   K2SnBr6
_chemical_formula_sum   'K4 Sn2 Br12'
_cell_volume   600.18847055
_cell_formula_units_Z   2
loop_
 _symmetry_equiv_pos_site_id
 _symmetry_equiv_pos_as_xyz
  1  'x, y, z'
loop_
 _atom_site_type_symbol
 _atom_site_label
 _atom_site_symmetry_multiplicity
 _atom_site_fract_x
 _atom_site_fract_y
 _atom_site_fract_z
 _atom_site_occupancy
  K  K0  1  -0.00000000  0.50000000  0.75000000  1
  K  K1  1  0.50000000  0.00000000  0.75000000  1
  K  K2  1  -0.00000000  0.50000000  0.25000000  1
  K  K3  1  0.50000000  0.00000000  0.25000000  1
  Sn  Sn4  1  -0.00000000  0.00000000  -0.00000000  1
  Sn  Sn5  1  0.50000000  0.50000000  0.50000000  1
  Br  Br6  1  -0.00000000  0.00000000  0.23784488  1
  Br  Br7  1  0.50000000  0.50000000  0.26215512  1
  Br  Br8  1  -0.00000000  0.00000000  0.76215512  1
  Br  Br9  1  0.50000000  0.50000000  0.73784488  1
  Br  Br10  1  0.19249974  0.70019944  -0.00000000  1
  Br  Br11  1  0.79980056  0.30750026  0.50000000  1
  Br  Br12  1  0.80750026  0.29980056  0.00000000  1
  Br  Br13  1  0.20019944  0.69249974  0.50000000  1
  Br  Br14  1  0.30750026  0.20019944  0.50000000  1
  Br  Br15  1  0.69249974  0.79980056  0.50000000  1
  Br  Br16  1  0.29980056  0.19249974  0.00000000  1
  Br  Br17  1  0.70019944  0.80750026  -0.00000000  1
