# generated using pymatgen
data_Dy2WO6
_symmetry_space_group_name_H-M   'P 1'
_cell_length_a   5.33655020
_cell_length_b   7.62213399
_cell_length_c   11.35712454
_cell_angle_alpha   75.49523760
_cell_angle_beta   90.00000000
_cell_angle_gamma   90.00000000
_symmetry_Int_Tables_number   1
_chemical_formula_structural   Dy2WO6
_chemical_formula_sum   'Dy8 W4 O24'
_cell_volume   447.23709757
_cell_formula_units_Z   4
loop_
 _symmetry_equiv_pos_site_id
 _symmetry_equiv_pos_as_xyz
  1  'x, y, z'
loop_
 _atom_site_type_symbol
 _atom_site_label
 _atom_site_symmetry_multiplicity
 _atom_site_fract_x
 _atom_site_fract_y
 _atom_site_fract_z
 _atom_site_occupancy
  Dy  Dy0  1  0.73762566  -0.00000000  0.75000000  1
  Dy  Dy1  1  0.26237434  -0.00000000  0.25000000  1
  Dy  Dy2  1  0.18738307  0.79752325  0.57757761  1
  Dy  Dy3  1  0.81261693  0.79752325  0.07757761  1
  Dy  Dy4  1  0.68254078  0.50000000  0.75000000  1
  Dy  Dy5  1  0.31745922  0.50000000  0.25000000  1
  Dy  Dy6  1  0.18738307  0.20247675  0.92242239  1
  Dy  Dy7  1  0.81261693  0.20247675  0.42242239  1
  W  W8  1  0.25371094  0.72155932  0.88650605  1
  W  W9  1  0.74628906  0.72155932  0.38650605  1
  W  W10  1  0.25371094  0.27844068  0.61349395  1
  W  W11  1  0.74628906  0.27844068  0.11349395  1
  O  O12  1  0.03875766  0.93746309  0.89621453  1
  O  O13  1  0.52419360  0.85117070  0.93014916  1
  O  O14  1  0.96124234  0.93746309  0.39621453  1
  O  O15  1  0.46238209  0.78614866  0.72843481  1
  O  O16  1  0.47580640  0.85117070  0.43014916  1
  O  O17  1  0.98524778  0.71034361  0.77166516  1
  O  O18  1  0.53761791  0.78614866  0.22843481  1
  O  O19  1  0.84769253  0.63397118  0.54820558  1
  O  O20  1  0.35866316  0.48988034  0.88740610  1
  O  O21  1  0.01475222  0.71034361  0.27166516  1
  O  O22  1  0.35866316  0.51011966  0.61259390  1
  O  O23  1  0.84769253  0.36602882  0.95179442  1
  O  O24  1  0.15230747  0.63397118  0.04820558  1
  O  O25  1  0.64133684  0.48988034  0.38740610  1
  O  O26  1  0.98524778  0.28965639  0.72833484  1
  O  O27  1  0.64133684  0.51011966  0.11259390  1
  O  O28  1  0.15230747  0.36602882  0.45179442  1
  O  O29  1  0.46238209  0.21385134  0.77156519  1
  O  O30  1  0.01475222  0.28965639  0.22833484  1
  O  O31  1  0.52419360  0.14882930  0.56985084  1
  O  O32  1  0.53761791  0.21385134  0.27156519  1
  O  O33  1  0.03875766  0.06253691  0.60378547  1
  O  O34  1  0.47580640  0.14882930  0.06985084  1
  O  O35  1  0.96124234  0.06253691  0.10378547  1
