# generated using pymatgen
data_TiO2
_symmetry_space_group_name_H-M   'P 1'
_cell_length_a   4.54425708
_cell_length_b   5.51788923
_cell_length_c   14.89646190
_cell_angle_alpha   90.00000000
_cell_angle_beta   90.00000000
_cell_angle_gamma   90.00000000
_symmetry_Int_Tables_number   1
_chemical_formula_structural   TiO2
_chemical_formula_sum   'Ti12 O24'
_cell_volume   373.52442046
_cell_formula_units_Z   12
loop_
 _symmetry_equiv_pos_site_id
 _symmetry_equiv_pos_as_xyz
  1  'x, y, z'
loop_
 _atom_site_type_symbol
 _atom_site_label
 _atom_site_symmetry_multiplicity
 _atom_site_fract_x
 _atom_site_fract_y
 _atom_site_fract_z
 _atom_site_occupancy
  Ti  Ti0  1  0.00033969  0.35775182  0.08398350  1
  Ti  Ti1  1  0.00000000  0.04041822  0.25000000  1
  Ti  Ti2  1  -0.00033969  0.35775182  0.41601650  1
  Ti  Ti3  1  0.00000000  0.95958178  0.75000000  1
  Ti  Ti4  1  0.00033969  0.64224818  0.58398350  1
  Ti  Ti5  1  -0.00033969  0.64224818  0.91601650  1
  Ti  Ti6  1  0.49966031  0.14224818  0.58398350  1
  Ti  Ti7  1  0.50000000  0.54041822  0.25000000  1
  Ti  Ti8  1  0.50000000  0.45958178  0.75000000  1
  Ti  Ti9  1  0.50033969  0.14224818  0.91601650  1
  Ti  Ti10  1  0.50033969  0.85775182  0.41601650  1
  Ti  Ti11  1  0.49966031  0.85775182  0.08398350  1
  O  O12  1  0.20858028  0.63048368  0.02991467  1
  O  O13  1  0.20858028  0.36951632  0.52991467  1
  O  O14  1  0.27444216  0.16574325  0.69555535  1
  O  O15  1  0.27444216  0.83425675  0.19555535  1
  O  O16  1  0.21501086  0.08779210  0.36258244  1
  O  O17  1  0.21501086  0.91220790  0.86258244  1
  O  O18  1  0.28498914  0.58779210  0.36258244  1
  O  O19  1  0.28498914  0.41220790  0.86258244  1
  O  O20  1  0.22555784  0.33425675  0.19555535  1
  O  O21  1  0.22555784  0.66574325  0.69555535  1
  O  O22  1  0.29141972  0.86951632  0.52991467  1
  O  O23  1  0.29141972  0.13048368  0.02991467  1
  O  O24  1  0.70858028  0.13048368  0.47008533  1
  O  O25  1  0.70858028  0.86951632  0.97008533  1
  O  O26  1  0.77444216  0.33425675  0.30444465  1
  O  O27  1  0.77444216  0.66574325  0.80444465  1
  O  O28  1  0.71501086  0.58779210  0.13741756  1
  O  O29  1  0.71501086  0.41220790  0.63741756  1
  O  O30  1  0.78498914  0.08779210  0.13741756  1
  O  O31  1  0.78498914  0.91220790  0.63741756  1
  O  O32  1  0.72555784  0.16574325  0.80444465  1
  O  O33  1  0.72555784  0.83425675  0.30444465  1
  O  O34  1  0.79141972  0.36951632  0.97008533  1
  O  O35  1  0.79141972  0.63048368  0.47008533  1
