# generated using pymatgen
data_Hf2N2O
_symmetry_space_group_name_H-M   'P 1'
_cell_length_a   8.65394236
_cell_length_b   8.66696669
_cell_length_c   8.67159820
_cell_angle_alpha   109.39734182
_cell_angle_beta   109.28570572
_cell_angle_gamma   109.41724328
_symmetry_Int_Tables_number   1
_chemical_formula_structural   Hf2N2O
_chemical_formula_sum   'Hf16 N16 O8'
_cell_volume   502.60428124
_cell_formula_units_Z   8
loop_
 _symmetry_equiv_pos_site_id
 _symmetry_equiv_pos_as_xyz
  1  'x, y, z'
loop_
 _atom_site_type_symbol
 _atom_site_label
 _atom_site_symmetry_multiplicity
 _atom_site_fract_x
 _atom_site_fract_y
 _atom_site_fract_z
 _atom_site_occupancy
  Hf  Hf0  1  0.74479611  0.78188128  0.03153338  1
  Hf  Hf1  1  0.50916827  0.00426462  0.99962165  1
  Hf  Hf2  1  0.02886165  0.24864503  0.27392455  1
  Hf  Hf3  1  0.46940820  0.75808984  0.21897730  1
  Hf  Hf4  1  0.71066207  0.96691942  0.74593637  1
  Hf  Hf5  1  0.22103636  0.47238580  0.75719678  1
  Hf  Hf6  1  0.01044086  0.00446366  0.51983975  1
  Hf  Hf7  1  0.98247187  0.48990979  0.98724415  1
  Hf  Hf8  1  0.74415261  0.28473335  0.53450663  1
  Hf  Hf9  1  0.50054288  0.49390418  0.48918878  1
  Hf  Hf10  1  0.25293222  0.71599401  0.46554814  1
  Hf  Hf11  1  0.78907763  0.53106774  0.24700986  1
  Hf  Hf12  1  0.29360615  0.04484675  0.25968437  1
  Hf  Hf13  1  0.96274165  0.74235096  0.70379344  1
  Hf  Hf14  1  0.53181959  0.24904100  0.78767587  1
  Hf  Hf15  1  0.25057099  0.21369785  0.96648224  1
  N  N16  1  0.46803990  0.72187379  0.95427993  1
  N  N17  1  0.50911440  0.73498665  0.46122929  1
  N  N18  1  0.01812097  0.54850768  0.77569464  1
  N  N19  1  0.45029336  0.96253870  0.72758904  1
  N  N20  1  0.25766658  0.27082517  0.22700678  1
  N  N21  1  0.76452553  0.53888307  0.99132572  1
  N  N22  1  0.54409967  0.03181857  0.27401935  1
  N  N23  1  0.04545413  0.77540227  0.50854173  1
  N  N24  1  0.96620062  0.00670107  0.74003800  1
  N  N25  1  0.77409345  0.22740032  0.76167427  1
  N  N26  1  0.48523806  0.26149420  0.53340900  1
  N  N27  1  0.99302882  0.45579403  0.22853467  1
  N  N28  1  0.26823578  0.24206539  0.72808168  1
  N  N29  1  0.77562915  0.04170685  0.03343582  1
  N  N30  1  0.72713576  0.49280528  0.45742736  1
  N  N31  1  0.53281634  0.27197955  0.04928347  1
  O  O32  1  0.27070880  0.51294071  0.54854480  1
  O  O33  1  0.22682445  0.95487856  0.96822029  1
  O  O34  1  0.73101183  0.77148696  0.27451142  1
  O  O35  1  0.22671329  0.77365948  0.23690911  1
  O  O36  1  0.03525367  0.98320904  0.26379642  1
  O  O37  1  0.73294079  0.72230995  0.77118326  1
  O  O38  1  0.95408812  0.22602220  0.48032000  1
  O  O39  1  0.24047738  0.46851525  0.01678068  1
