# generated using pymatgen
data_Ti4(Ni5O8)3
_symmetry_space_group_name_H-M   'P 1'
_cell_length_a   5.88987561
_cell_length_b   5.88987413
_cell_length_c   14.34284777
_cell_angle_alpha   90.00031904
_cell_angle_beta   89.99971005
_cell_angle_gamma   119.99865276
_symmetry_Int_Tables_number   1
_chemical_formula_structural   Ti4(Ni5O8)3
_chemical_formula_sum   'Ti4 Ni15 O24'
_cell_volume   430.90750014
_cell_formula_units_Z   1
loop_
 _symmetry_equiv_pos_site_id
 _symmetry_equiv_pos_as_xyz
  1  'x, y, z'
loop_
 _atom_site_type_symbol
 _atom_site_label
 _atom_site_symmetry_multiplicity
 _atom_site_fract_x
 _atom_site_fract_y
 _atom_site_fract_z
 _atom_site_occupancy
  Ti  Ti0  1  0.33333605  0.66666876  0.28873545  1
  Ti  Ti1  1  -0.00000291  0.00000020  0.62360131  1
  Ti  Ti2  1  0.00000287  0.99999927  0.37640211  1
  Ti  Ti3  1  0.66666370  0.33333104  0.71126380  1
  Ni  Ni4  1  0.83514773  0.67028481  0.16748996  1
  Ni  Ni5  1  0.50000156  0.49999754  0.99999772  1
  Ni  Ni6  1  0.67027957  0.83514246  0.83251124  1
  Ni  Ni7  1  0.66666991  0.33333352  0.33272967  1
  Ni  Ni8  1  0.32971888  0.16485771  0.16749000  1
  Ni  Ni9  1  -0.00000389  0.49999870  0.99999775  1
  Ni  Ni10  1  0.00000038  0.00000034  -0.00000408  1
  Ni  Ni11  1  0.16485438  0.32971741  0.83251113  1
  Ni  Ni12  1  0.50000294  0.00000437  0.99999775  1
  Ni  Ni13  1  0.83514437  0.16486158  0.16748889  1
  Ni  Ni14  1  0.50000159  0.49999754  0.50000337  1
  Ni  Ni15  1  0.16485473  0.83513690  0.83251238  1
  Ni  Ni16  1  0.33333013  0.66666627  0.66727050  1
  Ni  Ni17  1  -0.00000371  0.49999799  0.50000334  1
  Ni  Ni18  1  0.50000209  0.00000338  0.50000335  1
  O  O19  1  0.50463735  0.49536805  0.24759918  1
  O  O20  1  0.99073910  0.49536875  0.24760055  1
  O  O21  1  0.69900889  0.84950623  0.07509581  1
  O  O22  1  0.00000337  0.00000028  0.24806651  1
  O  O23  1  0.49536173  0.50463366  0.75240112  1
  O  O24  1  0.15049745  0.84950280  0.07509603  1
  O  O25  1  0.15049693  0.30099394  0.07509566  1
  O  O26  1  0.84949915  0.69899600  0.92490018  1
  O  O27  1  0.50463650  0.00926589  0.24760057  1
  O  O28  1  0.66666750  0.33333580  0.08367168  1
  O  O29  1  0.30100266  0.15050052  0.92489998  1
  O  O30  1  0.99999651  0.99999931  0.75194034  1
  O  O31  1  0.00926337  0.50463306  0.75239977  1
  O  O32  1  0.33333314  0.66666494  0.91632870  1
  O  O33  1  0.82873603  0.65747151  0.41790174  1
  O  O34  1  0.49536218  0.99073189  0.75239982  1
  O  O35  1  0.17125467  0.82874321  0.58209516  1
  O  O36  1  0.17125626  0.34251015  0.58209641  1
  O  O37  1  0.84949590  0.15050178  0.92489998  1
  O  O38  1  0.33333287  0.66666755  0.41775936  1
  O  O39  1  0.65748728  0.82874298  0.58209671  1
  O  O40  1  0.66666701  0.33333176  0.58224567  1
  O  O41  1  0.34253040  0.17126609  0.41790149  1
  O  O42  1  0.82873537  0.17126406  0.41790295  1
