# generated using pymatgen
data_KH(IO3)2
_symmetry_space_group_name_H-M   'P 1'
_cell_length_a   6.92833955
_cell_length_b   8.12471448
_cell_length_c   21.71135339
_cell_angle_alpha   90.00000000
_cell_angle_beta   97.69313910
_cell_angle_gamma   90.00000000
_symmetry_Int_Tables_number   1
_chemical_formula_structural   KH(IO3)2
_chemical_formula_sum   'K8 H8 I16 O48'
_cell_volume   1211.14875807
_cell_formula_units_Z   8
loop_
 _symmetry_equiv_pos_site_id
 _symmetry_equiv_pos_as_xyz
  1  'x, y, z'
loop_
 _atom_site_type_symbol
 _atom_site_label
 _atom_site_symmetry_multiplicity
 _atom_site_fract_x
 _atom_site_fract_y
 _atom_site_fract_z
 _atom_site_occupancy
  K  K0  1  0.25017733  0.62397003  0.00440670  1
  K  K1  1  0.74982267  0.12397003  0.49559330  1
  K  K2  1  0.74982267  0.37602997  0.99559330  1
  K  K3  1  0.25017733  0.87602997  0.50440670  1
  K  K4  1  0.14835255  0.88321417  0.17222974  1
  K  K5  1  0.85164745  0.38321417  0.32777026  1
  K  K6  1  0.85164745  0.11678583  0.82777026  1
  K  K7  1  0.14835255  0.61678583  0.67222974  1
  H  H8  1  0.52957019  0.16881193  0.24941268  1
  H  H9  1  0.47042981  0.66881193  0.25058832  1
  H  H10  1  0.47042981  0.83118807  0.75058732  1
  H  H11  1  0.52957019  0.33118807  0.74941268  1
  H  H12  1  0.78264487  0.64812174  0.24967991  1
  H  H13  1  0.21735513  0.14812174  0.25032009  1
  H  H14  1  0.21735513  0.35187826  0.75032009  1
  H  H15  1  0.78264487  0.85187826  0.74967991  1
  I  I16  1  0.17885871  0.39097366  0.15639154  1
  I  I17  1  0.82114129  0.89097366  0.34360846  1
  I  I18  1  0.82114129  0.60902634  0.84360846  1
  I  I19  1  0.17885871  0.10902634  0.65639154  1
  I  I20  1  0.23070246  0.11144978  0.00123305  1
  I  I21  1  0.76929754  0.61144978  0.49876695  1
  I  I22  1  0.76929754  0.88855022  -0.00123305  1
  I  I23  1  0.23070246  0.38855022  0.50123305  1
  I  I24  1  0.67187092  0.13094800  0.15448345  1
  I  I25  1  0.32812908  0.63094800  0.34551655  1
  I  I26  1  0.32812908  0.86905200  0.84551655  1
  I  I27  1  0.67187092  0.36905200  0.65448345  1
  I  I28  1  0.65849742  0.63675925  0.13600783  1
  I  I29  1  0.34150258  0.13675925  0.36399217  1
  I  I30  1  0.34150258  0.36324075  0.86399217  1
  I  I31  1  0.65849742  0.86324075  0.63600783  1
  O  O32  1  0.05681546  0.22326173  0.19244993  1
  O  O33  1  0.94318454  0.72326173  0.30755007  1
  O  O34  1  0.94318454  0.77673827  0.80755007  1
  O  O35  1  0.05681546  0.27673827  0.69244993  1
  O  O36  1  0.01824179  0.56059130  0.16760882  1
  O  O37  1  0.98175821  0.06059130  0.33239118  1
  O  O38  1  0.98175821  0.43940870  0.83239118  1
  O  O39  1  0.01824179  0.93940870  0.66760882  1
  O  O40  1  0.10250317  0.35240179  0.07434695  1
  O  O41  1  0.89749683  0.85240179  0.42565305  1
  O  O42  1  0.89749683  0.64759821  0.92565305  1
  O  O43  1  0.10250317  0.14759821  0.57434695  1
  O  O44  1  0.99231744  0.13814769  0.95632057  1
  O  O45  1  0.00768256  0.63814769  0.54367943  1
  O  O46  1  0.00768256  0.86185231  0.04367943  1
  O  O47  1  0.99231744  0.36185231  0.45632057  1
  O  O48  1  0.32348291  0.94878863  0.95437688  1
  O  O49  1  0.67651709  0.44878863  0.54562312  1
  O  O50  1  0.67651709  0.05121137  0.04562312  1
  O  O51  1  0.32348291  0.55121137  0.45437688  1
  O  O52  1  0.35092672  0.29247286  0.97275927  1
  O  O53  1  0.64907328  0.79247286  0.52724073  1
  O  O54  1  0.64907328  0.70752714  0.02724073  1
  O  O55  1  0.35092672  0.20752714  0.47275927  1
  O  O56  1  0.41168289  0.10927084  0.13522173  1
  O  O57  1  0.58831711  0.60927084  0.36477727  1
  O  O58  1  0.58831711  0.89072916  0.86477727  1
  O  O59  1  0.41168289  0.39072916  0.63522273  1
  O  O60  1  0.64846414  0.21835329  0.23507202  1
  O  O61  1  0.35153586  0.71835329  0.26492798  1
  O  O62  1  0.35153586  0.78164671  0.76492798  1
  O  O63  1  0.64846414  0.28164671  0.73507202  1
  O  O64  1  0.74270264  0.92616730  0.18243613  1
  O  O65  1  0.25729736  0.42616730  0.31756387  1
  O  O66  1  0.25729736  0.07383270  0.81756387  1
  O  O67  1  0.74270264  0.57383270  0.68243613  1
  O  O68  1  0.40236372  0.68264662  0.12755630  1
  O  O69  1  0.59763628  0.18264662  0.37244370  1
  O  O70  1  0.59763628  0.31735338  0.87244370  1
  O  O71  1  0.40236372  0.81735338  0.62755630  1
  O  O72  1  0.66562752  0.59395072  0.22551745  1
  O  O73  1  0.33437248  0.09395072  0.27448255  1
  O  O74  1  0.33437248  0.40604928  0.77448255  1
  O  O75  1  0.66562752  0.90604928  0.72551745  1
  O  O76  1  0.62684875  0.42559559  0.11032905  1
  O  O77  1  0.37315125  0.92559559  0.38967095  1
  O  O78  1  0.37315125  0.57440441  0.88967095  1
  O  O79  1  0.62684875  0.07440441  0.61032905  1
