# generated using pymatgen
data_Sm2TeO6
_symmetry_space_group_name_H-M   'P 1'
_cell_length_a   9.15080252
_cell_length_b   9.15122627
_cell_length_c   5.34681256
_cell_angle_alpha   90.00002202
_cell_angle_beta   89.99898617
_cell_angle_gamma   120.00150668
_symmetry_Int_Tables_number   1
_chemical_formula_structural   Sm2TeO6
_chemical_formula_sum   'Sm6 Te3 O18'
_cell_volume   387.75506050
_cell_formula_units_Z   3
loop_
 _symmetry_equiv_pos_site_id
 _symmetry_equiv_pos_as_xyz
  1  'x, y, z'
loop_
 _atom_site_type_symbol
 _atom_site_label
 _atom_site_symmetry_multiplicity
 _atom_site_fract_x
 _atom_site_fract_y
 _atom_site_fract_z
 _atom_site_occupancy
  Sm  Sm0  1  -0.00000023  0.60947524  0.49999983  1
  Sm  Sm1  1  0.00000028  0.27260852  -0.00000060  1
  Sm  Sm2  1  0.39054955  0.39053244  0.49999870  1
  Sm  Sm3  1  0.27258619  -0.00001604  -0.00005092  1
  Sm  Sm4  1  0.72741426  0.72739732  0.00005114  1
  Sm  Sm5  1  0.60945073  -0.00001750  0.50000175  1
  Te  Te6  1  0.33335851  0.66664006  0.98961526  1
  Te  Te7  1  -0.00000025  0.00004331  0.49999969  1
  Te  Te8  1  0.66664161  0.33328126  0.01038531  1
  O  O9  1  0.06646008  0.87257685  0.29053845  1
  O  O10  1  0.23266647  0.76416220  0.77850693  1
  O  O11  1  0.13701164  0.54586721  0.19752014  1
  O  O12  1  0.40884820  0.86299273  0.19749706  1
  O  O13  1  0.23584907  0.46849590  0.77855315  1
  O  O14  1  0.12743871  0.19394184  0.29057939  1
  O  O15  1  0.19390567  0.12745175  0.70947192  1
  O  O16  1  0.53153718  0.76732425  0.77854708  1
  O  O17  1  0.45415871  0.59115394  0.19751251  1
  O  O18  1  0.80609390  0.93354565  0.29052815  1
  O  O19  1  0.46846358  0.23578774  0.22145444  1
  O  O20  1  0.59115182  0.45414408  0.80250353  1
  O  O21  1  0.54584094  0.13699522  0.80248762  1
  O  O22  1  0.76733404  0.53149587  0.22149312  1
  O  O23  1  0.93353873  0.80611599  0.70946017  1
  O  O24  1  0.76415156  0.23264711  0.22144713  1
  O  O25  1  0.86298835  0.40885537  0.80247964  1
  O  O26  1  0.87256071  0.06650267  0.70942041  1
