# generated using pymatgen
data_Hf2N2O
_symmetry_space_group_name_H-M   'P 1'
_cell_length_a   8.65349583
_cell_length_b   8.67232991
_cell_length_c   8.67770966
_cell_angle_alpha   109.33686315
_cell_angle_beta   109.51104275
_cell_angle_gamma   109.39579688
_symmetry_Int_Tables_number   1
_chemical_formula_structural   Hf2N2O
_chemical_formula_sum   'Hf16 N16 O8'
_cell_volume   502.36275696
_cell_formula_units_Z   8
loop_
 _symmetry_equiv_pos_site_id
 _symmetry_equiv_pos_as_xyz
  1  'x, y, z'
loop_
 _atom_site_type_symbol
 _atom_site_label
 _atom_site_symmetry_multiplicity
 _atom_site_fract_x
 _atom_site_fract_y
 _atom_site_fract_z
 _atom_site_occupancy
  Hf  Hf0  1  0.48755912  0.49894732  0.49951041  1
  Hf  Hf1  1  0.78728195  0.53646834  0.25156718  1
  Hf  Hf2  1  0.03589457  0.75216252  0.78536467  1
  Hf  Hf3  1  0.52346232  0.75000850  0.28128182  1
  Hf  Hf4  1  0.71310499  0.96995350  0.76048334  1
  Hf  Hf5  1  0.99693625  0.49972134  0.98887827  1
  Hf  Hf6  1  0.49701544  0.99890714  0.00082751  1
  Hf  Hf7  1  0.01671989  0.00608204  0.50705108  1
  Hf  Hf8  1  0.75901908  0.21377942  0.46779637  1
  Hf  Hf9  1  0.24219244  0.28181802  0.02971769  1
  Hf  Hf10  1  0.25622701  0.79556506  0.53643339  1
  Hf  Hf11  1  0.74912994  0.71312621  0.96614441  1
  Hf  Hf12  1  0.28021602  0.02995838  0.24054145  1
  Hf  Hf13  1  0.96962447  0.24227193  0.21082147  1
  Hf  Hf14  1  0.46669992  0.25326049  0.71950003  1
  Hf  Hf15  1  0.21422593  0.45746900  0.74867751  1
  N  N16  1  0.23181017  0.26561861  0.27415366  1
  N  N17  1  0.45245751  0.72439753  0.48390964  1
  N  N18  1  0.49609642  0.96153418  0.23412449  1
  N  N19  1  0.98716869  0.75909501  0.53168364  1
  N  N20  1  0.26235556  0.03285014  0.98408668  1
  N  N21  1  0.96319354  0.22581534  0.94951855  1
  N  N22  1  0.00429231  0.23278065  0.46122550  1
  N  N23  1  0.23852112  0.22620420  0.77000515  1
  N  N24  1  0.03082393  0.77319847  0.04394775  1
  N  N25  1  0.73977943  0.96425799  0.01463227  1
  N  N26  1  0.51062460  0.04368804  0.77467704  1
  N  N27  1  0.27550526  0.54591718  0.03575666  1
  N  N28  1  0.23009817  0.98975861  0.45380142  1
  N  N29  1  0.95134082  0.46551547  0.72490713  1
  N  N30  1  0.72771685  0.45635114  0.97405670  1
  N  N31  1  0.46549712  0.51428176  0.73430941  1
  O  O32  1  0.72457958  0.27614823  0.23831570  1
  O  O33  1  0.77200002  0.73665554  0.72587436  1
  O  O34  1  0.54255151  0.48914239  0.26577249  1
  O  O35  1  0.75473476  0.76911092  0.22813031  1
  O  O36  1  0.77516307  0.01112268  0.54728571  1
  O  O37  1  0.55058972  0.27921230  0.51206597  1
  O  O38  1  0.04258129  0.52835963  0.27630907  1
  O  O39  1  0.27521320  0.72948377  0.76685409  1
