# generated using pymatgen
data_Zr2N2O
_symmetry_space_group_name_H-M   'P 1'
_cell_length_a   8.79147405
_cell_length_b   8.77964822
_cell_length_c   8.79460678
_cell_angle_alpha   109.67627088
_cell_angle_beta   109.39822088
_cell_angle_gamma   109.33976272
_symmetry_Int_Tables_number   1
_chemical_formula_structural   Zr2N2O
_chemical_formula_sum   'Zr16 N16 O8'
_cell_volume   522.54893036
_cell_formula_units_Z   8
loop_
 _symmetry_equiv_pos_site_id
 _symmetry_equiv_pos_as_xyz
  1  'x, y, z'
loop_
 _atom_site_type_symbol
 _atom_site_label
 _atom_site_symmetry_multiplicity
 _atom_site_fract_x
 _atom_site_fract_y
 _atom_site_fract_z
 _atom_site_occupancy
  Zr  Zr0  1  0.95989190  0.24497780  0.20974404  1
  Zr  Zr1  1  0.50709269  0.00674981  0.99635355  1
  Zr  Zr2  1  0.78872775  0.03319962  0.75811914  1
  Zr  Zr3  1  0.70491945  0.46272479  0.24002103  1
  Zr  Zr4  1  0.75070111  0.77743369  0.03044516  1
  Zr  Zr5  1  0.74782457  0.28305460  0.52806396  1
  Zr  Zr6  1  0.49985965  0.49898862  0.50167811  1
  Zr  Zr7  1  0.45921090  0.25193647  0.71384803  1
  Zr  Zr8  1  0.53176862  0.74238925  0.28912470  1
  Zr  Zr9  1  0.00830358  0.50621937  0.99668334  1
  Zr  Zr10  1  0.00434996  0.99505008  0.50650264  1
  Zr  Zr11  1  0.25653896  0.72396530  0.47020616  1
  Zr  Zr12  1  0.24595328  0.21814561  0.96035413  1
  Zr  Zr13  1  0.22050877  0.96274619  0.25526306  1
  Zr  Zr14  1  0.28459561  0.53799878  0.75276712  1
  Zr  Zr15  1  0.03824190  0.75181734  0.78738783  1
  N  N16  1  0.74037094  0.22969064  0.27454167  1
  N  N17  1  0.46938228  0.22814930  0.45246364  1
  N  N18  1  0.77268148  0.72864360  0.25835551  1
  N  N19  1  0.04307290  0.27437780  0.01407701  1
  N  N20  1  0.45749770  0.46597402  0.23076529  1
  N  N21  1  0.27207268  0.73694828  0.22232944  1
  N  N22  1  0.51517094  0.23844935  0.96492834  1
  N  N23  1  0.98440217  0.95025942  0.72359090  1
  N  N24  1  0.54074075  0.53518027  0.77146067  1
  N  N25  1  0.95920163  0.73314165  0.99234942  1
  N  N26  1  0.53146275  0.77250386  0.54476068  1
  N  N27  1  0.22396292  0.27120455  0.73740107  1
  N  N28  1  0.02761768  0.48497292  0.75805043  1
  N  N29  1  0.72830028  0.98720907  0.95865023  1
  N  N30  1  0.23387017  0.96447670  0.50597523  1
  N  N31  1  0.26267500  0.77154728  0.72926886  1
  O  O32  1  0.76101374  0.03580433  0.49177214  1
  O  O33  1  0.27281180  0.01094057  0.04255911  1
  O  O34  1  0.97101554  0.51207628  0.24442084  1
  O  O35  1  0.72657702  0.25775113  0.77108125  1
  O  O36  1  0.01631687  0.05453102  0.27904114  1
  O  O37  1  0.48390887  0.76085679  0.03448680  1
  O  O38  1  0.77098765  0.54670541  0.53700329  1
  O  O39  1  0.22639857  0.45121141  0.46410402  1
