# generated using pymatgen
data_Hf3N2O3
_symmetry_space_group_name_H-M   'P 1'
_cell_length_a   4.02485721
_cell_length_b   5.58327356
_cell_length_c   10.49363395
_cell_angle_alpha   90.33239929
_cell_angle_beta   90.00000000
_cell_angle_gamma   111.12714875
_symmetry_Int_Tables_number   1
_chemical_formula_structural   Hf3N2O3
_chemical_formula_sum   'Hf6 N4 O6'
_cell_volume   219.95682810
_cell_formula_units_Z   2
loop_
 _symmetry_equiv_pos_site_id
 _symmetry_equiv_pos_as_xyz
  1  'x, y, z'
loop_
 _atom_site_type_symbol
 _atom_site_label
 _atom_site_symmetry_multiplicity
 _atom_site_fract_x
 _atom_site_fract_y
 _atom_site_fract_z
 _atom_site_occupancy
  Hf  Hf0  1  0.14481082  0.28962265  0.56548955  1
  Hf  Hf1  1  0.14708871  0.29417742  0.93690788  1
  Hf  Hf2  1  0.19267942  0.38535883  0.24818189  1
  Hf  Hf3  1  0.80816669  0.61633438  0.75623042  1
  Hf  Hf4  1  0.85859803  0.71719605  0.05918291  1
  Hf  Hf5  1  0.86115257  0.72230313  0.43733479  1
  N  N6  1  0.29949836  0.59899672  0.42703265  1
  N  N7  1  0.30453654  0.60907108  0.08172759  1
  N  N8  1  0.23845815  0.47691730  0.74416791  1
  N  N9  1  0.70129996  0.40259891  0.92581865  1
  O  O10  1  0.04628920  0.09257840  0.11637200  1
  O  O11  1  0.04240784  0.08481768  0.38110745  1
  O  O12  1  0.95284306  0.90568612  0.61254198  1
  O  O13  1  0.95633305  0.91266810  0.88421997  1
  O  O14  1  0.69226367  0.38452534  0.57097190  1
  O  O15  1  0.75357394  0.50714689  0.25271246  1
