# generated using pymatgen
data_Na2Be(GeO3)2
_symmetry_space_group_name_H-M   'P 1'
_cell_length_a   15.47099934
_cell_length_b   11.52455591
_cell_length_c   11.50361930
_cell_angle_alpha   84.41674144
_cell_angle_beta   47.84906166
_cell_angle_gamma   47.73419690
_symmetry_Int_Tables_number   1
_chemical_formula_structural   Na2Be(GeO3)2
_chemical_formula_sum   'Na12 Be6 Ge12 O36'
_cell_volume   859.61500168
_cell_formula_units_Z   6
loop_
 _symmetry_equiv_pos_site_id
 _symmetry_equiv_pos_as_xyz
  1  'x, y, z'
loop_
 _atom_site_type_symbol
 _atom_site_label
 _atom_site_symmetry_multiplicity
 _atom_site_fract_x
 _atom_site_fract_y
 _atom_site_fract_z
 _atom_site_occupancy
  Na  Na0  1  0.55958000  0.75491400  0.27267900  1
  Na  Na1  1  0.60805800  0.04824500  0.94348000  1
  Na  Na2  1  0.49630500  0.68661800  0.83041700  1
  Na  Na3  1  0.89481600  0.10888300  0.88770500  1
  Na  Na4  1  0.93816100  0.40751200  0.61234100  1
  Na  Na5  1  0.50661100  0.99633300  0.50478300  1
  Na  Na6  1  0.84160200  0.31342800  0.21471400  1
  Na  Na7  1  0.26221200  0.73635800  0.25119500  1
  Na  Na8  1  0.83790300  0.97930900  0.48868400  1
  Na  Na9  1  0.13633000  0.36004100  0.14100000  1
  Na  Na10  1  0.26245100  0.42383300  0.56298300  1
  Na  Na11  1  0.20258900  0.64248600  0.85433100  1
  Be  Be12  1  0.11423600  0.88133900  0.11542800  1
  Be  Be13  1  0.64930300  0.51441200  0.99593600  1
  Be  Be14  1  0.42148900  0.24130900  0.72809700  1
  Be  Be15  1  0.73420400  0.60558400  0.40873400  1
  Be  Be16  1  0.36509900  0.13434100  0.36069800  1
  Be  Be17  1  0.00955800  0.82826100  0.63975100  1
  Ge  Ge18  1  0.78772900  0.91192600  0.05652300  1
  Ge  Ge19  1  0.40212100  0.59334800  0.40753800  1
  Ge  Ge20  1  0.69959900  0.17136600  0.32906900  1
  Ge  Ge21  1  0.32163200  0.81227000  0.70761400  1
  Ge  Ge22  1  0.33079800  0.47114700  0.00986800  1
  Ge  Ge23  1  0.08773300  0.54242300  0.43765500  1
  Ge  Ge24  1  0.74498800  0.25513500  0.75522300  1
  Ge  Ge25  1  0.01706400  0.18815800  0.32435100  1
  Ge  Ge26  1  0.65488500  0.84847000  0.65118900  1
  Ge  Ge27  1  0.05334400  0.24325500  0.78871300  1
  Ge  Ge28  1  0.44044900  0.92906500  0.08259000  1
  Ge  Ge29  1  0.00202400  0.50218000  0.99389700  1
  O  O30  1  0.49022100  0.96431200  0.16723500  1
  O  O31  1  0.48534000  0.64516600  0.24579200  1
  O  O32  1  0.16133600  0.38531800  0.48952900  1
  O  O33  1  0.28322100  0.42933700  0.93155300  1
  O  O34  1  0.82852200  0.95964800  0.88677000  1
  O  O35  1  0.49737100  0.98007900  0.91299500  1
  O  O36  1  0.97579600  0.98772800  0.60366400  1
  O  O37  1  0.16404300  0.13693100  0.30353500  1
  O  O38  1  0.64423500  0.33672400  0.25921800  1
  O  O39  1  0.28417500  0.75458100  0.86952700  1
  O  O40  1  0.62679800  0.00985500  0.59908000  1
  O  O41  1  0.29974200  0.09339400  0.52601300  1
  O  O42  1  0.82681400  0.64042400  0.25704600  1
  O  O43  1  0.24437000  0.62241800  0.47870500  1
  O  O44  1  0.79144800  0.33935800  0.60663300  1
  O  O45  1  0.92228800  0.45147100  0.97597400  1
  O  O46  1  0.15124200  0.96226800  0.17546900  1
  O  O47  1  0.97492400  0.65067700  0.92237800  1
  O  O48  1  0.93075300  0.36177100  0.28293800  1
  O  O49  1  0.56917500  0.65935800  0.47050200  1
  O  O50  1  0.11525300  0.08277100  0.86005200  1
  O  O51  1  0.46447700  0.29992900  0.57619200  1
  O  O52  1  0.17775300  0.71083300  0.15144400  1
  O  O53  1  0.26875000  0.75444100  0.63689200  1
  O  O54  1  0.59715600  0.76605400  0.63238900  1
  O  O55  1  0.58784900  0.67592500  0.94987400  1
  O  O56  1  0.30743600  0.39025100  0.16197400  1
  O  O57  1  0.94890700  0.77956500  0.58956200  1
  O  O58  1  0.25755500  0.27221500  0.82566200  1
  O  O59  1  0.89476100  0.31495400  0.81968800  1
  O  O60  1  0.91892100  0.60591300  0.49143200  1
  O  O61  1  0.53279000  0.07273200  0.29379500  1
  O  O62  1  0.87183100  0.08193500  0.28193600  1
  O  O63  1  0.59781200  0.27592300  0.79900200  1
  O  O64  1  0.61146300  0.42393300  0.97062900  1
  O  O65  1  0.85070400  0.94883500  0.11750100  1
