# generated using pymatgen
data_BaTeO4
_symmetry_space_group_name_H-M   'P 1'
_cell_length_a   5.06221521
_cell_length_b   5.99995237
_cell_length_c   13.69017125
_cell_angle_alpha   90.00000000
_cell_angle_beta   90.00000000
_cell_angle_gamma   90.00000000
_symmetry_Int_Tables_number   1
_chemical_formula_structural   BaTeO4
_chemical_formula_sum   'Ba4 Te4 O16'
_cell_volume   415.81225789
_cell_formula_units_Z   4
loop_
 _symmetry_equiv_pos_site_id
 _symmetry_equiv_pos_as_xyz
  1  'x, y, z'
loop_
 _atom_site_type_symbol
 _atom_site_label
 _atom_site_symmetry_multiplicity
 _atom_site_fract_x
 _atom_site_fract_y
 _atom_site_fract_z
 _atom_site_occupancy
  Ba  Ba0  1  0.25000000  0.00000000  0.16360909  1
  Ba  Ba1  1  0.75000000  0.00000000  0.83639091  1
  Ba  Ba2  1  0.25000000  0.50000000  0.66360909  1
  Ba  Ba3  1  0.75000000  0.50000000  0.33639091  1
  Te  Te4  1  0.25000000  0.00000000  0.43330291  1
  Te  Te5  1  0.75000000  0.00000000  0.56669709  1
  Te  Te6  1  0.75000000  0.50000000  0.06669709  1
  Te  Te7  1  0.25000000  0.50000000  0.93330291  1
  O  O8  1  0.35263546  0.20732991  0.34031566  1
  O  O9  1  0.85263546  0.20732991  0.65968434  1
  O  O10  1  0.92663076  0.17320797  0.45977222  1
  O  O11  1  0.42663076  0.17320797  0.54022778  1
  O  O12  1  0.42663076  0.32679203  0.04022778  1
  O  O13  1  0.92663076  0.32679203  0.95977222  1
  O  O14  1  0.85263546  0.29267009  0.15968434  1
  O  O15  1  0.35263546  0.29267009  0.84031566  1
  O  O16  1  0.64736454  0.70732991  0.15968434  1
  O  O17  1  0.14736454  0.70732991  0.84031566  1
  O  O18  1  0.07336924  0.67320797  0.04022778  1
  O  O19  1  0.57336924  0.67320797  0.95977222  1
  O  O20  1  0.57336924  0.82679203  0.45977222  1
  O  O21  1  0.07336924  0.82679203  0.54022778  1
  O  O22  1  0.14736454  0.79267009  0.34031566  1
  O  O23  1  0.64736454  0.79267009  0.65968434  1
