# generated using pymatgen
data_Na2Zr(SiO3)6
_symmetry_space_group_name_H-M   'P 1'
_cell_length_a   7.24657800
_cell_length_b   14.63597300
_cell_length_c   14.90679900
_cell_angle_alpha   90.00000000
_cell_angle_beta   90.00000000
_cell_angle_gamma   90.00000000
_symmetry_Int_Tables_number   1
_chemical_formula_structural   Na2Zr(SiO3)6
_chemical_formula_sum   'Na8 Zr4 Si24 O72'
_cell_volume   1581.02583410
_cell_formula_units_Z   4
loop_
 _symmetry_equiv_pos_site_id
 _symmetry_equiv_pos_as_xyz
  1  'x, y, z'
loop_
 _atom_site_type_symbol
 _atom_site_label
 _atom_site_symmetry_multiplicity
 _atom_site_fract_x
 _atom_site_fract_y
 _atom_site_fract_z
 _atom_site_occupancy
  Na  Na0  1  0.46331900  0.25000000  0.26620800  1
  Na  Na1  1  0.53668100  0.75000000  0.73379200  1
  Na  Na2  1  0.46331900  0.75000000  0.23379200  1
  Na  Na3  1  0.53668100  0.25000000  0.76620800  1
  Na  Na4  1  0.99272600  0.00000000  0.25000000  1
  Na  Na5  1  0.00727400  0.50000000  0.75000000  1
  Na  Na6  1  0.00727400  0.00000000  0.75000000  1
  Na  Na7  1  0.99272600  0.50000000  0.25000000  1
  Zr  Zr8  1  0.49398700  0.00000000  0.25000000  1
  Zr  Zr9  1  0.50601300  0.50000000  0.75000000  1
  Zr  Zr10  1  0.50601300  0.00000000  0.75000000  1
  Zr  Zr11  1  0.49398700  0.50000000  0.25000000  1
  Si  Si12  1  0.77256900  0.14418700  0.11213400  1
  Si  Si13  1  0.22743100  0.64418700  0.88786600  1
  Si  Si14  1  0.77256900  0.85581300  0.38786600  1
  Si  Si15  1  0.22743100  0.35581300  0.61213400  1
  Si  Si16  1  0.22743100  0.85581300  0.88786600  1
  Si  Si17  1  0.77256900  0.35581300  0.11213400  1
  Si  Si18  1  0.22743100  0.14418700  0.61213400  1
  Si  Si19  1  0.77256900  0.64418700  0.38786600  1
  Si  Si20  1  0.50849500  0.14045700  0.45296700  1
  Si  Si21  1  0.49150500  0.64045700  0.54703300  1
  Si  Si22  1  0.50849500  0.85954300  0.04703300  1
  Si  Si23  1  0.49150500  0.35954300  0.95296700  1
  Si  Si24  1  0.49150500  0.85954300  0.54703300  1
  Si  Si25  1  0.50849500  0.35954300  0.45296700  1
  Si  Si26  1  0.49150500  0.14045700  0.95296700  1
  Si  Si27  1  0.50849500  0.64045700  0.04703300  1
  Si  Si28  1  0.21509600  0.14214100  0.10580900  1
  Si  Si29  1  0.78490400  0.64214100  0.89419100  1
  Si  Si30  1  0.21509600  0.85785900  0.39419100  1
  Si  Si31  1  0.78490400  0.35785900  0.60580900  1
  Si  Si32  1  0.78490400  0.85785900  0.89419100  1
  Si  Si33  1  0.21509600  0.35785900  0.10580900  1
  Si  Si34  1  0.78490400  0.14214100  0.60580900  1
  Si  Si35  1  0.21509600  0.64214100  0.39419100  1
  O  O36  1  0.99300200  0.13314100  0.09524000  1
  O  O37  1  0.00699800  0.63314100  0.90476000  1
  O  O38  1  0.99300200  0.86685900  0.40476000  1
  O  O39  1  0.00699800  0.36685900  0.59524000  1
  O  O40  1  0.00699800  0.86685900  0.90476000  1
  O  O41  1  0.99300200  0.36685900  0.09524000  1
  O  O42  1  0.00699800  0.13314100  0.59524000  1
  O  O43  1  0.99300200  0.63314100  0.40476000  1
  O  O44  1  0.72555400  0.25000000  0.14486800  1
  O  O45  1  0.27444600  0.75000000  0.85513200  1
  O  O46  1  0.72555400  0.75000000  0.35513200  1
  O  O47  1  0.27444600  0.25000000  0.64486800  1
  O  O48  1  0.71049600  0.07629200  0.19149900  1
  O  O49  1  0.28950400  0.57629200  0.80850100  1
  O  O50  1  0.71049600  0.92370800  0.30850100  1
  O  O51  1  0.28950400  0.42370800  0.69149900  1
  O  O52  1  0.28950400  0.92370800  0.80850100  1
  O  O53  1  0.71049600  0.42370800  0.19149900  1
  O  O54  1  0.28950400  0.07629200  0.69149900  1
  O  O55  1  0.71049600  0.57629200  0.30850100  1
  O  O56  1  0.67189800  0.12416500  0.01663200  1
  O  O57  1  0.32810200  0.62416500  0.98336800  1
  O  O58  1  0.67189800  0.87583500  0.48336800  1
  O  O59  1  0.32810200  0.37583500  0.51663200  1
  O  O60  1  0.32810200  0.87583500  0.98336800  1
  O  O61  1  0.67189800  0.37583500  0.01663200  1
  O  O62  1  0.32810200  0.12416500  0.51663200  1
  O  O63  1  0.67189800  0.62416500  0.48336800  1
  O  O64  1  0.51902700  0.25000000  0.42648800  1
  O  O65  1  0.48097300  0.75000000  0.57351200  1
  O  O66  1  0.51902700  0.75000000  0.07351200  1
  O  O67  1  0.48097300  0.25000000  0.92648800  1
  O  O68  1  0.49113400  0.08842900  0.35878600  1
  O  O69  1  0.50886600  0.58842900  0.64121400  1
  O  O70  1  0.49113400  0.91157100  0.14121400  1
  O  O71  1  0.50886600  0.41157100  0.85878600  1
  O  O72  1  0.50886600  0.91157100  0.64121400  1
  O  O73  1  0.49113400  0.41157100  0.35878600  1
  O  O74  1  0.50886600  0.08842900  0.85878600  1
  O  O75  1  0.49113400  0.58842900  0.14121400  1
  O  O76  1  0.30715900  0.11242200  0.01013900  1
  O  O77  1  0.69284100  0.61242200  0.98986100  1
  O  O78  1  0.30715900  0.88757800  0.48986100  1
  O  O79  1  0.69284100  0.38757800  0.51013900  1
  O  O80  1  0.69284100  0.88757800  0.98986100  1
  O  O81  1  0.30715900  0.38757800  0.01013900  1
  O  O82  1  0.69284100  0.11242200  0.51013900  1
  O  O83  1  0.30715900  0.61242200  0.48986100  1
  O  O84  1  0.27116200  0.25000000  0.12908800  1
  O  O85  1  0.72883800  0.75000000  0.87091200  1
  O  O86  1  0.27116200  0.75000000  0.37091200  1
  O  O87  1  0.72883800  0.25000000  0.62908800  1
  O  O88  1  0.28364500  0.08121200  0.18951400  1
  O  O89  1  0.71635500  0.58121200  0.81048600  1
  O  O90  1  0.28364500  0.91878800  0.31048600  1
  O  O91  1  0.71635500  0.41878800  0.68951400  1
  O  O92  1  0.71635500  0.91878800  0.81048600  1
  O  O93  1  0.28364500  0.41878800  0.18951400  1
  O  O94  1  0.71635500  0.08121200  0.68951400  1
  O  O95  1  0.28364500  0.58121200  0.31048600  1
  O  O96  1  0.02217800  0.17419000  0.36999600  1
  O  O97  1  0.97782200  0.67419000  0.63000400  1
  O  O98  1  0.02217800  0.82581000  0.13000400  1
  O  O99  1  0.97782200  0.32581000  0.86999600  1
  O  O100  1  0.97782200  0.82581000  0.63000400  1
  O  O101  1  0.02217800  0.32581000  0.36999600  1
  O  O102  1  0.97782200  0.17419000  0.86999600  1
  O  O103  1  0.02217800  0.67419000  0.13000400  1
  O  O104  1  0.09689700  0.25000000  0.34372300  1
  O  O105  1  0.90310300  0.75000000  0.65627700  1
  O  O106  1  0.09689700  0.75000000  0.15627700  1
  O  O107  1  0.90310300  0.25000000  0.84372300  1
