# generated using pymatgen
data_Rb2InCl5O
_symmetry_space_group_name_H-M   'P 1'
_cell_length_a   7.36771252
_cell_length_b   10.32665673
_cell_length_c   13.66516992
_cell_angle_alpha   90.00000000
_cell_angle_beta   90.00000000
_cell_angle_gamma   90.00000000
_symmetry_Int_Tables_number   1
_chemical_formula_structural   Rb2InCl5O
_chemical_formula_sum   'Rb8 In4 Cl20 O4'
_cell_volume   1039.69857552
_cell_formula_units_Z   4
loop_
 _symmetry_equiv_pos_site_id
 _symmetry_equiv_pos_as_xyz
  1  'x, y, z'
loop_
 _atom_site_type_symbol
 _atom_site_label
 _atom_site_symmetry_multiplicity
 _atom_site_fract_x
 _atom_site_fract_y
 _atom_site_fract_z
 _atom_site_occupancy
  Rb  Rb0  1  0.19353034  0.48793553  0.36494664  1
  Rb  Rb1  1  0.30646966  0.01206447  0.86494664  1
  Rb  Rb2  1  0.80646966  0.98793553  0.63505336  1
  Rb  Rb3  1  0.69353034  0.51206447  0.13505336  1
  Rb  Rb4  1  0.80646966  0.51206447  0.63505336  1
  Rb  Rb5  1  0.69353034  0.98793553  0.13505336  1
  Rb  Rb6  1  0.19353034  0.01206447  0.36494664  1
  Rb  Rb7  1  0.30646966  0.48793553  0.86494664  1
  In  In8  1  0.23017126  0.75000000  0.12294798  1
  In  In9  1  0.26982874  0.75000000  0.62294798  1
  In  In10  1  0.76982874  0.25000000  0.87705202  1
  In  In11  1  0.73017126  0.25000000  0.37705202  1
  Cl  Cl12  1  0.93880205  0.75000000  0.24365100  1
  Cl  Cl13  1  0.56119795  0.75000000  0.74365100  1
  Cl  Cl14  1  0.06119795  0.25000000  0.75634900  1
  Cl  Cl15  1  0.43880205  0.25000000  0.25634900  1
  Cl  Cl16  1  0.43349723  0.75000000  0.26358905  1
  Cl  Cl17  1  0.06650277  0.75000000  0.76358905  1
  Cl  Cl18  1  0.56650277  0.25000000  0.73641095  1
  Cl  Cl19  1  0.93349723  0.25000000  0.23641095  1
  Cl  Cl20  1  0.46202957  0.75000000  0.99257752  1
  Cl  Cl21  1  0.03797043  0.75000000  0.49257752  1
  Cl  Cl22  1  0.53797043  0.25000000  0.00742248  1
  Cl  Cl23  1  0.96202957  0.25000000  0.50742248  1
  Cl  Cl24  1  0.18615260  0.51238119  0.10881629  1
  Cl  Cl25  1  0.31384740  0.98761881  0.60881629  1
  Cl  Cl26  1  0.81384740  0.01238119  0.89118371  1
  Cl  Cl27  1  0.68615260  0.48761881  0.39118371  1
  Cl  Cl28  1  0.81384740  0.48761881  0.89118371  1
  Cl  Cl29  1  0.68615260  0.01238119  0.39118371  1
  Cl  Cl30  1  0.18615260  0.98761881  0.10881629  1
  Cl  Cl31  1  0.31384740  0.51238119  0.60881629  1
  O  O32  1  0.94791174  0.75000000  0.06841280  1
  O  O33  1  0.55208826  0.75000000  0.56841280  1
  O  O34  1  0.05208826  0.25000000  0.93158720  1
  O  O35  1  0.44791174  0.25000000  0.43158720  1
