# generated using pymatgen
data_VF3
_symmetry_space_group_name_H-M   'P 1'
_cell_length_a   5.34800052
_cell_length_b   7.42542724
_cell_length_c   5.12418139
_cell_angle_alpha   90.00947040
_cell_angle_beta   90.00422496
_cell_angle_gamma   89.64561243
_symmetry_Int_Tables_number   1
_chemical_formula_structural   VF3
_chemical_formula_sum   'V4 F12'
_cell_volume   203.48343887
_cell_formula_units_Z   4
loop_
 _symmetry_equiv_pos_site_id
 _symmetry_equiv_pos_as_xyz
  1  'x, y, z'
loop_
 _atom_site_type_symbol
 _atom_site_label
 _atom_site_symmetry_multiplicity
 _atom_site_fract_x
 _atom_site_fract_y
 _atom_site_fract_z
 _atom_site_occupancy
  V  V0  1  -0.00000026  0.99998942  0.99999770  1
  V  V1  1  0.99999272  0.50000952  0.00000033  1
  V  V2  1  0.50000109  0.99999005  0.50000873  1
  V  V3  1  0.49999460  0.50001066  0.49999955  1
  F  F4  1  0.02335300  0.75046362  0.10500375  1
  F  F5  1  0.19796099  0.55122238  0.68756248  1
  F  F6  1  0.19070759  0.94587189  0.69432282  1
  F  F7  1  0.30931794  0.05414396  0.19436725  1
  F  F8  1  0.30204176  0.44865267  0.18757736  1
  F  F9  1  0.47681436  0.24953767  0.60506601  1
  F  F10  1  0.52318759  0.75046554  0.39493900  1
  F  F11  1  0.69069027  0.94585935  0.80563696  1
  F  F12  1  0.69795849  0.55135118  0.81241926  1
  F  F13  1  0.80930157  0.05413108  0.30568156  1
  F  F14  1  0.80202892  0.44876469  0.31242356  1
  F  F15  1  0.97664835  0.24953531  0.89499568  1
