# generated using pymatgen
data_Zr2N2O
_symmetry_space_group_name_H-M   'P 1'
_cell_length_a   8.77561433
_cell_length_b   8.78341330
_cell_length_c   8.79937504
_cell_angle_alpha   109.41880898
_cell_angle_beta   109.53582297
_cell_angle_gamma   109.34695227
_symmetry_Int_Tables_number   1
_chemical_formula_structural   Zr2N2O
_chemical_formula_sum   'Zr16 N16 O8'
_cell_volume   522.84040589
_cell_formula_units_Z   8
loop_
 _symmetry_equiv_pos_site_id
 _symmetry_equiv_pos_as_xyz
  1  'x, y, z'
loop_
 _atom_site_type_symbol
 _atom_site_label
 _atom_site_symmetry_multiplicity
 _atom_site_fract_x
 _atom_site_fract_y
 _atom_site_fract_z
 _atom_site_occupancy
  Zr  Zr0  1  0.48733168  0.49937251  0.50036484  1
  Zr  Zr1  1  0.79092292  0.54035068  0.25056092  1
  Zr  Zr2  1  0.52852439  0.75191886  0.27925245  1
  Zr  Zr3  1  0.03084331  0.74369630  0.78174164  1
  Zr  Zr4  1  0.70551820  0.96454997  0.75036796  1
  Zr  Zr5  1  0.99919529  0.51069540  0.00292373  1
  Zr  Zr6  1  0.25191522  0.29123877  0.03286857  1
  Zr  Zr7  1  0.50916907  0.99901919  0.00146081  1
  Zr  Zr8  1  0.00645821  0.99604031  0.49669933  1
  Zr  Zr9  1  0.75808547  0.21747601  0.46791613  1
  Zr  Zr10  1  0.74689601  0.71289615  0.97115932  1
  Zr  Zr11  1  0.24771563  0.78560006  0.53025888  1
  Zr  Zr12  1  0.28143030  0.02988225  0.24798379  1
  Zr  Zr13  1  0.46401009  0.25137209  0.71892144  1
  Zr  Zr14  1  0.97489467  0.25048220  0.22065880  1
  Zr  Zr15  1  0.21383381  0.45705747  0.74964033  1
  N  N16  1  0.23082624  0.26116757  0.26867021  1
  N  N17  1  0.46182912  0.72784928  0.48978942  1
  N  N18  1  0.75688662  0.77121717  0.22959787  1
  N  N19  1  0.49239446  0.96099793  0.23138221  1
  N  N20  1  0.04377569  0.52771789  0.27121045  1
  N  N21  1  0.99008731  0.76204033  0.53680760  1
  N  N22  1  0.27322968  0.54093968  0.03560036  1
  N  N23  1  0.23859177  0.22489298  0.77300980  1
  N  N24  1  0.03270505  0.77431274  0.04269514  1
  N  N25  1  0.95181971  0.46859564  0.72512713  1
  N  N26  1  0.00483777  0.23609932  0.46309622  1
  N  N27  1  0.73975493  0.97008931  0.00997315  1
  N  N28  1  0.51104578  0.04288337  0.77432762  1
  N  N29  1  0.22871573  0.98834931  0.45364851  1
  N  N30  1  0.72780198  0.45441489  0.96697909  1
  N  N31  1  0.46288916  0.51308749  0.73330183  1
  O  O32  1  0.53507448  0.47974258  0.25973203  1
  O  O33  1  0.71952359  0.27211360  0.23723450  1
  O  O34  1  0.77190480  0.73599821  0.72529118  1
  O  O35  1  0.96717811  0.22239432  0.94658624  1
  O  O36  1  0.77629486  0.02083944  0.55384226  1
  O  O37  1  0.54767934  0.27708464  0.51256937  1
  O  O38  1  0.27576104  0.73332706  0.77149153  1
  O  O39  1  0.26264851  0.03219702  0.98526231  1
