# generated using pymatgen
data_Y7HoO12
_symmetry_space_group_name_H-M   'P 1'
_cell_length_a   9.17693626
_cell_length_b   9.17693736
_cell_length_c   9.17693594
_cell_angle_alpha   109.48031362
_cell_angle_beta   109.46958996
_cell_angle_gamma   109.46377614
_symmetry_Int_Tables_number   1
_chemical_formula_structural   Y7HoO12
_chemical_formula_sum   'Y14 Ho2 O24'
_cell_volume   594.93728835
_cell_formula_units_Z   2
loop_
 _symmetry_equiv_pos_site_id
 _symmetry_equiv_pos_as_xyz
  1  'x, y, z'
loop_
 _atom_site_type_symbol
 _atom_site_label
 _atom_site_symmetry_multiplicity
 _atom_site_fract_x
 _atom_site_fract_y
 _atom_site_fract_z
 _atom_site_occupancy
  Y  Y0  1  0.21745002  0.24999980  0.46745002  1
  Y  Y1  1  0.99925612  0.49969602  0.49946925  1
  Y  Y2  1  0.75000007  0.96741032  0.21741050  1
  Y  Y3  1  0.25000002  0.53258929  0.28258892  1
  Y  Y4  1  0.53293685  0.78293684  0.74999976  1
  Y  Y5  1  0.03212890  0.28212886  0.74999977  1
  Y  Y6  1  0.99977325  0.00030409  0.99955978  1
  Y  Y7  1  0.50074382  0.00021330  0.50044029  1
  Y  Y8  1  0.50022680  0.49978658  0.00053030  1
  Y  Y9  1  0.28254967  0.74999986  0.03254971  1
  Y  Y10  1  0.46787125  0.21787090  0.25000010  1
  Y  Y11  1  0.96706315  0.71706314  0.25000024  1
  Y  Y12  1  0.75000030  0.46793073  0.71793074  1
  Y  Y13  1  0.24999994  0.03206919  0.78206932  1
  Ho  Ho14  1  0.71730738  0.25000022  0.96730748  1
  Ho  Ho15  1  0.78269271  0.74999980  0.53269244  1
  O  O16  1  0.48947228  0.72811667  0.95760810  1
  O  O17  1  0.27050816  0.53186389  0.54239088  1
  O  O18  1  0.04175552  0.77030796  0.53145245  1
  O  O19  1  0.23925390  0.27075604  0.22808719  1
  O  O20  1  0.26074629  0.48883417  0.03150187  1
  O  O21  1  0.45824412  0.98969675  0.72855204  1
  O  O22  1  0.22949186  0.77188337  0.26135622  1
  O  O23  1  0.01052765  0.96813602  0.23864415  1
  O  O24  1  0.03132875  0.54231200  0.77058962  1
  O  O25  1  0.77177864  0.04370922  0.01093599  1
  O  O26  1  0.27172225  0.26073855  0.72940962  1
  O  O27  1  0.53277305  0.76084260  0.48906406  1
  O  O28  1  0.46867120  0.23926149  0.51098366  1
  O  O29  1  0.22827764  0.95768746  0.98901621  1
  O  O30  1  0.72822138  0.73915735  0.27193034  1
  O  O31  1  0.96722702  0.45629092  0.22806897  1
  O  O32  1  0.98776144  0.02987144  0.75895508  1
  O  O33  1  0.77091629  0.22880604  0.74104505  1
  O  O34  1  0.54266881  0.01116607  0.27191279  1
  O  O35  1  0.73885512  0.51030320  0.96854720  1
  O  O36  1  0.76114477  0.72969213  0.77144804  1
  O  O37  1  0.95733128  0.22924397  0.46849765  1
  O  O38  1  0.72908374  0.47012851  0.45788964  1
  O  O39  1  0.51223859  0.27119421  0.04211056  1
