# generated using pymatgen
data_NaAl11O17
_symmetry_space_group_name_H-M   'P 1'
_cell_length_a   11.72793891
_cell_length_b   11.72793891
_cell_length_c   11.72793995
_cell_angle_alpha   27.58589009
_cell_angle_beta   27.58589009
_cell_angle_gamma   27.58588873
_symmetry_Int_Tables_number   1
_chemical_formula_structural   NaAl11O17
_chemical_formula_sum   'Na1 Al11 O17'
_cell_volume   305.35465348
_cell_formula_units_Z   1
loop_
 _symmetry_equiv_pos_site_id
 _symmetry_equiv_pos_as_xyz
  1  'x, y, z'
loop_
 _atom_site_type_symbol
 _atom_site_label
 _atom_site_symmetry_multiplicity
 _atom_site_fract_x
 _atom_site_fract_y
 _atom_site_fract_z
 _atom_site_occupancy
  Na  Na0  1  0.82483027  0.82483027  0.82483027  1
  Al  Al1  1  0.59262400  0.09676671  0.09676671  1
  Al  Al2  1  0.99994346  0.99994346  0.99994346  1
  Al  Al3  1  0.09676671  0.09676671  0.59262400  1
  Al  Al4  1  0.09676671  0.59262400  0.09676671  1
  Al  Al5  1  0.45049799  0.45049799  0.45049799  1
  Al  Al6  1  0.55015391  0.55015391  0.55015391  1
  Al  Al7  1  0.34988810  0.34988810  0.34988810  1
  Al  Al8  1  0.64933424  0.64933424  0.64933424  1
  Al  Al9  1  0.90363879  0.40533677  0.90363879  1
  Al  Al10  1  0.90363879  0.90363879  0.40533677  1
  Al  Al11  1  0.40533677  0.90363879  0.90363879  1
  O  O12  1  0.29681633  0.29681633  0.29681633  1
  O  O13  1  0.09436709  0.09436709  0.09436709  1
  O  O14  1  0.81104784  0.27861938  0.81104784  1
  O  O15  1  0.71928277  0.19061400  0.19061400  1
  O  O16  1  0.60124422  0.08997562  0.60124422  1
  O  O17  1  0.90596242  0.40307959  0.40307959  1
  O  O18  1  0.60124422  0.60124422  0.08997562  1
  O  O19  1  0.50024470  0.50024470  0.50024470  1
  O  O20  1  0.19061400  0.19061400  0.71928277  1
  O  O21  1  0.81104784  0.81104784  0.27861938  1
  O  O22  1  0.40307959  0.40307959  0.90596242  1
  O  O23  1  0.08997562  0.60124422  0.60124422  1
  O  O24  1  0.40307959  0.90596242  0.40307959  1
  O  O25  1  0.27861938  0.81104784  0.81104784  1
  O  O26  1  0.19061400  0.71928277  0.19061400  1
  O  O27  1  0.70332076  0.70332076  0.70332076  1
  O  O28  1  0.90433790  0.90433790  0.90433790  1
