# generated using pymatgen
data_Rb5FeO4
_symmetry_space_group_name_H-M   'P 1'
_cell_length_a   11.78626277
_cell_length_b   6.95816060
_cell_length_c   10.88918410
_cell_angle_alpha   82.49623427
_cell_angle_beta   90.00000000
_cell_angle_gamma   90.00000000
_symmetry_Int_Tables_number   1
_chemical_formula_structural   Rb5FeO4
_chemical_formula_sum   'Rb20 Fe4 O16'
_cell_volume   885.38205508
_cell_formula_units_Z   4
loop_
 _symmetry_equiv_pos_site_id
 _symmetry_equiv_pos_as_xyz
  1  'x, y, z'
loop_
 _atom_site_type_symbol
 _atom_site_label
 _atom_site_symmetry_multiplicity
 _atom_site_fract_x
 _atom_site_fract_y
 _atom_site_fract_z
 _atom_site_occupancy
  Rb  Rb0  1  0.91169409  0.22557630  0.01343374  1
  Rb  Rb1  1  0.58830591  0.72557630  0.01343374  1
  Rb  Rb2  1  0.17124225  0.17579654  0.14886627  1
  Rb  Rb3  1  0.32875775  0.67579654  0.14886627  1
  Rb  Rb4  1  0.70416340  -0.01464779  0.24089859  1
  Rb  Rb5  1  0.79583660  0.48535221  0.24089859  1
  Rb  Rb6  1  0.07036116  0.44603377  0.36777048  1
  Rb  Rb7  1  0.42963884  0.94603377  0.36777048  1
  Rb  Rb8  1  0.86114491  0.07822045  0.50660510  1
  Rb  Rb9  1  0.36114491  0.42177955  0.49339490  1
  Rb  Rb10  1  0.63885509  0.57822045  0.50660510  1
  Rb  Rb11  1  0.13885509  0.92177955  0.49339490  1
  Rb  Rb12  1  0.57036116  0.05396623  0.63222952  1
  Rb  Rb13  1  0.92963884  0.55396623  0.63222952  1
  Rb  Rb14  1  0.20416340  0.51464779  0.75910141  1
  Rb  Rb15  1  0.29583660  0.01464779  0.75910141  1
  Rb  Rb16  1  0.67124225  0.32420346  0.85113373  1
  Rb  Rb17  1  0.82875775  0.82420346  0.85113373  1
  Rb  Rb18  1  0.41169409  0.27442370  0.98656626  1
  Rb  Rb19  1  0.08830591  0.77442370  0.98656626  1
  Fe  Fe20  1  0.53276359  0.37569351  0.25317956  1
  Fe  Fe21  1  0.96723641  0.87569351  0.25317956  1
  Fe  Fe22  1  0.03276359  0.12430649  0.74682044  1
  Fe  Fe23  1  0.46723641  0.62430649  0.74682044  1
  O  O24  1  0.61233354  0.32951615  0.10610745  1
  O  O25  1  0.88766646  0.82951615  0.10610745  1
  O  O26  1  0.37613498  0.30516263  0.24276516  1
  O  O27  1  0.95930941  0.14519727  0.26935387  1
  O  O28  1  0.12386502  0.80516263  0.24276516  1
  O  O29  1  0.54069059  0.64519727  0.26935387  1
  O  O30  1  0.60257856  0.23585687  0.39511833  1
  O  O31  1  0.89742144  0.73585687  0.39511833  1
  O  O32  1  0.10257856  0.26414313  0.60488167  1
  O  O33  1  0.39742144  0.76414313  0.60488167  1
  O  O34  1  0.45930941  0.35480273  0.73064613  1
  O  O35  1  0.87613498  0.19483737  0.75723484  1
  O  O36  1  0.04069059  0.85480273  0.73064613  1
  O  O37  1  0.62386502  0.69483737  0.75723484  1
  O  O38  1  0.11233354  0.17048385  0.89389255  1
  O  O39  1  0.38766646  0.67048385  0.89389255  1
