# generated using pymatgen
data_V2O3F
_symmetry_space_group_name_H-M   'P 1'
_cell_length_a   5.44173833
_cell_length_b   5.44173833
_cell_length_c   8.75514531
_cell_angle_alpha   86.18201260
_cell_angle_beta   86.18201260
_cell_angle_gamma   72.71064420
_symmetry_Int_Tables_number   1
_chemical_formula_structural   V2O3F
_chemical_formula_sum   'V8 O12 F4'
_cell_volume   246.69982618
_cell_formula_units_Z   4
loop_
 _symmetry_equiv_pos_site_id
 _symmetry_equiv_pos_as_xyz
  1  'x, y, z'
loop_
 _atom_site_type_symbol
 _atom_site_label
 _atom_site_symmetry_multiplicity
 _atom_site_fract_x
 _atom_site_fract_y
 _atom_site_fract_z
 _atom_site_occupancy
  V  V0  1  0.86071835  0.86071835  0.64936450  1
  V  V1  1  0.13928165  0.13928165  0.35063550  1
  V  V2  1  0.50000000  0.50000000  0.50000000  1
  V  V3  1  0.75454088  0.75454088  0.27008182  1
  V  V4  1  0.00000000  -0.00000000  -0.00000000  1
  V  V5  1  0.39561406  0.39561406  0.13079149  1
  V  V6  1  0.60438594  0.60438594  0.86920851  1
  V  V7  1  0.24545912  0.24545912  0.72991818  1
  O  O8  1  0.05659585  0.45554211  0.24207175  1
  O  O9  1  0.47064024  0.47064024  0.72128261  1
  O  O10  1  0.97447683  0.97447683  0.22839672  1
  O  O11  1  0.73037874  0.73037874  0.48217362  1
  O  O12  1  0.26962126  0.26962126  0.51782638  1
  O  O13  1  0.02552317  0.02552317  0.77160328  1
  O  O14  1  0.52935976  0.52935976  0.27871739  1
  O  O15  1  0.45554211  0.05659585  0.24207175  1
  O  O16  1  0.94340415  0.54445789  0.75792825  1
  O  O17  1  0.70309868  0.29690132  -0.00000000  1
  O  O18  1  0.54445789  0.94340415  0.75792825  1
  O  O19  1  0.29690132  0.70309868  -0.00000000  1
  F  F20  1  0.19227882  0.80772118  0.50000000  1
  F  F21  1  0.80772118  0.19227882  0.50000000  1
  F  F22  1  0.22991284  0.22991284  0.97064920  1
  F  F23  1  0.77008716  0.77008716  0.02935080  1
