# generated using pymatgen
data_Li8V3P8O29
_symmetry_space_group_name_H-M   'P 1'
_cell_length_a   9.90819642
_cell_length_b   9.91427807
_cell_length_c   13.90040604
_cell_angle_alpha   89.95959861
_cell_angle_beta   89.52630032
_cell_angle_gamma   59.95762561
_symmetry_Int_Tables_number   1
_chemical_formula_structural   Li8V3P8O29
_chemical_formula_sum   'Li16 V6 P16 O58'
_cell_volume   1181.97954904
_cell_formula_units_Z   2
loop_
 _symmetry_equiv_pos_site_id
 _symmetry_equiv_pos_as_xyz
  1  'x, y, z'
loop_
 _atom_site_type_symbol
 _atom_site_label
 _atom_site_symmetry_multiplicity
 _atom_site_fract_x
 _atom_site_fract_y
 _atom_site_fract_z
 _atom_site_occupancy
  Li  Li0  1  0.90932156  0.76313671  0.06529049  1
  Li  Li1  1  0.76625145  0.89661241  0.56712941  1
  Li  Li2  1  0.90929992  0.32776870  0.56560582  1
  Li  Li3  1  0.67146348  0.66897678  0.38234314  1
  Li  Li4  1  0.67149245  0.65959412  0.88219098  1
  Li  Li5  1  0.76659195  0.33720261  0.06690424  1
  Li  Li6  1  0.32253560  0.90654119  0.06160272  1
  Li  Li7  1  0.32272061  0.77083942  0.56176068  1
  Li  Li8  1  0.22686512  0.68114359  0.93442731  1
  Li  Li9  1  0.35029795  0.33204782  0.61568962  1
  Li  Li10  1  0.35031072  0.31771141  0.11537412  1
  Li  Li11  1  0.09205563  0.67588098  0.43551691  1
  Li  Li12  1  0.22676880  0.09200790  0.43443706  1
  Li  Li13  1  0.09198599  0.23226173  0.93531891  1
  Li  Li14  1  0.90511251  0.02228549  0.98127844  1
  Li  Li15  1  0.90536854  0.07214157  0.48156213  1
  V  V16  1  0.56532644  0.43053440  0.25358918  1
  V  V17  1  0.43809456  0.56408097  0.74934854  1
  V  V18  1  0.56538339  0.00380394  0.75349212  1
  V  V19  1  0.43809074  0.99783656  0.24917768  1
  V  V20  1  0.00010994  0.56506592  0.24727975  1
  V  V21  1  0.00022920  0.43490725  0.74725876  1
  P  P22  1  0.90670848  0.77411374  0.84254836  1
  P  P23  1  0.77230526  0.91048583  0.34911431  1
  P  P24  1  0.90656012  0.31910065  0.34262751  1
  P  P25  1  0.66602323  0.66136060  0.12432696  1
  P  P26  1  0.66586468  0.67248788  0.62434558  1
  P  P27  1  0.77238663  0.31692736  0.84908541  1
  P  P28  1  0.69362756  0.21946174  0.66369171  1
  P  P29  1  0.31801372  0.91159693  0.84148664  1
  P  P30  1  0.69354207  0.08701009  0.16371799  1
  P  P31  1  0.31801440  0.77032037  0.34132813  1
  P  P32  1  0.23334147  0.67804479  0.15372150  1
  P  P33  1  0.32951856  0.33656136  0.37483254  1
  P  P34  1  0.32972399  0.33372636  0.87473271  1
  P  P35  1  0.09309422  0.67861585  0.65632675  1
  P  P36  1  0.23338797  0.08879743  0.65376775  1
  P  P37  1  0.09297885  0.22856607  0.15639943  1
  O  O38  1  0.99849900  0.76127122  0.56880653  1
  O  O39  1  0.92162556  0.75090350  0.33781442  1
  O  O40  1  0.80285822  0.98461894  0.08544218  1
  O  O41  1  0.74527221  0.92031292  0.84047778  1
  O  O42  1  0.89053365  0.62831260  0.83447237  1
  O  O43  1  0.81493945  0.66485223  0.15707659  1
  O  O44  1  0.89020268  0.48108636  0.33457402  1
  O  O45  1  0.99831908  0.24104180  0.06875276  1
  O  O46  1  0.92160290  0.32746161  0.83779694  1
  O  O47  1  0.66863933  0.81738599  0.67162050  1
  O  O48  1  0.63013358  0.88904007  0.33305027  1
  O  O49  1  0.81478664  0.52003018  0.65735278  1
  O  O50  1  0.66408718  0.64583085  0.01640681  1
  O  O51  1  0.66371851  0.68996783  0.51662369  1
  O  O52  1  0.66871208  0.51375821  0.17164724  1
  O  O53  1  0.48459055  0.88894667  0.83002365  1
  O  O54  1  0.51712448  0.80967312  0.16096672  1
  O  O55  1  0.74542175  0.33378867  0.34052968  1
  O  O56  1  0.77748863  0.20192263  0.76553426  1
  O  O57  1  0.80295135  0.21249632  0.58553165  1
  O  O58  1  0.77359919  0.24019870  0.94261000  1
  O  O59  1  0.63012388  0.48081709  0.83274052  1
  O  O60  1  0.51695425  0.67333622  0.66126196  1
  O  O61  1  0.66964204  0.25317853  0.15833576  1
  O  O62  1  0.48440434  0.62626515  0.32992822  1
  O  O63  1  0.32864715  0.91929042  0.34129871  1
  O  O64  1  0.77729263  0.02059128  0.26555343  1
  O  O65  1  0.77384800  0.98598441  0.44274779  1
  O  O66  1  0.24136868  0.99652582  0.56527862  1
  O  O67  1  0.66966561  0.07718328  0.65844568  1
  O  O68  1  0.53217081  0.36812142  0.66651768  1
  O  O69  1  0.32854348  0.75199279  0.84144650  1
  O  O70  1  0.47386532  0.34073610  0.32464235  1
  O  O71  1  0.37940240  0.51489490  0.16651431  1
  O  O72  1  0.24158060  0.76228380  0.06503359  1
  O  O73  1  0.23324839  0.76201403  0.43010502  1
  O  O74  1  0.21811638  0.78117237  0.24767365  1
  O  O75  1  0.25279145  0.66884544  0.65596524  1
  O  O76  1  0.47406378  0.18521633  0.82446950  1
  O  O77  1  0.53218320  0.09974658  0.16655242  1
  O  O78  1  0.33128719  0.48162629  0.83832391  1
  O  O79  1  0.33924530  0.31992516  0.98191788  1
  O  O80  1  0.33969651  0.34075236  0.48230272  1
  O  O81  1  0.18288877  0.48537921  0.33849051  1
  O  O82  1  0.37945009  0.10590967  0.66644384  1
  O  O83  1  0.33117034  0.18719338  0.33864075  1
  O  O84  1  0.08619186  0.66441522  0.15301240  1
  O  O85  1  0.00239755  0.78212680  0.75027299  1
  O  O86  1  0.99389419  0.77920409  0.93140035  1
  O  O87  1  0.11882672  0.51265356  0.66981465  1
  O  O88  1  0.18303778  0.33175011  0.83814965  1
  O  O89  1  0.11862206  0.36873584  0.17003652  1
  O  O90  1  0.25267499  0.07855575  0.15573603  1
  O  O91  1  0.23325595  0.00468727  0.93002913  1
  O  O92  1  0.21830516  0.00087263  0.74779118  1
  O  O93  1  0.08620627  0.24978002  0.65317893  1
  O  O94  1  0.99385955  0.22661059  0.43159996  1
  O  O95  1  0.00251954  0.21536417  0.25039754  1
