# generated using pymatgen
data_SnP2Cl8O3
_symmetry_space_group_name_H-M   'P 1'
_cell_length_a   8.98035500
_cell_length_b   9.24278107
_cell_length_c   11.04151360
_cell_angle_alpha   69.90646677
_cell_angle_beta   71.26402932
_cell_angle_gamma   65.38708799
_symmetry_Int_Tables_number   1
_chemical_formula_structural   SnP2Cl8O3
_chemical_formula_sum   'Sn2 P4 Cl16 O6'
_cell_volume   765.28114167
_cell_formula_units_Z   2
loop_
 _symmetry_equiv_pos_site_id
 _symmetry_equiv_pos_as_xyz
  1  'x, y, z'
loop_
 _atom_site_type_symbol
 _atom_site_label
 _atom_site_symmetry_multiplicity
 _atom_site_fract_x
 _atom_site_fract_y
 _atom_site_fract_z
 _atom_site_occupancy
  Sn  Sn0  1  0.90723700  0.79997100  0.23351400  1
  Sn  Sn1  1  0.08639000  0.20737400  0.77219200  1
  P  P2  1  0.79208300  0.20268800  0.06891800  1
  P  P3  1  0.22669700  0.80892500  0.36328900  1
  P  P4  1  0.20904200  0.79359200  0.93177200  1
  P  P5  1  0.77332100  0.19850800  0.63506800  1
  Cl  Cl6  1  0.53919100  0.26633800  0.09307500  1
  Cl  Cl7  1  0.78479500  0.21251700  0.44807300  1
  Cl  Cl8  1  0.04063900  0.50101800  0.29265000  1
  Cl  Cl9  1  0.45540000  0.73420100  0.91574200  1
  Cl  Cl10  1  0.23756700  0.18538800  0.92439400  1
  Cl  Cl11  1  0.27946300  0.00194600  0.25832800  1
  Cl  Cl12  1  0.31791100  0.16433700  0.58555100  1
  Cl  Cl13  1  0.81213500  0.40062900  0.09084200  1
  Cl  Cl14  1  0.41294900  0.61824100  0.31428700  1
  Cl  Cl15  1  0.19006600  0.59877900  0.90322100  1
  Cl  Cl16  1  0.71280000  0.99563500  0.74777800  1
  Cl  Cl17  1  0.58491900  0.39255100  0.68431300  1
  Cl  Cl18  1  0.68641600  0.83516800  0.41268100  1
  Cl  Cl19  1  0.76539300  0.80918700  0.07822300  1
  Cl  Cl20  1  0.20862000  0.78927100  0.54994800  1
  Cl  Cl21  1  0.95885000  0.48845800  0.71032800  1
  O  O22  1  0.94603800  0.17808700  0.65401900  1
  O  O23  1  0.85842700  0.05202600  0.17500300  1
  O  O24  1  0.14899600  0.94215700  0.82444200  1
  O  O25  1  0.05784600  0.82364800  0.34686500  1
  O  O26  1  0.12624100  0.80776800  0.07805600  1
  O  O27  1  0.87352000  0.18985200  0.92203200  1
