# generated using pymatgen
data_ZrO2
_symmetry_space_group_name_H-M   'P 1'
_cell_length_a   9.98216084
_cell_length_b   5.78364155
_cell_length_c   5.55401636
_cell_angle_alpha   90.00000000
_cell_angle_beta   90.00000000
_cell_angle_gamma   90.00000000
_symmetry_Int_Tables_number   1
_chemical_formula_structural   ZrO2
_chemical_formula_sum   'Zr8 O16'
_cell_volume   320.65136055
_cell_formula_units_Z   8
loop_
 _symmetry_equiv_pos_site_id
 _symmetry_equiv_pos_as_xyz
  1  'x, y, z'
loop_
 _atom_site_type_symbol
 _atom_site_label
 _atom_site_symmetry_multiplicity
 _atom_site_fract_x
 _atom_site_fract_y
 _atom_site_fract_z
 _atom_site_occupancy
  Zr  Zr0  1  0.12977585  0.09335512  0.85147336  1
  Zr  Zr1  1  0.12977585  0.40664488  0.35147336  1
  Zr  Zr2  1  0.37022415  0.59335512  0.85147336  1
  Zr  Zr3  1  0.37022415  0.90664488  0.35147336  1
  Zr  Zr4  1  0.62977585  0.09335512  0.64852664  1
  Zr  Zr5  1  0.62977585  0.40664488  0.14852664  1
  Zr  Zr6  1  0.87022415  0.59335512  0.64852664  1
  Zr  Zr7  1  0.87022415  0.90664488  0.14852664  1
  O  O8  1  0.01519937  0.15401810  0.17106532  1
  O  O9  1  0.01519937  0.34598190  0.67106532  1
  O  O10  1  0.23182205  0.12351408  0.52352833  1
  O  O11  1  0.23182205  0.37648592  0.02352833  1
  O  O12  1  0.26817795  0.62351408  0.52352833  1
  O  O13  1  0.26817795  0.87648592  0.02352833  1
  O  O14  1  0.48480063  0.84598190  0.67106532  1
  O  O15  1  0.48480063  0.65401810  0.17106532  1
  O  O16  1  0.51519937  0.15401810  0.32893468  1
  O  O17  1  0.51519937  0.34598190  0.82893468  1
  O  O18  1  0.73182205  0.12351408  0.97647167  1
  O  O19  1  0.73182205  0.37648592  0.47647167  1
  O  O20  1  0.76817795  0.62351408  0.97647167  1
  O  O21  1  0.76817795  0.87648592  0.47647167  1
  O  O22  1  0.98480063  0.65401810  0.32893468  1
  O  O23  1  0.98480063  0.84598190  0.82893468  1
