# generated using pymatgen
data_TeOs3(CO)9
_symmetry_space_group_name_H-M   'P 1'
_cell_length_a   13.01637517
_cell_length_b   13.01637517
_cell_length_c   13.04779778
_cell_angle_alpha   61.73780807
_cell_angle_beta   61.73780807
_cell_angle_gamma   68.98283341
_symmetry_Int_Tables_number   1
_chemical_formula_structural   TeOs3(CO)9
_chemical_formula_sum   'Te4 Os12 C36 O36'
_cell_volume   1689.04484200
_cell_formula_units_Z   4
loop_
 _symmetry_equiv_pos_site_id
 _symmetry_equiv_pos_as_xyz
  1  'x, y, z'
loop_
 _atom_site_type_symbol
 _atom_site_label
 _atom_site_symmetry_multiplicity
 _atom_site_fract_x
 _atom_site_fract_y
 _atom_site_fract_z
 _atom_site_occupancy
  Te  Te0  1  0.06975300  0.49551200  0.18881400  1
  Te  Te1  1  0.50448800  0.93024700  0.31118600  1
  Te  Te2  1  0.93024700  0.50448800  0.81118600  1
  Te  Te3  1  0.49551200  0.06975300  0.68881400  1
  Os  Os4  1  0.93546000  0.69652400  0.23859000  1
  Os  Os5  1  0.30347600  0.06454000  0.26141000  1
  Os  Os6  1  0.06454000  0.30347600  0.76141000  1
  Os  Os7  1  0.69652400  0.93546000  0.73859000  1
  Os  Os8  1  0.01120900  0.70276300  0.00823700  1
  Os  Os9  1  0.29723700  0.98879100  0.49176300  1
  Os  Os10  1  0.98879100  0.29723700  0.99176300  1
  Os  Os11  1  0.70276300  0.01120900  0.50823700  1
  Os  Os12  1  0.21026600  0.64497900  0.10157100  1
  Os  Os13  1  0.35502100  0.78973400  0.39842900  1
  Os  Os14  1  0.78973400  0.35502100  0.89842900  1
  Os  Os15  1  0.64497900  0.21026600  0.60157100  1
  C  C16  1  0.87545500  0.86086600  0.20092800  1
  C  C17  1  0.13913400  0.12454500  0.29907200  1
  C  C18  1  0.12454500  0.13913400  0.79907200  1
  C  C19  1  0.86086600  0.87545500  0.70092800  1
  C  C20  1  0.78855700  0.65135300  0.30541200  1
  C  C21  1  0.34864700  0.21144300  0.19458800  1
  C  C22  1  0.21144300  0.34864700  0.69458800  1
  C  C23  1  0.65135300  0.78855700  0.80541200  1
  C  C24  1  0.93071700  0.65469300  0.40476300  1
  C  C25  1  0.34530700  0.06928300  0.09523700  1
  C  C26  1  0.06928300  0.34530700  0.59523700  1
  C  C27  1  0.65469300  0.93071700  0.90476300  1
  C  C28  1  0.95945600  0.86757600  0.93524600  1
  C  C29  1  0.13242400  0.04054400  0.56475400  1
  C  C30  1  0.04054400  0.13242400  0.06475400  1
  C  C31  1  0.86757600  0.95945600  0.43524600  1
  C  C32  1  0.87811300  0.66476400  0.02249700  1
  C  C33  1  0.33523600  0.12188700  0.47750300  1
  C  C34  1  0.12188700  0.33523600  0.97750300  1
  C  C35  1  0.66476400  0.87811300  0.52249700  1
  C  C36  1  0.11742900  0.66497600  0.85951300  1
  C  C37  1  0.33502400  0.88257100  0.64048700  1
  C  C38  1  0.88257100  0.33502400  0.14048700  1
  C  C39  1  0.66497600  0.11742900  0.35951300  1
  C  C40  1  0.26762600  0.79037200  0.03849000  1
  C  C41  1  0.20962800  0.73237400  0.46151000  1
  C  C42  1  0.73237400  0.20962800  0.96151000  1
  C  C43  1  0.79037200  0.26762600  0.53849000  1
  C  C44  1  0.34027200  0.57831300  0.99171800  1
  C  C45  1  0.42168700  0.65972800  0.50828200  1
  C  C46  1  0.65972800  0.42168700  0.00828200  1
  C  C47  1  0.57831300  0.34027200  0.49171800  1
  C  C48  1  0.27662100  0.56179800  0.22495700  1
  C  C49  1  0.43820200  0.72337900  0.27504300  1
  C  C50  1  0.72337900  0.43820200  0.77504300  1
  C  C51  1  0.56179800  0.27662100  0.72495700  1
  O  O52  1  0.83754900  0.96182700  0.17952700  1
  O  O53  1  0.03817300  0.16245100  0.32047300  1
  O  O54  1  0.16245100  0.03817300  0.82047300  1
  O  O55  1  0.96182700  0.83754900  0.67952700  1
  O  O56  1  0.70019200  0.62162000  0.33741700  1
  O  O57  1  0.37838000  0.29980800  0.16258300  1
  O  O58  1  0.29980800  0.37838000  0.66258300  1
  O  O59  1  0.62162000  0.70019200  0.83741700  1
  O  O60  1  0.91351100  0.63061900  0.50903800  1
  O  O61  1  0.36938100  0.08648900  0.99096200  1
  O  O62  1  0.08648900  0.36938100  0.49096200  1
  O  O63  1  0.63061900  0.91351100  0.00903800  1
  O  O64  1  0.92363700  0.96815100  0.89302200  1
  O  O65  1  0.03184900  0.07636300  0.60697800  1
  O  O66  1  0.07636300  0.03184900  0.10697800  1
  O  O67  1  0.96815100  0.92363700  0.39302200  1
  O  O68  1  0.79029800  0.64102600  0.04209800  1
  O  O69  1  0.35897400  0.20970200  0.45790200  1
  O  O70  1  0.20970200  0.35897400  0.95790200  1
  O  O71  1  0.64102600  0.79029800  0.54209800  1
  O  O72  1  0.17442600  0.63926400  0.77134900  1
  O  O73  1  0.36073600  0.82557400  0.72865100  1
  O  O74  1  0.82557400  0.36073600  0.22865100  1
  O  O75  1  0.63926400  0.17442600  0.27134900  1
  O  O76  1  0.31591600  0.86671800  0.00547400  1
  O  O77  1  0.13328200  0.68408400  0.49452600  1
  O  O78  1  0.68408400  0.13328200  0.99452600  1
  O  O79  1  0.86671800  0.31591600  0.50547400  1
  O  O80  1  0.41363100  0.53600400  0.91995000  1
  O  O81  1  0.46399600  0.58636900  0.58004900  1
  O  O82  1  0.58636900  0.46399600  0.08004900  1
  O  O83  1  0.53600400  0.41363100  0.41995100  1
  O  O84  1  0.30749700  0.51132600  0.30950200  1
  O  O85  1  0.48867400  0.69250300  0.19049800  1
  O  O86  1  0.69250300  0.48867400  0.69049800  1
  O  O87  1  0.51132600  0.30749700  0.80950200  1
