# generated using pymatgen
data_Li3MnO3
_symmetry_space_group_name_H-M   'P 1'
_cell_length_a   3.47171089
_cell_length_b   8.93057027
_cell_length_c   8.92961717
_cell_angle_alpha   90.00006345
_cell_angle_beta   90.00001900
_cell_angle_gamma   90.00000065
_symmetry_Int_Tables_number   1
_chemical_formula_structural   Li3MnO3
_chemical_formula_sum   'Li12 Mn4 O12'
_cell_volume   276.85704808
_cell_formula_units_Z   4
loop_
 _symmetry_equiv_pos_site_id
 _symmetry_equiv_pos_as_xyz
  1  'x, y, z'
loop_
 _atom_site_type_symbol
 _atom_site_label
 _atom_site_symmetry_multiplicity
 _atom_site_fract_x
 _atom_site_fract_y
 _atom_site_fract_z
 _atom_site_occupancy
  Li  Li0  1  0.00000054  0.17295600  0.17294632  1
  Li  Li1  1  0.49999981  0.32704347  0.67294683  1
  Li  Li2  1  0.49999992  0.67295395  0.32705254  1
  Li  Li3  1  -0.00000073  0.82704612  0.82705343  1
  Li  Li4  1  0.50000047  0.09487309  0.35524894  1
  Li  Li5  1  -0.00000016  0.14473752  0.59486848  1
  Li  Li6  1  0.50000024  0.35526651  0.09486846  1
  Li  Li7  1  0.00000062  0.40512770  0.85525199  1
  Li  Li8  1  0.00000048  0.59487603  0.14474820  1
  Li  Li9  1  0.50000012  0.64474618  0.90512879  1
  Li  Li10  1  0.00000045  0.85525725  0.40512823  1
  Li  Li11  1  0.49999954  0.90512385  0.64474783  1
  Mn  Mn12  1  0.99999716  0.61490891  0.61491207  1
  Mn  Mn13  1  0.50000083  0.88509059  0.11491557  1
  Mn  Mn14  1  0.50000132  0.11490181  0.88509107  1
  Mn  Mn15  1  -0.00000008  0.38509819  0.38508543  1
  O  O16  1  0.50000079  0.10187622  0.10193117  1
  O  O17  1  0.99999914  0.39812083  0.60192498  1
  O  O18  1  0.99999937  0.60188420  0.39807163  1
  O  O19  1  0.50000143  0.89811404  0.89807576  1
  O  O20  1  0.49999981  0.11259327  0.67866440  1
  O  O21  1  0.00000075  0.17870453  0.38741182  1
  O  O22  1  0.50000094  0.32129281  0.88741460  1
  O  O23  1  0.00000030  0.38740670  0.17865989  1
  O  O24  1  -0.00000004  0.61259730  0.82133775  1
  O  O25  1  0.50000054  0.67869750  0.11258836  1
  O  O26  1  0.99999895  0.82130019  0.61258648  1
  O  O27  1  0.50000048  0.88740223  0.32133999  1
