# generated using pymatgen
data_VOF2
_symmetry_space_group_name_H-M   'P 1'
_cell_length_a   5.07938657
_cell_length_b   5.09258924
_cell_length_c   13.09008859
_cell_angle_alpha   89.90800377
_cell_angle_beta   90.55968150
_cell_angle_gamma   119.51270126
_symmetry_Int_Tables_number   1
_chemical_formula_structural   VOF2
_chemical_formula_sum   'V6 O6 F12'
_cell_volume   294.65317470
_cell_formula_units_Z   6
loop_
 _symmetry_equiv_pos_site_id
 _symmetry_equiv_pos_as_xyz
  1  'x, y, z'
loop_
 _atom_site_type_symbol
 _atom_site_label
 _atom_site_symmetry_multiplicity
 _atom_site_fract_x
 _atom_site_fract_y
 _atom_site_fract_z
 _atom_site_occupancy
  V  V0  1  0.96732087  0.98163179  0.50407911  1
  V  V1  1  0.98352704  0.01184603  0.99641644  1
  V  V2  1  0.34681065  0.72832853  0.16778606  1
  V  V3  1  0.65577581  0.35730105  0.33922335  1
  V  V4  1  0.37113184  0.66662599  0.67042359  1
  V  V5  1  0.67427809  0.33507849  0.83336050  1
  O  O6  1  0.25489276  0.91687461  0.08504602  1
  O  O7  1  0.57758543  0.58504885  0.75096331  1
  O  O8  1  0.74371408  0.65428366  0.41526043  1
  O  O9  1  0.56925713  -0.00904398  0.25026389  1
  O  O10  1  0.67928669  0.91442986  0.58177971  1
  O  O11  1  0.76611068  0.08054804  0.91604917  1
  F  F12  1  0.38896418  0.40575142  0.24702829  1
  F  F13  1  0.98623558  0.58646354  0.24370563  1
  F  F14  1  0.08809299  0.73701021  0.58292095  1
  F  F15  1  0.35275878  0.27318611  0.92218183  1
  F  F16  1  0.32326632  0.06192439  0.41692436  1
  F  F17  1  0.99103683  0.39574138  0.74339031  1
  F  F18  1  0.07238171  0.33084105  0.08834115  1
  F  F19  1  0.39415336  -0.00083137  0.75039218  1
  F  F20  1  0.27548834  0.33276291  0.57924031  1
  F  F21  1  0.94605855  0.66648542  0.91657953  1
  F  F22  1  0.65825800  0.73084903  0.08585398  1
  F  F23  1  0.93361129  0.25685897  0.41279092  1
