# generated using pymatgen
data_K2Sn2O3
_symmetry_space_group_name_H-M   'P 1'
_cell_length_a   5.87213430
_cell_length_b   5.87213549
_cell_length_c   5.87213452
_cell_angle_alpha   61.64375596
_cell_angle_beta   61.64374503
_cell_angle_gamma   61.64375371
_symmetry_Int_Tables_number   1
_chemical_formula_structural   K2Sn2O3
_chemical_formula_sum   'K2 Sn2 O3'
_cell_volume   148.45452751
_cell_formula_units_Z   1
loop_
 _symmetry_equiv_pos_site_id
 _symmetry_equiv_pos_as_xyz
  1  'x, y, z'
loop_
 _atom_site_type_symbol
 _atom_site_label
 _atom_site_symmetry_multiplicity
 _atom_site_fract_x
 _atom_site_fract_y
 _atom_site_fract_z
 _atom_site_occupancy
  K  K0  1  0.50000000  0.50000000  0.50000000  1
  K  K1  1  -0.00000000  0.00000000  -0.00000000  1
  Sn  Sn2  1  0.24228268  0.24228268  0.24228268  1
  Sn  Sn3  1  0.75771732  0.75771732  0.75771732  1
  O  O4  1  -0.00000000  0.50000000  -0.00000000  1
  O  O5  1  -0.00000000  0.00000000  0.50000000  1
  O  O6  1  0.50000000  0.00000000  -0.00000000  1
