# generated using pymatgen
data_Tb2WO6
_symmetry_space_group_name_H-M   'P 1'
_cell_length_a   5.36084613
_cell_length_b   7.65036771
_cell_length_c   11.40238905
_cell_angle_alpha   75.59615551
_cell_angle_beta   90.00000000
_cell_angle_gamma   90.00000000
_symmetry_Int_Tables_number   1
_chemical_formula_structural   Tb2WO6
_chemical_formula_sum   'Tb8 W4 O24'
_cell_volume   452.94027399
_cell_formula_units_Z   4
loop_
 _symmetry_equiv_pos_site_id
 _symmetry_equiv_pos_as_xyz
  1  'x, y, z'
loop_
 _atom_site_type_symbol
 _atom_site_label
 _atom_site_symmetry_multiplicity
 _atom_site_fract_x
 _atom_site_fract_y
 _atom_site_fract_z
 _atom_site_occupancy
  Tb  Tb0  1  0.73746601  0.00000000  0.75000000  1
  Tb  Tb1  1  0.26253399  0.00000000  0.25000000  1
  Tb  Tb2  1  0.18812743  0.79762958  0.57730243  1
  Tb  Tb3  1  0.81187257  0.79762958  0.07730243  1
  Tb  Tb4  1  0.68271733  0.50000000  0.75000000  1
  Tb  Tb5  1  0.31728267  0.50000000  0.25000000  1
  Tb  Tb6  1  0.18812743  0.20237042  0.92269757  1
  Tb  Tb7  1  0.81187257  0.20237042  0.42269757  1
  W  W8  1  0.25351379  0.72155297  0.88648673  1
  W  W9  1  0.74648621  0.72155297  0.38648673  1
  W  W10  1  0.25351379  0.27844703  0.61351327  1
  W  W11  1  0.74648621  0.27844703  0.11351327  1
  O  O12  1  0.03890773  0.93677631  0.89624519  1
  O  O13  1  0.52189136  0.85160879  0.93002926  1
  O  O14  1  0.96109227  0.93677631  0.39624519  1
  O  O15  1  0.46224222  0.78523032  0.72913033  1
  O  O16  1  0.47810864  0.85160879  0.43002926  1
  O  O17  1  0.98659747  0.71015518  0.77202327  1
  O  O18  1  0.53775778  0.78523032  0.22913033  1
  O  O19  1  0.84755449  0.63441793  0.54747687  1
  O  O20  1  0.35884830  0.49079268  0.88768224  1
  O  O21  1  0.01340253  0.71015518  0.27202327  1
  O  O22  1  0.35884830  0.50920732  0.61231776  1
  O  O23  1  0.84755449  0.36558207  0.95252313  1
  O  O24  1  0.15244551  0.63441793  0.04747687  1
  O  O25  1  0.64115170  0.49079268  0.38768224  1
  O  O26  1  0.98659747  0.28984482  0.72797673  1
  O  O27  1  0.64115170  0.50920732  0.11231776  1
  O  O28  1  0.15244551  0.36558207  0.45252313  1
  O  O29  1  0.46224222  0.21476968  0.77086967  1
  O  O30  1  0.01340253  0.28984482  0.22797673  1
  O  O31  1  0.52189136  0.14839121  0.56997074  1
  O  O32  1  0.53775778  0.21476968  0.27086967  1
  O  O33  1  0.03890773  0.06322369  0.60375481  1
  O  O34  1  0.47810864  0.14839121  0.06997074  1
  O  O35  1  0.96109227  0.06322369  0.10375481  1
