# generated using pymatgen
data_Zn(NO3)2
_symmetry_space_group_name_H-M   'P 1'
_cell_length_a   7.48371387
_cell_length_b   7.48371387
_cell_length_c   7.48371387
_cell_angle_alpha   90.00000000
_cell_angle_beta   90.00000000
_cell_angle_gamma   90.00000000
_symmetry_Int_Tables_number   1
_chemical_formula_structural   Zn(NO3)2
_chemical_formula_sum   'Zn4 N8 O24'
_cell_volume   419.13267910
_cell_formula_units_Z   4
loop_
 _symmetry_equiv_pos_site_id
 _symmetry_equiv_pos_as_xyz
  1  'x, y, z'
loop_
 _atom_site_type_symbol
 _atom_site_label
 _atom_site_symmetry_multiplicity
 _atom_site_fract_x
 _atom_site_fract_y
 _atom_site_fract_z
 _atom_site_occupancy
  Zn  Zn0  1  0.50000000  0.50000000  0.50000000  1
  Zn  Zn1  1  0.50000000  -0.00000000  0.00000000  1
  Zn  Zn2  1  0.00000000  0.50000000  0.00000000  1
  Zn  Zn3  1  0.00000000  -0.00000000  0.50000000  1
  N  N4  1  0.67742692  0.17742692  0.32257308  1
  N  N5  1  0.67742692  0.32257308  0.82257308  1
  N  N6  1  0.82257308  0.82257308  0.82257308  1
  N  N7  1  0.82257308  0.67742692  0.32257308  1
  N  N8  1  0.17742692  0.17742692  0.17742692  1
  N  N9  1  0.17742692  0.32257308  0.67742692  1
  N  N10  1  0.32257308  0.67742692  0.17742692  1
  N  N11  1  0.32257308  0.82257308  0.67742692  1
  O  O12  1  0.55611234  0.20680913  0.81632380  1
  O  O13  1  0.55611234  0.29319087  0.31632380  1
  O  O14  1  0.68367620  0.44388766  0.70680913  1
  O  O15  1  0.68367620  0.05611234  0.20680913  1
  O  O16  1  0.70680913  0.68367620  0.44388766  1
  O  O17  1  0.70680913  0.81632380  0.94388766  1
  O  O18  1  0.79319087  0.31632380  0.94388766  1
  O  O19  1  0.79319087  0.18367620  0.44388766  1
  O  O20  1  0.81632380  0.94388766  0.70680913  1
  O  O21  1  0.81632380  0.55611234  0.20680913  1
  O  O22  1  0.94388766  0.70680913  0.81632380  1
  O  O23  1  0.94388766  0.79319087  0.31632380  1
  O  O24  1  0.05611234  0.20680913  0.68367620  1
  O  O25  1  0.05611234  0.29319087  0.18367620  1
  O  O26  1  0.18367620  0.44388766  0.79319087  1
  O  O27  1  0.18367620  0.05611234  0.29319087  1
  O  O28  1  0.20680913  0.68367620  0.05611234  1
  O  O29  1  0.20680913  0.81632380  0.55611234  1
  O  O30  1  0.29319087  0.18367620  0.05611234  1
  O  O31  1  0.29319087  0.31632380  0.55611234  1
  O  O32  1  0.31632380  0.55611234  0.29319087  1
  O  O33  1  0.31632380  0.94388766  0.79319087  1
  O  O34  1  0.44388766  0.70680913  0.68367620  1
  O  O35  1  0.44388766  0.79319087  0.18367620  1
