# generated using pymatgen
data_LuWO4
_symmetry_space_group_name_H-M   'P 1'
_cell_length_a   5.04422052
_cell_length_b   5.37950499
_cell_length_c   5.16948899
_cell_angle_alpha   89.99982940
_cell_angle_beta   83.08692034
_cell_angle_gamma   90.00029442
_symmetry_Int_Tables_number   1
_chemical_formula_structural   LuWO4
_chemical_formula_sum   'Lu2 W2 O8'
_cell_volume   139.25637706
_cell_formula_units_Z   2
loop_
 _symmetry_equiv_pos_site_id
 _symmetry_equiv_pos_as_xyz
  1  'x, y, z'
loop_
 _atom_site_type_symbol
 _atom_site_label
 _atom_site_symmetry_multiplicity
 _atom_site_fract_x
 _atom_site_fract_y
 _atom_site_fract_z
 _atom_site_occupancy
  Lu  Lu0  1  0.49999884  0.26502513  0.75000238  1
  Lu  Lu1  1  0.50000194  0.73499389  0.24999800  1
  W  W2  1  -0.00000217  0.80251511  0.75000727  1
  W  W3  1  -0.00000462  0.19747599  0.25000189  1
  O  O4  1  0.23894158  0.06563974  0.48932842  1
  O  O5  1  0.23895665  0.93435741  0.98938242  1
  O  O6  1  0.25992298  0.58163649  0.60345650  1
  O  O7  1  0.25989480  0.41836346  0.10345924  1
  O  O8  1  0.74007757  0.58163822  0.89653999  1
  O  O9  1  0.74010309  0.41835966  0.39653606  1
  O  O10  1  0.76106425  0.06564019  0.01067127  1
  O  O11  1  0.76104608  0.93435472  0.51061757  1
