# generated using pymatgen
data_Ba3Ga4O9
_symmetry_space_group_name_H-M   'P 1'
_cell_length_a   7.06871494
_cell_length_b   8.31941924
_cell_length_c   10.00534883
_cell_angle_alpha   85.37535404
_cell_angle_beta   73.94837389
_cell_angle_gamma   73.76698388
_symmetry_Int_Tables_number   1
_chemical_formula_structural   Ba3Ga4O9
_chemical_formula_sum   'Ba6 Ga8 O18'
_cell_volume   542.90445524
_cell_formula_units_Z   2
loop_
 _symmetry_equiv_pos_site_id
 _symmetry_equiv_pos_as_xyz
  1  'x, y, z'
loop_
 _atom_site_type_symbol
 _atom_site_label
 _atom_site_symmetry_multiplicity
 _atom_site_fract_x
 _atom_site_fract_y
 _atom_site_fract_z
 _atom_site_occupancy
  Ba  Ba0  1  0.05224860  0.05627342  0.68811640  1
  Ba  Ba1  1  0.17829906  0.56311167  0.65775634  1
  Ba  Ba2  1  0.29956184  0.21862806  0.96556243  1
  Ba  Ba3  1  0.70043816  0.78137194  0.03443757  1
  Ba  Ba4  1  0.82170094  0.43688833  0.34224366  1
  Ba  Ba5  1  0.94775140  0.94372658  0.31188360  1
  Ga  Ga6  1  0.40756130  0.18006165  0.30359074  1
  Ga  Ga7  1  0.33397298  0.55780421  0.22863114  1
  Ga  Ga8  1  0.74159048  0.26674895  0.06743870  1
  Ga  Ga9  1  0.56488646  0.18254227  0.58728020  1
  Ga  Ga10  1  0.43511354  0.81745773  0.41271980  1
  Ga  Ga11  1  0.25840952  0.73325105  0.93256130  1
  Ga  Ga12  1  0.66602702  0.44219579  0.77136886  1
  Ga  Ga13  1  0.59243870  0.81993835  0.69640926  1
  O  O14  1  0.26333106  0.02921594  0.38934875  1
  O  O15  1  0.22262653  0.37841346  0.27476705  1
  O  O16  1  0.19742798  0.71797776  0.12377804  1
  O  O17  1  0.57318931  0.11849197  0.12223275  1
  O  O18  1  0.03432767  0.79979204  0.86526113  1
  O  O19  1  0.30568641  0.23501327  0.69722048  1
  O  O20  1  0.28385408  0.67229182  0.39240036  1
  O  O21  1  0.58795550  0.20713529  0.39766280  1
  O  O22  1  0.60982182  0.48411884  0.13957313  1
  O  O23  1  0.39017818  0.51588116  0.86042687  1
  O  O24  1  0.41204450  0.79286471  0.60233720  1
  O  O25  1  0.71614592  0.32770818  0.60759964  1
  O  O26  1  0.69431359  0.76498673  0.30277952  1
  O  O27  1  0.96567233  0.20020796  0.13473887  1
  O  O28  1  0.42681069  0.88150803  0.87776725  1
  O  O29  1  0.80257202  0.28202224  0.87622196  1
  O  O30  1  0.77737347  0.62158654  0.72523295  1
  O  O31  1  0.73666894  0.97078406  0.61065125  1
