# generated using pymatgen
data_V3OF11
_symmetry_space_group_name_H-M   'P 1'
_cell_length_a   5.08593027
_cell_length_b   5.34766181
_cell_length_c   14.04180284
_cell_angle_alpha   99.60421389
_cell_angle_beta   89.97793395
_cell_angle_gamma   90.17811809
_symmetry_Int_Tables_number   1
_chemical_formula_structural   V3OF11
_chemical_formula_sum   'V6 O2 F22'
_cell_volume   376.55192339
_cell_formula_units_Z   2
loop_
 _symmetry_equiv_pos_site_id
 _symmetry_equiv_pos_as_xyz
  1  'x, y, z'
loop_
 _atom_site_type_symbol
 _atom_site_label
 _atom_site_symmetry_multiplicity
 _atom_site_fract_x
 _atom_site_fract_y
 _atom_site_fract_z
 _atom_site_occupancy
  V  V0  1  0.03342246  0.61165583  0.83028855  1
  V  V1  1  0.50000000  0.50000000  0.50000000  1
  V  V2  1  0.96657754  0.38834417  0.16971145  1
  V  V3  1  0.51658092  0.14112250  0.83481391  1
  V  V4  1  0.00000000  0.00000000  0.50000000  1
  V  V5  1  0.48341908  0.85887750  0.16518609  1
  O  O6  1  0.78905515  0.64377396  0.19378081  1
  O  O7  1  0.21094485  0.35622604  0.80621919  1
  F  F8  1  0.72072260  0.45920022  0.86413500  1
  F  F9  1  0.27927740  0.54079978  0.13586500  1
  F  F10  1  0.90012951  0.63426896  0.71730248  1
  F  F11  1  0.60206577  0.46710877  0.38026074  1
  F  F12  1  0.89941509  0.28908510  0.04749087  1
  F  F13  1  0.39793423  0.53289123  0.61973926  1
  F  F14  1  0.09987049  0.36573104  0.28269752  1
  F  F15  1  0.40085230  0.20183945  0.95304750  1
  F  F16  1  0.80487291  0.31239607  0.52894041  1
  F  F17  1  0.68929716  0.16170283  0.19546307  1
  F  F18  1  0.80716722  0.96353130  0.86205050  1
  F  F19  1  0.30505834  0.18739549  0.47031661  1
  F  F20  1  0.19283278  0.03646870  0.13794950  1
  F  F21  1  0.59948488  0.13198995  0.71387318  1
  F  F22  1  0.89787771  0.96503119  0.38022811  1
  F  F23  1  0.59914770  0.79816055  0.04695250  1
  F  F24  1  0.10212229  0.03496881  0.61977189  1
  F  F25  1  0.40051512  0.86801005  0.28612682  1
  F  F26  1  0.10058491  0.71091490  0.95250913  1
  F  F27  1  0.69494166  0.81260451  0.52968339  1
  F  F28  1  0.31070284  0.83829717  0.80453693  1
  F  F29  1  0.19512709  0.68760393  0.47105959  1
