# generated using pymatgen
data_RbAuO2
_symmetry_space_group_name_H-M   'P 1'
_cell_length_a   4.66173971
_cell_length_b   6.04778681
_cell_length_c   6.57306143
_cell_angle_alpha   90.00000000
_cell_angle_beta   110.76951328
_cell_angle_gamma   90.00000000
_symmetry_Int_Tables_number   1
_chemical_formula_structural   RbAuO2
_chemical_formula_sum   'Rb2 Au2 O4'
_cell_volume   173.27285401
_cell_formula_units_Z   2
loop_
 _symmetry_equiv_pos_site_id
 _symmetry_equiv_pos_as_xyz
  1  'x, y, z'
loop_
 _atom_site_type_symbol
 _atom_site_label
 _atom_site_symmetry_multiplicity
 _atom_site_fract_x
 _atom_site_fract_y
 _atom_site_fract_z
 _atom_site_occupancy
  Rb  Rb0  1  0.30000582  0.75000000  0.60001163  1
  Rb  Rb1  1  0.69999418  0.25000000  0.39998837  1
  Au  Au2  1  0.99743682  0.25000000  0.99487265  1
  Au  Au3  1  0.00256318  0.75000000  0.00512735  1
  O  O4  1  0.89192236  0.50492612  0.78384272  1
  O  O5  1  0.10807764  0.49507388  0.21615728  1
  O  O6  1  0.89192236  0.99507388  0.78384272  1
  O  O7  1  0.10807764  0.00492612  0.21615728  1
