# generated using pymatgen
data_Sr3(AsO4)2
_symmetry_space_group_name_H-M   'P 1'
_cell_length_a   10.42159720
_cell_length_b   5.99717440
_cell_length_c   9.41866250
_cell_angle_alpha   50.94157394
_cell_angle_beta   90.00000000
_cell_angle_gamma   90.00000000
_symmetry_Int_Tables_number   1
_chemical_formula_structural   Sr3(AsO4)2
_chemical_formula_sum   'Sr6 As4 O16'
_cell_volume   457.10270835
_cell_formula_units_Z   2
loop_
 _symmetry_equiv_pos_site_id
 _symmetry_equiv_pos_as_xyz
  1  'x, y, z'
loop_
 _atom_site_type_symbol
 _atom_site_label
 _atom_site_symmetry_multiplicity
 _atom_site_fract_x
 _atom_site_fract_y
 _atom_site_fract_z
 _atom_site_occupancy
  Sr  Sr0  1  0.00000000  0.50000000  0.50000000  1
  Sr  Sr1  1  0.35911423  0.34163667  0.67894957  1
  Sr  Sr2  1  0.85911423  0.65836333  0.82105043  1
  Sr  Sr3  1  0.50000000  0.50000000  -0.00000000  1
  Sr  Sr4  1  0.14088577  0.34163667  0.17894957  1
  Sr  Sr5  1  0.64088577  0.65836333  0.32105043  1
  As  As6  1  0.30454326  0.82611452  0.17510248  1
  As  As7  1  0.80454326  0.17388548  0.32489752  1
  As  As8  1  0.19545674  0.82611452  0.67510248  1
  As  As9  1  0.69545674  0.17388548  0.82489752  1
  O  O10  1  0.85048076  0.28533827  0.77478774  1
  O  O11  1  0.40630447  0.60138263  0.35174619  1
  O  O12  1  0.65131175  0.17196182  0.00060510  1
  O  O13  1  0.82138206  0.84018261  0.39032632  1
  O  O14  1  0.15131175  0.82803818  0.49939490  1
  O  O15  1  0.35048076  0.71466173  0.72521226  1
  O  O16  1  0.32138206  0.15981739  0.10967368  1
  O  O17  1  0.90630447  0.39861737  0.14825381  1
  O  O18  1  0.09369553  0.60138263  0.85174619  1
  O  O19  1  0.67861794  0.84018261  0.89032632  1
  O  O20  1  0.64951924  0.28533827  0.27478774  1
  O  O21  1  0.84868825  0.17196182  0.50060510  1
  O  O22  1  0.17861794  0.15981739  0.60967368  1
  O  O23  1  0.34868825  0.82803818  0.99939490  1
  O  O24  1  0.59369553  0.39861737  0.64825381  1
  O  O25  1  0.14951924  0.71466173  0.22521226  1
