# generated using pymatgen
data_NbOF3
_symmetry_space_group_name_H-M   'P 1'
_cell_length_a   4.97771280
_cell_length_b   5.76975269
_cell_length_c   9.32762494
_cell_angle_alpha   90.00000000
_cell_angle_beta   90.00000000
_cell_angle_gamma   90.00000000
_symmetry_Int_Tables_number   1
_chemical_formula_structural   NbOF3
_chemical_formula_sum   'Nb4 O4 F12'
_cell_volume   267.89099093
_cell_formula_units_Z   4
loop_
 _symmetry_equiv_pos_site_id
 _symmetry_equiv_pos_as_xyz
  1  'x, y, z'
loop_
 _atom_site_type_symbol
 _atom_site_label
 _atom_site_symmetry_multiplicity
 _atom_site_fract_x
 _atom_site_fract_y
 _atom_site_fract_z
 _atom_site_occupancy
  Nb  Nb0  1  0.15028089  0.91575848  0.35796232  1
  Nb  Nb1  1  0.34971911  0.08424152  0.85796232  1
  Nb  Nb2  1  0.84971911  0.41575848  0.14203768  1
  Nb  Nb3  1  0.65028089  0.58424152  0.64203768  1
  O  O4  1  0.51340744  0.87215454  0.74376262  1
  O  O5  1  0.98659256  0.12784546  0.24376262  1
  O  O6  1  0.48659256  0.37215454  0.75623738  1
  O  O7  1  0.01340744  0.62784546  0.25623738  1
  F  F8  1  0.85008837  0.84330962  0.49718472  1
  F  F9  1  0.20825574  0.88215459  -0.00116005  1
  F  F10  1  0.01860501  0.11831254  0.76224165  1
  F  F11  1  0.48139499  0.88168746  0.26224165  1
  F  F12  1  0.29174426  0.11784541  0.49883995  1
  F  F13  1  0.64991163  0.15669038  -0.00281528  1
  F  F14  1  0.14991163  0.34330962  0.00281528  1
  F  F15  1  0.79174426  0.38215459  0.50116005  1
  F  F16  1  0.98139499  0.61831254  0.73775835  1
  F  F17  1  0.51860501  0.38168746  0.23775835  1
  F  F18  1  0.70825574  0.61784541  0.00116005  1
  F  F19  1  0.35008837  0.65669038  0.50281528  1
