# generated using pymatgen
data_CeTh9O20
_symmetry_space_group_name_H-M   'P 1'
_cell_length_a   6.84092640
_cell_length_b   7.89942657
_cell_length_c   8.83084641
_cell_angle_alpha   102.92416903
_cell_angle_beta   97.42036373
_cell_angle_gamma   106.77791563
_symmetry_Int_Tables_number   1
_chemical_formula_structural   CeTh9O20
_chemical_formula_sum   'Ce1 Th9 O20'
_cell_volume   435.62412560
_cell_formula_units_Z   1
loop_
 _symmetry_equiv_pos_site_id
 _symmetry_equiv_pos_as_xyz
  1  'x, y, z'
loop_
 _atom_site_type_symbol
 _atom_site_label
 _atom_site_symmetry_multiplicity
 _atom_site_fract_x
 _atom_site_fract_y
 _atom_site_fract_z
 _atom_site_occupancy
  Ce  Ce0  1  -0.00000000  0.50000000  0.00000000  1
  Th  Th1  1  0.19944201  0.89898710  0.39872923  1
  Th  Th2  1  0.19942274  0.40006290  0.39867279  1
  Th  Th3  1  0.59975643  0.69911367  0.19925931  1
  Th  Th4  1  0.60127565  0.20085646  0.19952923  1
  Th  Th5  1  -0.00000000  -0.00000000  0.00000000  1
  Th  Th6  1  0.80055799  0.10101290  0.60127077  1
  Th  Th7  1  0.80057726  0.59993710  0.60132721  1
  Th  Th8  1  0.40024357  0.30088633  0.80074069  1
  Th  Th9  1  0.39872435  0.79914354  0.80047077  1
  O  O10  1  0.84974657  0.32501192  0.44983876  1
  O  O11  1  0.15025343  0.67498808  0.55016124  1
  O  O12  1  0.14998037  0.17513179  0.55019869  1
  O  O13  1  0.85001963  0.82486821  0.44980131  1
  O  O14  1  0.54958689  0.47492231  0.34963432  1
  O  O15  1  0.54986861  0.97476033  0.34973862  1
  O  O16  1  0.24716679  0.62334350  0.24706852  1
  O  O17  1  0.95030224  0.77186044  0.14804040  1
  O  O18  1  0.24913629  0.12489528  0.24960498  1
  O  O19  1  0.95020920  0.27728191  0.14833550  1
  O  O20  1  0.34647631  0.57407430  0.95071139  1
  O  O21  1  0.34955524  0.07506344  0.94986388  1
  O  O22  1  0.04969776  0.22813956  0.85195960  1
  O  O23  1  0.65044476  0.92493656  0.05013612  1
  O  O24  1  0.65352369  0.42592570  0.04928861  1
  O  O25  1  0.04979080  0.72271809  0.85166450  1
  O  O26  1  0.45041311  0.52507769  0.65036568  1
  O  O27  1  0.45013139  0.02523967  0.65026138  1
  O  O28  1  0.75086371  0.87510472  0.75039502  1
  O  O29  1  0.75283321  0.37665650  0.75293148  1
