# generated using pymatgen
data_Hf2N2O
_symmetry_space_group_name_H-M   'P 1'
_cell_length_a   8.67092707
_cell_length_b   8.67271824
_cell_length_c   8.67700135
_cell_angle_alpha   109.40277472
_cell_angle_beta   109.59508169
_cell_angle_gamma   109.38988822
_symmetry_Int_Tables_number   1
_chemical_formula_structural   Hf2N2O
_chemical_formula_sum   'Hf16 N16 O8'
_cell_volume   502.46529077
_cell_formula_units_Z   8
loop_
 _symmetry_equiv_pos_site_id
 _symmetry_equiv_pos_as_xyz
  1  'x, y, z'
loop_
 _atom_site_type_symbol
 _atom_site_label
 _atom_site_symmetry_multiplicity
 _atom_site_fract_x
 _atom_site_fract_y
 _atom_site_fract_z
 _atom_site_occupancy
  Hf  Hf0  1  0.46974722  0.22381607  0.25574901  1
  Hf  Hf1  1  0.00071607  0.01062618  0.00673146  1
  Hf  Hf2  1  0.50258638  0.50824028  0.01149691  1
  Hf  Hf3  1  0.99457642  0.50839933  0.49807390  1
  Hf  Hf4  1  0.75020276  0.46513737  0.70969187  1
  Hf  Hf5  1  0.24958455  0.03685823  0.78738686  1
  Hf  Hf6  1  0.71103727  0.24799968  0.96940910  1
  Hf  Hf7  1  0.21856278  0.24250915  0.45426370  1
  Hf  Hf8  1  0.97133956  0.71662453  0.25664630  1
  Hf  Hf9  1  0.03696489  0.28554781  0.75428854  1
  Hf  Hf10  1  0.78495773  0.75311893  0.53118382  1
  Hf  Hf11  1  0.27875746  0.73705136  0.02632689  1
  Hf  Hf12  1  0.48770409  0.98816781  0.49677855  1
  Hf  Hf13  1  0.75026093  0.95910757  0.20891515  1
  Hf  Hf14  1  0.24953156  0.53537136  0.28129821  1
  Hf  Hf15  1  0.53451632  0.79323273  0.75266368  1
  N  N16  1  0.46733138  0.23764290  0.51591553  1
  N  N17  1  0.03188392  0.54373922  0.77170739  1
  N  N18  1  0.51015925  0.27246074  0.04369308  1
  N  N19  1  0.01178047  0.96752874  0.23890926  1
  N  N20  1  0.98859237  0.03573494  0.76330118  1
  N  N21  1  0.23015427  0.77573094  0.25836729  1
  N  N22  1  0.72756749  0.46809707  0.45670460  1
  N  N23  1  0.48761147  0.72542250  0.95246835  1
  N  N24  1  0.77241682  0.04298520  0.00651150  1
  N  N25  1  0.96461260  0.45361453  0.22734066  1
  N  N26  1  0.26061143  0.48328410  0.03116036  1
  N  N27  1  0.05119555  0.77382111  0.53707152  1
  N  N28  1  0.24019571  0.27172140  0.22704585  1
  N  N29  1  0.45284060  0.98883999  0.72435692  1
  N  N30  1  0.72698265  0.73640887  0.27032433  1
  N  N31  1  0.53342028  0.75927778  0.49248853  1
  O  O32  1  0.26793324  0.26077238  0.72384402  1
  O  O33  1  0.76518818  0.72526911  0.77918410  1
  O  O34  1  0.55231811  0.01779248  0.27488021  1
  O  O35  1  0.95460526  0.22531140  0.46794911  1
  O  O36  1  0.73622867  0.50910949  0.96028791  1
  O  O37  1  0.23039322  0.95377102  0.98890077  1
  O  O38  1  0.77495126  0.23144606  0.74041309  1
  O  O39  1  0.26997982  0.52841064  0.54627149  1
