# generated using pymatgen
data_Li32Mn11Cr5O48
_symmetry_space_group_name_H-M   'P 1'
_cell_length_a   5.00652200
_cell_length_b   5.00668730
_cell_length_c   38.44843382
_cell_angle_alpha   91.02927353
_cell_angle_beta   91.02389951
_cell_angle_gamma   119.67221047
_symmetry_Int_Tables_number   1
_chemical_formula_structural   Li32Mn11Cr5O48
_chemical_formula_sum   'Li32 Mn11 Cr5 O48'
_cell_volume   836.84429972
_cell_formula_units_Z   1
loop_
 _symmetry_equiv_pos_site_id
 _symmetry_equiv_pos_as_xyz
  1  'x, y, z'
loop_
 _atom_site_type_symbol
 _atom_site_label
 _atom_site_symmetry_multiplicity
 _atom_site_fract_x
 _atom_site_fract_y
 _atom_site_fract_z
 _atom_site_occupancy
  Li  Li0  1  0.90827300  0.08576800  0.24998200  1
  Li  Li1  1  0.49994000  0.00119900  0.99988400  1
  Li  Li2  1  0.56410700  0.06036300  0.18754500  1
  Li  Li3  1  0.62510700  0.12590800  0.37492000  1
  Li  Li4  1  0.69015100  0.18535400  0.56249700  1
  Li  Li5  1  0.75062200  0.25077200  0.74985500  1
  Li  Li6  1  0.81243700  0.31250900  0.93751300  1
  Li  Li7  1  0.20746600  0.02964700  0.12504200  1
  Li  Li8  1  0.87484300  0.37450700  0.12514000  1
  Li  Li9  1  0.33719200  0.16109500  0.50005700  1
  Li  Li10  1  0.46601100  0.28989000  0.87507400  1
  Li  Li11  1  0.93767400  0.43747900  0.31251800  1
  Li  Li12  1  0.00131100  0.50078900  0.49995000  1
  Li  Li13  1  0.59174400  0.41629300  0.25018600  1
  Li  Li14  1  0.71535700  0.53941500  0.62498100  1
  Li  Li15  1  0.03419300  0.21230400  0.62513400  1
  Li  Li16  1  0.15721100  0.33310700  0.99976300  1
  Li  Li17  1  0.84295100  0.66471200  0.99996100  1
  Li  Li18  1  0.96014600  0.78321000  0.37479000  1
  Li  Li19  1  0.28929700  0.46637000  0.37502500  1
  Li  Li20  1  0.41300500  0.59116100  0.74977200  1
  Li  Li21  1  0.06243700  0.56255500  0.68746800  1
  Li  Li22  1  0.54307200  0.72089300  0.12526300  1
  Li  Li23  1  0.66022000  0.83839900  0.49991300  1
  Li  Li24  1  0.12499800  0.62479300  0.87510200  1
  Li  Li25  1  0.78386500  0.96117100  0.87521600  1
  Li  Li26  1  0.18505400  0.68988000  0.06241500  1
  Li  Li27  1  0.25028200  0.74869600  0.25008000  1
  Li  Li28  1  0.31294600  0.81078500  0.43746600  1
  Li  Li29  1  0.37511300  0.87415700  0.62503500  1
  Li  Li30  1  0.43922900  0.93438000  0.81246800  1
  Li  Li31  1  0.08556300  0.90881300  0.74988400  1
  Mn  Mn32  1  0.85475300  0.01990800  0.06243900  1
  Mn  Mn33  1  0.27032700  0.10486800  0.31250900  1
  Mn  Mn34  1  0.39534400  0.22964700  0.68747100  1
  Mn  Mn35  1  0.64515900  0.47952500  0.43750200  1
  Mn  Mn36  1  0.77011400  0.60497300  0.81247200  1
  Mn  Mn37  1  0.89517600  0.72987000  0.18752500  1
  Mn  Mn38  1  0.47967600  0.64514100  0.93753200  1
  Mn  Mn39  1  0.60471500  0.77062500  0.31253000  1
  Mn  Mn40  1  0.72974300  0.89536200  0.68747700  1
  Mn  Mn41  1  0.02023800  0.85523600  0.56256400  1
  Mn  Mn42  1  0.14544200  0.97956100  0.93750400  1
  Cr  Cr43  1  0.98258600  0.14200700  0.43750400  1
  Cr  Cr44  1  0.51679100  0.35775200  0.06246400  1
  Cr  Cr45  1  0.10787500  0.26710400  0.81250000  1
  Cr  Cr46  1  0.23294100  0.39220900  0.18749600  1
  Cr  Cr47  1  0.35809700  0.51745700  0.56253500  1
  O  O48  1  0.94579000  0.08860000  0.34050900  1
  O  O49  1  0.90600700  0.04821000  0.15921700  1
  O  O50  1  0.57087300  0.07106900  0.28402300  1
  O  O51  1  0.69589300  0.19591200  0.65900300  1
  O  O52  1  0.55632900  0.05569000  0.09098300  1
  O  O53  1  0.67975000  0.18053000  0.46601000  1
  O  O54  1  0.80528500  0.30622900  0.84099000  1
  O  O55  1  0.82007100  0.31893500  0.03395400  1
  O  O56  1  0.94420600  0.44494800  0.40895700  1
  O  O57  1  0.21134700  0.07279000  0.21541100  1
  O  O58  1  0.92987600  0.43086500  0.21597700  1
  O  O59  1  0.33634600  0.19840100  0.59050000  1
  O  O60  1  0.46343200  0.32069400  0.96550700  1
  O  O61  1  0.17259600  0.03087600  0.03405900  1
  O  O62  1  0.30257900  0.16368700  0.40954900  1
  O  O63  1  0.42699900  0.28903400  0.78451200  1
  O  O64  1  0.07079900  0.21351500  0.71548300  1
  O  O65  1  0.03118800  0.17266700  0.53414200  1
  O  O66  1  0.16155600  0.30396700  0.90952800  1
  O  O67  1  0.58845000  0.44578000  0.34043900  1
  O  O68  1  0.71344500  0.57050900  0.71539600  1
  O  O69  1  0.55219700  0.41359300  0.15954100  1
  O  O70  1  0.67749000  0.53886100  0.53465000  1
  O  O71  1  0.80467900  0.66124200  0.90961400  1
  O  O72  1  0.19797100  0.33596500  0.09047000  1
  O  O73  1  0.32665500  0.46818600  0.46585000  1
  O  O74  1  0.45234000  0.59385100  0.84088800  1
  O  O75  1  0.28654100  0.42943100  0.28450300  1
  O  O76  1  0.41145300  0.55416600  0.65947900  1
  O  O77  1  0.84388000  0.70225300  0.09083600  1
  O  O78  1  0.96137600  0.82182300  0.46541800  1
  O  O79  1  0.92950900  0.78676200  0.28456700  1
  O  O80  1  0.57708500  0.71874300  0.21585100  1
  O  O81  1  0.70210500  0.84436200  0.59090000  1
  O  O82  1  0.82046400  0.96344600  0.96544200  1
  O  O83  1  0.53873500  0.67669900  0.03451800  1
  O  O84  1  0.65651100  0.79820400  0.40920600  1
  O  O85  1  0.06891600  0.56990600  0.78394900  1
  O  O86  1  0.78103400  0.92279700  0.78411400  1
  O  O87  1  0.05462800  0.55584800  0.59104400  1
  O  O88  1  0.17920700  0.67891700  0.96599300  1
  O  O89  1  0.19454400  0.69521500  0.15901500  1
  O  O90  1  0.31905600  0.81999100  0.53405700  1
  O  O91  1  0.44600800  0.94591700  0.90905500  1
  O  O92  1  0.30405400  0.80446000  0.34098300  1
  O  O93  1  0.42904300  0.92926400  0.71596100  1
  O  O94  1  0.08633300  0.94802600  0.84045900  1
  O  O95  1  0.05457300  0.91155100  0.65956100  1
