# generated using pymatgen
data_Hf2N2O
_symmetry_space_group_name_H-M   'P 1'
_cell_length_a   8.65368151
_cell_length_b   8.66576200
_cell_length_c   8.68222284
_cell_angle_alpha   109.42688712
_cell_angle_beta   109.40124983
_cell_angle_gamma   109.44666201
_symmetry_Int_Tables_number   1
_chemical_formula_structural   Hf2N2O
_chemical_formula_sum   'Hf16 N16 O8'
_cell_volume   502.06355779
_cell_formula_units_Z   8
loop_
 _symmetry_equiv_pos_site_id
 _symmetry_equiv_pos_as_xyz
  1  'x, y, z'
loop_
 _atom_site_type_symbol
 _atom_site_label
 _atom_site_symmetry_multiplicity
 _atom_site_fract_x
 _atom_site_fract_y
 _atom_site_fract_z
 _atom_site_occupancy
  Hf  Hf0  1  0.99137615  0.99275085  0.49318263  1
  Hf  Hf1  1  0.25112155  0.71515928  0.46397056  1
  Hf  Hf2  1  0.28594353  0.03481113  0.25047375  1
  Hf  Hf3  1  0.78254459  0.53911077  0.25927525  1
  Hf  Hf4  1  0.73856723  0.78732152  0.03219837  1
  Hf  Hf5  1  0.97050018  0.74441055  0.71183787  1
  Hf  Hf6  1  0.03309540  0.25212875  0.28746463  1
  Hf  Hf7  1  0.54467193  0.25478972  0.78653197  1
  Hf  Hf8  1  0.01190134  0.50201245  0.99580403  1
  Hf  Hf9  1  0.48909459  0.49199803  0.49020403  1
  Hf  Hf10  1  0.49872702  0.00056904  0.00110780  1
  Hf  Hf11  1  0.45931981  0.74120241  0.21301076  1
  Hf  Hf12  1  0.25943096  0.21547447  0.97502214  1
  Hf  Hf13  1  0.71719360  0.96947883  0.75089215  1
  Hf  Hf14  1  0.21100762  0.46342996  0.74564236  1
  Hf  Hf15  1  0.75385106  0.29042071  0.54080055  1
  N  N16  1  0.73067908  0.76214294  0.27054049  1
  N  N17  1  0.05242498  0.77842206  0.51630216  1
  N  N18  1  0.51922128  0.74646220  0.47336109  1
  N  N19  1  0.53572331  0.27393073  0.04145382  1
  N  N20  1  0.22366387  0.77207159  0.23635636  1
  N  N21  1  0.22812013  0.95427249  0.96649119  1
  N  N22  1  0.48464696  0.25911764  0.53560640  1
  N  N23  1  0.72659973  0.48924144  0.45528847  1
  N  N24  1  0.01088882  0.54373831  0.77259077  1
  N  N25  1  0.25812174  0.27156471  0.22725211  1
  N  N26  1  0.77376947  0.04512948  0.03350214  1
  N  N27  1  0.46583377  0.72846272  0.95282911  1
  N  N28  1  0.23836894  0.46269373  0.01027922  1
  N  N29  1  0.77309454  0.22756041  0.76804302  1
  N  N30  1  0.26918417  0.51297815  0.54316787  1
  N  N31  1  0.94961249  0.21943727  0.48576039  1
  O  O32  1  0.96365235  0.00922952  0.73524593  1
  O  O33  1  0.03708749  0.99215032  0.26671007  1
  O  O34  1  0.45436339  0.96639004  0.72838015  1
  O  O35  1  0.26856316  0.23122629  0.72457425  1
  O  O36  1  0.98536498  0.45549163  0.22640671  1
  O  O37  1  0.74700143  0.72995283  0.77877745  1
  O  O38  1  0.76140379  0.53687782  0.98345641  1
  O  O39  1  0.54426659  0.03639119  0.27020655  1
