# generated using pymatgen
data_Ba8Mn8O23
_symmetry_space_group_name_H-M   'P 1'
_cell_length_a   5.73454913
_cell_length_b   5.73454913
_cell_length_c   19.07625445
_cell_angle_alpha   90.00000000
_cell_angle_beta   90.00000000
_cell_angle_gamma   120.38364789
_symmetry_Int_Tables_number   1
_chemical_formula_structural   Ba8Mn8O23
_chemical_formula_sum   'Ba8 Mn8 O23'
_cell_volume   541.16580116
_cell_formula_units_Z   1
loop_
 _symmetry_equiv_pos_site_id
 _symmetry_equiv_pos_as_xyz
  1  'x, y, z'
loop_
 _atom_site_type_symbol
 _atom_site_label
 _atom_site_symmetry_multiplicity
 _atom_site_fract_x
 _atom_site_fract_y
 _atom_site_fract_z
 _atom_site_occupancy
  Ba  Ba0  1  0.66961486  0.33038514  0.86309081  1
  Ba  Ba1  1  0.66581787  0.33418213  0.62313597  1
  Ba  Ba2  1  0.99983289  0.00016711  0.00000000  1
  Ba  Ba3  1  0.66581787  0.33418213  0.37686403  1
  Ba  Ba4  1  0.66961486  0.33038514  0.13690919  1
  Ba  Ba5  1  0.33117467  0.66882533  0.25554595  1
  Ba  Ba6  1  0.33287981  0.66712019  0.50000000  1
  Ba  Ba7  1  0.33117467  0.66882533  0.74445405  1
  Mn  Mn8  1  0.99619561  0.00380439  0.30660202  1
  Mn  Mn9  1  0.99835573  0.00164427  0.82447500  1
  Mn  Mn10  1  0.99619561  0.00380439  0.69339798  1
  Mn  Mn11  1  -0.00053011  0.00053011  0.56432211  1
  Mn  Mn12  1  -0.00053011  0.00053011  0.43567789  1
  Mn  Mn13  1  0.99835573  0.00164427  0.17552500  1
  Mn  Mn14  1  0.32816928  0.67183072  0.07182115  1
  Mn  Mn15  1  0.32816928  0.67183072  0.92817885  1
  O  O16  1  0.29613193  0.14873268  0.50000000  1
  O  O17  1  0.28905248  0.15093984  0.75559921  1
  O  O18  1  0.28905248  0.15093984  0.24440079  1
  O  O19  1  0.84906016  0.71094752  0.75559921  1
  O  O20  1  0.84906016  0.71094752  0.24440079  1
  O  O21  1  0.85126732  0.70386807  0.50000000  1
  O  O22  1  0.84791852  0.15208148  0.75414613  1
  O  O23  1  0.84791852  0.15208148  0.24585387  1
  O  O24  1  0.06260741  0.50405472  0.00000000  1
  O  O25  1  0.14533952  0.85466048  0.37189360  1
  O  O26  1  0.14533952  0.85466048  0.62810640  1
  O  O27  1  0.15724779  0.84275221  0.87513534  1
  O  O28  1  0.15724779  0.84275221  0.12486466  1
  O  O29  1  0.85221189  0.14778811  0.50000000  1
  O  O30  1  0.14749133  0.29781607  0.62703564  1
  O  O31  1  0.14749133  0.29781607  0.37296436  1
  O  O32  1  0.49594528  0.93739259  0.00000000  1
  O  O33  1  0.17355831  0.33111671  0.87816389  1
  O  O34  1  0.17355831  0.33111671  0.12183611  1
  O  O35  1  0.66888329  0.82644169  0.87816389  1
  O  O36  1  0.66888329  0.82644169  0.12183611  1
  O  O37  1  0.70218393  0.85250867  0.62703564  1
  O  O38  1  0.70218393  0.85250867  0.37296436  1
