# generated using pymatgen
data_MnO2
_symmetry_space_group_name_H-M   'P 1'
_cell_length_a   2.85580047
_cell_length_b   9.32666593
_cell_length_c   9.32665989
_cell_angle_alpha   90.00012354
_cell_angle_beta   90.00000000
_cell_angle_gamma   90.00000000
_symmetry_Int_Tables_number   1
_chemical_formula_structural   MnO2
_chemical_formula_sum   'Mn6 O12'
_cell_volume   248.41649036
_cell_formula_units_Z   6
loop_
 _symmetry_equiv_pos_site_id
 _symmetry_equiv_pos_as_xyz
  1  'x, y, z'
loop_
 _atom_site_type_symbol
 _atom_site_label
 _atom_site_symmetry_multiplicity
 _atom_site_fract_x
 _atom_site_fract_y
 _atom_site_fract_z
 _atom_site_occupancy
  Mn  Mn0  1  0.50000000  0.50000000  0.00000000  1
  Mn  Mn1  1  0.00000000  -0.00000000  0.50000000  1
  Mn  Mn2  1  0.50000000  0.98170375  0.76530492  1
  Mn  Mn3  1  0.50000000  0.01829625  0.23469508  1
  Mn  Mn4  1  -0.00000000  0.76530492  0.01829625  1
  Mn  Mn5  1  -0.00000000  0.23469508  0.98170375  1
  O  O6  1  0.50000000  0.84595566  0.91520582  1
  O  O7  1  0.50000000  0.15404434  0.08479418  1
  O  O8  1  -0.00000000  0.91520682  0.15404334  1
  O  O9  1  0.00000000  0.08479318  0.84595666  1
  O  O10  1  0.50000000  0.90496435  0.40498963  1
  O  O11  1  0.50000000  0.09503565  0.59501037  1
  O  O12  1  0.00000000  0.40499063  0.09503565  1
  O  O13  1  0.00000000  0.59500937  0.90496435  1
  O  O14  1  0.50000000  0.33069125  0.88659855  1
  O  O15  1  0.50000000  0.66930875  0.11340145  1
  O  O16  1  0.00000000  0.88659755  0.66930775  1
  O  O17  1  0.00000000  0.11340245  0.33069225  1
