# generated using pymatgen
data_SnP2O7
_symmetry_space_group_name_H-M   'P 1'
_cell_length_a   5.11624931
_cell_length_b   8.71189286
_cell_length_c   13.55536198
_cell_angle_alpha   64.64936698
_cell_angle_beta   90.00000000
_cell_angle_gamma   90.00000000
_symmetry_Int_Tables_number   1
_chemical_formula_structural   SnP2O7
_chemical_formula_sum   'Sn4 P8 O28'
_cell_volume   546.01152012
_cell_formula_units_Z   4
loop_
 _symmetry_equiv_pos_site_id
 _symmetry_equiv_pos_as_xyz
  1  'x, y, z'
loop_
 _atom_site_type_symbol
 _atom_site_label
 _atom_site_symmetry_multiplicity
 _atom_site_fract_x
 _atom_site_fract_y
 _atom_site_fract_z
 _atom_site_occupancy
  Sn  Sn0  1  0.74708994  0.76655223  0.97337012  1
  Sn  Sn1  1  0.75291006  0.76655223  0.47337012  1
  Sn  Sn2  1  0.24708994  0.23344777  0.52662988  1
  Sn  Sn3  1  0.25291006  0.23344777  0.02662988  1
  P  P4  1  0.74252633  0.18693731  0.88115882  1
  P  P5  1  0.24360628  0.66502892  0.86107506  1
  P  P6  1  0.24252633  0.81306269  0.61884118  1
  P  P7  1  0.74360628  0.33497108  0.63892494  1
  P  P8  1  0.25639372  0.66502892  0.36107506  1
  P  P9  1  0.75747367  0.18693731  0.38115882  1
  P  P10  1  0.75639372  0.33497108  0.13892494  1
  P  P11  1  0.25747367  0.81306269  0.11884118  1
  O  O12  1  0.91595749  0.25529812  0.94279744  1
  O  O13  1  0.45780043  0.18613538  0.91312116  1
  O  O14  1  0.31080705  0.48381641  0.93358824  1
  O  O15  1  0.96115765  0.71317685  0.86594185  1
  O  O16  1  0.82587478  0.01726350  0.88608380  1
  O  O17  1  0.43320591  0.78694629  0.87669677  1
  O  O18  1  0.77864825  0.32124375  0.75857114  1
  O  O19  1  0.27864825  0.67875625  0.74142886  1
  O  O20  1  0.93320591  0.21305371  0.62330323  1
  O  O21  1  0.81080705  0.51618359  0.56641176  1
  O  O22  1  0.95780043  0.81386462  0.58687884  1
  O  O23  1  0.32587478  0.98273650  0.61391620  1
  O  O24  1  0.41595749  0.74470188  0.55720256  1
  O  O25  1  0.46115765  0.28682315  0.63405815  1
  O  O26  1  0.53884235  0.71317685  0.36594185  1
  O  O27  1  0.58404251  0.25529812  0.44279744  1
  O  O28  1  0.67412522  0.01726350  0.38608380  1
  O  O29  1  0.04219957  0.18613538  0.41312116  1
  O  O30  1  0.18919295  0.48381641  0.43358824  1
  O  O31  1  0.06679409  0.78694629  0.37669677  1
  O  O32  1  0.72135175  0.32124375  0.25857114  1
  O  O33  1  0.22135175  0.67875625  0.24142886  1
  O  O34  1  0.56679409  0.21305371  0.12330323  1
  O  O35  1  0.17412522  0.98273650  0.11391620  1
  O  O36  1  0.03884235  0.28682315  0.13405815  1
  O  O37  1  0.68919295  0.51618359  0.06641176  1
  O  O38  1  0.54219957  0.81386462  0.08687884  1
  O  O39  1  0.08404251  0.74470188  0.05720256  1
