# generated using pymatgen
data_Rb4PbO4
_symmetry_space_group_name_H-M   'P 1'
_cell_length_a   7.10489382
_cell_length_b   11.24691000
_cell_length_c   11.35867244
_cell_angle_alpha   69.62552105
_cell_angle_beta   90.00000000
_cell_angle_gamma   90.00000000
_symmetry_Int_Tables_number   1
_chemical_formula_structural   Rb4PbO4
_chemical_formula_sum   'Rb16 Pb4 O16'
_cell_volume   850.86478925
_cell_formula_units_Z   4
loop_
 _symmetry_equiv_pos_site_id
 _symmetry_equiv_pos_as_xyz
  1  'x, y, z'
loop_
 _atom_site_type_symbol
 _atom_site_label
 _atom_site_symmetry_multiplicity
 _atom_site_fract_x
 _atom_site_fract_y
 _atom_site_fract_z
 _atom_site_occupancy
  Rb  Rb0  1  0.58194023  0.94372700  0.69950075  1
  Rb  Rb1  1  0.10245928  0.83349699  0.58252706  1
  Rb  Rb2  1  0.91805977  0.94372700  0.19950075  1
  Rb  Rb3  1  0.32514592  0.63050960  0.89152697  1
  Rb  Rb4  1  0.39754072  0.83349699  0.08252706  1
  Rb  Rb5  1  0.79554265  0.57098682  0.79594187  1
  Rb  Rb6  1  0.17485408  0.63050960  0.39152697  1
  Rb  Rb7  1  0.70445735  0.57098682  0.29594187  1
  Rb  Rb8  1  0.29554265  0.42901318  0.70405813  1
  Rb  Rb9  1  0.82514592  0.36949040  0.60847303  1
  Rb  Rb10  1  0.20445735  0.42901318  0.20405813  1
  Rb  Rb11  1  0.60245928  0.16650301  0.91747294  1
  Rb  Rb12  1  0.67485408  0.36949040  0.10847303  1
  Rb  Rb13  1  0.08194023  0.05627300  0.80049925  1
  Rb  Rb14  1  0.89754072  0.16650301  0.41747294  1
  Rb  Rb15  1  0.41805977  0.05627300  0.30049925  1
  Pb  Pb16  1  0.87001982  0.75903754  0.99377484  1
  Pb  Pb17  1  0.62998018  0.75903754  0.49377484  1
  Pb  Pb18  1  0.37001982  0.24096246  0.50622516  1
  Pb  Pb19  1  0.12998018  0.24096246  0.00622516  1
  O  O20  1  0.75983039  0.93702347  0.97056576  1
  O  O21  1  0.74016961  0.93702347  0.47056576  1
  O  O22  1  0.00479525  0.78158840  0.82457558  1
  O  O23  1  0.45389888  0.68495741  0.65069949  1
  O  O24  1  0.49520475  0.78158840  0.32457558  1
  O  O25  1  0.85461594  0.63162597  0.52391192  1
  O  O26  1  0.04610112  0.68495741  0.15069949  1
  O  O27  1  0.35461594  0.36837403  0.97608808  1
  O  O28  1  0.64538406  0.63162597  0.02391192  1
  O  O29  1  0.95389888  0.31504259  0.84930051  1
  O  O30  1  0.14538406  0.36837403  0.47608808  1
  O  O31  1  0.50479525  0.21841160  0.67542442  1
  O  O32  1  0.54610112  0.31504259  0.34930051  1
  O  O33  1  0.99520475  0.21841160  0.17542442  1
  O  O34  1  0.25983039  0.06297653  0.52943424  1
  O  O35  1  0.24016961  0.06297653  0.02943424  1
