# generated using pymatgen
data_Sr2WO5
_symmetry_space_group_name_H-M   'P 1'
_cell_length_a   5.55216106
_cell_length_b   7.21996592
_cell_length_c   10.97935649
_cell_angle_alpha   90.00000000
_cell_angle_beta   90.00000000
_cell_angle_gamma   90.00000000
_symmetry_Int_Tables_number   1
_chemical_formula_structural   Sr2WO5
_chemical_formula_sum   'Sr8 W4 O20'
_cell_volume   440.12302571
_cell_formula_units_Z   4
loop_
 _symmetry_equiv_pos_site_id
 _symmetry_equiv_pos_as_xyz
  1  'x, y, z'
loop_
 _atom_site_type_symbol
 _atom_site_label
 _atom_site_symmetry_multiplicity
 _atom_site_fract_x
 _atom_site_fract_y
 _atom_site_fract_z
 _atom_site_occupancy
  Sr  Sr0  1  0.25000000  0.01970155  0.78252127  1
  Sr  Sr1  1  0.25000000  0.51970155  0.71747873  1
  Sr  Sr2  1  0.75000000  0.98029845  0.21747873  1
  Sr  Sr3  1  0.75000000  0.48029845  0.28252127  1
  Sr  Sr4  1  0.25000000  0.32025843  0.08474344  1
  Sr  Sr5  1  0.25000000  0.82025843  0.41525656  1
  Sr  Sr6  1  0.75000000  0.67974157  0.91525656  1
  Sr  Sr7  1  0.75000000  0.17974157  0.58474344  1
  W  W8  1  0.25000000  0.31349875  0.43566675  1
  W  W9  1  0.25000000  0.81349875  0.06433325  1
  W  W10  1  0.75000000  0.68650125  0.56433325  1
  W  W11  1  0.75000000  0.18650125  0.93566675  1
  O  O12  1  0.99848609  0.33955853  0.88958146  1
  O  O13  1  0.50151391  0.83955853  0.61041854  1
  O  O14  1  0.49848609  0.66044147  0.11041854  1
  O  O15  1  0.00151391  0.16044147  0.38958146  1
  O  O16  1  0.00151391  0.66044147  0.11041854  1
  O  O17  1  0.49848609  0.16044147  0.38958146  1
  O  O18  1  0.50151391  0.33955853  0.88958146  1
  O  O19  1  0.99848609  0.83955853  0.61041854  1
  O  O20  1  -0.00000000  0.00000000  0.00000000  1
  O  O21  1  0.50000000  0.50000000  0.50000000  1
  O  O22  1  0.50000000  0.00000000  0.00000000  1
  O  O23  1  -0.00000000  0.50000000  0.50000000  1
  O  O24  1  0.25000000  0.22598750  0.60419552  1
  O  O25  1  0.25000000  0.72598750  0.89580448  1
  O  O26  1  0.75000000  0.77401250  0.39580448  1
  O  O27  1  0.75000000  0.27401250  0.10419552  1
  O  O28  1  0.25000000  0.46051264  0.29541876  1
  O  O29  1  0.25000000  0.96051264  0.20458124  1
  O  O30  1  0.75000000  0.53948736  0.70458124  1
  O  O31  1  0.75000000  0.03948736  0.79541876  1
