# generated using pymatgen
data_Sm2WO6
_symmetry_space_group_name_H-M   'P 1'
_cell_length_a   5.45277057
_cell_length_b   7.75945992
_cell_length_c   11.58171850
_cell_angle_alpha   76.01990057
_cell_angle_beta   90.00000000
_cell_angle_gamma   90.00000000
_symmetry_Int_Tables_number   1
_chemical_formula_structural   Sm2WO6
_chemical_formula_sum   'Sm8 W4 O24'
_cell_volume   475.51412751
_cell_formula_units_Z   4
loop_
 _symmetry_equiv_pos_site_id
 _symmetry_equiv_pos_as_xyz
  1  'x, y, z'
loop_
 _atom_site_type_symbol
 _atom_site_label
 _atom_site_symmetry_multiplicity
 _atom_site_fract_x
 _atom_site_fract_y
 _atom_site_fract_z
 _atom_site_occupancy
  Sm  Sm0  1  0.73654980  -0.00000000  0.75000000  1
  Sm  Sm1  1  0.26345020  -0.00000000  0.25000000  1
  Sm  Sm2  1  0.19197717  0.79834014  0.57659490  1
  Sm  Sm3  1  0.80802283  0.79834014  0.07659490  1
  Sm  Sm4  1  0.68260204  0.50000000  0.75000000  1
  Sm  Sm5  1  0.31739796  0.50000000  0.25000000  1
  Sm  Sm6  1  0.19197717  0.20165986  0.92340510  1
  Sm  Sm7  1  0.80802283  0.20165986  0.42340510  1
  W  W8  1  0.25201328  0.72207516  0.88673093  1
  W  W9  1  0.74798672  0.72207516  0.38673093  1
  W  W10  1  0.25201328  0.27792484  0.61326907  1
  W  W11  1  0.74798672  0.27792484  0.11326907  1
  O  O12  1  0.03911013  0.93464689  0.89625611  1
  O  O13  1  0.51292663  0.85396634  0.92970369  1
  O  O14  1  0.96088987  0.93464689  0.39625611  1
  O  O15  1  0.46038354  0.78222199  0.73232427  1
  O  O16  1  0.48707337  0.85396634  0.42970369  1
  O  O17  1  0.99085038  0.70952595  0.77393957  1
  O  O18  1  0.53961646  0.78222199  0.23232427  1
  O  O19  1  0.84647890  0.63744949  0.54521220  1
  O  O20  1  0.35789694  0.49448932  0.88895507  1
  O  O21  1  0.00914962  0.70952595  0.27393957  1
  O  O22  1  0.35789694  0.50551068  0.61104493  1
  O  O23  1  0.84647890  0.36255051  0.95478780  1
  O  O24  1  0.15352110  0.63744949  0.04521220  1
  O  O25  1  0.64210306  0.49448932  0.38895507  1
  O  O26  1  0.99085038  0.29047405  0.72606043  1
  O  O27  1  0.64210306  0.50551068  0.11104493  1
  O  O28  1  0.15352110  0.36255051  0.45478780  1
  O  O29  1  0.46038354  0.21777801  0.76767573  1
  O  O30  1  0.00914962  0.29047405  0.22606043  1
  O  O31  1  0.51292663  0.14603366  0.57029631  1
  O  O32  1  0.53961646  0.21777801  0.26767573  1
  O  O33  1  0.03911013  0.06535311  0.60374389  1
  O  O34  1  0.48707337  0.14603366  0.07029631  1
  O  O35  1  0.96088987  0.06535311  0.10374389  1
