# generated using pymatgen
data_Tm2WO6
_symmetry_space_group_name_H-M   'P 1'
_cell_length_a   5.26636780
_cell_length_b   7.53474819
_cell_length_c   11.21895741
_cell_angle_alpha   75.21558264
_cell_angle_beta   90.00000000
_cell_angle_gamma   90.00000000
_symmetry_Int_Tables_number   1
_chemical_formula_structural   Tm2WO6
_chemical_formula_sum   'Tm8 W4 O24'
_cell_volume   430.43816084
_cell_formula_units_Z   4
loop_
 _symmetry_equiv_pos_site_id
 _symmetry_equiv_pos_as_xyz
  1  'x, y, z'
loop_
 _atom_site_type_symbol
 _atom_site_label
 _atom_site_symmetry_multiplicity
 _atom_site_fract_x
 _atom_site_fract_y
 _atom_site_fract_z
 _atom_site_occupancy
  Tm  Tm0  1  0.73841966  0.00000000  0.75000000  1
  Tm  Tm1  1  0.26158034  0.00000000  0.25000000  1
  Tm  Tm2  1  0.18485863  0.79712945  0.57839867  1
  Tm  Tm3  1  0.81514137  0.79712945  0.07839867  1
  Tm  Tm4  1  0.68297021  0.50000000  0.75000000  1
  Tm  Tm5  1  0.31702979  0.50000000  0.25000000  1
  Tm  Tm6  1  0.18485863  0.20287055  0.92160133  1
  Tm  Tm7  1  0.81514137  0.20287055  0.42160133  1
  W  W8  1  0.25482602  0.72141867  0.88670081  1
  W  W9  1  0.74517398  0.72141867  0.38670081  1
  W  W10  1  0.25482602  0.27858133  0.61329919  1
  W  W11  1  0.74517398  0.27858133  0.11329919  1
  O  O12  1  0.03817740  0.93918782  0.89629566  1
  O  O13  1  0.53075248  0.85035697  0.93042524  1
  O  O14  1  0.96182260  0.93918782  0.39629566  1
  O  O15  1  0.46358869  0.78851923  0.72639735  1
  O  O16  1  0.46924752  0.85035697  0.43042524  1
  O  O17  1  0.98196848  0.71091877  0.77035956  1
  O  O18  1  0.53641131  0.78851923  0.22639735  1
  O  O19  1  0.84836207  0.63237738  0.55050002  1
  O  O20  1  0.35911922  0.48705850  0.88667658  1
  O  O21  1  0.01803152  0.71091877  0.27035956  1
  O  O22  1  0.35911922  0.51294150  0.61332342  1
  O  O23  1  0.84836207  0.36762262  0.94949998  1
  O  O24  1  0.15163793  0.63237738  0.05050002  1
  O  O25  1  0.64088078  0.48705850  0.38667658  1
  O  O26  1  0.98196848  0.28908123  0.72964044  1
  O  O27  1  0.64088078  0.51294150  0.11332342  1
  O  O28  1  0.15163793  0.36762262  0.44949998  1
  O  O29  1  0.46358869  0.21148077  0.77360265  1
  O  O30  1  0.01803152  0.28908123  0.22964044  1
  O  O31  1  0.53075248  0.14964303  0.56957476  1
  O  O32  1  0.53641131  0.21148077  0.27360265  1
  O  O33  1  0.03817740  0.06081218  0.60370434  1
  O  O34  1  0.46924752  0.14964303  0.06957476  1
  O  O35  1  0.96182260  0.06081218  0.10370434  1
