# generated using pymatgen
data_Si(Ag4S3)2
_symmetry_space_group_name_H-M   'P 1'
_cell_length_a   7.47066132
_cell_length_b   10.57675759
_cell_length_c   15.06254503
_cell_angle_alpha   90.00000000
_cell_angle_beta   90.00000000
_cell_angle_gamma   90.00000000
_symmetry_Int_Tables_number   1
_chemical_formula_structural   Si(Ag4S3)2
_chemical_formula_sum   'Si4 Ag32 S24'
_cell_volume   1190.17262621
_cell_formula_units_Z   4
loop_
 _symmetry_equiv_pos_site_id
 _symmetry_equiv_pos_as_xyz
  1  'x, y, z'
loop_
 _atom_site_type_symbol
 _atom_site_label
 _atom_site_symmetry_multiplicity
 _atom_site_fract_x
 _atom_site_fract_y
 _atom_site_fract_z
 _atom_site_occupancy
  Si  Si0  1  0.26461554  0.03179413  0.37659925  1
  Si  Si1  1  0.73538446  0.53179413  0.62340075  1
  Si  Si2  1  0.23538446  0.03179413  0.87659925  1
  Si  Si3  1  0.76461554  0.53179413  0.12340075  1
  Ag  Ag4  1  0.07391350  0.36283913  0.93184463  1
  Ag  Ag5  1  0.13225037  0.47705202  0.75980417  1
  Ag  Ag6  1  0.86774963  0.97705202  0.24019583  1
  Ag  Ag7  1  0.36774963  0.47705202  0.25980417  1
  Ag  Ag8  1  0.26326887  0.54509122  0.06296290  1
  Ag  Ag9  1  0.73673113  0.04509122  0.93703710  1
  Ag  Ag10  1  0.23673113  0.54509122  0.56296290  1
  Ag  Ag11  1  0.76326887  0.04509122  0.43703710  1
  Ag  Ag12  1  0.38664235  0.69027445  0.41168792  1
  Ag  Ag13  1  0.61335765  0.19027445  0.58831208  1
  Ag  Ag14  1  0.11335765  0.69027445  0.91168792  1
  Ag  Ag15  1  0.88664235  0.19027445  0.08831208  1
  Ag  Ag16  1  0.49285057  0.79473803  0.22555435  1
  Ag  Ag17  1  0.50714943  0.29473803  0.77444565  1
  Ag  Ag18  1  0.00714943  0.79473803  0.72555435  1
  Ag  Ag19  1  0.99285057  0.29473803  0.27444565  1
  Ag  Ag20  1  0.92608650  0.86283913  0.06815537  1
  Ag  Ag21  1  0.63225037  0.97705202  0.74019583  1
  Ag  Ag22  1  0.57391350  0.86283913  0.56815537  1
  Ag  Ag23  1  0.42608650  0.36283913  0.43184463  1
  Ag  Ag24  1  0.12001932  0.69034909  0.26847303  1
  Ag  Ag25  1  0.87998068  0.19034909  0.73152697  1
  Ag  Ag26  1  0.37998068  0.69034909  0.76847303  1
  Ag  Ag27  1  0.62001932  0.19034909  0.23152697  1
  Ag  Ag28  1  0.48307389  0.76960285  0.01370134  1
  Ag  Ag29  1  0.51692611  0.26960285  0.98629866  1
  Ag  Ag30  1  0.01692611  0.76960285  0.51370134  1
  Ag  Ag31  1  0.98307389  0.26960285  0.48629866  1
  Ag  Ag32  1  0.72857268  0.51337242  0.36839516  1
  Ag  Ag33  1  0.27142732  0.01337242  0.63160484  1
  Ag  Ag34  1  0.77142732  0.51337242  0.86839516  1
  Ag  Ag35  1  0.22857268  0.01337242  0.13160484  1
  S  S36  1  0.99424864  0.41068370  0.12148554  1
  S  S37  1  0.00575136  0.91068370  0.87851446  1
  S  S38  1  0.50575136  0.41068370  0.62148554  1
  S  S39  1  0.49424864  0.91068370  0.37851446  1
  S  S40  1  0.77038054  0.64846284  0.00794998  1
  S  S41  1  0.22961946  0.14846284  0.99205002  1
  S  S42  1  0.72961946  0.64846284  0.50794998  1
  S  S43  1  0.27038054  0.14846284  0.49205002  1
  S  S44  1  0.76950403  0.65239576  0.23641848  1
  S  S45  1  0.23049597  0.15239576  0.76358152  1
  S  S46  1  0.73049597  0.65239576  0.73641848  1
  S  S47  1  0.26950403  0.15239576  0.26358152  1
  S  S48  1  0.17412139  0.51363173  0.38712653  1
  S  S49  1  0.82587861  0.01363173  0.61287347  1
  S  S50  1  0.32587861  0.51363173  0.88712653  1
  S  S51  1  0.67412139  0.01363173  0.11287347  1
  S  S52  1  0.22884397  0.77632579  0.12078684  1
  S  S53  1  0.77115603  0.27632579  0.87921316  1
  S  S54  1  0.27115603  0.77632579  0.62078684  1
  S  S55  1  0.72884397  0.27632579  0.37921316  1
  S  S56  1  0.03282403  0.91158483  0.37270120  1
  S  S57  1  0.96717597  0.41158483  0.62729880  1
  S  S58  1  0.46717597  0.91158483  0.87270120  1
  S  S59  1  0.53282403  0.41158483  0.12729880  1
