# generated using pymatgen
data_Ba3GeO5
_symmetry_space_group_name_H-M   'P 1'
_cell_length_a   7.38142592
_cell_length_b   7.38142592
_cell_length_c   11.70133430
_cell_angle_alpha   90.00000000
_cell_angle_beta   90.00000000
_cell_angle_gamma   90.00000000
_symmetry_Int_Tables_number   1
_chemical_formula_structural   Ba3GeO5
_chemical_formula_sum   'Ba12 Ge4 O20'
_cell_volume   637.55244870
_cell_formula_units_Z   4
loop_
 _symmetry_equiv_pos_site_id
 _symmetry_equiv_pos_as_xyz
  1  'x, y, z'
loop_
 _atom_site_type_symbol
 _atom_site_label
 _atom_site_symmetry_multiplicity
 _atom_site_fract_x
 _atom_site_fract_y
 _atom_site_fract_z
 _atom_site_occupancy
  Ba  Ba0  1  0.00000000  0.50000000  0.99946404  1
  Ba  Ba1  1  0.00000000  0.50000000  0.49946404  1
  Ba  Ba2  1  0.18268800  0.81731200  0.75000000  1
  Ba  Ba3  1  0.18268800  0.18268800  0.25000000  1
  Ba  Ba4  1  0.31731200  0.31731200  0.75000000  1
  Ba  Ba5  1  0.31731200  0.68268800  0.25000000  1
  Ba  Ba6  1  0.50000000  -0.00000000  0.00053596  1
  Ba  Ba7  1  0.50000000  -0.00000000  0.50053596  1
  Ba  Ba8  1  0.68268800  0.31731200  0.25000000  1
  Ba  Ba9  1  0.68268800  0.68268800  0.75000000  1
  Ba  Ba10  1  0.81731200  0.81731200  0.25000000  1
  Ba  Ba11  1  0.81731200  0.18268800  0.75000000  1
  Ge  Ge12  1  0.00000000  -0.00000000  0.00000000  1
  Ge  Ge13  1  0.00000000  -0.00000000  0.50000000  1
  Ge  Ge14  1  0.50000000  0.50000000  0.00000000  1
  Ge  Ge15  1  0.50000000  0.50000000  0.50000000  1
  O  O16  1  0.00000000  0.50000000  0.22832623  1
  O  O17  1  0.00000000  0.50000000  0.72832623  1
  O  O18  1  0.11591080  0.85029532  0.40756741  1
  O  O19  1  0.11591080  0.14970468  0.90756741  1
  O  O20  1  0.14970468  0.11591080  0.59243259  1
  O  O21  1  0.14970468  0.88408920  0.09243259  1
  O  O22  1  0.35029532  0.61591080  0.90756741  1
  O  O23  1  0.35029532  0.38408920  0.40756741  1
  O  O24  1  0.38408920  0.35029532  0.09243259  1
  O  O25  1  0.38408920  0.64970468  0.59243259  1
  O  O26  1  0.50000000  -0.00000000  0.27167377  1
  O  O27  1  0.50000000  -0.00000000  0.77167377  1
  O  O28  1  0.61591080  0.35029532  0.59243259  1
  O  O29  1  0.61591080  0.64970468  0.09243259  1
  O  O30  1  0.64970468  0.61591080  0.40756741  1
  O  O31  1  0.64970468  0.38408920  0.90756741  1
  O  O32  1  0.85029532  0.88408920  0.59243259  1
  O  O33  1  0.85029532  0.11591080  0.09243259  1
  O  O34  1  0.88408920  0.14970468  0.40756741  1
  O  O35  1  0.88408920  0.85029532  0.90756741  1
