# generated using pymatgen
data_Pr3Si2S8Br
_symmetry_space_group_name_H-M   'P 1'
_cell_length_a   8.85155028
_cell_length_b   8.85155028
_cell_length_c   11.00527378
_cell_angle_alpha   83.18494078
_cell_angle_beta   83.18494078
_cell_angle_gamma   52.34195839
_symmetry_Int_Tables_number   1
_chemical_formula_structural   Pr3Si2S8Br
_chemical_formula_sum   'Pr6 Si4 S16 Br2'
_cell_volume   676.63520095
_cell_formula_units_Z   2
loop_
 _symmetry_equiv_pos_site_id
 _symmetry_equiv_pos_as_xyz
  1  'x, y, z'
loop_
 _atom_site_type_symbol
 _atom_site_label
 _atom_site_symmetry_multiplicity
 _atom_site_fract_x
 _atom_site_fract_y
 _atom_site_fract_z
 _atom_site_occupancy
  Pr  Pr0  1  0.07425100  0.31415500  0.31319200  1
  Pr  Pr1  1  0.68238900  0.93112300  0.18317400  1
  Pr  Pr2  1  0.39260900  0.60422700  0.24791600  1
  Pr  Pr3  1  0.32350700  0.07469400  0.81583400  1
  Pr  Pr4  1  0.93180600  0.68059500  0.68195500  1
  Pr  Pr5  1  0.60568500  0.38819500  0.74998500  1
  Si  Si6  1  0.37902300  0.29889900  0.53089100  1
  Si  Si7  1  0.63199100  0.69026900  0.46813100  1
  Si  Si8  1  0.30597500  0.37158400  0.02603000  1
  Si  Si9  1  0.69363800  0.62365500  0.96633300  1
  S  S10  1  0.41000500  0.71787900  0.95520700  1
  S  S11  1  0.85943500  0.70723000  0.41774000  1
  S  S12  1  0.59954700  0.10282600  0.64548200  1
  S  S13  1  0.74146000  0.56059100  0.16054200  1
  S  S14  1  0.39403500  0.89113600  0.35672600  1
  S  S15  1  0.27091500  0.59332900  0.54614100  1
  S  S16  1  0.25895700  0.45015000  0.84017200  1
  S  S17  1  0.72022900  0.41276500  0.44840000  1
  S  S18  1  0.89506300  0.39176600  0.85713500  1
  S  S19  1  0.59052400  0.27486000  0.05158400  1
  S  S20  1  0.44432200  0.25282300  0.34105000  1
  S  S21  1  0.29375200  0.14016900  0.08779900  1
  S  S22  1  0.10746400  0.60707300  0.14337400  1
  S  S23  1  0.55385100  0.74842900  0.65957400  1
  S  S24  1  0.13905700  0.28999700  0.58628400  1
  S  S25  1  0.70520800  0.86072300  0.91394700  1
  Br  Br26  1  0.98882400  0.00661900  0.25121800  1
  Br  Br27  1  0.99911200  0.00070700  0.75248400  1
