# generated using pymatgen
data_V4OF11
_symmetry_space_group_name_H-M   'P 1'
_cell_length_a   5.04893612
_cell_length_b   5.30653502
_cell_length_c   16.88919517
_cell_angle_alpha   88.57428937
_cell_angle_beta   98.35784881
_cell_angle_gamma   117.87934882
_symmetry_Int_Tables_number   1
_chemical_formula_structural   V4OF11
_chemical_formula_sum   'V8 O2 F22'
_cell_volume   395.25280912
_cell_formula_units_Z   2
loop_
 _symmetry_equiv_pos_site_id
 _symmetry_equiv_pos_as_xyz
  1  'x, y, z'
loop_
 _atom_site_type_symbol
 _atom_site_label
 _atom_site_symmetry_multiplicity
 _atom_site_fract_x
 _atom_site_fract_y
 _atom_site_fract_z
 _atom_site_occupancy
  V  V0  1  0.24053599  0.63331279  0.87758799  1
  V  V1  1  0.24721007  0.12725918  0.37558308  1
  V  V2  1  0.49991932  0.24570176  0.74676105  1
  V  V3  1  0.50152740  0.74842991  0.25023948  1
  V  V4  1  0.73196328  0.89415803  0.62588286  1
  V  V5  1  0.75527091  0.37093378  0.12411931  1
  V  V6  1  0.00890652  0.98521330  0.99419587  1
  V  V7  1  0.99322421  0.50606307  0.50102076  1
  O  O8  1  0.08768395  0.83700451  0.91518360  1
  O  O9  1  0.58710172  0.08324777  0.66439583  1
  F  F10  1  0.00172648  0.29913772  0.93439543  1
  F  F11  1  -0.00761531  0.80935036  0.43819293  1
  F  F12  1  0.48553087  0.94144126  0.81373817  1
  F  F13  1  0.07339509  0.02971414  0.71514680  1
  F  F14  1  0.06435991  0.34529276  0.40890439  1
  F  F15  1  0.06145133  0.51809764  0.21634927  1
  F  F16  1  0.56991485  0.76638014  0.96740670  1
  F  F17  1  0.42200091  0.41823692  0.83817891  1
  F  F18  1  0.42805172  0.90756560  0.34129511  1
  F  F19  1  0.43551633  0.72466915  0.53202064  1
  F  F20  1  0.50779485  0.55560847  0.68551991  1
  F  F21  1  0.50315084  0.44478665  0.31308697  1
  F  F22  1  0.55341567  0.27641442  0.46818424  1
  F  F23  1  0.57432967  0.58794984  0.15974020  1
  F  F24  1  0.44287301  0.22893345  0.03335325  1
  F  F25  1  0.92657640  0.66808576  0.59207388  1
  F  F26  1  0.92509616  0.46847614  0.78409657  1
  F  F27  1  0.94182252  0.97615125  0.28315890  1
  F  F28  1  0.50312366  0.05256773  0.18691773  1
  F  F29  1  0.00936983  0.70076456  0.06578984  1
  F  F30  1  0.99186326  0.19173932  0.56179143  1
  F  F31  1  0.93290559  0.15731563  0.08569090  1
