# generated using pymatgen
data_TlBr3
_symmetry_space_group_name_H-M   'P 1'
_cell_length_a   6.71459163
_cell_length_b   10.56730612
_cell_length_c   13.46605539
_cell_angle_alpha   90.00000000
_cell_angle_beta   90.00000000
_cell_angle_gamma   90.00000000
_symmetry_Int_Tables_number   1
_chemical_formula_structural   TlBr3
_chemical_formula_sum   'Tl4 Br12'
_cell_volume   955.48591581
_cell_formula_units_Z   4
loop_
 _symmetry_equiv_pos_site_id
 _symmetry_equiv_pos_as_xyz
  1  'x, y, z'
loop_
 _atom_site_type_symbol
 _atom_site_label
 _atom_site_symmetry_multiplicity
 _atom_site_fract_x
 _atom_site_fract_y
 _atom_site_fract_z
 _atom_site_occupancy
  Tl  Tl0  1  0.66433675  0.25000000  0.75271558  1
  Tl  Tl1  1  0.83566325  0.25000000  0.25271558  1
  Tl  Tl2  1  0.33566325  0.75000000  0.24728442  1
  Tl  Tl3  1  0.16433675  0.75000000  0.74728442  1
  Br  Br4  1  0.82817734  0.25000000  0.58425189  1
  Br  Br5  1  0.67182266  0.25000000  0.08425189  1
  Br  Br6  1  0.17182266  0.75000000  0.41574811  1
  Br  Br7  1  0.32817734  0.75000000  0.91574811  1
  Br  Br8  1  0.57305955  0.45428432  0.83748273  1
  Br  Br9  1  0.92694045  0.04571568  0.33748273  1
  Br  Br10  1  0.42694045  0.95428432  0.16251727  1
  Br  Br11  1  0.07305955  0.54571568  0.66251727  1
  Br  Br12  1  0.42694045  0.54571568  0.16251727  1
  Br  Br13  1  0.07305955  0.95428432  0.66251727  1
  Br  Br14  1  0.57305955  0.04571568  0.83748273  1
  Br  Br15  1  0.92694045  0.45428432  0.33748273  1
