# generated using pymatgen
data_BaGa4O7
_symmetry_space_group_name_H-M   'P 1'
_cell_length_a   8.32268700
_cell_length_b   8.32268700
_cell_length_c   5.80289342
_cell_angle_alpha   78.06207485
_cell_angle_beta   78.06207485
_cell_angle_gamma   69.12435356
_symmetry_Int_Tables_number   1
_chemical_formula_structural   BaGa4O7
_chemical_formula_sum   'Ba2 Ga8 O14'
_cell_volume   363.52341690
_cell_formula_units_Z   2
loop_
 _symmetry_equiv_pos_site_id
 _symmetry_equiv_pos_as_xyz
  1  'x, y, z'
loop_
 _atom_site_type_symbol
 _atom_site_label
 _atom_site_symmetry_multiplicity
 _atom_site_fract_x
 _atom_site_fract_y
 _atom_site_fract_z
 _atom_site_occupancy
  Ba  Ba0  1  0.30885665  0.69114335  0.25000000  1
  Ba  Ba1  1  0.69114335  0.30885665  0.75000000  1
  Ga  Ga2  1  0.81517610  0.94278042  0.27786076  1
  Ga  Ga3  1  0.94278042  0.81517610  0.77786076  1
  Ga  Ga4  1  0.76112741  0.58689304  0.20487513  1
  Ga  Ga5  1  0.58689304  0.76112741  0.70487513  1
  Ga  Ga6  1  0.41310696  0.23887259  0.29512487  1
  Ga  Ga7  1  0.23887259  0.41310696  0.79512487  1
  Ga  Ga8  1  0.05721958  0.18482390  0.22213924  1
  Ga  Ga9  1  0.18482390  0.05721958  0.72213924  1
  O  O10  1  0.87404040  0.75434557  0.10685310  1
  O  O11  1  0.75434557  0.87404040  0.60685310  1
  O  O12  1  0.58602748  0.65898775  0.45364670  1
  O  O13  1  0.88618780  0.36935106  0.33040171  1
  O  O14  1  0.65898775  0.58602748  0.95364670  1
  O  O15  1  0.36935106  0.88618780  0.83040171  1
  O  O16  1  0.02253300  0.97746700  0.25000000  1
  O  O17  1  0.97746700  0.02253300  0.75000000  1
  O  O18  1  0.63064894  0.11381220  0.16959829  1
  O  O19  1  0.34101225  0.41397252  0.04635330  1
  O  O20  1  0.11381220  0.63064894  0.66959829  1
  O  O21  1  0.41397252  0.34101225  0.54635330  1
  O  O22  1  0.24565443  0.12595960  0.39314690  1
  O  O23  1  0.12595960  0.24565443  0.89314690  1
