# generated using pymatgen
data_La2SiO5
_symmetry_space_group_name_H-M   'P 1'
_cell_length_a   8.21145929
_cell_length_b   8.21145929
_cell_length_c   11.05377836
_cell_angle_alpha   61.78258474
_cell_angle_beta   61.78258474
_cell_angle_gamma   50.82784599
_symmetry_Int_Tables_number   1
_chemical_formula_structural   La2SiO5
_chemical_formula_sum   'La8 Si4 O20'
_cell_volume   492.32817397
_cell_formula_units_Z   4
loop_
 _symmetry_equiv_pos_site_id
 _symmetry_equiv_pos_as_xyz
  1  'x, y, z'
loop_
 _atom_site_type_symbol
 _atom_site_label
 _atom_site_symmetry_multiplicity
 _atom_site_fract_x
 _atom_site_fract_y
 _atom_site_fract_z
 _atom_site_occupancy
  La  La0  1  0.76880209  0.52333518  0.66836806  1
  La  La1  1  0.21348663  0.71267622  0.96310156  1
  La  La2  1  0.28732378  0.78651337  0.53689844  1
  La  La3  1  0.52333518  0.76880209  0.16836806  1
  La  La4  1  0.47666482  0.23119791  0.83163194  1
  La  La5  1  0.71267622  0.21348663  0.46310156  1
  La  La6  1  0.78651337  0.28732378  0.03689844  1
  La  La7  1  0.23119791  0.47666482  0.33163194  1
  Si  Si8  1  0.73674276  0.90589215  0.31237988  1
  Si  Si9  1  0.09410785  0.26325724  0.18762012  1
  Si  Si10  1  0.90589215  0.73674276  0.81237988  1
  Si  Si11  1  0.26325724  0.09410785  0.68762012  1
  O  O12  1  0.91771667  0.88981290  0.15826472  1
  O  O13  1  0.13542191  0.24783191  0.56150073  1
  O  O14  1  0.39743282  0.83857396  0.68725103  1
  O  O15  1  0.16256412  0.42417864  0.16527781  1
  O  O16  1  0.57582136  0.83743588  0.33472219  1
  O  O17  1  0.57211801  0.39483278  0.89465571  1
  O  O18  1  0.60516722  0.42788199  0.60534429  1
  O  O19  1  0.11018710  0.08228333  0.34173528  1
  O  O20  1  0.24783191  0.13542191  0.06150073  1
  O  O21  1  0.16142604  0.60256718  0.81274897  1
  O  O22  1  0.83857396  0.39743282  0.18725103  1
  O  O23  1  0.75216809  0.86457809  0.93849927  1
  O  O24  1  0.88981290  0.91771667  0.65826472  1
  O  O25  1  0.39483278  0.57211801  0.39465571  1
  O  O26  1  0.42788199  0.60516722  0.10534429  1
  O  O27  1  0.42417864  0.16256412  0.66527781  1
  O  O28  1  0.83743588  0.57582136  0.83472219  1
  O  O29  1  0.60256718  0.16142604  0.31274897  1
  O  O30  1  0.86457809  0.75216809  0.43849927  1
  O  O31  1  0.08228333  0.11018710  0.84173528  1
