# generated using pymatgen
data_Sn(PO3)2
_symmetry_space_group_name_H-M   'P 1'
_cell_length_a   7.35317695
_cell_length_b   9.23894325
_cell_length_c   16.32609839
_cell_angle_alpha   90.00000000
_cell_angle_beta   90.00000000
_cell_angle_gamma   90.00000000
_symmetry_Int_Tables_number   1
_chemical_formula_structural   Sn(PO3)2
_chemical_formula_sum   'Sn8 P16 O48'
_cell_volume   1109.12303752
_cell_formula_units_Z   8
loop_
 _symmetry_equiv_pos_site_id
 _symmetry_equiv_pos_as_xyz
  1  'x, y, z'
loop_
 _atom_site_type_symbol
 _atom_site_label
 _atom_site_symmetry_multiplicity
 _atom_site_fract_x
 _atom_site_fract_y
 _atom_site_fract_z
 _atom_site_occupancy
  Sn  Sn0  1  0.45740885  0.00527608  0.68612156  1
  Sn  Sn1  1  0.95740885  0.00527608  0.81387844  1
  Sn  Sn2  1  0.95740885  0.49472392  0.31387844  1
  Sn  Sn3  1  0.45740885  0.49472392  0.18612156  1
  Sn  Sn4  1  0.04259115  0.50527608  0.68612156  1
  Sn  Sn5  1  0.54259115  0.50527608  0.81387844  1
  Sn  Sn6  1  0.04259115  0.99472392  0.18612156  1
  Sn  Sn7  1  0.54259115  0.99472392  0.31387844  1
  P  P8  1  0.61850350  0.20556394  0.92070306  1
  P  P9  1  0.11850350  0.20556394  0.57929694  1
  P  P10  1  0.73393238  0.24427670  0.08909359  1
  P  P11  1  0.23393238  0.24427670  0.41090641  1
  P  P12  1  0.73393238  0.25572330  0.58909359  1
  P  P13  1  0.23393238  0.25572330  0.91090641  1
  P  P14  1  0.11850350  0.29443606  0.07929694  1
  P  P15  1  0.61850350  0.29443606  0.42070306  1
  P  P16  1  0.88149650  0.70556394  0.92070306  1
  P  P17  1  0.38149650  0.70556394  0.57929694  1
  P  P18  1  0.76606762  0.74427670  0.08909359  1
  P  P19  1  0.26606762  0.74427670  0.41090641  1
  P  P20  1  0.26606762  0.75572330  0.91090641  1
  P  P21  1  0.76606762  0.75572330  0.58909359  1
  P  P22  1  0.38149650  0.79443606  0.07929694  1
  P  P23  1  0.88149650  0.79443606  0.42070306  1
  O  O24  1  0.69765968  0.11601852  0.85435428  1
  O  O25  1  0.19765968  0.11601852  0.64564572  1
  O  O26  1  0.27580830  0.13914567  0.34504828  1
  O  O27  1  0.77580830  0.13914567  0.15495172  1
  O  O28  1  0.70222352  0.15704981  0.00576878  1
  O  O29  1  0.20222352  0.15704981  0.49423122  1
  O  O30  1  0.63260483  0.13315998  0.41283084  1
  O  O31  1  0.13260483  0.13315998  0.08716916  1
  O  O32  1  0.40986680  0.16062330  0.93134453  1
  O  O33  1  0.90986680  0.16062330  0.56865547  1
  O  O34  1  0.57822699  0.15362149  0.59966210  1
  O  O35  1  0.07822699  0.15362149  0.90033790  1
  O  O36  1  0.57822699  0.34637851  0.09966210  1
  O  O37  1  0.07822699  0.34637851  0.40033790  1
  O  O38  1  0.90986680  0.33937670  0.06865547  1
  O  O39  1  0.40986680  0.33937670  0.43134453  1
  O  O40  1  0.13260483  0.36684002  0.58716916  1
  O  O41  1  0.63260483  0.36684002  0.91283084  1
  O  O42  1  0.70222352  0.34295019  0.50576878  1
  O  O43  1  0.20222352  0.34295019  0.99423122  1
  O  O44  1  0.77580830  0.36085433  0.65495172  1
  O  O45  1  0.27580830  0.36085433  0.84504828  1
  O  O46  1  0.19765968  0.38398148  0.14564572  1
  O  O47  1  0.69765968  0.38398148  0.35435428  1
  O  O48  1  0.30234032  0.61601852  0.64564572  1
  O  O49  1  0.80234032  0.61601852  0.85435428  1
  O  O50  1  0.72419170  0.63914567  0.15495172  1
  O  O51  1  0.22419170  0.63914567  0.34504828  1
  O  O52  1  0.79777648  0.65704981  0.00576878  1
  O  O53  1  0.29777648  0.65704981  0.49423122  1
  O  O54  1  0.36739517  0.63315998  0.08716916  1
  O  O55  1  0.86739517  0.63315998  0.41283084  1
  O  O56  1  0.09013320  0.66062330  0.93134453  1
  O  O57  1  0.59013320  0.66062330  0.56865547  1
  O  O58  1  0.42177301  0.65362149  0.90033790  1
  O  O59  1  0.92177301  0.65362149  0.59966210  1
  O  O60  1  0.92177301  0.84637851  0.09966210  1
  O  O61  1  0.42177301  0.84637851  0.40033790  1
  O  O62  1  0.59013320  0.83937670  0.06865547  1
  O  O63  1  0.09013320  0.83937670  0.43134453  1
  O  O64  1  0.86739517  0.86684002  0.91283084  1
  O  O65  1  0.36739517  0.86684002  0.58716916  1
  O  O66  1  0.79777648  0.84295019  0.50576878  1
  O  O67  1  0.29777648  0.84295019  0.99423122  1
  O  O68  1  0.72419170  0.86085433  0.65495172  1
  O  O69  1  0.22419170  0.86085433  0.84504828  1
  O  O70  1  0.30234032  0.88398148  0.14564572  1
  O  O71  1  0.80234032  0.88398148  0.35435428  1
