# generated using pymatgen
data_Na4SiO4
_symmetry_space_group_name_H-M   'P 1'
_cell_length_a   5.55009769
_cell_length_b   5.54061538
_cell_length_c   8.37760242
_cell_angle_alpha   80.90675939
_cell_angle_beta   71.76234934
_cell_angle_gamma   67.54927625
_symmetry_Int_Tables_number   1
_chemical_formula_structural   Na4SiO4
_chemical_formula_sum   'Na8 Si2 O8'
_cell_volume   225.91571164
_cell_formula_units_Z   2
loop_
 _symmetry_equiv_pos_site_id
 _symmetry_equiv_pos_as_xyz
  1  'x, y, z'
loop_
 _atom_site_type_symbol
 _atom_site_label
 _atom_site_symmetry_multiplicity
 _atom_site_fract_x
 _atom_site_fract_y
 _atom_site_fract_z
 _atom_site_occupancy
  Na  Na0  1  0.98119739  0.23216248  0.06301179  1
  Na  Na1  1  0.45347312  0.73581958  0.10836347  1
  Na  Na2  1  0.90097868  0.76517899  0.32983080  1
  Na  Na3  1  0.26430946  0.74265973  0.51754546  1
  Na  Na4  1  0.73569054  0.25734027  0.48245454  1
  Na  Na5  1  0.54652688  0.26418042  0.89163653  1
  Na  Na6  1  0.01880261  0.76783752  0.93698821  1
  Na  Na7  1  0.09902132  0.23482101  0.67016920  1
  Si  Si8  1  0.34269719  0.22434434  0.25226682  1
  Si  Si9  1  0.65730281  0.77565566  0.74773318  1
  O  O10  1  0.34983247  0.95899561  0.85285116  1
  O  O11  1  0.79147408  0.53489143  0.87400129  1
  O  O12  1  0.20852592  0.46510857  0.12599871  1
  O  O13  1  0.84805498  0.95838230  0.69402939  1
  O  O14  1  0.15194502  0.04161770  0.30597061  1
  O  O15  1  0.65234092  0.64763850  0.58629001  1
  O  O16  1  0.65016753  0.04100439  0.14714884  1
  O  O17  1  0.34765908  0.35236150  0.41370999  1
