# generated using pymatgen
data_LiCu2F5
_symmetry_space_group_name_H-M   'P 1'
_cell_length_a   10.03034800
_cell_length_b   10.03034800
_cell_length_c   12.28769200
_cell_angle_alpha   90.00000000
_cell_angle_beta   90.00000000
_cell_angle_gamma   90.00000000
_symmetry_Int_Tables_number   1
_chemical_formula_structural   LiCu2F5
_chemical_formula_sum   'Li8 Cu16 F40'
_cell_volume   1236.23865451
_cell_formula_units_Z   8
loop_
 _symmetry_equiv_pos_site_id
 _symmetry_equiv_pos_as_xyz
  1  'x, y, z'
loop_
 _atom_site_type_symbol
 _atom_site_label
 _atom_site_symmetry_multiplicity
 _atom_site_fract_x
 _atom_site_fract_y
 _atom_site_fract_z
 _atom_site_occupancy
  Li  Li0  1  0.25000000  0.25000000  0.25000000  1
  Li  Li1  1  0.25000000  0.25000000  0.00000000  1
  Li  Li2  1  0.25000000  0.25000000  0.50000000  1
  Li  Li3  1  0.25000000  0.25000000  0.75000000  1
  Li  Li4  1  0.75000000  0.75000000  0.00000000  1
  Li  Li5  1  0.75000000  0.75000000  0.25000000  1
  Li  Li6  1  0.75000000  0.75000000  0.50000000  1
  Li  Li7  1  0.75000000  0.75000000  0.75000000  1
  Cu  Cu8  1  0.03134000  0.04830100  0.39155500  1
  Cu  Cu9  1  0.03134000  0.45169900  0.60844500  1
  Cu  Cu10  1  0.04830100  0.03134000  0.10844500  1
  Cu  Cu11  1  0.04830100  0.46866000  0.89155500  1
  Cu  Cu12  1  0.45169900  0.46866000  0.10844500  1
  Cu  Cu13  1  0.45169900  0.03134000  0.89155500  1
  Cu  Cu14  1  0.46866000  0.45169900  0.39155500  1
  Cu  Cu15  1  0.46866000  0.04830100  0.60844500  1
  Cu  Cu16  1  0.53134000  0.95169900  0.39155500  1
  Cu  Cu17  1  0.53134000  0.54830100  0.60844500  1
  Cu  Cu18  1  0.54830100  0.53134000  0.89155500  1
  Cu  Cu19  1  0.54830100  0.96866000  0.10844500  1
  Cu  Cu20  1  0.95169900  0.96866000  0.89155500  1
  Cu  Cu21  1  0.95169900  0.53134000  0.10844500  1
  Cu  Cu22  1  0.96866000  0.54830100  0.39155500  1
  Cu  Cu23  1  0.96866000  0.95169900  0.60844500  1
  F  F24  1  0.01315000  0.01315000  0.75000000  1
  F  F25  1  0.01315000  0.48685000  0.25000000  1
  F  F26  1  0.05542700  0.39616000  0.03788200  1
  F  F27  1  0.05542700  0.10384000  0.96211800  1
  F  F28  1  0.10384000  0.05542700  0.53788200  1
  F  F29  1  0.10384000  0.44457300  0.46211800  1
  F  F30  1  0.13107600  0.19680300  0.35965800  1
  F  F31  1  0.13107600  0.30319700  0.64034200  1
  F  F32  1  0.19680300  0.13107600  0.14034200  1
  F  F33  1  0.19680300  0.36892400  0.85965800  1
  F  F34  1  0.30319700  0.13107600  0.85965800  1
  F  F35  1  0.30319700  0.36892400  0.14034200  1
  F  F36  1  0.36892400  0.19680300  0.64034200  1
  F  F37  1  0.36892400  0.30319700  0.35965800  1
  F  F38  1  0.39616000  0.05542700  0.46211800  1
  F  F39  1  0.39616000  0.44457300  0.53788200  1
  F  F40  1  0.44457300  0.10384000  0.03788200  1
  F  F41  1  0.44457300  0.39616000  0.96211800  1
  F  F42  1  0.48685000  0.01315000  0.25000000  1
  F  F43  1  0.48685000  0.48685000  0.75000000  1
  F  F44  1  0.51315000  0.51315000  0.25000000  1
  F  F45  1  0.51315000  0.98685000  0.75000000  1
  F  F46  1  0.55542700  0.60384000  0.03788200  1
  F  F47  1  0.55542700  0.89616000  0.96211800  1
  F  F48  1  0.60384000  0.55542700  0.46211800  1
  F  F49  1  0.60384000  0.94457300  0.53788200  1
  F  F50  1  0.63107600  0.69680300  0.64034200  1
  F  F51  1  0.63107600  0.80319700  0.35965800  1
  F  F52  1  0.69680300  0.63107600  0.85965800  1
  F  F53  1  0.69680300  0.86892400  0.14034200  1
  F  F54  1  0.80319700  0.63107600  0.14034200  1
  F  F55  1  0.80319700  0.86892400  0.85965800  1
  F  F56  1  0.86892400  0.69680300  0.35965800  1
  F  F57  1  0.86892400  0.80319700  0.64034200  1
  F  F58  1  0.89616000  0.55542700  0.53788200  1
  F  F59  1  0.89616000  0.94457300  0.46211800  1
  F  F60  1  0.94457300  0.60384000  0.96211800  1
  F  F61  1  0.94457300  0.89616000  0.03788200  1
  F  F62  1  0.98685000  0.51315000  0.75000000  1
  F  F63  1  0.98685000  0.98685000  0.25000000  1
