# generated using pymatgen
data_Na3CuO2
_symmetry_space_group_name_H-M   'P 1'
_cell_length_a   8.68570884
_cell_length_b   5.75123865
_cell_length_c   7.65202388
_cell_angle_alpha   68.52839076
_cell_angle_beta   90.00000000
_cell_angle_gamma   90.00000000
_symmetry_Int_Tables_number   1
_chemical_formula_structural   Na3CuO2
_chemical_formula_sum   'Na12 Cu4 O8'
_cell_volume   355.71778719
_cell_formula_units_Z   4
loop_
 _symmetry_equiv_pos_site_id
 _symmetry_equiv_pos_as_xyz
  1  'x, y, z'
loop_
 _atom_site_type_symbol
 _atom_site_label
 _atom_site_symmetry_multiplicity
 _atom_site_fract_x
 _atom_site_fract_y
 _atom_site_fract_z
 _atom_site_occupancy
  Na  Na0  1  0.96845922  0.75363368  0.50093261  1
  Na  Na1  1  0.53030357  0.74204178  0.62447177  1
  Na  Na2  1  0.71567090  0.23842945  0.68750074  1
  Na  Na3  1  0.03030357  0.25795822  0.87552823  1
  Na  Na4  1  0.21567090  0.76157055  0.81249926  1
  Na  Na5  1  0.46845922  0.24636632  0.99906739  1
  Na  Na6  1  0.53154078  0.75363368  0.00093261  1
  Na  Na7  1  0.78432910  0.23842945  0.18750074  1
  Na  Na8  1  0.96969643  0.74204178  0.12447177  1
  Na  Na9  1  0.28432910  0.76157055  0.31249926  1
  Na  Na10  1  0.46969643  0.25795822  0.37552823  1
  Na  Na11  1  0.03154078  0.24636632  0.49906739  1
  Cu  Cu12  1  0.32154756  0.29481136  0.67354388  1
  Cu  Cu13  1  0.82154756  0.70518864  0.82645612  1
  Cu  Cu14  1  0.17845244  0.29481136  0.17354388  1
  Cu  Cu15  1  0.67845244  0.70518864  0.32645612  1
  O  O16  1  0.17680431  0.52913937  0.61753272  1
  O  O17  1  0.46401258  0.05532056  0.72145398  1
  O  O18  1  0.67680431  0.47086063  0.88246728  1
  O  O19  1  0.96401258  0.94467944  0.77854602  1
  O  O20  1  0.03598742  0.05532056  0.22145398  1
  O  O21  1  0.32319569  0.52913937  0.11753272  1
  O  O22  1  0.53598742  0.94467944  0.27854602  1
  O  O23  1  0.82319569  0.47086063  0.38246728  1
