# generated using pymatgen
data_V4(OF3)3
_symmetry_space_group_name_H-M   'P 1'
_cell_length_a   5.10639472
_cell_length_b   5.27564713
_cell_length_c   16.93757186
_cell_angle_alpha   83.31158301
_cell_angle_beta   81.33743188
_cell_angle_gamma   61.21387085
_symmetry_Int_Tables_number   1
_chemical_formula_structural   V4(OF3)3
_chemical_formula_sum   'V8 O6 F18'
_cell_volume   394.83279484
_cell_formula_units_Z   2
loop_
 _symmetry_equiv_pos_site_id
 _symmetry_equiv_pos_as_xyz
  1  'x, y, z'
loop_
 _atom_site_type_symbol
 _atom_site_label
 _atom_site_symmetry_multiplicity
 _atom_site_fract_x
 _atom_site_fract_y
 _atom_site_fract_z
 _atom_site_occupancy
  V  V0  1  0.61810780  0.63103781  0.12533337  1
  V  V1  1  0.15392928  0.10026102  0.62603083  1
  V  V2  1  0.24686036  0.21907430  0.24766194  1
  V  V3  1  0.71614376  0.75927847  0.75097998  1
  V  V4  1  0.89554956  0.88790024  0.37312379  1
  V  V5  1  0.38008035  0.40332598  0.87343800  1
  V  V6  1  0.99047505  0.03710579  0.00452460  1
  V  V7  1  0.50742920  0.51978334  0.50349617  1
  O  O8  1  0.89655321  0.30675506  0.06286063  1
  O  O9  1  0.40808187  0.80235811  0.56003705  1
  O  O10  1  0.34338906  0.95333388  0.18681402  1
  O  O11  1  0.07812666  0.07410667  0.33536898  1
  O  O12  1  0.57128075  0.58101934  0.83466269  1
  O  O13  1  0.39252385  0.94649876  0.70815677  1
  F  F14  1  0.84631689  0.82770333  0.08721502  1
  F  F15  1  0.63285040  0.03975548  0.28790701  1
  F  F16  1  0.35672304  0.32375124  0.58782467  1
  F  F17  1  0.12420049  0.53559109  0.78808860  1
  F  F18  1  0.39379781  0.78807744  0.03459749  1
  F  F19  1  0.39606306  0.43038493  0.16414563  1
  F  F20  1  0.92324683  0.90859829  0.66390074  1
  F  F21  1  0.11388767  0.69456993  0.46351891  1
  F  F22  1  0.15640714  0.55077618  0.31250550  1
  F  F23  1  0.85450287  0.42871767  0.68465752  1
  F  F24  1  0.90325560  0.28140515  0.53462102  1
  F  F25  1  0.59713487  0.21464340  0.96533655  1
  F  F26  1  0.66561755  0.66447429  0.40999208  1
  F  F27  1  0.84735344  0.47214309  0.21473057  1
  F  F28  1  0.66485016  0.05500752  0.81652201  1
  F  F29  1  0.07630588  0.70247384  0.94002999  1
  F  F30  1  0.59108196  0.18563183  0.44077561  1
  F  F31  1  0.15787061  0.17445952  0.91114424  1
