# generated using pymatgen
data_DyHO2
_symmetry_space_group_name_H-M   'P 1'
_cell_length_a   5.45047813
_cell_length_b   4.84277518
_cell_length_c   3.48822234
_cell_angle_alpha   90.00000000
_cell_angle_beta   90.00000000
_cell_angle_gamma   90.00000000
_symmetry_Int_Tables_number   1
_chemical_formula_structural   DyHO2
_chemical_formula_sum   'Dy2 H2 O4'
_cell_volume   92.07316420
_cell_formula_units_Z   2
loop_
 _symmetry_equiv_pos_site_id
 _symmetry_equiv_pos_as_xyz
  1  'x, y, z'
loop_
 _atom_site_type_symbol
 _atom_site_label
 _atom_site_symmetry_multiplicity
 _atom_site_fract_x
 _atom_site_fract_y
 _atom_site_fract_z
 _atom_site_occupancy
  Dy  Dy0  1  0.01515667  0.28091198  -0.00000000  1
  Dy  Dy1  1  0.51515667  0.71908802  0.50000000  1
  H  H2  1  0.03866176  0.81645340  0.50000000  1
  H  H3  1  0.53866176  0.18354660  -0.00000000  1
  O  O4  1  0.14605553  0.98425487  0.50000000  1
  O  O5  1  0.37735004  0.48088028  0.00000000  1
  O  O6  1  0.64605553  0.01574513  -0.00000000  1
  O  O7  1  0.87735004  0.51911972  0.50000000  1
