# generated using pymatgen
data_VF4
_symmetry_space_group_name_H-M   'P 1'
_cell_length_a   4.71590609
_cell_length_b   4.71590526
_cell_length_c   3.02324519
_cell_angle_alpha   89.64616080
_cell_angle_beta   90.35384424
_cell_angle_gamma   73.81389799
_symmetry_Int_Tables_number   1
_chemical_formula_structural   VF4
_chemical_formula_sum   'V1 F4'
_cell_volume   64.56769603
_cell_formula_units_Z   1
loop_
 _symmetry_equiv_pos_site_id
 _symmetry_equiv_pos_as_xyz
  1  'x, y, z'
loop_
 _atom_site_type_symbol
 _atom_site_label
 _atom_site_symmetry_multiplicity
 _atom_site_fract_x
 _atom_site_fract_y
 _atom_site_fract_z
 _atom_site_occupancy
  V  V0  1  0.00000000  -0.00000000  -0.00000000  1
  F  F1  1  0.23128509  0.23128509  0.00000000  1
  F  F2  1  0.21553611  0.78446389  0.50452514  1
  F  F3  1  0.78446389  0.21553611  0.49547486  1
  F  F4  1  0.76871491  0.76871491  -0.00000000  1
