# generated using pymatgen
data_Dy2(SeO4)3
_symmetry_space_group_name_H-M   'P 1'
_cell_length_a   9.61018922
_cell_length_b   9.67347927
_cell_length_c   13.14608906
_cell_angle_alpha   90.00000000
_cell_angle_beta   90.00000000
_cell_angle_gamma   90.00000000
_symmetry_Int_Tables_number   1
_chemical_formula_structural   Dy2(SeO4)3
_chemical_formula_sum   'Dy8 Se12 O48'
_cell_volume   1222.11257904
_cell_formula_units_Z   4
loop_
 _symmetry_equiv_pos_site_id
 _symmetry_equiv_pos_as_xyz
  1  'x, y, z'
loop_
 _atom_site_type_symbol
 _atom_site_label
 _atom_site_symmetry_multiplicity
 _atom_site_fract_x
 _atom_site_fract_y
 _atom_site_fract_z
 _atom_site_occupancy
  Dy  Dy0  1  0.24982715  0.96112138  0.12047405  1
  Dy  Dy1  1  0.75017285  0.46112138  0.12047405  1
  Dy  Dy2  1  0.25017285  0.46112138  0.37952595  1
  Dy  Dy3  1  0.74982715  0.96112138  0.37952595  1
  Dy  Dy4  1  0.25017285  0.03887862  0.62047405  1
  Dy  Dy5  1  0.74982715  0.53887862  0.62047405  1
  Dy  Dy6  1  0.24982715  0.53887862  0.87952595  1
  Dy  Dy7  1  0.75017285  0.03887862  0.87952595  1
  Se  Se8  1  0.03295842  0.25000000  0.00000000  1
  Se  Se9  1  0.96704158  0.75000000  0.00000000  1
  Se  Se10  1  0.39777985  0.61503158  0.14632725  1
  Se  Se11  1  0.60222015  0.11503158  0.14632725  1
  Se  Se12  1  0.10222015  0.11503158  0.35367275  1
  Se  Se13  1  0.89777985  0.61503158  0.35367275  1
  Se  Se14  1  0.46704158  0.75000000  0.50000000  1
  Se  Se15  1  0.53295842  0.25000000  0.50000000  1
  Se  Se16  1  0.10222015  0.38496842  0.64632725  1
  Se  Se17  1  0.89777985  0.88496842  0.64632725  1
  Se  Se18  1  0.39777985  0.88496842  0.85367275  1
  Se  Se19  1  0.60222015  0.38496842  0.85367275  1
  O  O20  1  0.65779051  0.08693710  0.03018896  1
  O  O21  1  0.34220949  0.58693710  0.03018896  1
  O  O22  1  0.86811665  0.63955335  0.06047465  1
  O  O23  1  0.13188335  0.13955335  0.06047465  1
  O  O24  1  0.06458406  0.82991658  0.08378301  1
  O  O25  1  0.93541594  0.32991658  0.08378301  1
  O  O26  1  0.43269325  0.09795649  0.15102452  1
  O  O27  1  0.56730675  0.59795649  0.15102452  1
  O  O28  1  0.35720061  0.77261517  0.18189625  1
  O  O29  1  0.64279939  0.27261517  0.18189625  1
  O  O30  1  0.32469728  0.50152305  0.22217814  1
  O  O31  1  0.67530272  0.00152305  0.22217814  1
  O  O32  1  0.17530272  0.00152305  0.27782186  1
  O  O33  1  0.82469728  0.50152305  0.27782186  1
  O  O34  1  0.85720061  0.77261517  0.31810375  1
  O  O35  1  0.14279939  0.27261517  0.31810375  1
  O  O36  1  0.06730675  0.59795649  0.34897548  1
  O  O37  1  0.93269325  0.09795649  0.34897548  1
  O  O38  1  0.43541594  0.32991658  0.41621699  1
  O  O39  1  0.56458406  0.82991658  0.41621699  1
  O  O40  1  0.36811665  0.63955335  0.43952535  1
  O  O41  1  0.63188335  0.13955335  0.43952535  1
  O  O42  1  0.15779051  0.08693710  0.46981104  1
  O  O43  1  0.84220949  0.58693710  0.46981104  1
  O  O44  1  0.15779051  0.41306290  0.53018896  1
  O  O45  1  0.84220949  0.91306290  0.53018896  1
  O  O46  1  0.63188335  0.36044665  0.56047465  1
  O  O47  1  0.36811665  0.86044665  0.56047465  1
  O  O48  1  0.43541594  0.17008342  0.58378301  1
  O  O49  1  0.56458406  0.67008342  0.58378301  1
  O  O50  1  0.06730675  0.90204351  0.65102452  1
  O  O51  1  0.93269325  0.40204351  0.65102452  1
  O  O52  1  0.14279939  0.22738483  0.68189625  1
  O  O53  1  0.85720061  0.72738483  0.68189625  1
  O  O54  1  0.17530272  0.49847695  0.72217814  1
  O  O55  1  0.82469728  0.99847695  0.72217814  1
  O  O56  1  0.32469728  0.99847695  0.77782186  1
  O  O57  1  0.67530272  0.49847695  0.77782186  1
  O  O58  1  0.35720061  0.72738483  0.81810375  1
  O  O59  1  0.64279939  0.22738483  0.81810375  1
  O  O60  1  0.43269325  0.40204351  0.84897548  1
  O  O61  1  0.56730675  0.90204351  0.84897548  1
  O  O62  1  0.06458406  0.67008342  0.91621699  1
  O  O63  1  0.93541594  0.17008342  0.91621699  1
  O  O64  1  0.13188335  0.36044665  0.93952535  1
  O  O65  1  0.86811665  0.86044665  0.93952535  1
  O  O66  1  0.34220949  0.91306290  0.96981104  1
  O  O67  1  0.65779051  0.41306290  0.96981104  1
