# generated using pymatgen
data_RbTaO3
_symmetry_space_group_name_H-M   'P 1'
_cell_length_a   5.10774272
_cell_length_b   8.46252930
_cell_length_c   8.99465636
_cell_angle_alpha   114.26732810
_cell_angle_beta   93.68768393
_cell_angle_gamma   94.53177721
_symmetry_Int_Tables_number   1
_chemical_formula_structural   RbTaO3
_chemical_formula_sum   'Rb4 Ta4 O12'
_cell_volume   351.31680591
_cell_formula_units_Z   4
loop_
 _symmetry_equiv_pos_site_id
 _symmetry_equiv_pos_as_xyz
  1  'x, y, z'
loop_
 _atom_site_type_symbol
 _atom_site_label
 _atom_site_symmetry_multiplicity
 _atom_site_fract_x
 _atom_site_fract_y
 _atom_site_fract_z
 _atom_site_occupancy
  Rb  Rb0  1  0.50000000  0.50000000  -0.00000000  1
  Rb  Rb1  1  0.91124168  0.20247623  0.59629044  1
  Rb  Rb2  1  0.50000000  0.50000000  0.50000000  1
  Rb  Rb3  1  0.08875832  0.79752377  0.40370956  1
  Ta  Ta4  1  0.52532214  0.01183347  0.81426630  1
  Ta  Ta5  1  0.99792162  0.78469749  0.85462720  1
  Ta  Ta6  1  0.00207838  0.21530251  0.14537280  1
  Ta  Ta7  1  0.47467786  0.98816653  0.18573370  1
  O  O8  1  0.26267616  0.07543188  0.99007218  1
  O  O9  1  0.78083865  0.21399958  0.95805156  1
  O  O10  1  0.40221749  0.10766974  0.68249325  1
  O  O11  1  0.85199235  0.56076093  0.76923752  1
  O  O12  1  0.28942111  0.78219675  0.72887001  1
  O  O13  1  0.80068031  0.87656937  0.70722496  1
  O  O14  1  0.19931969  0.12343063  0.29277504  1
  O  O15  1  0.71057889  0.21780325  0.27112999  1
  O  O16  1  0.14800765  0.43923907  0.23076248  1
  O  O17  1  0.59778251  0.89233026  0.31750675  1
  O  O18  1  0.21916135  0.78600042  0.04194844  1
  O  O19  1  0.73732384  0.92456812  0.00992782  1
