# generated using pymatgen
data_Tm2SeO2
_symmetry_space_group_name_H-M   'P 1'
_cell_length_a   3.75543439
_cell_length_b   3.75542872
_cell_length_c   6.69870231
_cell_angle_alpha   89.99989047
_cell_angle_beta   90.00001549
_cell_angle_gamma   119.99979988
_symmetry_Int_Tables_number   1
_chemical_formula_structural   Tm2SeO2
_chemical_formula_sum   'Tm2 Se1 O2'
_cell_volume   81.81668674
_cell_formula_units_Z   1
loop_
 _symmetry_equiv_pos_site_id
 _symmetry_equiv_pos_as_xyz
  1  'x, y, z'
loop_
 _atom_site_type_symbol
 _atom_site_label
 _atom_site_symmetry_multiplicity
 _atom_site_fract_x
 _atom_site_fract_y
 _atom_site_fract_z
 _atom_site_occupancy
  Tm  Tm0  1  0.33332394  0.66667029  0.29240100  1
  Tm  Tm1  1  0.66665765  0.33332971  0.70759800  1
  Se  Se2  1  0.99982019  -0.00000000  0.00000000  1
  O  O3  1  0.33333016  0.66666511  0.62522644  1
  O  O4  1  0.66666706  0.33333489  0.37477356  1
