# generated using pymatgen
data_AlH18(NO6)3
_symmetry_space_group_name_H-M   'P 1'
_cell_length_a   9.31905014
_cell_length_b   10.74867295
_cell_length_c   13.84275630
_cell_angle_alpha   84.18204970
_cell_angle_beta   90.00000000
_cell_angle_gamma   90.00000000
_symmetry_Int_Tables_number   1
_chemical_formula_structural   AlH18(NO6)3
_chemical_formula_sum   'Al4 H72 N12 O72'
_cell_volume   1379.45087234
_cell_formula_units_Z   4
loop_
 _symmetry_equiv_pos_site_id
 _symmetry_equiv_pos_as_xyz
  1  'x, y, z'
loop_
 _atom_site_type_symbol
 _atom_site_label
 _atom_site_symmetry_multiplicity
 _atom_site_fract_x
 _atom_site_fract_y
 _atom_site_fract_z
 _atom_site_occupancy
  Al  Al0  1  0.50000000  0.50000000  0.00000000  1
  Al  Al1  1  0.00000000  -0.00000000  0.00000000  1
  Al  Al2  1  0.50000000  -0.00000000  0.50000000  1
  Al  Al3  1  0.00000000  0.50000000  0.50000000  1
  H  H4  1  0.65505701  0.56894352  0.85132168  1
  H  H5  1  0.15505701  0.93105648  0.14867832  1
  H  H6  1  0.34494299  0.43105648  0.14867832  1
  H  H7  1  0.84494299  0.06894352  0.85132168  1
  H  H8  1  0.70584978  0.42950425  0.89894456  1
  H  H9  1  0.20584978  0.07049575  0.10105544  1
  H  H10  1  0.29415022  0.57049575  0.10105544  1
  H  H11  1  0.79415022  0.92950425  0.89894456  1
  H  H12  1  0.41492936  0.72842961  0.94909594  1
  H  H13  1  0.91492936  0.77157039  0.05090406  1
  H  H14  1  0.58507064  0.27157039  0.05090406  1
  H  H15  1  0.08507064  0.22842961  0.94909594  1
  H  H16  1  0.34939607  0.63550371  0.87563259  1
  H  H17  1  0.84939607  0.86449629  0.12436741  1
  H  H18  1  0.65060393  0.36449629  0.12436741  1
  H  H19  1  0.15060393  0.13550371  0.87563259  1
  H  H20  1  0.42126407  0.36853549  0.86509831  1
  H  H21  1  0.92126407  0.13146451  0.13490169  1
  H  H22  1  0.57873593  0.63146451  0.13490169  1
  H  H23  1  0.07873593  0.86853549  0.86509831  1
  H  H24  1  0.28626269  0.38206481  0.94076526  1
  H  H25  1  0.78626269  0.11793519  0.05923474  1
  H  H26  1  0.71373731  0.61793519  0.05923474  1
  H  H27  1  0.21373731  0.88206481  0.94076526  1
  H  H28  1  0.64872885  0.06791418  0.34879645  1
  H  H29  1  0.14872885  0.43208582  0.65120355  1
  H  H30  1  0.35127115  0.93208582  0.65120355  1
  H  H31  1  0.85127115  0.56791418  0.34879645  1
  H  H32  1  0.69450226  0.92506866  0.38832701  1
  H  H33  1  0.19450226  0.57493134  0.61167299  1
  H  H34  1  0.30549774  0.07493134  0.61167299  1
  H  H35  1  0.80549774  0.42506866  0.38832701  1
  H  H36  1  0.40761631  0.22485797  0.43818678  1
  H  H37  1  0.90761631  0.27514203  0.56181322  1
  H  H38  1  0.59238369  0.77514203  0.56181322  1
  H  H39  1  0.09238369  0.72485797  0.43818678  1
  H  H40  1  0.36642930  0.12277769  0.36472119  1
  H  H41  1  0.86642930  0.37722231  0.63527881  1
  H  H42  1  0.63357070  0.87722231  0.63527881  1
  H  H43  1  0.13357070  0.62277769  0.36472119  1
  H  H44  1  0.41901442  0.81481613  0.40409406  1
  H  H45  1  0.91901442  0.68518387  0.59590594  1
  H  H46  1  0.58098558  0.18518387  0.59590594  1
  H  H47  1  0.08098558  0.31481613  0.40409406  1
  H  H48  1  0.28249915  0.88490011  0.44407501  1
  H  H49  1  0.78249915  0.61509989  0.55592499  1
  H  H50  1  0.71750085  0.11509989  0.55592499  1
  H  H51  1  0.21750085  0.38490011  0.44407501  1
  H  H52  1  0.06271125  0.43549900  0.92342835  1
  H  H53  1  0.56271125  0.06450100  0.07657165  1
  H  H54  1  0.93728875  0.56450100  0.07657165  1
  H  H55  1  0.43728875  0.93549900  0.92342835  1
  H  H56  1  0.10007326  0.39359452  0.03372470  1
  H  H57  1  0.60007326  0.10640548  0.96627530  1
  H  H58  1  0.89992674  0.60640548  0.96627530  1
  H  H59  1  0.39992674  0.89359452  0.03372470  1
  H  H60  1  0.05877803  0.92129398  0.39822265  1
  H  H61  1  0.55877803  0.57870602  0.60177735  1
  H  H62  1  0.94122197  0.07870602  0.60177735  1
  H  H63  1  0.44122197  0.42129398  0.39822265  1
  H  H64  1  0.05922762  0.87938889  0.51197184  1
  H  H65  1  0.55922762  0.62061111  0.48802816  1
  H  H66  1  0.94077238  0.12061111  0.48802816  1
  H  H67  1  0.44077238  0.37938889  0.51197184  1
  H  H68  1  0.97375203  0.39096521  0.18216899  1
  H  H69  1  0.47375203  0.10903479  0.81783101  1
  H  H70  1  0.02624797  0.60903479  0.81783101  1
  H  H71  1  0.52624797  0.89096521  0.18216899  1
  H  H72  1  0.09267049  0.49235778  0.18845857  1
  H  H73  1  0.59267049  0.00764222  0.81154143  1
  H  H74  1  0.90732951  0.50764222  0.81154143  1
  H  H75  1  0.40732951  0.99235778  0.18845857  1
  N  N76  1  0.81114839  0.29224767  0.79905027  1
  N  N77  1  0.31114839  0.20775233  0.20094973  1
  N  N78  1  0.18885161  0.70775233  0.20094973  1
  N  N79  1  0.68885161  0.79224867  0.79905027  1
  N  N80  1  0.71494899  0.27915443  0.28309980  1
  N  N81  1  0.21494899  0.22084557  0.71690020  1
  N  N82  1  0.28505101  0.72084557  0.71690020  1
  N  N83  1  0.78505101  0.77915443  0.28309980  1
  N  N84  1  0.00833770  0.12184626  0.30611258  1
  N  N85  1  0.50833770  0.37815374  0.69388742  1
  N  N86  1  0.99166230  0.87815374  0.69388742  1
  N  N87  1  0.49166230  0.62184626  0.30611258  1
  O  O88  1  0.64676138  0.50430606  0.90708714  1
  O  O89  1  0.14676138  0.99569394  0.09291286  1
  O  O90  1  0.35323862  0.49569394  0.09291286  1
  O  O91  1  0.85323862  0.00430606  0.90708714  1
  O  O92  1  0.41345761  0.64029682  0.93246132  1
  O  O93  1  0.91345761  0.85970318  0.06753868  1
  O  O94  1  0.58654239  0.35970318  0.06753868  1
  O  O95  1  0.08654239  0.14029682  0.93246132  1
  O  O96  1  0.39134203  0.39399011  0.92844201  1
  O  O97  1  0.89134203  0.10600989  0.07155799  1
  O  O98  1  0.60865797  0.60600989  0.07155799  1
  O  O99  1  0.10865797  0.89399011  0.92844201  1
  O  O100  1  0.64504869  0.00225163  0.40437233  1
  O  O101  1  0.14504869  0.49774837  0.59562767  1
  O  O102  1  0.35495131  0.99774837  0.59562767  1
  O  O103  1  0.85495131  0.50225163  0.40437233  1
  O  O104  1  0.40671287  0.13347316  0.42979506  1
  O  O105  1  0.90671287  0.36652684  0.57020494  1
  O  O106  1  0.59328713  0.86652684  0.57020494  1
  O  O107  1  0.09328713  0.63347316  0.42979506  1
  O  O108  1  0.38755172  0.89205741  0.43036217  1
  O  O109  1  0.88755172  0.60794259  0.56963783  1
  O  O110  1  0.61244828  0.10794259  0.56963783  1
  O  O111  1  0.11244828  0.39205741  0.43036217  1
  O  O112  1  0.11656187  0.37323366  0.96699350  1
  O  O113  1  0.61656187  0.12676634  0.03300650  1
  O  O114  1  0.88343813  0.62676634  0.03300650  1
  O  O115  1  0.38343813  0.87323366  0.96699350  1
  O  O116  1  0.10882820  0.86924955  0.45083379  1
  O  O117  1  0.60882820  0.63075045  0.54916621  1
  O  O118  1  0.89117180  0.13075045  0.54916621  1
  O  O119  1  0.39117180  0.36924955  0.45083379  1
  O  O120  1  0.03215635  0.45170812  0.14301655  1
  O  O121  1  0.53215635  0.04829188  0.85698345  1
  O  O122  1  0.96784365  0.54829188  0.85698345  1
  O  O123  1  0.46784365  0.95170812  0.14301655  1
  O  O124  1  0.66927919  0.69237449  0.76211973  1
  O  O125  1  0.16927919  0.80762551  0.23788027  1
  O  O126  1  0.33072081  0.30762551  0.23788027  1
  O  O127  1  0.83072081  0.19237449  0.76211973  1
  O  O128  1  0.78846407  0.29377567  0.88827241  1
  O  O129  1  0.28846407  0.20622433  0.11172759  1
  O  O130  1  0.21153593  0.70622433  0.11172759  1
  O  O131  1  0.71153593  0.79377567  0.88827241  1
  O  O132  1  0.31375596  0.10367060  0.25468678  1
  O  O133  1  0.81375596  0.39632940  0.74531322  1
  O  O134  1  0.68624404  0.89632940  0.74531322  1
  O  O135  1  0.18624404  0.60367060  0.25468678  1
  O  O136  1  0.84240688  0.68282669  0.25542635  1
  O  O137  1  0.34240688  0.81717331  0.74457365  1
  O  O138  1  0.15759312  0.31717331  0.74457365  1
  O  O139  1  0.65759312  0.18282669  0.25542635  1
  O  O140  1  0.73815751  0.28616876  0.37203195  1
  O  O141  1  0.23815751  0.21383124  0.62796805  1
  O  O142  1  0.26184249  0.71383124  0.62796805  1
  O  O143  1  0.76184249  0.78616876  0.37203195  1
  O  O144  1  0.24943165  0.63119396  0.77837133  1
  O  O145  1  0.74943165  0.86880604  0.22162867  1
  O  O146  1  0.75056835  0.36880604  0.22162867  1
  O  O147  1  0.25056835  0.13119396  0.77837133  1
  O  O148  1  0.45319593  0.66130682  0.38558688  1
  O  O149  1  0.95319593  0.83869318  0.61441312  1
  O  O150  1  0.54680407  0.33869318  0.61441312  1
  O  O151  1  0.04680407  0.16130682  0.38558688  1
  O  O152  1  0.98404889  0.00816195  0.30253218  1
  O  O153  1  0.48404889  0.49183805  0.69746782  1
  O  O154  1  0.01595111  0.99183805  0.69746782  1
  O  O155  1  0.51595111  0.50816195  0.30253218  1
  O  O156  1  0.99574213  0.19792193  0.23140386  1
  O  O157  1  0.49574213  0.30207807  0.76859614  1
  O  O158  1  0.00425787  0.80207807  0.76859614  1
  O  O159  1  0.50425787  0.69792193  0.23140386  1
