# generated using pymatgen
data_BaP4PtO14
_symmetry_space_group_name_H-M   'P 1'
_cell_length_a   21.15497500
_cell_length_b   8.32046900
_cell_length_c   9.55309662
_cell_angle_alpha   89.16452085
_cell_angle_beta   90.00000000
_cell_angle_gamma   90.00000000
_symmetry_Int_Tables_number   1
_chemical_formula_structural   BaP4PtO14
_chemical_formula_sum   'Ba4 P16 Pt4 O56'
_cell_volume   1681.35074187
_cell_formula_units_Z   4
loop_
 _symmetry_equiv_pos_site_id
 _symmetry_equiv_pos_as_xyz
  1  'x, y, z'
loop_
 _atom_site_type_symbol
 _atom_site_label
 _atom_site_symmetry_multiplicity
 _atom_site_fract_x
 _atom_site_fract_y
 _atom_site_fract_z
 _atom_site_occupancy
  Ba  Ba0  1  0.41213500  0.18671000  0.51365400  1
  Ba  Ba1  1  0.91213500  0.31329000  0.48634600  1
  Ba  Ba2  1  0.58786500  0.81329000  0.48634600  1
  Ba  Ba3  1  0.08786500  0.68671000  0.51365400  1
  P  P4  1  0.62827700  0.25509700  0.22204900  1
  P  P5  1  0.12827700  0.24490300  0.77795100  1
  P  P6  1  0.37172300  0.74490300  0.77795100  1
  P  P7  1  0.87172300  0.75509700  0.22204900  1
  P  P8  1  0.56571900  0.15160000  0.73614200  1
  P  P9  1  0.06571900  0.34840000  0.26385800  1
  P  P10  1  0.43428100  0.84840000  0.26385800  1
  P  P11  1  0.93428100  0.65160000  0.73614200  1
  P  P12  1  0.37457200  0.41031600  0.87300100  1
  P  P13  1  0.87457200  0.08968400  0.12699900  1
  P  P14  1  0.62542800  0.58968400  0.12699900  1
  P  P15  1  0.12542800  0.91031600  0.87300100  1
  P  P16  1  0.41429700  0.47852300  0.23854500  1
  P  P17  1  0.91429700  0.02147700  0.76145500  1
  P  P18  1  0.58570300  0.52147700  0.76145500  1
  P  P19  1  0.08570300  0.97852300  0.23854500  1
  Pt  Pt20  1  0.45490500  0.40257700  0.02471600  1
  Pt  Pt21  1  0.95490500  0.09742300  0.97528400  1
  Pt  Pt22  1  0.54509500  0.59742300  0.97528400  1
  Pt  Pt23  1  0.04509500  0.90257700  0.02471600  1
  O  O24  1  0.65241700  0.40063100  0.12458200  1
  O  O25  1  0.15241700  0.09936900  0.87541800  1
  O  O26  1  0.34758300  0.59936900  0.87541800  1
  O  O27  1  0.84758300  0.90063100  0.12458200  1
  O  O28  1  0.55729000  0.34449000  0.73647300  1
  O  O29  1  0.05729000  0.15551000  0.26352700  1
  O  O30  1  0.44271000  0.65551000  0.26352700  1
  O  O31  1  0.94271000  0.84449000  0.73647300  1
  O  O32  1  0.59115200  0.30118500  0.34452800  1
  O  O33  1  0.09115200  0.19881500  0.65547200  1
  O  O34  1  0.40884800  0.69881500  0.65547200  1
  O  O35  1  0.90884800  0.80118500  0.34452800  1
  O  O36  1  0.64888000  0.09773100  0.17252600  1
  O  O37  1  0.14888000  0.40226900  0.82747400  1
  O  O38  1  0.35112000  0.90226900  0.82747400  1
  O  O39  1  0.85112000  0.59773100  0.17252600  1
  O  O40  1  0.59444400  0.08158600  0.86252900  1
  O  O41  1  0.09444400  0.41841400  0.13747100  1
  O  O42  1  0.40555600  0.91841400  0.13747100  1
  O  O43  1  0.90555600  0.58158600  0.86252900  1
  O  O44  1  0.50620700  0.09190300  0.66693600  1
  O  O45  1  0.00620700  0.40809700  0.33306400  1
  O  O46  1  0.49379300  0.90809700  0.33306400  1
  O  O47  1  0.99379300  0.59190300  0.66693600  1
  O  O48  1  0.38460800  0.36183100  0.72451300  1
  O  O49  1  0.88460800  0.13816900  0.27548700  1
  O  O50  1  0.61539200  0.63816900  0.27548700  1
  O  O51  1  0.11539200  0.86183100  0.72451300  1
  O  O52  1  0.34056600  0.30734000  0.97871400  1
  O  O53  1  0.84056600  0.19266000  0.02128600  1
  O  O54  1  0.65943400  0.69266000  0.02128600  1
  O  O55  1  0.15943400  0.80734000  0.97871400  1
  O  O56  1  0.34577400  0.46201200  0.26487800  1
  O  O57  1  0.84577400  0.03798800  0.73512200  1
  O  O58  1  0.65422600  0.53798800  0.73512200  1
  O  O59  1  0.15422600  0.96201200  0.26487800  1
  O  O60  1  0.46080500  0.36343800  0.30901200  1
  O  O61  1  0.96080500  0.13656200  0.69098800  1
  O  O62  1  0.53919500  0.63656200  0.69098800  1
  O  O63  1  0.03919500  0.86343800  0.30901200  1
  O  O64  1  0.28264600  0.58838800  0.53564400  1
  O  O65  1  0.78264600  0.91161200  0.46435600  1
  O  O66  1  0.71735400  0.41161200  0.46435600  1
  O  O67  1  0.21735400  0.08838800  0.53564400  1
  O  O68  1  0.24798000  0.02050700  0.62920700  1
  O  O69  1  0.74798000  0.47949300  0.37079300  1
  O  O70  1  0.75202000  0.97949300  0.37079300  1
  O  O71  1  0.25202000  0.52050700  0.62920700  1
  O  O72  1  0.32275400  0.88880000  0.38978000  1
  O  O73  1  0.82275400  0.61120000  0.61022000  1
  O  O74  1  0.67724600  0.11120000  0.61022000  1
  O  O75  1  0.17724600  0.38880000  0.38978000  1
  O  O76  1  0.38584700  0.88156900  0.40962600  1
  O  O77  1  0.88584700  0.61843100  0.59037400  1
  O  O78  1  0.61415300  0.11843100  0.59037400  1
  O  O79  1  0.11415300  0.38156900  0.40962600  1
