# generated using pymatgen
data_Ti(SO4)2
_symmetry_space_group_name_H-M   'P 1'
_cell_length_a   8.97617240
_cell_length_b   8.97617216
_cell_length_c   8.97617331
_cell_angle_alpha   54.44084441
_cell_angle_beta   54.44083946
_cell_angle_gamma   54.44084209
_symmetry_Int_Tables_number   1
_chemical_formula_structural   Ti(SO4)2
_chemical_formula_sum   'Ti3 S6 O24'
_cell_volume   445.10362651
_cell_formula_units_Z   3
loop_
 _symmetry_equiv_pos_site_id
 _symmetry_equiv_pos_as_xyz
  1  'x, y, z'
loop_
 _atom_site_type_symbol
 _atom_site_label
 _atom_site_symmetry_multiplicity
 _atom_site_fract_x
 _atom_site_fract_y
 _atom_site_fract_z
 _atom_site_occupancy
  Ti  Ti0  1  0.14983867  0.14983867  0.14983867  1
  Ti  Ti1  1  0.64830039  0.64830039  0.64830039  1
  Ti  Ti2  1  0.84714522  0.84714522  0.84714522  1
  S  S3  1  0.04394298  0.45344580  0.75512986  1
  S  S4  1  0.45344580  0.75512986  0.04394298  1
  S  S5  1  0.75512986  0.04394298  0.45344580  1
  S  S6  1  0.25026415  0.97159195  0.53114216  1
  S  S7  1  0.53114216  0.25026415  0.97159195  1
  S  S8  1  0.97159195  0.53114216  0.25026415  1
  O  O9  1  0.13769082  0.52238299  0.24192519  1
  O  O10  1  0.24192519  0.13769082  0.52238299  1
  O  O11  1  0.01017070  0.32875330  0.97097449  1
  O  O12  1  0.52238299  0.24192519  0.13769082  1
  O  O13  1  0.01300134  0.64912942  0.72699927  1
  O  O14  1  0.23078354  0.36697702  0.63212764  1
  O  O15  1  0.36697702  0.63212764  0.23078354  1
  O  O16  1  0.32875330  0.97097449  0.01017070  1
  O  O17  1  0.63212764  0.23078354  0.36697702  1
  O  O18  1  0.06254853  0.93504755  0.67833859  1
  O  O19  1  0.28198739  0.98353748  0.34172295  1
  O  O20  1  0.34172295  0.28198739  0.98353748  1
  O  O21  1  0.64912942  0.72699927  0.01300134  1
  O  O22  1  0.72699927  0.01300134  0.64912942  1
  O  O23  1  0.97097449  0.01017070  0.32875330  1
  O  O24  1  0.41096748  0.78641665  0.59241166  1
  O  O25  1  0.67833859  0.06254853  0.93504755  1
  O  O26  1  0.59241166  0.41096748  0.78641665  1
  O  O27  1  0.78641665  0.59241166  0.41096748  1
  O  O28  1  0.98353748  0.34172295  0.28198739  1
  O  O29  1  0.48597945  0.72882122  0.87546715  1
  O  O30  1  0.93504755  0.67833859  0.06254853  1
  O  O31  1  0.72882122  0.87546715  0.48597945  1
  O  O32  1  0.87546715  0.48597945  0.72882122  1
