# generated using pymatgen
data_Na3B3H2O7
_symmetry_space_group_name_H-M   'P 1'
_cell_length_a   7.06791371
_cell_length_b   8.84223616
_cell_length_c   9.51768791
_cell_angle_alpha   90.00000000
_cell_angle_beta   90.00000000
_cell_angle_gamma   90.00000000
_symmetry_Int_Tables_number   1
_chemical_formula_structural   Na3B3H2O7
_chemical_formula_sum   'Na12 B12 H8 O28'
_cell_volume   594.81896722
_cell_formula_units_Z   4
loop_
 _symmetry_equiv_pos_site_id
 _symmetry_equiv_pos_as_xyz
  1  'x, y, z'
loop_
 _atom_site_type_symbol
 _atom_site_label
 _atom_site_symmetry_multiplicity
 _atom_site_fract_x
 _atom_site_fract_y
 _atom_site_fract_z
 _atom_site_occupancy
  Na  Na0  1  0.50252920  0.77197769  0.19584933  1
  Na  Na1  1  0.99747080  0.27197769  0.30415067  1
  Na  Na2  1  0.00252920  0.22802231  0.80415067  1
  Na  Na3  1  0.49747080  0.72802231  0.69584933  1
  Na  Na4  1  0.49747080  0.22802231  0.80415067  1
  Na  Na5  1  0.00252920  0.72802231  0.69584933  1
  Na  Na6  1  0.99747080  0.77197769  0.19584933  1
  Na  Na7  1  0.50252920  0.27197769  0.30415067  1
  Na  Na8  1  0.75000000  0.03751427  0.16897210  1
  Na  Na9  1  0.75000000  0.53751427  0.33102790  1
  Na  Na10  1  0.25000000  0.96248573  0.83102790  1
  Na  Na11  1  0.25000000  0.46248573  0.66897210  1
  B  B12  1  0.25000000  0.01497881  0.28410222  1
  B  B13  1  0.25000000  0.51497881  0.21589778  1
  B  B14  1  0.75000000  0.98502119  0.71589778  1
  B  B15  1  0.75000000  0.48502119  0.78410222  1
  B  B16  1  0.25000000  0.09501769  0.54364268  1
  B  B17  1  0.25000000  0.59501769  0.95635732  1
  B  B18  1  0.75000000  0.90498231  0.45635732  1
  B  B19  1  0.75000000  0.40498231  0.04364268  1
  B  B20  1  0.25000000  0.82184584  0.47984942  1
  B  B21  1  0.25000000  0.32184584  0.02015058  1
  B  B22  1  0.75000000  0.17815416  0.52015058  1
  B  B23  1  0.75000000  0.67815416  0.97984942  1
  H  H24  1  0.37966603  0.08538106  0.10694881  1
  H  H25  1  0.12033397  0.58538106  0.39305119  1
  H  H26  1  0.87966603  0.91461894  0.89305119  1
  H  H27  1  0.62033397  0.41461894  0.60694881  1
  H  H28  1  0.62033397  0.91461894  0.89305119  1
  H  H29  1  0.87966603  0.41461894  0.60694881  1
  H  H30  1  0.12033397  0.08538106  0.10694881  1
  H  H31  1  0.37966603  0.58538106  0.39305119  1
  O  O32  1  0.42035961  0.03481209  0.19441872  1
  O  O33  1  0.07964039  0.53481209  0.30558128  1
  O  O34  1  0.92035961  0.96518791  0.80558128  1
  O  O35  1  0.57964039  0.46518791  0.69441872  1
  O  O36  1  0.57964039  0.96518791  0.80558128  1
  O  O37  1  0.92035961  0.46518791  0.69441872  1
  O  O38  1  0.07964039  0.03481209  0.19441872  1
  O  O39  1  0.42035961  0.53481209  0.30558128  1
  O  O40  1  0.25000000  0.86039189  0.33978403  1
  O  O41  1  0.25000000  0.36039189  0.16021597  1
  O  O42  1  0.75000000  0.13960811  0.66021597  1
  O  O43  1  0.75000000  0.63960811  0.83978403  1
  O  O44  1  0.25000000  0.12706086  0.40012698  1
  O  O45  1  0.25000000  0.62706086  0.09987302  1
  O  O46  1  0.75000000  0.87293914  0.59987302  1
  O  O47  1  0.75000000  0.37293914  0.90012698  1
  O  O48  1  0.25000000  0.19877114  0.64362570  1
  O  O49  1  0.25000000  0.69877114  0.85637430  1
  O  O50  1  0.75000000  0.80122886  0.35637430  1
  O  O51  1  0.75000000  0.30122886  0.14362570  1
  O  O52  1  0.25000000  0.93790894  0.58015798  1
  O  O53  1  0.25000000  0.43790894  0.91984202  1
  O  O54  1  0.75000000  0.06209106  0.41984202  1
  O  O55  1  0.75000000  0.56209106  0.08015798  1
  O  O56  1  0.25000000  0.67724466  0.52345125  1
  O  O57  1  0.25000000  0.17724466  0.97654875  1
  O  O58  1  0.75000000  0.32275534  0.47654875  1
  O  O59  1  0.75000000  0.82275534  0.02345125  1
