# generated using pymatgen
data_Zr2N2O
_symmetry_space_group_name_H-M   'P 1'
_cell_length_a   8.78523568
_cell_length_b   8.78674318
_cell_length_c   8.78790364
_cell_angle_alpha   109.56160981
_cell_angle_beta   109.39244690
_cell_angle_gamma   109.35780229
_symmetry_Int_Tables_number   1
_chemical_formula_structural   Zr2N2O
_chemical_formula_sum   'Zr16 N16 O8'
_cell_volume   522.86311683
_cell_formula_units_Z   8
loop_
 _symmetry_equiv_pos_site_id
 _symmetry_equiv_pos_as_xyz
  1  'x, y, z'
loop_
 _atom_site_type_symbol
 _atom_site_label
 _atom_site_symmetry_multiplicity
 _atom_site_fract_x
 _atom_site_fract_y
 _atom_site_fract_z
 _atom_site_occupancy
  Zr  Zr0  1  0.96464620  0.21517959  0.24924035  1
  Zr  Zr1  1  0.99090411  0.99659134  0.48905611  1
  Zr  Zr2  1  0.77929248  0.24183408  0.53007541  1
  Zr  Zr3  1  0.72597777  0.75962728  0.97132219  1
  Zr  Zr4  1  0.24192983  0.52687225  0.77940131  1
  Zr  Zr5  1  0.25322978  0.03215748  0.28130431  1
  Zr  Zr6  1  0.01201768  0.50949350  0.01720620  1
  Zr  Zr7  1  0.46518770  0.71498307  0.25590419  1
  Zr  Zr8  1  0.54243610  0.29233375  0.75562803  1
  Zr  Zr9  1  0.48876506  0.99560394  0.98689679  1
  Zr  Zr10  1  0.50994848  0.50539330  0.49901211  1
  Zr  Zr11  1  0.75292989  0.47084298  0.21250536  1
  Zr  Zr12  1  0.74252206  0.95507556  0.71491924  1
  Zr  Zr13  1  0.21057905  0.74495841  0.46567740  1
  Zr  Zr14  1  0.29432413  0.25613480  0.03582117  1
  Zr  Zr15  1  0.03529831  0.78656262  0.74938256  1
  N  N16  1  0.04479384  0.27492526  0.53320182  1
  N  N17  1  0.22411122  0.45232453  0.98332780  1
  N  N18  1  0.53257279  0.25987492  0.49022937  1
  N  N19  1  0.73822912  0.01526341  0.96719998  1
  N  N20  1  0.48691874  0.22295299  0.94944816  1
  N  N21  1  0.01182659  0.46507983  0.23865461  1
  N  N22  1  0.72743107  0.96890750  0.45387027  1
  N  N23  1  0.77254908  0.72534991  0.73918981  1
  N  N24  1  0.23808272  0.77300423  0.23027495  1
  N  N25  1  0.26029194  0.99259324  0.03363626  1
  N  N26  1  0.77036587  0.54154460  0.00713764  1
  N  N27  1  0.46777282  0.73803301  0.51430417  1
  N  N28  1  0.27150461  0.75694657  0.73109180  1
  N  N29  1  0.97015989  0.95624178  0.22889617  1
  N  N30  1  0.54169805  0.50655926  0.27288192  1
  N  N31  1  0.95587327  0.73165422  0.46818830  1
  O  O32  1  0.45373818  0.48838131  0.73081401  1
  O  O33  1  0.03216314  0.04359581  0.77143252  1
  O  O34  1  0.72669429  0.23693839  0.27311781  1
  O  O35  1  0.76320399  0.22986346  0.77099207  1
  O  O36  1  0.51509514  0.77134394  0.04500483  1
  O  O37  1  0.22738555  0.27566618  0.26391834  1
  O  O38  1  0.98477115  0.53157615  0.75992705  1
  O  O39  1  0.27277628  0.03773654  0.54990861  1
