# generated using pymatgen
data_Ba3GeO5
_symmetry_space_group_name_H-M   'P 1'
_cell_length_a   7.82351431
_cell_length_b   7.82351431
_cell_length_c   7.82351431
_cell_angle_alpha   123.90047089
_cell_angle_beta   123.90047089
_cell_angle_gamma   83.36731217
_symmetry_Int_Tables_number   1
_chemical_formula_structural   Ba3GeO5
_chemical_formula_sum   'Ba6 Ge2 O10'
_cell_volume   316.31670398
_cell_formula_units_Z   2
loop_
 _symmetry_equiv_pos_site_id
 _symmetry_equiv_pos_as_xyz
  1  'x, y, z'
loop_
 _atom_site_type_symbol
 _atom_site_label
 _atom_site_symmetry_multiplicity
 _atom_site_fract_x
 _atom_site_fract_y
 _atom_site_fract_z
 _atom_site_occupancy
  Ba  Ba0  1  0.81945506  0.31945506  0.13890911  1
  Ba  Ba1  1  0.25000000  0.25000000  -0.00000000  1
  Ba  Ba2  1  0.75000000  0.75000000  0.00000000  1
  Ba  Ba3  1  0.31945506  0.18054494  0.50000000  1
  Ba  Ba4  1  0.68054494  0.81945506  0.50000000  1
  Ba  Ba5  1  0.18054494  0.68054494  0.86109089  1
  Ge  Ge6  1  0.75000000  0.25000000  0.50000000  1
  Ge  Ge7  1  0.25000000  0.75000000  0.50000000  1
  O  O8  1  0.52334916  0.02334916  0.23111069  1
  O  O9  1  0.97665084  0.20776153  0.50000000  1
  O  O10  1  0.00000000  0.00000000  0.00000000  1
  O  O11  1  0.50000000  0.50000000  0.00000000  1
  O  O12  1  0.70776153  0.47665084  0.50000000  1
  O  O13  1  0.79223847  0.29223847  0.76888931  1
  O  O14  1  0.29223847  0.52334916  0.50000000  1
  O  O15  1  0.20776153  0.70776153  0.23111069  1
  O  O16  1  0.02334916  0.79223847  0.50000000  1
  O  O17  1  0.47665084  0.97665084  0.76888931  1
