# generated using pymatgen
data_La2Ti3O9
_symmetry_space_group_name_H-M   'P 1'
_cell_length_a   5.50920900
_cell_length_b   8.71065446
_cell_length_c   8.77490729
_cell_angle_alpha   101.46001142
_cell_angle_beta   108.29364072
_cell_angle_gamma   108.43510275
_symmetry_Int_Tables_number   1
_chemical_formula_structural   La2Ti3O9
_chemical_formula_sum   'La4 Ti6 O18'
_cell_volume   357.94642031
_cell_formula_units_Z   2
loop_
 _symmetry_equiv_pos_site_id
 _symmetry_equiv_pos_as_xyz
  1  'x, y, z'
loop_
 _atom_site_type_symbol
 _atom_site_label
 _atom_site_symmetry_multiplicity
 _atom_site_fract_x
 _atom_site_fract_y
 _atom_site_fract_z
 _atom_site_occupancy
  La  La0  1  0.00943800  0.99999600  0.00096700  1
  La  La1  1  0.65740700  0.33263500  0.99519900  1
  La  La2  1  0.99693300  0.49765200  0.49370700  1
  La  La3  1  0.33590700  0.66955400  0.00694500  1
  Ti  Ti4  1  0.66287300  0.57719200  0.74885000  1
  Ti  Ti5  1  0.00630800  0.75627000  0.26204300  1
  Ti  Ti6  1  0.33553700  0.91698700  0.73838200  1
  Ti  Ti7  1  0.67758600  0.08096800  0.25871000  1
  Ti  Ti8  1  0.99069500  0.23745200  0.74045300  1
  Ti  Ti9  1  0.32892600  0.42047000  0.25180900  1
  O  O10  1  0.50666300  0.50581400  0.50418600  1
  O  O11  1  0.82090700  0.66103700  0.99646300  1
  O  O12  1  0.14867800  0.80525400  0.50169600  1
  O  O13  1  0.02601700  0.74826900  0.76822700  1
  O  O14  1  0.67617800  0.57524800  0.24290400  1
  O  O15  1  0.50920800  0.99983000  0.00303600  1
  O  O16  1  0.30914800  0.91079100  0.22616300  1
  O  O17  1  0.17822500  0.09095800  0.78008900  1
  O  O18  1  0.50171300  0.25290800  0.22952000  1
  O  O19  1  0.85664700  0.42691500  0.75823400  1
  O  O20  1  0.14278300  0.56712300  0.23566100  1
  O  O21  1  0.50175900  0.74474200  0.76478600  1
  O  O22  1  0.82372800  0.90565100  0.22673500  1
  O  O23  1  0.84114600  0.19519300  0.49712000  1
  O  O24  1  0.16435400  0.33198500  0.00303200  1
  O  O25  1  0.69168000  0.09091800  0.77319000  1
  O  O26  1  0.98530000  0.25165100  0.23050400  1
  O  O27  1  0.33974300  0.43240700  0.76197600  1
