# generated using pymatgen
data_Na3SbS4O9
_symmetry_space_group_name_H-M   'P 1'
_cell_length_a   11.19643600
_cell_length_b   11.19643600
_cell_length_c   11.19643600
_cell_angle_alpha   90.00000000
_cell_angle_beta   90.00000000
_cell_angle_gamma   90.00000000
_symmetry_Int_Tables_number   1
_chemical_formula_structural   Na3SbS4O9
_chemical_formula_sum   'Na12 Sb4 S16 O36'
_cell_volume   1403.58722227
_cell_formula_units_Z   4
loop_
 _symmetry_equiv_pos_site_id
 _symmetry_equiv_pos_as_xyz
  1  'x, y, z'
loop_
 _atom_site_type_symbol
 _atom_site_label
 _atom_site_symmetry_multiplicity
 _atom_site_fract_x
 _atom_site_fract_y
 _atom_site_fract_z
 _atom_site_occupancy
  Na  Na0  1  0.26054900  0.76054900  0.73945100  1
  Na  Na1  1  0.76054900  0.73945100  0.26054900  1
  Na  Na2  1  0.73945100  0.26054900  0.76054900  1
  Na  Na3  1  0.23945100  0.23945100  0.23945100  1
  Na  Na4  1  0.09275500  0.59275500  0.90724500  1
  Na  Na5  1  0.59275500  0.90724500  0.09275500  1
  Na  Na6  1  0.90724500  0.09275500  0.59275500  1
  Na  Na7  1  0.40724500  0.40724500  0.40724500  1
  Na  Na8  1  0.89342500  0.39342500  0.10657500  1
  Na  Na9  1  0.39342500  0.10657500  0.89342500  1
  Na  Na10  1  0.10657500  0.89342500  0.39342500  1
  Na  Na11  1  0.60657500  0.60657500  0.60657500  1
  Sb  Sb12  1  0.51834300  0.01834300  0.48165700  1
  Sb  Sb13  1  0.01834300  0.48165700  0.51834300  1
  Sb  Sb14  1  0.48165700  0.51834300  0.01834300  1
  Sb  Sb15  1  0.98165700  0.98165700  0.98165700  1
  S  S16  1  0.63384300  0.13384300  0.36615700  1
  S  S17  1  0.13384300  0.36615700  0.63384300  1
  S  S18  1  0.36615700  0.63384300  0.13384300  1
  S  S19  1  0.86615700  0.86615700  0.86615700  1
  S  S20  1  0.62042100  0.01452200  0.74294800  1
  S  S21  1  0.25705200  0.12042100  0.48547800  1
  S  S22  1  0.51452200  0.75705200  0.37957900  1
  S  S23  1  0.12042100  0.48547800  0.25705200  1
  S  S24  1  0.75705200  0.37957900  0.51452200  1
  S  S25  1  0.01452200  0.74294800  0.62042100  1
  S  S26  1  0.37957900  0.51452200  0.75705200  1
  S  S27  1  0.74294800  0.62042100  0.01452200  1
  S  S28  1  0.48547800  0.25705200  0.12042100  1
  S  S29  1  0.87957900  0.98547800  0.24294800  1
  S  S30  1  0.24294800  0.87957900  0.98547800  1
  S  S31  1  0.98547800  0.24294800  0.87957900  1
  O  O32  1  0.59773300  0.10296200  0.84181900  1
  O  O33  1  0.15818100  0.09773300  0.39703800  1
  O  O34  1  0.60296200  0.65818100  0.40226700  1
  O  O35  1  0.09773300  0.39703800  0.15818100  1
  O  O36  1  0.65818100  0.40226700  0.60296200  1
  O  O37  1  0.10296200  0.84181900  0.59773300  1
  O  O38  1  0.40226700  0.60296200  0.65818100  1
  O  O39  1  0.84181900  0.59773300  0.10296200  1
  O  O40  1  0.39703800  0.15818100  0.09773300  1
  O  O41  1  0.90226700  0.89703800  0.34181900  1
  O  O42  1  0.34181900  0.90226700  0.89703800  1
  O  O43  1  0.89703800  0.34181900  0.90226700  1
  O  O44  1  0.55864700  0.83536600  0.28062400  1
  O  O45  1  0.71937600  0.05864700  0.66463400  1
  O  O46  1  0.33536600  0.21937600  0.44135300  1
  O  O47  1  0.05864700  0.66463400  0.71937600  1
  O  O48  1  0.21937600  0.44135300  0.33536600  1
  O  O49  1  0.83536600  0.28062400  0.55864700  1
  O  O50  1  0.44135300  0.33536600  0.21937600  1
  O  O51  1  0.28062400  0.55864700  0.83536600  1
  O  O52  1  0.66463400  0.71937600  0.05864700  1
  O  O53  1  0.94135300  0.16463400  0.78062400  1
  O  O54  1  0.78062400  0.94135300  0.16463400  1
  O  O55  1  0.16463400  0.78062400  0.94135300  1
  O  O56  1  0.15382500  0.00271000  0.94967900  1
  O  O57  1  0.05032100  0.65382500  0.49729000  1
  O  O58  1  0.50271000  0.55032100  0.84617500  1
  O  O59  1  0.65382500  0.49729000  0.05032100  1
  O  O60  1  0.55032100  0.84617500  0.50271000  1
  O  O61  1  0.00271000  0.94967900  0.15382500  1
  O  O62  1  0.84617500  0.50271000  0.55032100  1
  O  O63  1  0.94967900  0.15382500  0.00271000  1
  O  O64  1  0.49729000  0.05032100  0.65382500  1
  O  O65  1  0.34617500  0.99729000  0.44967900  1
  O  O66  1  0.44967900  0.34617500  0.99729000  1
  O  O67  1  0.99729000  0.44967900  0.34617500  1
