# generated using pymatgen
data_RuN4Cl3O2
_symmetry_space_group_name_H-M   'P 1'
_cell_length_a   7.42376500
_cell_length_b   9.50584300
_cell_length_c   13.95255800
_cell_angle_alpha   90.00000000
_cell_angle_beta   90.00000000
_cell_angle_gamma   90.00000000
_symmetry_Int_Tables_number   1
_chemical_formula_structural   RuN4Cl3O2
_chemical_formula_sum   'Ru4 N16 Cl12 O8'
_cell_volume   984.62008247
_cell_formula_units_Z   4
loop_
 _symmetry_equiv_pos_site_id
 _symmetry_equiv_pos_as_xyz
  1  'x, y, z'
loop_
 _atom_site_type_symbol
 _atom_site_label
 _atom_site_symmetry_multiplicity
 _atom_site_fract_x
 _atom_site_fract_y
 _atom_site_fract_z
 _atom_site_occupancy
  Ru  Ru0  1  0.32482900  0.08181500  0.34247500  1
  Ru  Ru1  1  0.67517100  0.58181600  0.65752500  1
  Ru  Ru2  1  0.82482900  0.58181600  0.15752500  1
  Ru  Ru3  1  0.17517100  0.08181500  0.84247500  1
  N  N4  1  0.94857900  0.14470300  0.47639700  1
  N  N5  1  0.05142100  0.64470300  0.52360300  1
  N  N6  1  0.44857900  0.64470300  0.02360300  1
  N  N7  1  0.55142100  0.14470300  0.97639700  1
  N  N8  1  0.35412600  0.22069700  0.44018800  1
  N  N9  1  0.64587400  0.72069700  0.55981200  1
  N  N10  1  0.85412600  0.72069700  0.05981200  1
  N  N11  1  0.14587400  0.22069700  0.94018800  1
  N  N12  1  0.33759100  0.92224300  0.39091700  1
  N  N13  1  0.66240900  0.42224300  0.60908300  1
  N  N14  1  0.83759100  0.42224300  0.10908300  1
  N  N15  1  0.16240900  0.92224300  0.89091700  1
  N  N16  1  0.09448200  0.09730700  0.28394800  1
  N  N17  1  0.90551800  0.59730700  0.71605200  1
  N  N18  1  0.59448200  0.59730700  0.21605200  1
  N  N19  1  0.40551800  0.09730700  0.78394800  1
  Cl  Cl20  1  0.38784200  0.18496500  0.55377200  1
  Cl  Cl21  1  0.61215800  0.68496500  0.44622800  1
  Cl  Cl22  1  0.88784200  0.68496500  0.94622800  1
  Cl  Cl23  1  0.11215800  0.18496500  0.05377200  1
  Cl  Cl24  1  0.93372800  0.98172700  0.29880200  1
  Cl  Cl25  1  0.06627200  0.48172700  0.70119800  1
  Cl  Cl26  1  0.43372800  0.48172700  0.20119800  1
  Cl  Cl27  1  0.56627200  0.98172700  0.79880200  1
  Cl  Cl28  1  0.88011500  0.31923900  0.39592700  1
  Cl  Cl29  1  0.11988500  0.81923900  0.60407300  1
  Cl  Cl30  1  0.38011500  0.81923900  0.10407300  1
  Cl  Cl31  1  0.61988500  0.31923900  0.89592700  1
  O  O32  1  0.88790700  0.14062700  0.55189900  1
  O  O33  1  0.11209300  0.64062700  0.44810100  1
  O  O34  1  0.38790700  0.64062700  0.94810100  1
  O  O35  1  0.61209300  0.14062700  0.05189900  1
  O  O36  1  0.48667600  0.11427600  0.25374100  1
  O  O37  1  0.51332400  0.61427600  0.74625900  1
  O  O38  1  0.98667600  0.61427600  0.24625900  1
  O  O39  1  0.01332400  0.11427600  0.75374100  1
