# generated using pymatgen
data_VPO4
_symmetry_space_group_name_H-M   'P 1'
_cell_length_a   4.69951386
_cell_length_b   8.64997224
_cell_length_c   6.47330008
_cell_angle_alpha   89.99962611
_cell_angle_beta   89.99705793
_cell_angle_gamma   89.99984569
_symmetry_Int_Tables_number   1
_chemical_formula_structural   VPO4
_chemical_formula_sum   'V4 P4 O16'
_cell_volume   263.14394913
_cell_formula_units_Z   4
loop_
 _symmetry_equiv_pos_site_id
 _symmetry_equiv_pos_as_xyz
  1  'x, y, z'
loop_
 _atom_site_type_symbol
 _atom_site_label
 _atom_site_symmetry_multiplicity
 _atom_site_fract_x
 _atom_site_fract_y
 _atom_site_fract_z
 _atom_site_occupancy
  V  V0  1  0.99999625  -0.00000010  0.50000015  1
  V  V1  1  0.50000334  0.50000218  -0.00000022  1
  V  V2  1  -0.00000186  0.99999872  0.99999822  1
  V  V3  1  0.50000424  0.50000001  0.50000344  1
  P  P4  1  0.47724631  0.17694733  0.24998945  1
  P  P5  1  0.97724926  0.32305125  0.74998856  1
  P  P6  1  0.02275747  0.67694844  0.25001377  1
  P  P7  1  0.52274511  0.82305139  0.75000712  1
  O  O8  1  0.78884162  0.11793666  0.24997181  1
  O  O9  1  0.28884596  0.38206238  0.74996543  1
  O  O10  1  0.71115812  0.61793622  0.25003749  1
  O  O11  1  0.21115469  0.88205939  0.75002509  1
  O  O12  1  0.94599344  0.14350528  0.74999081  1
  O  O13  1  0.44599676  0.35649323  0.24998078  1
  O  O14  1  0.55400638  0.64350709  0.75001895  1
  O  O15  1  0.05400584  0.85649456  0.25001040  1
  O  O16  1  0.33315525  0.12142590  0.05354512  1
  O  O17  1  0.33318309  0.12141631  0.44638314  1
  O  O18  1  0.83316165  0.37857092  0.55352302  1
  O  O19  1  0.83317203  0.37858978  0.94637428  1
  O  O20  1  0.16683295  0.62141103  0.05363011  1
  O  O21  1  0.16684454  0.62143041  0.44647936  1
  O  O22  1  0.66681121  0.87858431  0.55361472  1
  O  O23  1  0.66683735  0.87857530  0.94645001  1
