# generated using pymatgen
data_Li2VF4
_symmetry_space_group_name_H-M   'P 1'
_cell_length_a   5.93148613
_cell_length_b   5.93148613
_cell_length_c   8.36462280
_cell_angle_alpha   90.00000000
_cell_angle_beta   90.00000000
_cell_angle_gamma   90.00000000
_symmetry_Int_Tables_number   1
_chemical_formula_structural   Li2VF4
_chemical_formula_sum   'Li8 V4 F16'
_cell_volume   294.28857345
_cell_formula_units_Z   4
loop_
 _symmetry_equiv_pos_site_id
 _symmetry_equiv_pos_as_xyz
  1  'x, y, z'
loop_
 _atom_site_type_symbol
 _atom_site_label
 _atom_site_symmetry_multiplicity
 _atom_site_fract_x
 _atom_site_fract_y
 _atom_site_fract_z
 _atom_site_occupancy
  Li  Li0  1  0.25262945  0.25262945  0.37500000  1
  Li  Li1  1  0.25262945  0.74737055  0.12500000  1
  Li  Li2  1  0.28314272  0.50000000  0.75000000  1
  Li  Li3  1  0.50000000  0.28314272  -0.00000000  1
  Li  Li4  1  0.50000000  0.71685728  0.50000000  1
  Li  Li5  1  0.71685728  0.50000000  0.25000000  1
  Li  Li6  1  0.74737055  0.25262945  0.62500000  1
  Li  Li7  1  0.74737055  0.74737055  0.87500000  1
  V  V8  1  0.00000000  0.26815732  -0.00000000  1
  V  V9  1  0.00000000  0.73184268  0.50000000  1
  V  V10  1  0.26815732  0.00000000  0.75000000  1
  V  V11  1  0.73184268  0.00000000  0.25000000  1
  F  F12  1  0.02113766  0.25375189  0.75185260  1
  F  F13  1  0.02113766  0.74624811  0.74814740  1
  F  F14  1  0.25375189  0.02113766  0.99814740  1
  F  F15  1  0.25375189  0.97886234  0.50185260  1
  F  F16  1  0.25666473  0.49909188  0.98799319  1
  F  F17  1  0.25666473  0.50090812  0.51200681  1
  F  F18  1  0.49909188  0.25666473  0.76200681  1
  F  F19  1  0.49909188  0.74333527  0.73799319  1
  F  F20  1  0.50090812  0.25666473  0.23799319  1
  F  F21  1  0.50090812  0.74333527  0.26200681  1
  F  F22  1  0.74333527  0.50090812  0.48799319  1
  F  F23  1  0.74333527  0.49909188  0.01200681  1
  F  F24  1  0.74624811  0.97886234  0.49814740  1
  F  F25  1  0.74624811  0.02113766  0.00185260  1
  F  F26  1  0.97886234  0.25375189  0.24814740  1
  F  F27  1  0.97886234  0.74624811  0.25185260  1
