# generated using pymatgen
data_V3OF11
_symmetry_space_group_name_H-M   'P 1'
_cell_length_a   5.10247308
_cell_length_b   5.33506532
_cell_length_c   13.99294529
_cell_angle_alpha   80.17685448
_cell_angle_beta   90.00000000
_cell_angle_gamma   90.00000000
_symmetry_Int_Tables_number   1
_chemical_formula_structural   V3OF11
_chemical_formula_sum   'V6 O2 F22'
_cell_volume   375.33174476
_cell_formula_units_Z   2
loop_
 _symmetry_equiv_pos_site_id
 _symmetry_equiv_pos_as_xyz
  1  'x, y, z'
loop_
 _atom_site_type_symbol
 _atom_site_label
 _atom_site_symmetry_multiplicity
 _atom_site_fract_x
 _atom_site_fract_y
 _atom_site_fract_z
 _atom_site_occupancy
  V  V0  1  0.02616150  0.37092541  0.66951612  1
  V  V1  1  0.49890970  0.25002161  -0.00006045  1
  V  V2  1  0.00961946  0.10015045  0.33445902  1
  V  V3  1  0.50961946  0.89984955  0.66554098  1
  V  V4  1  -0.00109030  0.74997839  0.00006045  1
  V  V5  1  0.52616150  0.62907459  0.33048388  1
  O  O6  1  0.70407923  0.88602347  0.30840337  1
  O  O7  1  0.20407923  0.11397653  0.69159663  1
  F  F8  1  0.80428365  0.40599105  0.30529250  1
  F  F9  1  0.71145767  0.21714661  0.63774824  1
  F  F10  1  0.30289478  0.27743679  0.35979415  1
  F  F11  1  0.89618792  0.38708184  0.78394281  1
  F  F12  1  0.58720460  0.21284405  0.12162612  1
  F  F13  1  0.89895554  0.04627153  0.45391502  1
  F  F14  1  0.39603337  0.28328715  0.87985060  1
  F  F15  1  0.08419522  0.11643259  0.21201838  1
  F  F16  1  0.39895554  0.95372847  0.54608498  1
  F  F17  1  0.80766723  0.06871900  0.97249334  1
  F  F18  1  0.80289478  0.72256321  0.64020585  1
  F  F19  1  0.30766723  0.93128100  0.02750666  1
  F  F20  1  0.21145767  0.78285339  0.36225176  1
  F  F21  1  0.58419522  0.88356741  0.78798162  1
  F  F22  1  0.89603337  0.71671285  0.12014940  1
  F  F23  1  0.58427065  0.52794881  0.45385836  1
  F  F24  1  0.08720460  0.78715595  0.87837388  1
  F  F25  1  0.39618792  0.61291816  0.21605719  1
  F  F26  1  0.08427065  0.47205119  0.54614164  1
  F  F27  1  0.68808150  0.56533414  0.97254094  1
  F  F28  1  0.30428365  0.59400895  0.69470750  1
  F  F29  1  0.18808150  0.43466586  0.02745906  1
