# generated using pymatgen
data_Cs2Se3
_symmetry_space_group_name_H-M   'P 1'
_cell_length_a   7.07241643
_cell_length_b   7.07241689
_cell_length_c   8.38335134
_cell_angle_alpha   90.00000000
_cell_angle_beta   90.00000000
_cell_angle_gamma   110.90208010
_symmetry_Int_Tables_number   1
_chemical_formula_structural   Cs2Se3
_chemical_formula_sum   'Cs4 Se6'
_cell_volume   391.73219549
_cell_formula_units_Z   2
loop_
 _symmetry_equiv_pos_site_id
 _symmetry_equiv_pos_as_xyz
  1  'x, y, z'
loop_
 _atom_site_type_symbol
 _atom_site_label
 _atom_site_symmetry_multiplicity
 _atom_site_fract_x
 _atom_site_fract_y
 _atom_site_fract_z
 _atom_site_occupancy
  Cs  Cs0  1  0.41952972  0.58047028  0.82004247  1
  Cs  Cs1  1  0.58047028  0.41952972  0.32004247  1
  Cs  Cs2  1  0.90233300  0.09766700  0.54279882  1
  Cs  Cs3  1  0.09766700  0.90233300  0.04279882  1
  Se  Se4  1  0.39937873  0.07184293  0.66653718  1
  Se  Se5  1  0.60062127  0.92815707  0.16653718  1
  Se  Se6  1  0.92815707  0.60062127  0.66653718  1
  Se  Se7  1  0.07184293  0.39937873  0.16653718  1
  Se  Se8  1  0.79219351  0.20780649  0.00508435  1
  Se  Se9  1  0.20780649  0.79219351  0.50508435  1
