# generated using pymatgen
data_V3OF11
_symmetry_space_group_name_H-M   'P 1'
_cell_length_a   5.03142264
_cell_length_b   5.34206706
_cell_length_c   14.10224214
_cell_angle_alpha   80.69755634
_cell_angle_beta   90.00000000
_cell_angle_gamma   90.00000000
_symmetry_Int_Tables_number   1
_chemical_formula_structural   V3OF11
_chemical_formula_sum   'V6 O2 F22'
_cell_volume   374.05798495
_cell_formula_units_Z   2
loop_
 _symmetry_equiv_pos_site_id
 _symmetry_equiv_pos_as_xyz
  1  'x, y, z'
loop_
 _atom_site_type_symbol
 _atom_site_label
 _atom_site_symmetry_multiplicity
 _atom_site_fract_x
 _atom_site_fract_y
 _atom_site_fract_z
 _atom_site_occupancy
  V  V0  1  0.24976001  0.00571467  0.00033310  1
  V  V1  1  0.73288217  0.09922329  0.66889047  1
  V  V2  1  0.24992408  0.33820515  0.33393460  1
  V  V3  1  0.75023999  0.50571467  0.00033310  1
  V  V4  1  0.26711783  0.59922329  0.66889047  1
  V  V5  1  0.75007592  0.83820515  0.33393460  1
  O  O6  1  0.44420822  0.34273121  0.69677325  1
  O  O7  1  0.55579178  0.84273121  0.69677325  1
  F  F8  1  0.43869807  0.02110257  0.36468843  1
  F  F9  1  0.56072339  0.18881169  0.03122301  1
  F  F10  1  0.93910865  0.15602346  0.30300688  1
  F  F11  1  0.35946462  0.03426714  0.88200412  1
  F  F12  1  0.63939474  0.20843080  0.55025471  1
  F  F13  1  0.36017729  0.36739294  0.21560151  1
  F  F14  1  0.85673644  0.14929728  0.78026204  1
  F  F15  1  0.14068103  0.31187873  0.45215316  1
  F  F16  1  0.86199176  0.47895895  0.11828785  1
  F  F17  1  0.56130193  0.52110257  0.36468843  1
  F  F18  1  0.43927661  0.68881169  0.03122301  1
  F  F19  1  0.06090714  0.32340538  0.96892069  1
  F  F20  1  0.95798888  0.47455274  0.63366718  1
  F  F21  1  0.06089135  0.65602346  0.30300688  1
  F  F22  1  0.64053538  0.53426714  0.88200412  1
  F  F23  1  0.36060526  0.70843080  0.55025471  1
  F  F24  1  0.63982271  0.86739294  0.21560151  1
  F  F25  1  0.14326356  0.64929728  0.78026204  1
  F  F26  1  0.85931897  0.81187873  0.45215316  1
  F  F27  1  0.13800824  0.97895895  0.11828785  1
  F  F28  1  0.93909286  0.82340538  0.96892069  1
  F  F29  1  0.04201112  0.97455274  0.63366718  1
