# generated using pymatgen
data_Rb6Ti2O7
_symmetry_space_group_name_H-M   'P 1'
_cell_length_a   9.62055875
_cell_length_b   6.84401613
_cell_length_c   11.67244951
_cell_angle_alpha   56.22462148
_cell_angle_beta   90.00000000
_cell_angle_gamma   90.00000000
_symmetry_Int_Tables_number   1
_chemical_formula_structural   Rb6Ti2O7
_chemical_formula_sum   'Rb12 Ti4 O14'
_cell_volume   638.83854248
_cell_formula_units_Z   2
loop_
 _symmetry_equiv_pos_site_id
 _symmetry_equiv_pos_as_xyz
  1  'x, y, z'
loop_
 _atom_site_type_symbol
 _atom_site_label
 _atom_site_symmetry_multiplicity
 _atom_site_fract_x
 _atom_site_fract_y
 _atom_site_fract_z
 _atom_site_occupancy
  Rb  Rb0  1  0.78955663  0.59650885  0.28101411  1
  Rb  Rb1  1  0.65109571  0.95701418  0.92410596  1
  Rb  Rb2  1  0.52526040  0.20450231  0.54738264  1
  Rb  Rb3  1  0.02526040  0.79549769  0.95261736  1
  Rb  Rb4  1  0.28955663  0.40349115  0.21898589  1
  Rb  Rb5  1  0.15109571  0.04298582  0.57589404  1
  Rb  Rb6  1  0.84890429  0.95701418  0.42410596  1
  Rb  Rb7  1  0.71044337  0.59650885  0.78101411  1
  Rb  Rb8  1  0.97473960  0.20450231  0.04738264  1
  Rb  Rb9  1  0.47473960  0.79549769  0.45261736  1
  Rb  Rb10  1  0.34890429  0.04298582  0.07589404  1
  Rb  Rb11  1  0.21044337  0.40349115  0.71898589  1
  Ti  Ti12  1  0.85959989  0.31702774  0.63032067  1
  Ti  Ti13  1  0.35959989  0.68297226  0.86967933  1
  Ti  Ti14  1  0.64040011  0.31702774  0.13032067  1
  Ti  Ti15  1  0.14040011  0.68297226  0.36967933  1
  O  O16  1  -0.00000000  0.50000000  0.50000000  1
  O  O17  1  0.09225307  0.75153525  0.20159299  1
  O  O18  1  0.29368178  0.49978406  0.42796227  1
  O  O19  1  0.33093261  0.94832017  0.86637616  1
  O  O20  1  0.83093261  0.05167983  0.63362384  1
  O  O21  1  0.79368178  0.50021594  0.07203773  1
  O  O22  1  0.59225307  0.24846475  0.29840701  1
  O  O23  1  0.50000000  0.50000000  -0.00000000  1
  O  O24  1  0.40774693  0.75153525  0.70159299  1
  O  O25  1  0.20631822  0.49978406  0.92796227  1
  O  O26  1  0.16906739  0.94832017  0.36637616  1
  O  O27  1  0.66906739  0.05167983  0.13362384  1
  O  O28  1  0.70631822  0.50021594  0.57203773  1
  O  O29  1  0.90774693  0.24846475  0.79840701  1
