# generated using pymatgen
data_NaB(HO)4
_symmetry_space_group_name_H-M   'P 1'
_cell_length_a   10.29209097
_cell_length_b   5.84159227
_cell_length_c   6.07505166
_cell_angle_alpha   67.31673858
_cell_angle_beta   90.00000000
_cell_angle_gamma   90.00000000
_symmetry_Int_Tables_number   1
_chemical_formula_structural   NaB(HO)4
_chemical_formula_sum   'Na4 B4 H16 O16'
_cell_volume   336.99401729
_cell_formula_units_Z   4
loop_
 _symmetry_equiv_pos_site_id
 _symmetry_equiv_pos_as_xyz
  1  'x, y, z'
loop_
 _atom_site_type_symbol
 _atom_site_label
 _atom_site_symmetry_multiplicity
 _atom_site_fract_x
 _atom_site_fract_y
 _atom_site_fract_z
 _atom_site_occupancy
  Na  Na0  1  0.01805226  0.74698837  0.24365321  1
  Na  Na1  1  0.51805226  0.75301163  0.75634679  1
  Na  Na2  1  0.98194774  0.25301163  0.75634679  1
  Na  Na3  1  0.48194774  0.24698837  0.24365321  1
  B  B4  1  0.09125359  0.72591821  0.72448397  1
  B  B5  1  0.59125359  0.77408179  0.27551603  1
  B  B6  1  0.90874641  0.27408179  0.27551603  1
  B  B7  1  0.40874641  0.22591821  0.72448397  1
  H  H8  1  0.90711689  0.85454787  0.61570103  1
  H  H9  1  0.40711689  0.64545213  0.38429897  1
  H  H10  1  0.09288311  0.14545213  0.38429897  1
  H  H11  1  0.59288311  0.35454787  0.61570103  1
  H  H12  1  0.19252817  0.92882597  0.86519829  1
  H  H13  1  0.69252817  0.57117403  0.13480171  1
  H  H14  1  0.80747183  0.07117403  0.13480171  1
  H  H15  1  0.30747183  0.42882597  0.86519829  1
  H  H16  1  0.12041461  0.42105253  0.02769243  1
  H  H17  1  0.62041461  0.07894747  0.97230757  1
  H  H18  1  0.87958539  0.57894747  0.97230757  1
  H  H19  1  0.37958539  0.92105253  0.02769243  1
  H  H20  1  0.25141803  0.85180872  0.50420458  1
  H  H21  1  0.75141803  0.64819128  0.49579542  1
  H  H22  1  0.74858197  0.14819128  0.49579542  1
  H  H23  1  0.24858197  0.35180872  0.50420458  1
  O  O24  1  0.95273483  0.69399345  0.67121389  1
  O  O25  1  0.45273483  0.80600655  0.32878611  1
  O  O26  1  0.04726517  0.30600655  0.32878611  1
  O  O27  1  0.54726517  0.19399345  0.67121389  1
  O  O28  1  0.09986793  0.88659208  0.85799797  1
  O  O29  1  0.59986793  0.61340792  0.14200203  1
  O  O30  1  0.90013207  0.11340792  0.14200203  1
  O  O31  1  0.40013207  0.38659208  0.85799797  1
  O  O32  1  0.14530168  0.47673204  0.85911252  1
  O  O33  1  0.64530168  0.02326796  0.14088748  1
  O  O34  1  0.85469832  0.52326796  0.14088748  1
  O  O35  1  0.35469832  0.97673204  0.85911252  1
  O  O36  1  0.15876629  0.83492050  0.48985294  1
  O  O37  1  0.65876629  0.66507950  0.51014706  1
  O  O38  1  0.84123371  0.16507950  0.51014706  1
  O  O39  1  0.34123371  0.33492050  0.48985294  1
