# generated using pymatgen
data_MnVHPbO5
_symmetry_space_group_name_H-M   'P 1'
_cell_length_a   6.17382202
_cell_length_b   7.59906044
_cell_length_c   9.45825956
_cell_angle_alpha   90.00000000
_cell_angle_beta   90.00000000
_cell_angle_gamma   90.00000000
_symmetry_Int_Tables_number   1
_chemical_formula_structural   MnVHPbO5
_chemical_formula_sum   'Mn4 V4 H4 Pb4 O20'
_cell_volume   443.73658038
_cell_formula_units_Z   4
loop_
 _symmetry_equiv_pos_site_id
 _symmetry_equiv_pos_as_xyz
  1  'x, y, z'
loop_
 _atom_site_type_symbol
 _atom_site_label
 _atom_site_symmetry_multiplicity
 _atom_site_fract_x
 _atom_site_fract_y
 _atom_site_fract_z
 _atom_site_occupancy
  Mn  Mn0  1  -0.00000000  0.50000000  0.50000000  1
  Mn  Mn1  1  0.50000000  0.50000000  0.50000000  1
  Mn  Mn2  1  -0.00000000  0.00000000  0.00000000  1
  Mn  Mn3  1  0.50000000  0.00000000  0.00000000  1
  V  V4  1  0.25000000  0.63543175  0.81021784  1
  V  V5  1  0.75000000  0.86456825  0.31021784  1
  V  V6  1  0.25000000  0.13543175  0.68978216  1
  V  V7  1  0.75000000  0.36456825  0.18978216  1
  H  H8  1  0.25000000  0.77171249  0.47754719  1
  H  H9  1  0.75000000  0.72828751  0.97754719  1
  H  H10  1  0.25000000  0.27171249  0.02245281  1
  H  H11  1  0.75000000  0.22828751  0.52245281  1
  Pb  Pb12  1  0.25000000  0.63202734  0.17575560  1
  Pb  Pb13  1  0.75000000  0.86797266  0.67575560  1
  Pb  Pb14  1  0.25000000  0.13202734  0.32424440  1
  Pb  Pb15  1  0.75000000  0.36797266  0.82424440  1
  O  O16  1  0.75000000  0.54243135  0.08452990  1
  O  O17  1  0.01346343  0.62630774  0.70591339  1
  O  O18  1  0.48653657  0.62630774  0.70591339  1
  O  O19  1  0.25000000  0.65810617  0.42728202  1
  O  O20  1  0.75000000  0.68387346  0.42672478  1
  O  O21  1  0.25000000  0.81612654  0.92672478  1
  O  O22  1  0.75000000  0.84189383  0.92728202  1
  O  O23  1  0.51346343  0.87369226  0.20591339  1
  O  O24  1  0.98653657  0.87369226  0.20591339  1
  O  O25  1  0.25000000  0.95756865  0.58452990  1
  O  O26  1  0.75000000  0.04243135  0.41547010  1
  O  O27  1  0.01346343  0.12630774  0.79408661  1
  O  O28  1  0.48653657  0.12630774  0.79408661  1
  O  O29  1  0.25000000  0.15810617  0.07271798  1
  O  O30  1  0.75000000  0.18387346  0.07327522  1
  O  O31  1  0.25000000  0.31612654  0.57327522  1
  O  O32  1  0.75000000  0.34189383  0.57271798  1
  O  O33  1  0.51346343  0.37369226  0.29408661  1
  O  O34  1  0.98653657  0.37369226  0.29408661  1
  O  O35  1  0.25000000  0.45756865  0.91547010  1
