# generated using pymatgen
data_CaFeSn(PO4)3
_symmetry_space_group_name_H-M   'P 1'
_cell_length_a   8.86262927
_cell_length_b   8.86262927
_cell_length_c   8.86262931
_cell_angle_alpha   58.26625708
_cell_angle_beta   58.26625708
_cell_angle_gamma   58.26625474
_symmetry_Int_Tables_number   1
_chemical_formula_structural   CaFeSn(PO4)3
_chemical_formula_sum   'Ca2 Fe2 Sn2 P6 O24'
_cell_volume   472.68742653
_cell_formula_units_Z   2
loop_
 _symmetry_equiv_pos_site_id
 _symmetry_equiv_pos_as_xyz
  1  'x, y, z'
loop_
 _atom_site_type_symbol
 _atom_site_label
 _atom_site_symmetry_multiplicity
 _atom_site_fract_x
 _atom_site_fract_y
 _atom_site_fract_z
 _atom_site_occupancy
  Ca  Ca0  1  0.99713353  0.99713353  0.99713353  1
  Ca  Ca1  1  0.49713353  0.49713353  0.49713353  1
  Fe  Fe2  1  0.35265423  0.35265423  0.35265423  1
  Fe  Fe3  1  0.85265423  0.85265423  0.85265423  1
  Sn  Sn4  1  0.14702432  0.14702432  0.14702432  1
  Sn  Sn5  1  0.64702432  0.64702432  0.64702432  1
  P  P6  1  0.74975363  0.04450744  0.45911637  1
  P  P7  1  0.04450744  0.45911637  0.74975363  1
  P  P8  1  0.45911637  0.74975363  0.04450744  1
  P  P9  1  0.54450744  0.24975363  0.95911637  1
  P  P10  1  0.95911637  0.54450744  0.24975363  1
  P  P11  1  0.24975363  0.95911637  0.54450744  1
  O  O12  1  0.30076202  0.11808491  0.50379991  1
  O  O13  1  0.50379991  0.30076202  0.11808491  1
  O  O14  1  0.91700053  0.06552390  0.26851321  1
  O  O15  1  0.11808491  0.50379991  0.30076202  1
  O  O16  1  0.80076202  0.00379991  0.61808491  1
  O  O17  1  0.58194142  0.22857557  0.43950436  1
  O  O18  1  0.06552390  0.26851321  0.91700053  1
  O  O19  1  0.22857557  0.43950436  0.58194142  1
  O  O20  1  0.43950436  0.58194142  0.22857557  1
  O  O21  1  0.38339622  0.21005925  0.98264921  1
  O  O22  1  0.72857557  0.08194142  0.93950436  1
  O  O23  1  0.98264921  0.38339622  0.21005925  1
  O  O24  1  0.00379991  0.61808491  0.80076202  1
  O  O25  1  0.26851321  0.91700053  0.06552390  1
  O  O26  1  0.61808491  0.80076202  0.00379991  1
  O  O27  1  0.56552390  0.41700053  0.76851321  1
  O  O28  1  0.76851321  0.56552390  0.41700053  1
  O  O29  1  0.93950436  0.72857557  0.08194142  1
  O  O30  1  0.41700053  0.76851321  0.56552390  1
  O  O31  1  0.21005925  0.98264921  0.38339622  1
  O  O32  1  0.88339622  0.48264921  0.71005925  1
  O  O33  1  0.08194142  0.93950436  0.72857557  1
  O  O34  1  0.48264921  0.71005925  0.88339622  1
  O  O35  1  0.71005925  0.88339622  0.48264921  1
