# generated using pymatgen
data_V4OF11
_symmetry_space_group_name_H-M   'P 1'
_cell_length_a   5.32624088
_cell_length_b   5.32624088
_cell_length_c   17.04614178
_cell_angle_alpha   78.07492837
_cell_angle_beta   78.07492837
_cell_angle_gamma   57.08742012
_symmetry_Int_Tables_number   1
_chemical_formula_structural   V4OF11
_chemical_formula_sum   'V8 O2 F22'
_cell_volume   394.57430233
_cell_formula_units_Z   2
loop_
 _symmetry_equiv_pos_site_id
 _symmetry_equiv_pos_as_xyz
  1  'x, y, z'
loop_
 _atom_site_type_symbol
 _atom_site_label
 _atom_site_symmetry_multiplicity
 _atom_site_fract_x
 _atom_site_fract_y
 _atom_site_fract_z
 _atom_site_occupancy
  V  V0  1  0.75737232  0.62883033  0.43528153  1
  V  V1  1  0.25007557  0.12855186  0.93733086  1
  V  V2  1  0.37116967  0.24262768  0.56471847  1
  V  V3  1  0.87144814  0.74992443  0.06266914  1
  V  V4  1  0.02490420  0.88286430  0.68267571  1
  V  V5  1  0.49578950  0.37023779  0.18830205  1
  V  V6  1  0.11713570  0.97509580  0.31732429  1
  V  V7  1  0.62976221  0.50421050  0.81169795  1
  O  O8  1  0.02569011  0.72888743  0.37419065  1
  O  O9  1  0.27111257  0.97430989  0.62580935  1
  F  F10  1  0.97231105  0.22828726  0.40468799  1
  F  F11  1  0.55853545  0.19448842  0.87517202  1
  F  F12  1  0.45429113  0.54570887  0.50000000  1
  F  F13  1  0.77171274  0.02768895  0.59531201  1
  F  F14  1  0.47669507  0.72144320  0.90387134  1
  F  F15  1  0.27855680  0.52330493  0.09612866  1
  F  F16  1  0.52455768  0.77599803  0.34568358  1
  F  F17  1  0.52352671  0.02660379  0.47228124  1
  F  F18  1  0.02112265  0.53679087  0.97011533  1
  F  F19  1  0.22576245  0.71910987  0.77982548  1
  F  F20  1  0.94240859  0.05759141  -0.00000000  1
  F  F21  1  0.22400197  0.47544232  0.65431642  1
  F  F22  1  0.03291836  0.27610639  0.84476356  1
  F  F23  1  0.72389361  0.96708164  0.15523644  1
  F  F24  1  0.72178749  0.22861096  0.27950313  1
  F  F25  1  0.77138904  0.27821251  0.72049687  1
  F  F26  1  0.97339621  0.47647329  0.52771876  1
  F  F27  1  0.46320913  0.97887735  0.02988467  1
  F  F28  1  0.80551158  0.44146455  0.12482798  1
  F  F29  1  0.20110912  0.28298296  0.25341910  1
  F  F30  1  0.71701704  0.79889088  0.74658090  1
  F  F31  1  0.28089013  0.77423755  0.22017452  1
