# generated using pymatgen
data_Ti3(BiO3)4
_symmetry_space_group_name_H-M   'P 1'
_cell_length_a   5.40610869
_cell_length_b   5.44690420
_cell_length_c   16.74622258
_cell_angle_alpha   80.68139684
_cell_angle_beta   90.00000000
_cell_angle_gamma   90.00000000
_symmetry_Int_Tables_number   1
_chemical_formula_structural   Ti3(BiO3)4
_chemical_formula_sum   'Ti6 Bi8 O24'
_cell_volume   486.61099238
_cell_formula_units_Z   2
loop_
 _symmetry_equiv_pos_site_id
 _symmetry_equiv_pos_as_xyz
  1  'x, y, z'
loop_
 _atom_site_type_symbol
 _atom_site_label
 _atom_site_symmetry_multiplicity
 _atom_site_fract_x
 _atom_site_fract_y
 _atom_site_fract_z
 _atom_site_occupancy
  Ti  Ti0  1  0.75209027  0.05181979  0.99667788  1
  Ti  Ti1  1  0.24790973  0.55181979  0.99667788  1
  Ti  Ti2  1  0.75220084  0.18491198  0.74306974  1
  Ti  Ti3  1  0.24779916  0.68491198  0.74306974  1
  Ti  Ti4  1  0.75038303  0.92863137  0.25536953  1
  Ti  Ti5  1  0.24961697  0.42863137  0.25536953  1
  Bi  Bi6  1  0.25139503  0.07600451  0.86663465  1
  Bi  Bi7  1  0.74860497  0.57600451  0.86663465  1
  Bi  Bi8  1  0.27233586  0.20463772  0.57768450  1
  Bi  Bi9  1  0.72766414  0.70463772  0.57768450  1
  Bi  Bi10  1  0.25228809  0.94239492  0.13188901  1
  Bi  Bi11  1  0.74771191  0.44239492  0.13188901  1
  Bi  Bi12  1  0.22910853  0.78489815  0.42341755  1
  Bi  Bi13  1  0.77089147  0.28489815  0.42341755  1
  O  O14  1  0.47248132  0.31288957  0.97706991  1
  O  O15  1  0.52751868  0.81288957  0.97706991  1
  O  O16  1  0.50758596  0.01569379  0.49867503  1
  O  O17  1  0.49241404  0.51569379  0.49867503  1
  O  O18  1  0.82452948  0.15678897  0.87958390  1
  O  O19  1  0.17547052  0.65678897  0.87958390  1
  O  O20  1  0.69012267  0.24471534  0.63736786  1
  O  O21  1  0.30987733  0.74471534  0.63736786  1
  O  O22  1  0.46974413  0.40617568  0.77839826  1
  O  O23  1  0.53025587  0.90617568  0.77839826  1
  O  O24  1  0.94883231  0.49696914  0.74977270  1
  O  O25  1  0.05116769  0.99696914  0.74977270  1
  O  O26  1  0.96254879  0.35793735  0.01276570  1
  O  O27  1  0.03745121  0.85793735  0.01276570  1
  O  O28  1  0.99222058  0.51529605  0.50052763  1
  O  O29  1  0.00777942  0.01529605  0.50052763  1
  O  O30  1  0.68328048  0.03913360  0.11317221  1
  O  O31  1  0.31671952  0.53913360  0.11317221  1
  O  O32  1  0.80701401  0.88088186  0.36041475  1
  O  O33  1  0.19298599  0.38088186  0.36041475  1
  O  O34  1  0.01995903  0.19217611  0.21880453  1
  O  O35  1  0.98004097  0.69217611  0.21880453  1
  O  O36  1  0.53991801  0.23644309  0.24450266  1
  O  O37  1  0.46008199  0.73644309  0.24450266  1
