# generated using pymatgen
data_RbNa3Li12Ti4O16
_symmetry_space_group_name_H-M   'P 1'
_cell_length_a   8.54398242
_cell_length_b   8.54398242
_cell_length_c   8.54398242
_cell_angle_alpha   98.27210535
_cell_angle_beta   98.27210535
_cell_angle_gamma   135.41837070
_symmetry_Int_Tables_number   1
_chemical_formula_structural   RbNa3Li12Ti4O16
_chemical_formula_sum   'Rb1 Na3 Li12 Ti4 O16'
_cell_volume   405.07954147
_cell_formula_units_Z   1
loop_
 _symmetry_equiv_pos_site_id
 _symmetry_equiv_pos_as_xyz
  1  'x, y, z'
loop_
 _atom_site_type_symbol
 _atom_site_label
 _atom_site_symmetry_multiplicity
 _atom_site_fract_x
 _atom_site_fract_y
 _atom_site_fract_z
 _atom_site_occupancy
  Rb  Rb0  1  0.00000000  0.00000000  0.00000000  1
  Na  Na1  1  0.50000000  0.50000000  0.00000000  1
  Na  Na2  1  0.75000000  0.25000000  0.50000000  1
  Na  Na3  1  0.25000000  0.75000000  0.50000000  1
  Li  Li4  1  0.08159945  0.27888743  0.36048688  1
  Li  Li5  1  0.84896268  0.52506473  0.86658064  1
  Li  Li6  1  0.34151591  0.01761796  0.86658064  1
  Li  Li7  1  0.72111257  0.08159945  0.80271302  1
  Li  Li8  1  0.98238204  0.84896268  0.32389795  1
  Li  Li9  1  0.47493527  0.34151591  0.32389795  1
  Li  Li10  1  0.52506473  0.65848409  0.67610205  1
  Li  Li11  1  0.01761796  0.15103732  0.67610205  1
  Li  Li12  1  0.27888743  0.91840055  0.19728698  1
  Li  Li13  1  0.15103732  0.47493527  0.13341936  1
  Li  Li14  1  0.65848409  0.98238204  0.13341936  1
  Li  Li15  1  0.91840055  0.72111257  0.63951312  1
  Ti  Ti16  1  0.41861950  0.22239146  0.64101095  1
  Ti  Ti17  1  0.22239146  0.58138050  0.80377096  1
  Ti  Ti18  1  0.77760854  0.41861950  0.19622904  1
  Ti  Ti19  1  0.58138050  0.77760854  0.35898905  1
  O  O20  1  0.32199457  0.09087334  0.41286791  1
  O  O21  1  0.64725375  0.54624740  0.72640268  1
  O  O22  1  0.18015528  0.07914893  0.72640268  1
  O  O23  1  0.57230742  0.16822768  0.74053510  1
  O  O24  1  0.09087334  0.67800543  0.76887778  1
  O  O25  1  0.16822768  0.42769258  0.59592026  1
  O  O26  1  0.92085107  0.64725375  0.10100735  1
  O  O27  1  0.45375260  0.18015528  0.10100735  1
  O  O28  1  0.07914893  0.35274625  0.89899265  1
  O  O29  1  0.54624740  0.81984472  0.89899265  1
  O  O30  1  0.83177232  0.57230742  0.40407974  1
  O  O31  1  0.90912666  0.32199457  0.23112222  1
  O  O32  1  0.42769258  0.83177232  0.25946490  1
  O  O33  1  0.81984372  0.92085107  0.27359732  1
  O  O34  1  0.35274625  0.45375260  0.27359732  1
  O  O35  1  0.67800543  0.90912666  0.58713209  1
