# generated using pymatgen
data_Cs2V(OF2)2
_symmetry_space_group_name_H-M   'P 1'
_cell_length_a   8.15841446
_cell_length_b   8.15841446
_cell_length_c   7.50909000
_cell_angle_alpha   90.00000000
_cell_angle_beta   90.00000000
_cell_angle_gamma   134.44711833
_symmetry_Int_Tables_number   1
_chemical_formula_structural   Cs2V(OF2)2
_chemical_formula_sum   'Cs4 V2 O4 F8'
_cell_volume   356.80787394
_cell_formula_units_Z   2
loop_
 _symmetry_equiv_pos_site_id
 _symmetry_equiv_pos_as_xyz
  1  'x, y, z'
loop_
 _atom_site_type_symbol
 _atom_site_label
 _atom_site_symmetry_multiplicity
 _atom_site_fract_x
 _atom_site_fract_y
 _atom_site_fract_z
 _atom_site_occupancy
  Cs  Cs0  1  0.26630400  0.73369600  0.25000000  1
  Cs  Cs1  1  0.73369600  0.26630400  0.75000000  1
  Cs  Cs2  1  0.95054800  0.04945200  0.25000000  1
  Cs  Cs3  1  0.04945200  0.95054800  0.75000000  1
  V  V4  1  0.62276800  0.37723200  0.25000000  1
  V  V5  1  0.37723200  0.62276800  0.75000000  1
  O  O6  1  0.73462700  0.26537300  0.25000000  1
  O  O7  1  0.26537300  0.73462700  0.75000000  1
  O  O8  1  0.49138100  0.50861900  0.25000000  1
  O  O9  1  0.50861900  0.49138100  0.75000000  1
  F  F10  1  0.82551700  0.59854800  0.42789600  1
  F  F11  1  0.59854800  0.82551700  0.57210400  1
  F  F12  1  0.82551700  0.59854800  0.07210400  1
  F  F13  1  0.59854800  0.82551700  0.92789600  1
  F  F14  1  0.17448300  0.40145200  0.57210400  1
  F  F15  1  0.40145200  0.17448300  0.42789600  1
  F  F16  1  0.17448300  0.40145200  0.92789600  1
  F  F17  1  0.40145200  0.17448300  0.07210400  1
