# generated using pymatgen
data_WOF4
_symmetry_space_group_name_H-M   'P 1'
_cell_length_a   8.36199765
_cell_length_b   8.36167898
_cell_length_c   8.36121996
_cell_angle_alpha   98.44161195
_cell_angle_beta   98.45115802
_cell_angle_gamma   134.93367351
_symmetry_Int_Tables_number   1
_chemical_formula_structural   WOF4
_chemical_formula_sum   'W4 O4 F16'
_cell_volume   382.25868386
_cell_formula_units_Z   4
loop_
 _symmetry_equiv_pos_site_id
 _symmetry_equiv_pos_as_xyz
  1  'x, y, z'
loop_
 _atom_site_type_symbol
 _atom_site_label
 _atom_site_symmetry_multiplicity
 _atom_site_fract_x
 _atom_site_fract_y
 _atom_site_fract_z
 _atom_site_occupancy
  W  W0  1  0.91028568  0.72741149  0.70988650  1
  W  W1  1  0.79960883  0.08970216  0.81707940  1
  W  W2  1  0.27262044  0.98253174  0.18291880  1
  W  W3  1  0.01749112  0.20036412  0.29011189  1
  O  O4  1  0.07632211  0.83844076  0.94458786  1
  O  O5  1  0.16156441  0.10614892  0.23786552  1
  O  O6  1  0.86831864  0.92372975  0.76214077  1
  O  O7  1  0.89387699  0.13175844  0.05541452  1
  F  F8  1  0.61583715  0.47468179  0.73028909  1
  F  F9  1  0.19561413  0.97824205  0.67746314  1
  F  F10  1  0.73121576  0.25530946  0.87564486  1
  F  F11  1  0.74461736  0.62035603  0.47589278  1
  F  F12  1  0.94988915  0.53677829  0.65628606  1
  F  F13  1  0.46326012  0.11961273  0.41318823  1
  F  F14  1  0.48188201  0.80435857  0.78257945  1
  F  F15  1  0.11444176  0.38418188  0.85881089  1
  F  F16  1  0.52534635  0.25566113  0.14119426  1
  F  F17  1  0.02181013  0.69928592  0.21742839  1
  F  F18  1  0.70637871  0.05003930  0.58681347  1
  F  F19  1  0.88045491  0.29355633  0.34369553  1
  F  F20  1  0.14437229  0.26863177  0.52410385  1
  F  F21  1  0.37968133  0.85559764  0.12435541  1
  F  F22  1  0.30076550  0.51814171  0.32260273  1
  F  F23  1  0.74434313  0.88547802  0.26964659  1
