# generated using pymatgen
data_VF5
_symmetry_space_group_name_H-M   'P 1'
_cell_length_a   8.98356399
_cell_length_b   7.61717796
_cell_length_c   10.21093060
_cell_angle_alpha   90.00000000
_cell_angle_beta   92.10027511
_cell_angle_gamma   90.00000000
_symmetry_Int_Tables_number   1
_chemical_formula_structural   VF5
_chemical_formula_sum   'V8 F40'
_cell_volume   698.25851920
_cell_formula_units_Z   8
loop_
 _symmetry_equiv_pos_site_id
 _symmetry_equiv_pos_as_xyz
  1  'x, y, z'
loop_
 _atom_site_type_symbol
 _atom_site_label
 _atom_site_symmetry_multiplicity
 _atom_site_fract_x
 _atom_site_fract_y
 _atom_site_fract_z
 _atom_site_occupancy
  V  V0  1  0.02399824  0.20653352  0.82312271  1
  V  V1  1  0.11595623  0.20916764  0.33571610  1
  V  V2  1  0.38404377  0.70916764  0.16428390  1
  V  V3  1  0.47600176  0.70653352  0.67687729  1
  V  V4  1  0.52399824  0.29346648  0.32312271  1
  V  V5  1  0.61595623  0.29083236  0.83571610  1
  V  V6  1  0.88404377  0.79083236  0.66428390  1
  V  V7  1  0.97600176  0.79346648  0.17687729  1
  F  F8  1  0.02969644  0.22583657  0.65297827  1
  F  F9  1  0.07225986  0.79401090  0.64165324  1
  F  F10  1  0.10799212  0.40455006  0.85527608  1
  F  F11  1  0.03853766  0.82501878  0.01927942  1
  F  F12  1  0.09071614  0.01020685  0.21618204  1
  F  F13  1  0.11062356  0.32983350  0.19082271  1
  F  F14  1  0.17888360  0.07549587  0.84060054  1
  F  F15  1  0.15682041  0.38650317  0.43432615  1
  F  F16  1  0.16443447  0.04940591  0.45106688  1
  F  F17  1  0.17089118  0.68601785  0.20550776  1
  F  F18  1  0.32111640  0.57549587  0.65939946  1
  F  F19  1  0.32910882  0.18601785  0.29449224  1
  F  F20  1  0.33556553  0.54940591  0.04893312  1
  F  F21  1  0.34317959  0.88650317  0.06567385  1
  F  F22  1  0.39200788  0.90455006  0.64472392  1
  F  F23  1  0.42774014  0.29401090  0.85834676  1
  F  F24  1  0.47030356  0.72583557  0.84702173  1
  F  F25  1  0.38937644  0.82983350  0.30917729  1
  F  F26  1  0.40928386  0.51020685  0.28381796  1
  F  F27  1  0.46146234  0.32501878  0.48072058  1
  F  F28  1  0.53853766  0.67498122  0.51927942  1
  F  F29  1  0.59071614  0.48979315  0.71618204  1
  F  F30  1  0.61062356  0.17016650  0.69082271  1
  F  F31  1  0.52969644  0.27416443  0.15297827  1
  F  F32  1  0.57225986  0.70598910  0.14165324  1
  F  F33  1  0.60799212  0.09544994  0.35527608  1
  F  F34  1  0.65682041  0.11349683  0.93432615  1
  F  F35  1  0.66443447  0.45059409  0.95106688  1
  F  F36  1  0.67089118  0.81398215  0.70550776  1
  F  F37  1  0.67888360  0.42450413  0.34060054  1
  F  F38  1  0.82910882  0.31398215  0.79449224  1
  F  F39  1  0.83556553  0.95059409  0.54893312  1
  F  F40  1  0.84317959  0.61349683  0.56567385  1
  F  F41  1  0.82111640  0.92450413  0.15939946  1
  F  F42  1  0.88937644  0.67016650  0.80917729  1
  F  F43  1  0.90928386  0.98979315  0.78381796  1
  F  F44  1  0.96146234  0.17498122  0.98072058  1
  F  F45  1  0.89200788  0.59544994  0.14472392  1
  F  F46  1  0.92774014  0.20598910  0.35834676  1
  F  F47  1  0.97030356  0.77416443  0.34702173  1
