# generated using pymatgen
data_Ba2LaCl7
_symmetry_space_group_name_H-M   'P 1'
_cell_length_a   15.89627178
_cell_length_b   6.94792282
_cell_length_c   10.73670253
_cell_angle_alpha   89.11388802
_cell_angle_beta   90.00000000
_cell_angle_gamma   90.00000000
_symmetry_Int_Tables_number   1
_chemical_formula_structural   Ba2LaCl7
_chemical_formula_sum   'Ba8 La4 Cl28'
_cell_volume   1185.68478071
_cell_formula_units_Z   4
loop_
 _symmetry_equiv_pos_site_id
 _symmetry_equiv_pos_as_xyz
  1  'x, y, z'
loop_
 _atom_site_type_symbol
 _atom_site_label
 _atom_site_symmetry_multiplicity
 _atom_site_fract_x
 _atom_site_fract_y
 _atom_site_fract_z
 _atom_site_occupancy
  Ba  Ba0  1  0.22255864  0.73557111  0.05270128  1
  Ba  Ba1  1  0.56217589  0.73378882  0.17471885  1
  Ba  Ba2  1  0.06217589  0.26621118  0.32528115  1
  Ba  Ba3  1  0.72255864  0.26442889  0.44729872  1
  Ba  Ba4  1  0.27744136  0.73557111  0.55270128  1
  Ba  Ba5  1  0.93782411  0.73378882  0.67471885  1
  Ba  Ba6  1  0.43782411  0.26621118  0.82528115  1
  Ba  Ba7  1  0.77744136  0.26442889  0.94729872  1
  La  La8  1  0.87402553  0.77959840  0.21462477  1
  La  La9  1  0.37402553  0.22040160  0.28537523  1
  La  La10  1  0.62597447  0.77959840  0.71462477  1
  La  La11  1  0.12597447  0.22040160  0.78537523  1
  Cl  Cl12  1  0.14582170  0.28595873  0.04262301  1
  Cl  Cl13  1  0.39751848  0.99509816  0.06803726  1
  Cl  Cl14  1  0.39673071  0.49487667  0.08075716  1
  Cl  Cl15  1  0.92873792  0.14925663  0.12287141  1
  Cl  Cl16  1  0.74042031  0.50381305  0.19248338  1
  Cl  Cl17  1  0.72455447  0.00494849  0.20074208  1
  Cl  Cl18  1  0.04653768  0.70066384  0.21140900  1
  Cl  Cl19  1  0.54653768  0.29933616  0.28859100  1
  Cl  Cl20  1  0.22455447  0.99505151  0.29925792  1
  Cl  Cl21  1  0.24042031  0.49618695  0.30751662  1
  Cl  Cl22  1  0.42873792  0.85074337  0.37712859  1
  Cl  Cl23  1  0.89673071  0.50512333  0.41924284  1
  Cl  Cl24  1  0.89751848  0.00490184  0.43196274  1
  Cl  Cl25  1  0.64582170  0.71404127  0.45737699  1
  Cl  Cl26  1  0.35417830  0.28595873  0.54262301  1
  Cl  Cl27  1  0.10248152  0.99509816  0.56803726  1
  Cl  Cl28  1  0.10326929  0.49487667  0.58075716  1
  Cl  Cl29  1  0.57126208  0.14925663  0.62287141  1
  Cl  Cl30  1  0.75957969  0.50381305  0.69248338  1
  Cl  Cl31  1  0.77544553  0.00494849  0.70074208  1
  Cl  Cl32  1  0.45346232  0.70066384  0.71140900  1
  Cl  Cl33  1  0.95346232  0.29933616  0.78859100  1
  Cl  Cl34  1  0.27544553  0.99505151  0.79925792  1
  Cl  Cl35  1  0.25957969  0.49618695  0.80751662  1
  Cl  Cl36  1  0.07126208  0.85074337  0.87712859  1
  Cl  Cl37  1  0.60326929  0.50512333  0.91924284  1
  Cl  Cl38  1  0.60248152  0.00490184  0.93196274  1
  Cl  Cl39  1  0.85417830  0.71404127  0.95737699  1
