# generated using pymatgen
data_Ta2MnO6
_symmetry_space_group_name_H-M   'P 1'
_cell_length_a   4.77394927
_cell_length_b   10.46205420
_cell_length_c   9.54713439
_cell_angle_alpha   62.84592362
_cell_angle_beta   90.00001441
_cell_angle_gamma   90.00014513
_symmetry_Int_Tables_number   1
_chemical_formula_structural   Ta2MnO6
_chemical_formula_sum   'Ta8 Mn4 O24'
_cell_volume   424.27910250
_cell_formula_units_Z   4
loop_
 _symmetry_equiv_pos_site_id
 _symmetry_equiv_pos_as_xyz
  1  'x, y, z'
loop_
 _atom_site_type_symbol
 _atom_site_label
 _atom_site_symmetry_multiplicity
 _atom_site_fract_x
 _atom_site_fract_y
 _atom_site_fract_z
 _atom_site_occupancy
  Ta  Ta0  1  0.99994949  0.00084157  0.49960395  1
  Ta  Ta1  1  0.99995025  0.00084056  0.99960318  1
  Ta  Ta2  1  0.00005195  0.66582402  0.16706394  1
  Ta  Ta3  1  0.00005101  0.66582671  0.66706292  1
  Ta  Ta4  1  0.49994947  0.16583812  0.16705786  1
  Ta  Ta5  1  0.49994851  0.16583787  0.66705861  1
  Ta  Ta6  1  0.50004887  0.50082873  0.99960915  1
  Ta  Ta7  1  0.50004398  0.50082810  0.49960837  1
  Mn  Mn8  1  -0.00000009  0.33333394  0.33333321  1
  Mn  Mn9  1  0.50000246  0.83333327  0.83333122  1
  Mn  Mn10  1  -0.00000080  0.33333337  0.83333288  1
  Mn  Mn11  1  0.50000013  0.83333360  0.33333292  1
  O  O12  1  0.18665443  0.83333964  0.67659245  1
  O  O13  1  0.18665502  0.83334067  0.17659261  1
  O  O14  1  0.31334971  0.33334015  0.17659231  1
  O  O15  1  0.31334604  0.33334026  0.67659227  1
  O  O16  1  0.68665588  0.33332663  0.99007469  1
  O  O17  1  0.68665386  0.33332668  0.49007574  1
  O  O18  1  0.81334219  0.83332682  0.99007325  1
  O  O19  1  0.81334341  0.83332586  0.49007434  1
  O  O20  1  0.20624294  0.15294297  0.02658717  1
  O  O21  1  0.20624352  0.15294335  0.52658681  1
  O  O22  1  0.20634864  0.51374160  0.84621578  1
  O  O23  1  0.20634914  0.51374265  0.34621615  1
  O  O24  1  0.29364818  0.01373803  0.34621976  1
  O  O25  1  0.29364640  0.01373776  0.84622103  1
  O  O26  1  0.29375124  0.65294727  0.02658699  1
  O  O27  1  0.29375418  0.65294741  0.52658700  1
  O  O28  1  0.70635432  0.65292868  0.82044616  1
  O  O29  1  0.70635307  0.65292926  0.32044741  1
  O  O30  1  0.70624742  0.01371826  0.14008093  1
  O  O31  1  0.70624810  0.01371951  0.64008032  1
  O  O32  1  0.79375709  0.51372372  0.14008074  1
  O  O33  1  0.79375693  0.51372308  0.64007991  1
  O  O34  1  0.79365136  0.15292548  0.32045031  1
  O  O35  1  0.79365170  0.15292542  0.82045167  1
