# generated using pymatgen
data_Ta2PbO6
_symmetry_space_group_name_H-M   'P 1'
_cell_length_a   5.70603054
_cell_length_b   7.66193549
_cell_length_c   11.07496223
_cell_angle_alpha   90.00000000
_cell_angle_beta   90.00000000
_cell_angle_gamma   90.00000000
_symmetry_Int_Tables_number   1
_chemical_formula_structural   Ta2PbO6
_chemical_formula_sum   'Ta8 Pb4 O24'
_cell_volume   484.18890848
_cell_formula_units_Z   4
loop_
 _symmetry_equiv_pos_site_id
 _symmetry_equiv_pos_as_xyz
  1  'x, y, z'
loop_
 _atom_site_type_symbol
 _atom_site_label
 _atom_site_symmetry_multiplicity
 _atom_site_fract_x
 _atom_site_fract_y
 _atom_site_fract_z
 _atom_site_occupancy
  Ta  Ta0  1  0.03522511  0.50343464  0.14331352  1
  Ta  Ta1  1  0.03522511  0.99656536  0.14331352  1
  Ta  Ta2  1  0.53522511  0.00343464  0.35668648  1
  Ta  Ta3  1  0.53522511  0.49656536  0.35668648  1
  Ta  Ta4  1  0.46477489  0.50343464  0.64331352  1
  Ta  Ta5  1  0.46477489  0.99656536  0.64331352  1
  Ta  Ta6  1  0.96477489  0.00343464  0.85668648  1
  Ta  Ta7  1  0.96477489  0.49656536  0.85668648  1
  Pb  Pb8  1  0.53465276  0.25000000  0.03561572  1
  Pb  Pb9  1  0.03465276  0.75000000  0.46438428  1
  Pb  Pb10  1  0.96534724  0.25000000  0.53561572  1
  Pb  Pb11  1  0.46534724  0.75000000  0.96438428  1
  O  O12  1  0.78540155  0.53442197  0.02285592  1
  O  O13  1  0.78540155  0.96557803  0.02285592  1
  O  O14  1  0.13369341  0.75000000  0.13173367  1
  O  O15  1  0.97150437  0.25000000  0.14689360  1
  O  O16  1  0.35191976  0.04684822  0.21553001  1
  O  O17  1  0.35191976  0.45315178  0.21553001  1
  O  O18  1  0.85191976  0.95315178  0.28446999  1
  O  O19  1  0.85191976  0.54684822  0.28446999  1
  O  O20  1  0.47150437  0.75000000  0.35310640  1
  O  O21  1  0.63369341  0.25000000  0.36826633  1
  O  O22  1  0.28540155  0.03442197  0.47714408  1
  O  O23  1  0.28540155  0.46557803  0.47714408  1
  O  O24  1  0.71459845  0.53442197  0.52285592  1
  O  O25  1  0.71459845  0.96557803  0.52285592  1
  O  O26  1  0.36630659  0.75000000  0.63173367  1
  O  O27  1  0.52849563  0.25000000  0.64689360  1
  O  O28  1  0.14808024  0.04684822  0.71553001  1
  O  O29  1  0.14808024  0.45315178  0.71553001  1
  O  O30  1  0.64808024  0.54684822  0.78446999  1
  O  O31  1  0.64808024  0.95315178  0.78446999  1
  O  O32  1  0.02849563  0.75000000  0.85310640  1
  O  O33  1  0.86630659  0.25000000  0.86826633  1
  O  O34  1  0.21459845  0.03442197  0.97714408  1
  O  O35  1  0.21459845  0.46557803  0.97714408  1
