# generated using pymatgen
data_RbFeO2
_symmetry_space_group_name_H-M   'P 1'
_cell_length_a   5.79192756
_cell_length_b   5.79205834
_cell_length_c   8.31739405
_cell_angle_alpha   89.99911699
_cell_angle_beta   90.00040287
_cell_angle_gamma   89.98530676
_symmetry_Int_Tables_number   1
_chemical_formula_structural   RbFeO2
_chemical_formula_sum   'Rb4 Fe4 O8'
_cell_volume   279.02512527
_cell_formula_units_Z   4
loop_
 _symmetry_equiv_pos_site_id
 _symmetry_equiv_pos_as_xyz
  1  'x, y, z'
loop_
 _atom_site_type_symbol
 _atom_site_label
 _atom_site_symmetry_multiplicity
 _atom_site_fract_x
 _atom_site_fract_y
 _atom_site_fract_z
 _atom_site_occupancy
  Rb  Rb0  1  0.22939816  0.22944826  0.50000829  1
  Rb  Rb1  1  0.27060753  0.72946506  0.74999522  1
  Rb  Rb2  1  0.72940651  0.27052026  0.24999492  1
  Rb  Rb3  1  0.77061629  0.77053790  -0.00000037  1
  Fe  Fe4  1  0.21298029  0.21304470  -0.00006934  1
  Fe  Fe5  1  0.28703318  0.71303702  0.25004136  1
  Fe  Fe6  1  0.71303313  0.28699300  0.74995615  1
  Fe  Fe7  1  0.78697246  0.78699205  0.50007046  1
  O  O8  1  0.09630342  0.75535777  0.42986574  1
  O  O9  1  0.24471354  0.90365768  0.07012138  1
  O  O10  1  0.25535596  0.40368586  0.17988333  1
  O  O11  1  0.40370679  0.25540792  0.82011782  1
  O  O12  1  0.59637114  0.74459030  0.32014870  1
  O  O13  1  0.74467211  0.59627317  0.67984386  1
  O  O14  1  0.75529538  0.09625087  0.57015496  1
  O  O15  1  0.90363113  0.24463818  0.92986552  1
