# generated using pymatgen
data_Zr2N2O
_symmetry_space_group_name_H-M   'P 1'
_cell_length_a   8.78561284
_cell_length_b   8.79282617
_cell_length_c   8.77935681
_cell_angle_alpha   109.25877981
_cell_angle_beta   109.42779660
_cell_angle_gamma   109.60248616
_symmetry_Int_Tables_number   1
_chemical_formula_structural   Zr2N2O
_chemical_formula_sum   'Zr16 N16 O8'
_cell_volume   522.88292208
_cell_formula_units_Z   8
loop_
 _symmetry_equiv_pos_site_id
 _symmetry_equiv_pos_as_xyz
  1  'x, y, z'
loop_
 _atom_site_type_symbol
 _atom_site_label
 _atom_site_symmetry_multiplicity
 _atom_site_fract_x
 _atom_site_fract_y
 _atom_site_fract_z
 _atom_site_occupancy
  Zr  Zr0  1  0.75193359  0.96840310  0.20835734  1
  Zr  Zr1  1  0.02938242  0.77528484  0.24424882  1
  Zr  Zr2  1  0.99588275  0.98864524  0.99006919  1
  Zr  Zr3  1  0.52814251  0.27875861  0.25323469  1
  Zr  Zr4  1  0.50220659  0.50257417  0.00305301  1
  Zr  Zr5  1  0.48948518  0.99154550  0.48895429  1
  Zr  Zr6  1  0.25884711  0.54075075  0.28886104  1
  Zr  Zr7  1  0.29589325  0.26584779  0.54617818  1
  Zr  Zr8  1  0.71338405  0.74697292  0.46234760  1
  Zr  Zr9  1  0.78488728  0.25108547  0.04313018  1
  Zr  Zr10  1  0.20733070  0.74761774  0.96118669  1
  Zr  Zr11  1  0.74965418  0.46243008  0.71592515  1
  Zr  Zr12  1  0.00967144  0.49936608  0.50093028  1
  Zr  Zr13  1  0.97382247  0.21763462  0.75055626  1
  Zr  Zr14  1  0.46620975  0.71660578  0.74414103  1
  Zr  Zr15  1  0.24111982  0.02744659  0.78611214  1
  N  N16  1  0.73213854  0.96999476  0.96222245  1
  N  N17  1  0.75693067  0.22645011  0.27377855  1
  N  N18  1  0.45324058  0.48209749  0.22521167  1
  N  N19  1  0.77113642  0.73428288  0.24173681  1
  N  N20  1  0.49308725  0.22980810  0.46092519  1
  N  N21  1  0.22871610  0.27074829  0.76336101  1
  N  N22  1  0.98631445  0.53080958  0.25642250  1
  N  N23  1  0.51253200  0.77622954  0.54430907  1
  N  N24  1  0.95440442  0.72978676  0.96873326  1
  N  N25  1  0.54707516  0.51448840  0.77759932  1
  N  N26  1  0.22504590  0.45071128  0.48480369  1
  N  N27  1  0.27944560  0.76739963  0.22953275  1
  N  N28  1  0.96315673  0.95131130  0.72674629  1
  N  N29  1  0.24027908  0.77236655  0.72478890  1
  N  N30  1  0.00672878  0.46437397  0.73835989  1
  N  N31  1  0.27158490  0.03649081  0.04192996  1
  O  O32  1  0.53831825  0.26415238  0.98433932  1
  O  O33  1  0.73970461  0.01662674  0.47092320  1
  O  O34  1  0.04061827  0.27230260  0.02671390  1
  O  O35  1  0.72508718  0.23588851  0.77447803  1
  O  O36  1  0.77273259  0.54852776  0.51582106  1
  O  O37  1  0.03560401  0.04662051  0.27528677  1
  O  O38  1  0.46702383  0.73918031  0.01411429  1
  O  O39  1  0.26124158  0.98838546  0.53057823  1
