# generated using pymatgen
data_Tm3TaO7
_symmetry_space_group_name_H-M   'P 1'
_cell_length_a   6.36067593
_cell_length_b   6.36067593
_cell_length_c   7.32183865
_cell_angle_alpha   90.00000000
_cell_angle_beta   90.00000000
_cell_angle_gamma   108.68031867
_symmetry_Int_Tables_number   1
_chemical_formula_structural   Tm3TaO7
_chemical_formula_sum   'Tm6 Ta2 O14'
_cell_volume   280.62319233
_cell_formula_units_Z   2
loop_
 _symmetry_equiv_pos_site_id
 _symmetry_equiv_pos_as_xyz
  1  'x, y, z'
loop_
 _atom_site_type_symbol
 _atom_site_label
 _atom_site_symmetry_multiplicity
 _atom_site_fract_x
 _atom_site_fract_y
 _atom_site_fract_z
 _atom_site_occupancy
  Tm  Tm0  1  0.46475127  0.99949054  0.25894492  1
  Tm  Tm1  1  0.00050946  0.53524873  0.24105508  1
  Tm  Tm2  1  0.46429768  0.46429768  0.00000000  1
  Tm  Tm3  1  0.53570232  0.53570232  0.50000000  1
  Tm  Tm4  1  0.53524873  0.00050946  0.75894492  1
  Tm  Tm5  1  0.99949054  0.46475127  0.74105508  1
  Ta  Ta6  1  0.00184516  0.00184516  0.50000000  1
  Ta  Ta7  1  0.99815484  0.99815484  0.00000000  1
  O  O8  1  0.92680064  0.07319936  0.75000000  1
  O  O9  1  0.63988332  0.36011668  0.75000000  1
  O  O10  1  0.31108770  0.05151626  0.54635673  1
  O  O11  1  0.94848374  0.68891230  0.95364327  1
  O  O12  1  0.62911053  0.37088947  0.25000000  1
  O  O13  1  0.91525897  0.66808637  0.52486791  1
  O  O14  1  0.33191363  0.08474103  0.97513209  1
  O  O15  1  0.08474103  0.33191363  0.02486791  1
  O  O16  1  0.66808637  0.91525897  0.47513209  1
  O  O17  1  0.37088947  0.62911053  0.75000000  1
  O  O18  1  0.68891230  0.94848374  0.04635673  1
  O  O19  1  0.05151626  0.31108770  0.45364327  1
  O  O20  1  0.36011668  0.63988332  0.25000000  1
  O  O21  1  0.07319936  0.92680064  0.25000000  1
