# generated using pymatgen
data_Mn2(SO4)3
_symmetry_space_group_name_H-M   'P 1'
_cell_length_a   8.49032374
_cell_length_b   8.44632665
_cell_length_c   13.95971305
_cell_angle_alpha   54.19706353
_cell_angle_beta   90.00000000
_cell_angle_gamma   90.00000000
_symmetry_Int_Tables_number   1
_chemical_formula_structural   Mn2(SO4)3
_chemical_formula_sum   'Mn8 S12 O48'
_cell_volume   811.90943668
_cell_formula_units_Z   4
loop_
 _symmetry_equiv_pos_site_id
 _symmetry_equiv_pos_as_xyz
  1  'x, y, z'
loop_
 _atom_site_type_symbol
 _atom_site_label
 _atom_site_symmetry_multiplicity
 _atom_site_fract_x
 _atom_site_fract_y
 _atom_site_fract_z
 _atom_site_occupancy
  Mn  Mn0  1  0.97062487  0.37243235  0.88297087  1
  Mn  Mn1  1  0.47062487  0.62756765  0.61702913  1
  Mn  Mn2  1  0.03257700  0.86862540  0.38282625  1
  Mn  Mn3  1  0.53257700  0.13137460  0.11717375  1
  Mn  Mn4  1  0.46742300  0.86862540  0.88282625  1
  Mn  Mn5  1  0.96742300  0.13137460  0.61717375  1
  Mn  Mn6  1  0.52937513  0.37243235  0.38297087  1
  Mn  Mn7  1  0.02937513  0.62756765  0.11702913  1
  S  S8  1  0.75622289  0.55992903  0.49167018  1
  S  S9  1  0.62469481  0.26305156  0.84772461  1
  S  S10  1  0.87784702  0.98049526  0.14032552  1
  S  S11  1  0.12469481  0.73694844  0.65227539  1
  S  S12  1  0.37784702  0.01950474  0.35967448  1
  S  S13  1  0.25622289  0.44007097  0.00832982  1
  S  S14  1  0.74377711  0.55992903  0.99167018  1
  S  S15  1  0.62215298  0.98049526  0.64032552  1
  S  S16  1  0.87530519  0.26305156  0.34772461  1
  S  S17  1  0.12215298  0.01950474  0.85967448  1
  S  S18  1  0.37530519  0.73694844  0.15227539  1
  S  S19  1  0.24377711  0.44007097  0.50832982  1
  O  O20  1  0.13268111  0.59934416  0.44525361  1
  O  O21  1  0.12533340  0.13569679  0.90501626  1
  O  O22  1  0.32006241  0.42736729  0.60562166  1
  O  O23  1  0.41663996  0.85721687  0.19084825  1
  O  O24  1  0.64121648  0.52773378  0.58190587  1
  O  O25  1  0.79572008  0.30740060  0.82555132  1
  O  O26  1  0.59442032  0.15844822  0.97459685  1
  O  O27  1  0.99238216  0.89494665  0.23779895  1
  O  O28  1  0.72317568  0.98458530  0.18875645  1
  O  O29  1  0.83340020  0.75034477  0.44743766  1
  O  O30  1  0.53173931  0.44675865  0.78428999  1
  O  O31  1  0.03173931  0.55324135  0.71571001  1
  O  O32  1  0.92424648  0.18577331  0.04909646  1
  O  O33  1  0.42424648  0.81422669  0.45090354  1
  O  O34  1  0.33340020  0.24965523  0.05256234  1
  O  O35  1  0.22317568  0.01541470  0.31124355  1
  O  O36  1  0.09442032  0.84155178  0.52540315  1
  O  O37  1  0.49238216  0.10505335  0.26220105  1
  O  O38  1  0.29572008  0.69259940  0.67444868  1
  O  O39  1  0.14121648  0.47226622  0.91809413  1
  O  O40  1  0.82006241  0.57263271  0.89437834  1
  O  O41  1  0.62533340  0.86430321  0.59498374  1
  O  O42  1  0.91663996  0.14278313  0.30915175  1
  O  O43  1  0.63268111  0.40065584  0.05474639  1
  O  O44  1  0.36731889  0.59934416  0.94525361  1
  O  O45  1  0.08336004  0.85721687  0.69084825  1
  O  O46  1  0.37466660  0.13569679  0.40501626  1
  O  O47  1  0.17993759  0.42736729  0.10562166  1
  O  O48  1  0.85878352  0.52773378  0.08190587  1
  O  O49  1  0.70427992  0.30740060  0.32555132  1
  O  O50  1  0.50761784  0.89494665  0.73779895  1
  O  O51  1  0.90557968  0.15844822  0.47459685  1
  O  O52  1  0.77682432  0.98458530  0.68875645  1
  O  O53  1  0.66659980  0.75034477  0.94743766  1
  O  O54  1  0.57575352  0.18577331  0.54909646  1
  O  O55  1  0.07575352  0.81422669  0.95090354  1
  O  O56  1  0.96826069  0.44675865  0.28428999  1
  O  O57  1  0.46826069  0.55324135  0.21571001  1
  O  O58  1  0.16659980  0.24965523  0.55256234  1
  O  O59  1  0.27682432  0.01541470  0.81124355  1
  O  O60  1  0.00761784  0.10505335  0.76220105  1
  O  O61  1  0.40557968  0.84155178  0.02540315  1
  O  O62  1  0.20427992  0.69259940  0.17444868  1
  O  O63  1  0.35878352  0.47226622  0.41809413  1
  O  O64  1  0.58336004  0.14278313  0.80915175  1
  O  O65  1  0.67993759  0.57263271  0.39437834  1
  O  O66  1  0.87466660  0.86430321  0.09498374  1
  O  O67  1  0.86731889  0.40065584  0.55474639  1
