# generated using pymatgen
data_Na2TeW2O9
_symmetry_space_group_name_H-M   'P 1'
_cell_length_a   7.44680698
_cell_length_b   13.27904672
_cell_length_c   17.22228077
_cell_angle_alpha   108.18442605
_cell_angle_beta   102.48575550
_cell_angle_gamma   90.00000000
_symmetry_Int_Tables_number   1
_chemical_formula_structural   Na2TeW2O9
_chemical_formula_sum   'Na16 Te8 W16 O72'
_cell_volume   1575.54500733
_cell_formula_units_Z   8
loop_
 _symmetry_equiv_pos_site_id
 _symmetry_equiv_pos_as_xyz
  1  'x, y, z'
loop_
 _atom_site_type_symbol
 _atom_site_label
 _atom_site_symmetry_multiplicity
 _atom_site_fract_x
 _atom_site_fract_y
 _atom_site_fract_z
 _atom_site_occupancy
  Na  Na0  1  0.25489284  0.26425388  0.99093603  1
  Na  Na1  1  0.73604319  0.76425388  0.99093603  1
  Na  Na2  1  0.71224213  0.11832480  0.39647389  1
  Na  Na3  1  0.68423176  0.61832480  0.39647389  1
  Na  Na4  1  0.97692942  0.02857594  0.00050907  1
  Na  Na5  1  0.02357965  0.52857594  0.00050907  1
  Na  Na6  1  0.89574817  0.10649694  0.80631038  1
  Na  Na7  1  0.91056220  0.60649694  0.80631038  1
  Na  Na8  1  0.82411980  0.37110320  0.61903320  1
  Na  Na9  1  0.79491341  0.87110320  0.61903320  1
  Na  Na10  1  0.56261804  0.10565317  0.60973832  1
  Na  Na11  1  0.04712027  0.60565317  0.60973832  1
  Na  Na12  1  0.31646201  0.35391204  0.59910349  1
  Na  Na13  1  0.28264147  0.85391204  0.59910349  1
  Na  Na14  1  0.57511042  0.40549480  0.20136931  1
  Na  Na15  1  0.62625889  0.90549480  0.20136931  1
  Te  Te16  1  0.21509502  0.12405109  0.42311747  1
  Te  Te17  1  0.20802245  0.62405109  0.42311747  1
  Te  Te18  1  0.48809465  0.00688885  0.00477629  1
  Te  Te19  1  0.51668163  0.50688885  0.00477629  1
  Te  Te20  1  0.05333395  0.38818114  0.17240085  1
  Te  Te21  1  0.11906690  0.88818114  0.17240085  1
  Te  Te22  1  0.38408282  0.09245143  0.78507219  1
  Te  Te23  1  0.40098937  0.59245143  0.78507219  1
  W  W24  1  0.65269027  0.33520213  0.78420285  1
  W  W25  1  0.13151258  0.83520213  0.78420285  1
  W  W26  1  0.14963944  0.34148627  0.80229246  1
  W  W27  1  0.65265302  0.84148627  0.80229246  1
  W  W28  1  0.75619897  0.27988139  0.99667826  1
  W  W29  1  0.24047928  0.77988139  0.99667826  1
  W  W30  1  0.02553341  0.10501194  0.60428406  1
  W  W31  1  0.57875064  0.60501194  0.60428406  1
  W  W32  1  0.82357275  0.16720908  0.19719872  1
  W  W33  1  0.37362597  0.66720908  0.19719872  1
  W  W34  1  0.95418466  0.86130956  0.41318016  1
  W  W35  1  0.45899549  0.36130956  0.41318016  1
  W  W36  1  0.46876062  0.86649674  0.42252247  1
  W  W37  1  0.95376186  0.36649674  0.42252247  1
  W  W38  1  0.32929432  0.16101040  0.18950626  1
  W  W39  1  0.86021194  0.66101040  0.18950626  1
  O  O40  1  0.72033648  0.47534223  0.81915765  1
  O  O41  1  0.09882117  0.97534223  0.81915765  1
  O  O42  1  0.59804236  0.30318088  0.67075998  1
  O  O43  1  0.07271762  0.80318088  0.67075998  1
  O  O44  1  0.90040530  0.28599350  0.79361828  1
  O  O45  1  0.89321298  0.78599350  0.79361828  1
  O  O46  1  0.40506241  0.36211552  0.79914148  1
  O  O47  1  0.39407906  0.86211552  0.79914148  1
  O  O48  1  0.71538738  0.34875026  0.91726148  1
  O  O49  1  0.20187410  0.84875026  0.91726148  1
  O  O50  1  0.58104375  0.17701923  0.77491245  1
  O  O51  1  0.19386869  0.67701923  0.77491245  1
  O  O52  1  0.19870040  0.40669268  0.91740144  1
  O  O53  1  0.71870105  0.90669268  0.91740144  1
  O  O54  1  0.07974728  0.45011981  0.76278421  1
  O  O55  1  0.68303692  0.95011981  0.76278421  1
  O  O56  1  0.22318057  0.19743247  0.82638537  1
  O  O57  1  0.60320480  0.69743247  0.82638537  1
  O  O58  1  0.11565175  0.24302024  0.67775418  1
  O  O59  1  0.56210243  0.74302024  0.67775418  1
  O  O60  1  0.55380766  0.18910816  0.96930484  1
  O  O61  1  0.41549718  0.68910816  0.96930484  1
  O  O62  1  0.92181271  0.18699711  0.96067231  1
  O  O63  1  0.03885960  0.68699711  0.96067231  1
  O  O64  1  0.84002370  0.28253006  0.12561273  1
  O  O65  1  0.28558903  0.78253006  0.12561273  1
  O  O66  1  0.98726653  0.39955963  0.06314237  1
  O  O67  1  0.07587584  0.89955963  0.06314237  1
  O  O68  1  0.57811371  0.39897138  0.05613406  1
  O  O69  1  0.47802035  0.89897138  0.05613406  1
  O  O70  1  0.89123612  0.06406189  0.66583565  1
  O  O71  1  0.77459953  0.56406189  0.66583565  1
  O  O72  1  0.84188119  0.14493182  0.53654014  1
  O  O73  1  0.69465895  0.64493182  0.53654014  1
  O  O74  1  0.23088364  0.12106836  0.53400830  1
  O  O75  1  0.30312466  0.62106836  0.53400830  1
  O  O76  1  0.99344648  0.94669357  0.52652189  1
  O  O77  1  0.53307541  0.44669357  0.52652189  1
  O  O78  1  0.27466483  0.04552952  0.66729771  1
  O  O79  1  0.39263288  0.54552952  0.66729771  1
  O  O80  1  0.80433423  0.07127398  0.24765234  1
  O  O81  1  0.44331811  0.57127398  0.24765234  1
  O  O82  1  0.92675888  0.28682718  0.28572740  1
  O  O83  1  0.35896852  0.78682718  0.28572740  1
  O  O84  1  0.57845257  0.21654360  0.19536704  1
  O  O85  1  0.61691447  0.71654360  0.19536704  1
  O  O86  1  0.06553673  0.12924521  0.16900964  1
  O  O87  1  0.10347291  0.62924521  0.16900964  1
  O  O88  1  0.72118449  0.06825990  0.07862809  1
  O  O89  1  0.35744360  0.56825990  0.07862809  1
  O  O90  1  0.88187211  0.95935433  0.36426715  1
  O  O91  1  0.48239504  0.45935433  0.36426715  1
  O  O92  1  0.21066923  0.88617839  0.41605124  1
  O  O93  1  0.20538201  0.38617839  0.41605124  1
  O  O94  1  0.70583269  0.80618728  0.40494560  1
  O  O95  1  0.69911291  0.30618728  0.40494560  1
  O  O96  1  0.95124334  0.74802845  0.29969750  1
  O  O97  1  0.34845416  0.24802845  0.29969750  1
  O  O98  1  0.04501008  0.73133127  0.45856176  1
  O  O99  1  0.41355168  0.23133127  0.45856176  1
  O  O100  1  0.50629700  0.98559414  0.39690063  1
  O  O101  1  0.89060364  0.48559414  0.39690063  1
  O  O102  1  0.53343219  0.91499927  0.53627662  1
  O  O103  1  0.00284443  0.41499927  0.53627662  1
  O  O104  1  0.40544456  0.71251858  0.42042129  1
  O  O105  1  0.01497673  0.21251858  0.42042129  1
  O  O106  1  0.39343458  0.04079964  0.21243576  1
  O  O107  1  0.81900118  0.54079964  0.21243576  1
  O  O108  1  0.31752605  0.09753310  0.06416144  1
  O  O109  1  0.74663539  0.59753310  0.06416144  1
  O  O110  1  0.24918363  0.29943258  0.14912425  1
  O  O111  1  0.89994062  0.79943258  0.14912425  1
