# generated using pymatgen
data_BaTm2O4
_symmetry_space_group_name_H-M   'P 1'
_cell_length_a   3.39759416
_cell_length_b   10.33508958
_cell_length_c   11.96030399
_cell_angle_alpha   90.00000000
_cell_angle_beta   90.00000000
_cell_angle_gamma   90.00000000
_symmetry_Int_Tables_number   1
_chemical_formula_structural   BaTm2O4
_chemical_formula_sum   'Ba4 Tm8 O16'
_cell_volume   419.97937684
_cell_formula_units_Z   4
loop_
 _symmetry_equiv_pos_site_id
 _symmetry_equiv_pos_as_xyz
  1  'x, y, z'
loop_
 _atom_site_type_symbol
 _atom_site_label
 _atom_site_symmetry_multiplicity
 _atom_site_fract_x
 _atom_site_fract_y
 _atom_site_fract_z
 _atom_site_occupancy
  Ba  Ba0  1  0.75000000  0.24672096  0.35001336  1
  Ba  Ba1  1  0.25000000  0.25327904  0.85001336  1
  Ba  Ba2  1  0.75000000  0.74672096  0.14998664  1
  Ba  Ba3  1  0.25000000  0.75327904  0.64998664  1
  Tm  Tm4  1  0.75000000  0.07778861  0.60799015  1
  Tm  Tm5  1  0.75000000  0.07259299  0.11031499  1
  Tm  Tm6  1  0.25000000  0.42740701  0.61031499  1
  Tm  Tm7  1  0.25000000  0.42221139  0.10799015  1
  Tm  Tm8  1  0.75000000  0.57778861  0.89200985  1
  Tm  Tm9  1  0.75000000  0.57259299  0.38968501  1
  Tm  Tm10  1  0.25000000  0.92740701  0.88968501  1
  Tm  Tm11  1  0.25000000  0.92221139  0.39200985  1
  O  O12  1  0.25000000  0.01904857  0.71735123  1
  O  O13  1  0.75000000  0.06876333  0.92639947  1
  O  O14  1  0.25000000  0.11290212  0.48289539  1
  O  O15  1  0.25000000  0.20940754  0.15371436  1
  O  O16  1  0.75000000  0.29059246  0.65371436  1
  O  O17  1  0.75000000  0.38709788  0.98289539  1
  O  O18  1  0.25000000  0.43123667  0.42639947  1
  O  O19  1  0.75000000  0.48095143  0.21735123  1
  O  O20  1  0.25000000  0.51904857  0.78264877  1
  O  O21  1  0.75000000  0.56876333  0.57360053  1
  O  O22  1  0.25000000  0.61290212  0.01710461  1
  O  O23  1  0.25000000  0.70940754  0.34628564  1
  O  O24  1  0.75000000  0.79059246  0.84628564  1
  O  O25  1  0.75000000  0.88709788  0.51710461  1
  O  O26  1  0.25000000  0.93123667  0.07360053  1
  O  O27  1  0.75000000  0.98095143  0.28264877  1
