# generated using pymatgen
data_Zr2N2O
_symmetry_space_group_name_H-M   'P 1'
_cell_length_a   8.77974127
_cell_length_b   8.78072278
_cell_length_c   8.78776920
_cell_angle_alpha   109.26415360
_cell_angle_beta   109.41487374
_cell_angle_gamma   109.55086732
_symmetry_Int_Tables_number   1
_chemical_formula_structural   Zr2N2O
_chemical_formula_sum   'Zr16 N16 O8'
_cell_volume   522.69428212
_cell_formula_units_Z   8
loop_
 _symmetry_equiv_pos_site_id
 _symmetry_equiv_pos_as_xyz
  1  'x, y, z'
loop_
 _atom_site_type_symbol
 _atom_site_label
 _atom_site_symmetry_multiplicity
 _atom_site_fract_x
 _atom_site_fract_y
 _atom_site_fract_z
 _atom_site_occupancy
  Zr  Zr0  1  0.96889579  0.75001909  0.71560268  1
  Zr  Zr1  1  0.50039273  0.50034301  0.49913557  1
  Zr  Zr2  1  0.77772292  0.52696622  0.24779236  1
  Zr  Zr3  1  0.71982122  0.97087460  0.74927839  1
  Zr  Zr4  1  0.25026667  0.21240814  0.96267757  1
  Zr  Zr5  1  0.25209415  0.70613244  0.46602820  1
  Zr  Zr6  1  0.98723138  0.00065942  0.49911858  1
  Zr  Zr7  1  0.54021356  0.25166946  0.78358440  1
  Zr  Zr8  1  0.47172192  0.74790143  0.21553659  1
  Zr  Zr9  1  0.00291078  0.49020388  0.99385326  1
  Zr  Zr10  1  0.74298590  0.78822471  0.03395727  1
  Zr  Zr11  1  0.74879817  0.28737269  0.53512795  1
  Zr  Zr12  1  0.21217477  0.46870810  0.75159856  1
  Zr  Zr13  1  0.29130939  0.03382445  0.25095803  1
  Zr  Zr14  1  0.50172038  0.00182961  0.01043000  1
  Zr  Zr15  1  0.02961642  0.25544191  0.28812794  1
  N  N16  1  0.72998879  0.49455200  0.45733719  1
  N  N17  1  0.53249964  0.27411468  0.03847165  1
  N  N18  1  0.96373516  0.00697828  0.73360496  1
  N  N19  1  0.51058476  0.74188793  0.46970467  1
  N  N20  1  0.98879730  0.46107872  0.23097435  1
  N  N21  1  0.22819287  0.95787280  0.97131009  1
  N  N22  1  0.48320071  0.26216700  0.53401129  1
  N  N23  1  0.01446558  0.54673762  0.77557567  1
  N  N24  1  0.73344885  0.76168315  0.27079198  1
  N  N25  1  0.46876214  0.72686295  0.95225818  1
  N  N26  1  0.77007263  0.22985553  0.76634055  1
  N  N27  1  0.23801569  0.46377902  0.01468764  1
  N  N28  1  0.95425908  0.22310013  0.48572495  1
  N  N29  1  0.54314226  0.03083077  0.27170160  1
  N  N30  1  0.27364710  0.51171994  0.54388639  1
  N  N31  1  0.77434710  0.04123943  0.02926911  1
  O  O32  1  0.44783655  0.96753352  0.72355275  1
  O  O33  1  0.05580766  0.78099360  0.52004984  1
  O  O34  1  0.03907150  0.98987425  0.26442736  1
  O  O35  1  0.26223940  0.27147428  0.22902086  1
  O  O36  1  0.22252887  0.77356427  0.23696029  1
  O  O37  1  0.76034866  0.53612053  0.98052031  1
  O  O38  1  0.73869451  0.72068419  0.77172670  1
  O  O39  1  0.26843903  0.23271224  0.72528129  1
