# generated using pymatgen
data_WO3
_symmetry_space_group_name_H-M   'P 1'
_cell_length_a   12.06348507
_cell_length_b   12.06348507
_cell_length_c   3.94498904
_cell_angle_alpha   90.00000000
_cell_angle_beta   90.00000000
_cell_angle_gamma   90.00000000
_symmetry_Int_Tables_number   1
_chemical_formula_structural   WO3
_chemical_formula_sum   'W10 O30'
_cell_volume   574.10507119
_cell_formula_units_Z   10
loop_
 _symmetry_equiv_pos_site_id
 _symmetry_equiv_pos_as_xyz
  1  'x, y, z'
loop_
 _atom_site_type_symbol
 _atom_site_label
 _atom_site_symmetry_multiplicity
 _atom_site_fract_x
 _atom_site_fract_y
 _atom_site_fract_z
 _atom_site_occupancy
  W  W0  1  0.00000000  0.50000000  0.57847491  1
  W  W1  1  0.50000000  0.00000000  0.42152509  1
  W  W2  1  0.29302780  0.57690960  0.43559217  1
  W  W3  1  0.20697220  0.07690960  0.56440783  1
  W  W4  1  0.70697220  0.42309040  0.43559217  1
  W  W5  1  0.79302780  0.92309040  0.56440783  1
  W  W6  1  0.57690960  0.70697220  0.56440783  1
  W  W7  1  0.92309040  0.20697220  0.43559217  1
  W  W8  1  0.42309040  0.29302780  0.56440783  1
  W  W9  1  0.07690960  0.79302780  0.43559217  1
  O  O10  1  0.00000000  0.50000000  0.02316339  1
  O  O11  1  0.50000000  0.00000000  0.97683661  1
  O  O12  1  0.29314873  0.57671684  0.98984143  1
  O  O13  1  0.20685127  0.07671684  0.01015857  1
  O  O14  1  0.70685127  0.42328316  0.98984143  1
  O  O15  1  0.79314873  0.92328316  0.01015857  1
  O  O16  1  0.57671684  0.70685127  0.01015857  1
  O  O17  1  0.92328316  0.20685127  0.98984143  1
  O  O18  1  0.42328316  0.29314873  0.01015857  1
  O  O19  1  0.07671684  0.79314873  0.98984143  1
  O  O20  1  0.71247121  0.78752879  0.51351916  1
  O  O21  1  0.78752879  0.28752879  0.48648084  1
  O  O22  1  0.28752879  0.21247121  0.51351916  1
  O  O23  1  0.21247121  0.71247121  0.48648084  1
  O  O24  1  0.50322299  0.84456419  0.49242602  1
  O  O25  1  0.99677701  0.34456419  0.50757398  1
  O  O26  1  0.49677701  0.15543581  0.49242602  1
  O  O27  1  0.00322299  0.65543581  0.50757398  1
  O  O28  1  0.84456419  0.49677701  0.50757398  1
  O  O29  1  0.65543581  0.99677701  0.49242602  1
  O  O30  1  0.15543581  0.50322299  0.50757398  1
  O  O31  1  0.34456419  0.00322299  0.49242602  1
  O  O32  1  0.43165856  0.64218464  0.50402301  1
  O  O33  1  0.06834144  0.14218464  0.49597699  1
  O  O34  1  0.56834144  0.35781536  0.50402301  1
  O  O35  1  0.93165856  0.85781536  0.49597699  1
  O  O36  1  0.64218464  0.56834144  0.49597699  1
  O  O37  1  0.85781536  0.06834144  0.50402301  1
  O  O38  1  0.35781536  0.43165856  0.49597699  1
  O  O39  1  0.14218464  0.93165856  0.50402301  1
