# generated using pymatgen
data_Tm2GeO5
_symmetry_space_group_name_H-M   'P 1'
_cell_length_a   8.09122161
_cell_length_b   8.09122161
_cell_length_c   10.24215960
_cell_angle_alpha   61.29074522
_cell_angle_beta   61.29074522
_cell_angle_gamma   49.06753379
_symmetry_Int_Tables_number   1
_chemical_formula_structural   Tm2GeO5
_chemical_formula_sum   'Tm8 Ge4 O20'
_cell_volume   430.19423052
_cell_formula_units_Z   4
loop_
 _symmetry_equiv_pos_site_id
 _symmetry_equiv_pos_as_xyz
  1  'x, y, z'
loop_
 _atom_site_type_symbol
 _atom_site_label
 _atom_site_symmetry_multiplicity
 _atom_site_fract_x
 _atom_site_fract_y
 _atom_site_fract_z
 _atom_site_occupancy
  Tm  Tm0  1  0.72375480  0.20679779  0.46457353  1
  Tm  Tm1  1  0.26711476  0.00536787  0.16285275  1
  Tm  Tm2  1  0.99463213  0.73288524  0.33714725  1
  Tm  Tm3  1  0.79320221  0.27624520  0.03542647  1
  Tm  Tm4  1  0.20679779  0.72375480  0.96457353  1
  Tm  Tm5  1  0.00536787  0.26711476  0.66285275  1
  Tm  Tm6  1  0.73288524  0.99463213  0.83714725  1
  Tm  Tm7  1  0.27624520  0.79320221  0.53542647  1
  Ge  Ge8  1  0.41023380  0.21818603  0.30952032  1
  Ge  Ge9  1  0.21818603  0.41023380  0.80952032  1
  Ge  Ge10  1  0.78181397  0.58976620  0.19047968  1
  Ge  Ge11  1  0.58976620  0.78181397  0.69047968  1
  O  O12  1  0.08229753  0.88252716  0.39860588  1
  O  O13  1  0.22050052  0.36945853  0.45048055  1
  O  O14  1  0.91796288  0.31427261  0.17638383  1
  O  O15  1  0.68572739  0.08203712  0.32361617  1
  O  O16  1  0.63054147  0.77949948  0.04951945  1
  O  O17  1  0.11747284  0.91770247  0.10139412  1
  O  O18  1  0.34974931  0.03874962  0.32478778  1
  O  O19  1  0.42129970  0.41358831  0.13305735  1
  O  O20  1  0.58641169  0.57870030  0.36694265  1
  O  O21  1  0.96125038  0.65025069  0.17521222  1
  O  O22  1  0.03874962  0.34974931  0.82478778  1
  O  O23  1  0.41358831  0.42129970  0.63305735  1
  O  O24  1  0.57870030  0.58641169  0.86694265  1
  O  O25  1  0.65025069  0.96125038  0.67521222  1
  O  O26  1  0.88252716  0.08229753  0.89860588  1
  O  O27  1  0.36945853  0.22050052  0.95048055  1
  O  O28  1  0.31427261  0.91796288  0.67638383  1
  O  O29  1  0.08203712  0.68572739  0.82361617  1
  O  O30  1  0.77949948  0.63054147  0.54951945  1
  O  O31  1  0.91770247  0.11747284  0.60139412  1
