# generated using pymatgen
data_DyY7O12
_symmetry_space_group_name_H-M   'P 1'
_cell_length_a   9.18460908
_cell_length_b   9.18460708
_cell_length_c   9.18460511
_cell_angle_alpha   109.48285872
_cell_angle_beta   109.47395980
_cell_angle_gamma   109.45684729
_symmetry_Int_Tables_number   1
_chemical_formula_structural   DyY7O12
_chemical_formula_sum   'Dy2 Y14 O24'
_cell_volume   596.43046427
_cell_formula_units_Z   2
loop_
 _symmetry_equiv_pos_site_id
 _symmetry_equiv_pos_as_xyz
  1  'x, y, z'
loop_
 _atom_site_type_symbol
 _atom_site_label
 _atom_site_symmetry_multiplicity
 _atom_site_fract_x
 _atom_site_fract_y
 _atom_site_fract_z
 _atom_site_occupancy
  Dy  Dy0  1  0.28258459  0.03258426  0.24999966  1
  Dy  Dy1  1  0.21741518  0.46741525  0.74999986  1
  Y  Y2  1  0.78251635  0.53251591  0.24999958  1
  Y  Y3  1  0.00000130  0.50005125  -0.00001006  1
  Y  Y4  1  0.24999992  0.78254068  0.53254098  1
  Y  Y5  1  0.75000021  0.71745894  0.96745871  1
  Y  Y6  1  0.96754046  0.24999993  0.21754091  1
  Y  Y7  1  0.46742726  0.25000036  0.71742789  1
  Y  Y8  1  0.49999927  0.49998915  0.50005028  1
  Y  Y9  1  0.49993849  0.99994903  0.99994993  1
  Y  Y10  1  0.00006162  0.00001109  0.50001006  1
  Y  Y11  1  0.71748375  0.96748427  0.75000010  1
  Y  Y12  1  0.53245932  0.74999987  0.28245879  1
  Y  Y13  1  0.03257222  0.74999981  0.78257259  1
  Y  Y14  1  0.75000044  0.21757325  0.46757353  1
  Y  Y15  1  0.24999999  0.28242715  0.03242645  1
  O  O16  1  0.51092985  0.04255288  0.77184934  1
  O  O17  1  0.72929622  0.45744763  0.96837747  1
  O  O18  1  0.95746132  0.46846511  0.72927214  1
  O  O19  1  0.76083403  0.77183568  0.22927953  1
  O  O20  1  0.54253915  0.27181129  0.51100415  1
  O  O21  1  0.73916651  0.96844612  0.01100236  1
  O  O22  1  0.77070363  0.73908103  0.72815082  1
  O  O23  1  0.98907012  0.76091885  0.53162261  1
  O  O24  1  0.22809201  0.98898553  0.45726960  1
  O  O25  1  0.96843658  0.22928915  0.95751231  1
  O  O26  1  0.72822305  0.27071091  0.23914805  1
  O  O27  1  0.46828403  0.51101471  0.73910657  1
  O  O28  1  0.53156340  0.48907535  0.26085199  1
  O  O29  1  0.77177730  0.01092477  0.54248812  1
  O  O30  1  0.27190806  0.72917759  0.76089344  1
  O  O31  1  0.03171576  0.77082205  0.04273002  1
  O  O32  1  0.01122913  0.23951174  0.46889544  1
  O  O33  1  0.22938349  0.26048801  0.27171710  1
  O  O34  1  0.45744397  0.72816437  0.48899785  1
  O  O35  1  0.26080648  0.03153466  0.98899630  1
  O  O36  1  0.04255577  0.53155341  0.27072028  1
  O  O37  1  0.23919374  0.22818943  0.77072799  1
  O  O38  1  0.48877091  0.95766654  0.22828299  1
  O  O39  1  0.27061613  0.54233298  0.03110429  1
