# generated using pymatgen
data_V4OF11
_symmetry_space_group_name_H-M   'P 1'
_cell_length_a   5.03672998
_cell_length_b   5.31338945
_cell_length_c   16.88905720
_cell_angle_alpha   88.53923735
_cell_angle_beta   98.24315688
_cell_angle_gamma   117.96387403
_symmetry_Int_Tables_number   1
_chemical_formula_structural   V4OF11
_chemical_formula_sum   'V8 O2 F22'
_cell_volume   394.63922127
_cell_formula_units_Z   2
loop_
 _symmetry_equiv_pos_site_id
 _symmetry_equiv_pos_as_xyz
  1  'x, y, z'
loop_
 _atom_site_type_symbol
 _atom_site_label
 _atom_site_symmetry_multiplicity
 _atom_site_fract_x
 _atom_site_fract_y
 _atom_site_fract_z
 _atom_site_occupancy
  V  V0  1  0.75318790  0.61864481  0.37009643  1
  V  V1  1  0.75435448  0.12108954  0.87484877  1
  V  V2  1  0.50000000  0.00000000  0.50000000  1
  V  V3  1  0.50000000  0.50000000  -0.00000000  1
  V  V4  1  0.24681210  0.38135519  0.62990357  1
  V  V5  1  0.24564552  0.87891046  0.12515123  1
  V  V6  1  0.98458787  0.26644042  0.24990097  1
  V  V7  1  0.01541213  0.73355958  0.75009903  1
  O  O8  1  0.83763446  0.45470633  0.28838279  1
  O  O9  1  0.16236554  0.54529367  0.71161721  1
  F  F10  1  0.32432931  0.40195529  0.33980492  1
  F  F11  1  0.75588613  0.92780292  0.30945439  1
  F  F12  1  0.75403820  0.43449730  0.81392896  1
  F  F13  1  0.73792311  0.31767960  0.43983205  1
  F  F14  1  0.31721432  0.21086209  0.53609948  1
  F  F15  1  0.31122426  0.90110651  0.84412783  1
  F  F16  1  0.31696269  0.71793298  0.03328058  1
  F  F17  1  0.17770915  0.84291546  0.40668929  1
  F  F18  1  0.19515183  0.35132613  0.90711828  1
  F  F19  1  0.26207689  0.68232040  0.56016795  1
  F  F20  1  0.75667263  0.81856784  0.93767274  1
  F  F21  1  0.82229085  0.15708454  0.59331071  1
  F  F22  1  0.82143519  0.95958861  0.78357330  1
  F  F23  1  0.80484817  0.64867387  0.09288172  1
  F  F24  1  0.17856481  0.04041139  0.21642670  1
  F  F25  1  0.67567069  0.59804471  0.66019508  1
  F  F26  1  0.68278568  0.78913791  0.46390052  1
  F  F27  1  0.68303731  0.28206702  0.96671942  1
  F  F28  1  0.24332737  0.18143216  0.06232726  1
  F  F29  1  0.24596180  0.56550270  0.18607104  1
  F  F30  1  0.24411387  0.07219708  0.69054561  1
  F  F31  1  0.68877574  0.09889349  0.15587217  1
