# generated using pymatgen
data_Sm2TeO6
_symmetry_space_group_name_H-M   'P 1'
_cell_length_a   5.37466622
_cell_length_b   9.23495126
_cell_length_c   10.09795052
_cell_angle_alpha   90.00000000
_cell_angle_beta   90.00000000
_cell_angle_gamma   90.00000000
_symmetry_Int_Tables_number   1
_chemical_formula_structural   Sm2TeO6
_chemical_formula_sum   'Sm8 Te4 O24'
_cell_volume   501.20955837
_cell_formula_units_Z   4
loop_
 _symmetry_equiv_pos_site_id
 _symmetry_equiv_pos_as_xyz
  1  'x, y, z'
loop_
 _atom_site_type_symbol
 _atom_site_label
 _atom_site_symmetry_multiplicity
 _atom_site_fract_x
 _atom_site_fract_y
 _atom_site_fract_z
 _atom_site_occupancy
  Sm  Sm0  1  0.02465771  0.39586821  0.03986441  1
  Sm  Sm1  1  0.03463786  0.28274193  0.63653581  1
  Sm  Sm2  1  0.46536214  0.71725807  0.13653581  1
  Sm  Sm3  1  0.47534229  0.60413179  0.53986441  1
  Sm  Sm4  1  0.52465771  0.10413179  0.96013559  1
  Sm  Sm5  1  0.53463786  0.21725807  0.36346419  1
  Sm  Sm6  1  0.96536214  0.78274193  0.86346419  1
  Sm  Sm7  1  0.97534229  0.89586821  0.46013559  1
  Te  Te8  1  0.04138172  0.00457718  0.14476716  1
  Te  Te9  1  0.45861828  0.99542282  0.64476716  1
  Te  Te10  1  0.54138172  0.49542282  0.85523284  1
  Te  Te11  1  0.95861828  0.50457718  0.35523284  1
  O  O12  1  0.07358583  0.65068836  0.47558398  1
  O  O13  1  0.16690366  0.55281152  0.20998598  1
  O  O14  1  0.18222324  0.86216681  0.25861723  1
  O  O15  1  0.18937334  0.86111271  0.67740209  1
  O  O16  1  0.22310802  0.38764704  0.43317294  1
  O  O17  1  0.24721971  0.91442595  0.00791360  1
  O  O18  1  0.25278029  0.08557405  0.50791360  1
  O  O19  1  0.27689198  0.61235296  0.93317294  1
  O  O20  1  0.31062666  0.13888729  0.17740209  1
  O  O21  1  0.31777676  0.13783319  0.75861723  1
  O  O22  1  0.33309634  0.44718848  0.70998598  1
  O  O23  1  0.42641417  0.34931164  0.97558398  1
  O  O24  1  0.57358583  0.84931164  0.52441602  1
  O  O25  1  0.66690366  0.94718848  0.79001402  1
  O  O26  1  0.68222324  0.63783319  0.74138277  1
  O  O27  1  0.68937334  0.63888729  0.32259791  1
  O  O28  1  0.72310802  0.11235296  0.56682706  1
  O  O29  1  0.74721971  0.58557405  0.99208640  1
  O  O30  1  0.75278029  0.41442595  0.49208640  1
  O  O31  1  0.77689198  0.88764704  0.06682706  1
  O  O32  1  0.81062666  0.36111271  0.82259791  1
  O  O33  1  0.81777676  0.36216681  0.24138277  1
  O  O34  1  0.83309634  0.05281152  0.29001402  1
  O  O35  1  0.92641417  0.15068836  0.02441602  1
