# generated using pymatgen
data_Li5La3Nb2O12
_symmetry_space_group_name_H-M   'P 1'
_cell_length_a   11.20195691
_cell_length_b   11.20195691
_cell_length_c   12.83429151
_cell_angle_alpha   54.64921301
_cell_angle_beta   54.64921301
_cell_angle_gamma   70.77545801
_symmetry_Int_Tables_number   1
_chemical_formula_structural   Li5La3Nb2O12
_chemical_formula_sum   'Li20 La12 Nb8 O48'
_cell_volume   1071.33687319
_cell_formula_units_Z   4
loop_
 _symmetry_equiv_pos_site_id
 _symmetry_equiv_pos_as_xyz
  1  'x, y, z'
loop_
 _atom_site_type_symbol
 _atom_site_label
 _atom_site_symmetry_multiplicity
 _atom_site_fract_x
 _atom_site_fract_y
 _atom_site_fract_z
 _atom_site_occupancy
  Li  Li0  1  0.51409300  0.67192500  0.59372200  1
  Li  Li1  1  0.78841900  0.57666600  0.38702100  1
  Li  Li2  1  0.70904200  0.92476600  0.25247000  1
  Li  Li3  1  0.92476600  0.70904200  0.75247000  1
  Li  Li4  1  0.43973200  0.19980400  0.11294300  1
  Li  Li5  1  0.32299600  0.46913300  0.92172500  1
  Li  Li6  1  0.10565100  0.75930700  0.44270100  1
  Li  Li7  1  0.75930700  0.10565100  0.94270100  1
  Li  Li8  1  0.24593900  0.89345300  0.05286400  1
  Li  Li9  1  0.39195400  0.75440300  0.81747800  1
  Li  Li10  1  0.89345300  0.24593900  0.55286400  1
  Li  Li11  1  0.04574600  0.18333900  0.70599000  1
  Li  Li12  1  0.67192500  0.51409300  0.09372200  1
  Li  Li13  1  0.18333900  0.04574600  0.20599000  1
  Li  Li14  1  0.29097600  0.07150600  0.74966600  1
  Li  Li15  1  0.57666600  0.78841900  0.88702100  1
  Li  Li16  1  0.07150600  0.29097600  0.24966600  1
  Li  Li17  1  0.19980400  0.43973200  0.61294300  1
  Li  Li18  1  0.46913300  0.32299600  0.42172500  1
  Li  Li19  1  0.75440300  0.39195400  0.31747800  1
  La  La20  1  0.37171300  0.87020300  0.38172800  1
  La  La21  1  0.75431200  0.75306000  0.10688800  1
  La  La22  1  0.75306000  0.75431200  0.60688800  1
  La  La23  1  0.11654200  0.62408000  0.13066900  1
  La  La24  1  0.12522200  0.86796000  0.74840100  1
  La  La25  1  0.86796000  0.12522200  0.24840100  1
  La  La26  1  0.63070400  0.37115400  0.74955100  1
  La  La27  1  0.37115400  0.63070400  0.24955100  1
  La  La28  1  0.87020300  0.37171300  0.88172800  1
  La  La29  1  0.25351200  0.24876800  0.37764000  1
  La  La30  1  0.24876800  0.25351200  0.87764000  1
  La  La31  1  0.62408000  0.11654200  0.63066900  1
  Nb  Nb32  1  0.49605400  0.50179300  0.50280600  1
  Nb  Nb33  1  0.00746800  0.49822700  0.99532900  1
  Nb  Nb34  1  0.50320300  0.00204000  0.99680600  1
  Nb  Nb35  1  0.00204000  0.50320300  0.49680600  1
  Nb  Nb36  1  0.50179300  0.49605400  0.00280600  1
  Nb  Nb37  1  0.00307800  0.99474500  0.00491900  1
  Nb  Nb38  1  0.99474500  0.00307800  0.50491900  1
  Nb  Nb39  1  0.49822700  0.00746800  0.49532900  1
  O  O40  1  0.42552100  0.47580300  0.69817400  1
  O  O41  1  0.51966000  0.58446100  0.79906200  1
  O  O42  1  0.38384700  0.82865500  0.59599900  1
  O  O43  1  0.19633100  0.09922300  0.32113900  1
  O  O44  1  0.59021100  0.69857700  0.38903100  1
  O  O45  1  0.79718300  0.57994200  0.53012400  1
  O  O46  1  0.91311700  0.52815500  0.17459900  1
  O  O47  1  0.97333800  0.59101000  0.61107200  1
  O  O48  1  0.59101000  0.97333800  0.11107200  1
  O  O49  1  0.46649400  0.08098900  0.33016100  1
  O  O50  1  0.69652500  0.91885000  0.41035800  1
  O  O51  1  0.91885000  0.69652500  0.91035800  1
  O  O52  1  0.40785000  0.19529200  0.98119300  1
  O  O53  1  0.30797300  0.39873600  0.11535500  1
  O  O54  1  0.89885000  0.80184700  0.17146000  1
  O  O55  1  0.17488200  0.61439500  0.91883400  1
  O  O56  1  0.11907800  0.67295500  0.29963300  1
  O  O57  1  0.67295500  0.11907800  0.79963300  1
  O  O58  1  0.82751600  0.11039700  0.08054100  1
  O  O59  1  0.11039700  0.82751600  0.58054100  1
  O  O60  1  0.32643500  0.61645800  0.46891500  1
  O  O61  1  0.61645800  0.32643500  0.96891500  1
  O  O62  1  0.93391900  0.98538800  0.89461000  1
  O  O63  1  0.98538800  0.93391900  0.39461000  1
  O  O64  1  0.03342500  0.08870100  0.58622500  1
  O  O65  1  0.08870100  0.03342500  0.08622500  1
  O  O66  1  0.38751400  0.67559300  0.01301500  1
  O  O67  1  0.18248200  0.88285700  0.92483200  1
  O  O68  1  0.88285700  0.18248200  0.42483200  1
  O  O69  1  0.67559300  0.38751400  0.51301500  1
  O  O70  1  0.32162900  0.88716700  0.20305400  1
  O  O71  1  0.88716700  0.32162900  0.70305400  1
  O  O72  1  0.82865500  0.38384700  0.09599900  1
  O  O73  1  0.69857700  0.59021100  0.88903100  1
  O  O74  1  0.09922300  0.19633100  0.82113900  1
  O  O75  1  0.09352000  0.30063700  0.08631700  1
  O  O76  1  0.30063700  0.09352000  0.58631700  1
  O  O77  1  0.57994200  0.79718300  0.03012400  1
  O  O78  1  0.41466400  0.02445700  0.88557800  1
  O  O79  1  0.02445700  0.41466400  0.38557800  1
  O  O80  1  0.52815500  0.91311700  0.67459900  1
  O  O81  1  0.08098900  0.46649400  0.83016100  1
  O  O82  1  0.19529200  0.40785000  0.48119300  1
  O  O83  1  0.80184700  0.89885000  0.67146000  1
  O  O84  1  0.39873600  0.30797300  0.61535500  1
  O  O85  1  0.61439500  0.17488200  0.41883400  1
  O  O86  1  0.47580300  0.42552100  0.19817400  1
  O  O87  1  0.58446100  0.51966000  0.29906200  1
