# generated using pymatgen
data_Hf2N2O
_symmetry_space_group_name_H-M   'P 1'
_cell_length_a   8.66479737
_cell_length_b   8.66459779
_cell_length_c   8.67088786
_cell_angle_alpha   109.44694754
_cell_angle_beta   109.55270528
_cell_angle_gamma   109.20742158
_symmetry_Int_Tables_number   1
_chemical_formula_structural   Hf2N2O
_chemical_formula_sum   'Hf16 N16 O8'
_cell_volume   502.39780547
_cell_formula_units_Z   8
loop_
 _symmetry_equiv_pos_site_id
 _symmetry_equiv_pos_as_xyz
  1  'x, y, z'
loop_
 _atom_site_type_symbol
 _atom_site_label
 _atom_site_symmetry_multiplicity
 _atom_site_fract_x
 _atom_site_fract_y
 _atom_site_fract_z
 _atom_site_occupancy
  Hf  Hf0  1  0.48863031  0.49118168  0.50100257  1
  Hf  Hf1  1  0.78795960  0.53608561  0.24331090  1
  Hf  Hf2  1  0.52955994  0.75037561  0.27974122  1
  Hf  Hf3  1  0.03101260  0.74389196  0.78922777  1
  Hf  Hf4  1  0.70535700  0.96449822  0.74940203  1
  Hf  Hf5  1  0.74743343  0.71466674  0.97278322  1
  Hf  Hf6  1  0.74828609  0.21550778  0.46666851  1
  Hf  Hf7  1  0.25123138  0.29139834  0.03328277  1
  Hf  Hf8  1  0.00801587  0.00594860  0.49599960  1
  Hf  Hf9  1  0.50848543  0.99817663  0.00080074  1
  Hf  Hf10  1  0.25565529  0.78675708  0.53084843  1
  Hf  Hf11  1  0.00051891  0.51063305  0.00272510  1
  Hf  Hf12  1  0.28874066  0.03641805  0.25548135  1
  Hf  Hf13  1  0.46568858  0.25105783  0.71572498  1
  Hf  Hf14  1  0.97419565  0.25014336  0.22046455  1
  Hf  Hf15  1  0.21298863  0.45648971  0.74963328  1
  N  N16  1  0.22826496  0.26151174  0.26639690  1
  N  N17  1  0.46095087  0.73033608  0.48915606  1
  N  N18  1  0.49341965  0.95656128  0.22722599  1
  N  N19  1  0.04227591  0.52983460  0.27526591  1
  N  N20  1  0.54706271  0.27600381  0.51358909  1
  N  N21  1  0.76049741  0.77038799  0.23294462  1
  N  N22  1  0.95599965  0.47044730  0.72690726  1
  N  N23  1  0.00543993  0.23403865  0.46130870  1
  N  N24  1  0.03207373  0.77444558  0.04171675  1
  N  N25  1  0.74141377  0.96880849  0.00994083  1
  N  N26  1  0.51182400  0.04454316  0.77528696  1
  N  N27  1  0.22332759  0.98230973  0.45017694  1
  N  N28  1  0.23354435  0.22223329  0.77137623  1
  N  N29  1  0.27299982  0.54191353  0.03779251  1
  N  N30  1  0.72696291  0.45237729  0.96815084  1
  N  N31  1  0.46352851  0.51891087  0.73825214  1
  O  O32  1  0.71713714  0.27157099  0.23532466  1
  O  O33  1  0.77448411  0.73655805  0.71995454  1
  O  O34  1  0.53602655  0.47951768  0.25870800  1
  O  O35  1  0.96521199  0.22332514  0.94534679  1
  O  O36  1  0.26409064  0.03305078  0.98597484  1
  O  O37  1  0.77787459  0.02022811  0.55477069  1
  O  O38  1  0.27158243  0.73390499  0.76645326  1
  O  O39  1  0.99024940  0.76394462  0.54087847  1
