# generated using pymatgen
data_GdTa3O9
_symmetry_space_group_name_H-M   'P 1'
_cell_length_a   7.49087121
_cell_length_b   5.31734461
_cell_length_c   8.22866529
_cell_angle_alpha   87.56683887
_cell_angle_beta   90.00000000
_cell_angle_gamma   90.00000000
_symmetry_Int_Tables_number   1
_chemical_formula_structural   GdTa3O9
_chemical_formula_sum   'Gd2 Ta6 O18'
_cell_volume   327.46494063
_cell_formula_units_Z   2
loop_
 _symmetry_equiv_pos_site_id
 _symmetry_equiv_pos_as_xyz
  1  'x, y, z'
loop_
 _atom_site_type_symbol
 _atom_site_label
 _atom_site_symmetry_multiplicity
 _atom_site_fract_x
 _atom_site_fract_y
 _atom_site_fract_z
 _atom_site_occupancy
  Gd  Gd0  1  0.25000000  0.96644239  0.43487856  1
  Gd  Gd1  1  0.75000000  0.03355761  0.56512144  1
  Ta  Ta2  1  0.00000000  -0.00000000  0.00000000  1
  Ta  Ta3  1  0.50000000  -0.00000000  0.00000000  1
  Ta  Ta4  1  0.00743132  0.52718813  0.69846758  1
  Ta  Ta5  1  0.49256868  0.52718813  0.69846758  1
  Ta  Ta6  1  0.99256868  0.47281187  0.30153242  1
  Ta  Ta7  1  0.50743132  0.47281187  0.30153242  1
  O  O8  1  0.25000000  0.90451812  0.98034412  1
  O  O9  1  0.93839875  0.85032192  0.78516404  1
  O  O10  1  0.56160125  0.85032192  0.78516404  1
  O  O11  1  0.95919466  0.73868131  0.46676746  1
  O  O12  1  0.54080534  0.73868131  0.46676746  1
  O  O13  1  0.25000000  0.65854231  0.65671505  1
  O  O14  1  0.94613228  0.67703874  0.11978037  1
  O  O15  1  0.55386772  0.67703874  0.11978037  1
  O  O16  1  0.25000000  0.57012504  0.31243799  1
  O  O17  1  0.75000000  0.42987496  0.68756201  1
  O  O18  1  0.05386772  0.32296126  0.88021963  1
  O  O19  1  0.44613228  0.32296126  0.88021963  1
  O  O20  1  0.75000000  0.34145769  0.34328495  1
  O  O21  1  0.04080534  0.26131869  0.53323254  1
  O  O22  1  0.45919466  0.26131869  0.53323254  1
  O  O23  1  0.06160125  0.14967808  0.21483596  1
  O  O24  1  0.43839875  0.14967808  0.21483596  1
  O  O25  1  0.75000000  0.09548188  0.01965588  1
