# generated using pymatgen
data_Sr4Hf3O10
_symmetry_space_group_name_H-M   'P 1'
_cell_length_a   15.02441556
_cell_length_b   15.02441556
_cell_length_c   5.72171056
_cell_angle_alpha   90.00000000
_cell_angle_beta   90.00000000
_cell_angle_gamma   158.04714325
_symmetry_Int_Tables_number   1
_chemical_formula_structural   Sr4Hf3O10
_chemical_formula_sum   'Sr8 Hf6 O20'
_cell_volume   482.84860475
_cell_formula_units_Z   2
loop_
 _symmetry_equiv_pos_site_id
 _symmetry_equiv_pos_as_xyz
  1  'x, y, z'
loop_
 _atom_site_type_symbol
 _atom_site_label
 _atom_site_symmetry_multiplicity
 _atom_site_fract_x
 _atom_site_fract_y
 _atom_site_fract_z
 _atom_site_occupancy
  Sr  Sr0  1  0.43035905  0.56964095  -0.00000000  1
  Sr  Sr1  1  0.70551374  0.29448626  -0.00000000  1
  Sr  Sr2  1  0.29448626  0.70551374  -0.00000000  1
  Sr  Sr3  1  0.56964095  0.43035905  -0.00000000  1
  Sr  Sr4  1  0.20551374  0.79448626  0.50000000  1
  Sr  Sr5  1  0.93035905  0.06964095  0.50000000  1
  Sr  Sr6  1  0.79448626  0.20551374  0.50000000  1
  Sr  Sr7  1  0.06964095  0.93035905  0.50000000  1
  Hf  Hf8  1  -0.00000000  -0.00000000  -0.00000000  1
  Hf  Hf9  1  0.85917874  0.14082126  -0.00000000  1
  Hf  Hf10  1  0.14082126  0.85917874  -0.00000000  1
  Hf  Hf11  1  0.64082126  0.35917874  0.50000000  1
  Hf  Hf12  1  0.50000000  0.50000000  0.50000000  1
  Hf  Hf13  1  0.35917874  0.64082126  0.50000000  1
  O  O14  1  0.92990538  0.07009462  -0.00000000  1
  O  O15  1  0.78887192  0.21112808  -0.00000000  1
  O  O16  1  0.21112808  0.78887192  -0.00000000  1
  O  O17  1  0.07009462  0.92990538  -0.00000000  1
  O  O18  1  0.30241337  0.30241337  0.80241865  1
  O  O19  1  0.84218589  0.56289263  0.79748375  1
  O  O20  1  0.56289263  0.84218589  0.79748375  1
  O  O21  1  0.06289263  0.34218589  0.70251625  1
  O  O22  1  0.34218589  0.06289263  0.70251625  1
  O  O23  1  0.80241337  0.80241337  0.69758135  1
  O  O24  1  0.42990538  0.57009462  0.50000000  1
  O  O25  1  0.71112808  0.28887192  0.50000000  1
  O  O26  1  0.28887192  0.71112808  0.50000000  1
  O  O27  1  0.57009462  0.42990538  0.50000000  1
  O  O28  1  0.19758663  0.19758663  0.30241865  1
  O  O29  1  0.65781411  0.93710737  0.29748375  1
  O  O30  1  0.93710737  0.65781411  0.29748375  1
  O  O31  1  0.15781411  0.43710737  0.20251625  1
  O  O32  1  0.43710737  0.15781411  0.20251625  1
  O  O33  1  0.69758663  0.69758663  0.19758135  1
