# generated using pymatgen
data_Zr2N2O
_symmetry_space_group_name_H-M   'P 1'
_cell_length_a   8.76778328
_cell_length_b   8.79196961
_cell_length_c   8.79204823
_cell_angle_alpha   109.46916056
_cell_angle_beta   109.44976040
_cell_angle_gamma   109.33418573
_symmetry_Int_Tables_number   1
_chemical_formula_structural   Zr2N2O
_chemical_formula_sum   'Zr16 N16 O8'
_cell_volume   522.75860818
_cell_formula_units_Z   8
loop_
 _symmetry_equiv_pos_site_id
 _symmetry_equiv_pos_as_xyz
  1  'x, y, z'
loop_
 _atom_site_type_symbol
 _atom_site_label
 _atom_site_symmetry_multiplicity
 _atom_site_fract_x
 _atom_site_fract_y
 _atom_site_fract_z
 _atom_site_occupancy
  Zr  Zr0  1  0.01025879  0.00881865  0.51574025  1
  Zr  Zr1  1  0.24156786  0.02667779  0.27970607  1
  Zr  Zr2  1  0.03512914  0.28518553  0.25024188  1
  Zr  Zr3  1  0.46237757  0.21824597  0.75588648  1
  Zr  Zr4  1  0.78097670  0.74024375  0.02938719  1
  Zr  Zr5  1  0.28720586  0.74760064  0.53062922  1
  Zr  Zr6  1  0.48876486  0.49690701  0.48749359  1
  Zr  Zr7  1  0.50949905  0.00574447  0.00793796  1
  Zr  Zr8  1  0.74039500  0.45465363  0.21193702  1
  Zr  Zr9  1  0.00085538  0.49783475  0.98995637  1
  Zr  Zr10  1  0.25523574  0.53353089  0.78839554  1
  Zr  Zr11  1  0.72777457  0.26106272  0.47291463  1
  Zr  Zr12  1  0.21333667  0.25193610  0.97006358  1
  Zr  Zr13  1  0.96410153  0.71534998  0.74812924  1
  Zr  Zr14  1  0.53623636  0.78492025  0.24936990  1
  Zr  Zr15  1  0.75843352  0.97149399  0.71155972  1
  N  N16  1  0.04519505  0.77637143  0.03297216  1
  N  N17  1  0.22751698  0.95326163  0.48604188  1
  N  N18  1  0.46687274  0.23416319  0.01015485  1
  N  N19  1  0.72419914  0.46864136  0.95352933  1
  N  N20  1  0.25831796  0.49068711  0.53143541  1
  N  N21  1  0.73745929  0.51553284  0.46559517  1
  N  N22  1  0.24063183  0.27263324  0.72647116  1
  N  N23  1  0.77139898  0.22504694  0.23841060  1
  N  N24  1  0.27368795  0.53560140  0.05004410  1
  N  N25  1  0.00826758  0.96406835  0.73584390  1
  N  N26  1  0.53703625  0.76612537  0.99126737  1
  N  N27  1  0.97053365  0.45877286  0.72799942  1
  N  N28  1  0.27162185  0.25682642  0.23095688  1
  N  N29  1  0.77126588  0.04369807  0.50868574  1
  N  N30  1  0.48886000  0.72897779  0.45843693  1
  N  N31  1  0.94752752  0.22720106  0.96591834  1
  O  O32  1  0.51609228  0.27022640  0.54454988  1
  O  O33  1  0.72639666  0.73485633  0.77218764  1
  O  O34  1  0.03262769  0.54447435  0.27330507  1
  O  O35  1  0.98620945  0.03212522  0.26149551  1
  O  O36  1  0.22987795  0.77761309  0.76366455  1
  O  O37  1  0.76314681  0.72995801  0.27098977  1
  O  O38  1  0.53961635  0.00360249  0.77405808  1
  O  O39  1  0.45349255  0.98933391  0.22664062  1
