# generated using pymatgen
data_SnCNCl3
_symmetry_space_group_name_H-M   'P 1'
_cell_length_a   8.61788500
_cell_length_b   5.40108600
_cell_length_c   8.46396421
_cell_angle_alpha   84.21457363
_cell_angle_beta   90.00000000
_cell_angle_gamma   90.00000000
_symmetry_Int_Tables_number   1
_chemical_formula_structural   SnCNCl3
_chemical_formula_sum   'Sn2 C2 N2 Cl6'
_cell_volume   391.95645529
_cell_formula_units_Z   2
loop_
 _symmetry_equiv_pos_site_id
 _symmetry_equiv_pos_as_xyz
  1  'x, y, z'
loop_
 _atom_site_type_symbol
 _atom_site_label
 _atom_site_symmetry_multiplicity
 _atom_site_fract_x
 _atom_site_fract_y
 _atom_site_fract_z
 _atom_site_occupancy
  Sn  Sn0  1  0.18659900  0.48406700  0.50141100  1
  Sn  Sn1  1  0.81340100  0.48406700  0.00141100  1
  C  C2  1  0.33196700  0.22105300  0.92927400  1
  C  C3  1  0.66803300  0.22105300  0.42927400  1
  N  N4  1  0.26349800  0.05522200  0.99636500  1
  N  N5  1  0.73650200  0.05522200  0.49636500  1
  Cl  Cl6  1  0.01051900  0.48413200  0.24224600  1
  Cl  Cl7  1  0.98948100  0.48413200  0.74224600  1
  Cl  Cl8  1  0.57645100  0.45594600  0.33699400  1
  Cl  Cl9  1  0.42354900  0.45594600  0.83699400  1
  Cl  Cl10  1  0.27245400  0.02758000  0.52371100  1
  Cl  Cl11  1  0.72754600  0.02758000  0.02371100  1
