# generated using pymatgen
data_VF4
_symmetry_space_group_name_H-M   'P 1'
_cell_length_a   10.23720286
_cell_length_b   7.31213736
_cell_length_c   7.52825740
_cell_angle_alpha   90.00000000
_cell_angle_beta   90.00000000
_cell_angle_gamma   90.00000000
_symmetry_Int_Tables_number   1
_chemical_formula_structural   VF4
_chemical_formula_sum   'V8 F32'
_cell_volume   563.53398244
_cell_formula_units_Z   8
loop_
 _symmetry_equiv_pos_site_id
 _symmetry_equiv_pos_as_xyz
  1  'x, y, z'
loop_
 _atom_site_type_symbol
 _atom_site_label
 _atom_site_symmetry_multiplicity
 _atom_site_fract_x
 _atom_site_fract_y
 _atom_site_fract_z
 _atom_site_occupancy
  V  V0  1  0.24907624  -0.00004819  0.61938565  1
  V  V1  1  0.24907624  0.50004819  0.61938565  1
  V  V2  1  0.25092376  0.00004819  0.11938565  1
  V  V3  1  0.25092376  0.49995181  0.11938565  1
  V  V4  1  0.74907624  -0.00004819  0.88061435  1
  V  V5  1  0.74907624  0.50004819  0.88061435  1
  V  V6  1  0.75092376  0.49995181  0.38061435  1
  V  V7  1  0.75092376  0.00004819  0.38061435  1
  F  F8  1  0.08505267  0.06013477  0.63033721  1
  F  F9  1  0.08505267  0.43986523  0.63033721  1
  F  F10  1  0.08761498  0.06409925  0.11810998  1
  F  F11  1  0.08761498  0.43590075  0.11810998  1
  F  F12  1  0.20099461  0.75000000  0.56504848  1
  F  F13  1  0.20336418  0.75000000  0.17382735  1
  F  F14  1  0.25603153  0.44281110  0.37129914  1
  F  F15  1  0.25603153  0.05718890  0.37129914  1
  F  F16  1  0.24396847  0.94281110  0.87129914  1
  F  F17  1  0.24396847  0.55718890  0.87129914  1
  F  F18  1  0.29663582  0.25000000  0.67382735  1
  F  F19  1  0.29900539  0.25000000  0.06504848  1
  F  F20  1  0.41238502  0.93590075  0.61810998  1
  F  F21  1  0.41238502  0.56409925  0.61810998  1
  F  F22  1  0.41494733  0.93986523  0.13033721  1
  F  F23  1  0.41494733  0.56013477  0.13033721  1
  F  F24  1  0.58505367  0.06013477  0.86966279  1
  F  F25  1  0.58505367  0.43986523  0.86966279  1
  F  F26  1  0.58761498  0.06409925  0.38189002  1
  F  F27  1  0.58761498  0.43590075  0.38189002  1
  F  F28  1  0.70099461  0.75000000  0.93495152  1
  F  F29  1  0.70336418  0.75000000  0.32617265  1
  F  F30  1  0.75603153  0.05718890  0.12870086  1
  F  F31  1  0.75603153  0.44281110  0.12870086  1
  F  F32  1  0.74396847  0.55718890  0.62870086  1
  F  F33  1  0.74396847  0.94281110  0.62870086  1
  F  F34  1  0.79663582  0.25000000  0.82617265  1
  F  F35  1  0.79900539  0.25000000  0.43495152  1
  F  F36  1  0.91238502  0.56409925  0.88189002  1
  F  F37  1  0.91238502  0.93590075  0.88189002  1
  F  F38  1  0.91494733  0.56013477  0.36966279  1
  F  F39  1  0.91494733  0.93986523  0.36966279  1
