# generated using pymatgen
data_K2Se3
_symmetry_space_group_name_H-M   'P 1'
_cell_length_a   6.51095041
_cell_length_b   6.51095025
_cell_length_c   7.69022940
_cell_angle_alpha   90.00000000
_cell_angle_beta   90.00000000
_cell_angle_gamma   107.86594918
_symmetry_Int_Tables_number   1
_chemical_formula_structural   K2Se3
_chemical_formula_sum   'K4 Se6'
_cell_volume   310.28674166
_cell_formula_units_Z   2
loop_
 _symmetry_equiv_pos_site_id
 _symmetry_equiv_pos_as_xyz
  1  'x, y, z'
loop_
 _atom_site_type_symbol
 _atom_site_label
 _atom_site_symmetry_multiplicity
 _atom_site_fract_x
 _atom_site_fract_y
 _atom_site_fract_z
 _atom_site_occupancy
  K  K0  1  0.09853718  0.90146282  0.87164736  1
  K  K1  1  0.90146282  0.09853718  0.37164736  1
  K  K2  1  0.58657893  0.41342107  0.14975867  1
  K  K3  1  0.41342107  0.58657893  0.64975867  1
  Se  Se4  1  0.79228323  0.20771677  0.81790703  1
  Se  Se5  1  0.20771677  0.79228323  0.31790703  1
  Se  Se6  1  0.08569378  0.40438108  -0.00075653  1
  Se  Se7  1  0.91430622  0.59561892  0.49924347  1
  Se  Se8  1  0.59561892  0.91430622  -0.00075653  1
  Se  Se9  1  0.40438108  0.08569378  0.49924347  1
