# generated using pymatgen
data_Li8V3P8O29
_symmetry_space_group_name_H-M   'P 1'
_cell_length_a   9.90099574
_cell_length_b   9.90099574
_cell_length_c   13.83114710
_cell_angle_alpha   89.83202657
_cell_angle_beta   89.83202657
_cell_angle_gamma   59.80684924
_symmetry_Int_Tables_number   1
_chemical_formula_structural   Li8V3P8O29
_chemical_formula_sum   'Li16 V6 P16 O58'
_cell_volume   1171.91341794
_cell_formula_units_Z   2
loop_
 _symmetry_equiv_pos_site_id
 _symmetry_equiv_pos_as_xyz
  1  'x, y, z'
loop_
 _atom_site_type_symbol
 _atom_site_label
 _atom_site_symmetry_multiplicity
 _atom_site_fract_x
 _atom_site_fract_y
 _atom_site_fract_z
 _atom_site_occupancy
  Li  Li0  1  0.76673200  0.33334500  0.68508700  1
  Li  Li1  1  0.90116300  0.76456700  0.68338300  1
  Li  Li2  1  0.67015300  0.66267600  0.86769000  1
  Li  Li3  1  0.67473700  0.65957900  0.36827000  1
  Li  Li4  1  0.76691500  0.90597000  0.18732300  1
  Li  Li5  1  0.32371700  0.77027300  0.18835800  1
  Li  Li6  1  0.32697500  0.90309600  0.68412800  1
  Li  Li7  1  0.66665500  0.23326800  0.31491300  1
  Li  Li8  1  0.23543300  0.09883700  0.31661700  1
  Li  Li9  1  0.34042100  0.32526300  0.63173000  1
  Li  Li10  1  0.33732400  0.32984700  0.13231000  1
  Li  Li11  1  0.09403000  0.23308500  0.81267700  1
  Li  Li12  1  0.22972700  0.67628300  0.81164200  1
  Li  Li13  1  0.09690400  0.67302500  0.31587200  1
  Li  Li14  1  0.97956400  0.06515800  0.24584100  1
  Li  Li15  1  0.93484200  0.02043600  0.75415900  1
  V  V16  1  0.56387100  0.00355900  0.99487700  1
  V  V17  1  0.43691000  0.99923700  0.50107100  1
  V  V18  1  0.56599400  0.43400600  0.50000000  1
  V  V19  1  0.43676200  0.56323800  0.00000000  1
  V  V20  1  0.99644100  0.43612900  0.00512300  1
  V  V21  1  0.00076300  0.56309000  0.49892900  1
  P  P22  1  0.91288400  0.31097700  0.40698200  1
  P  P23  1  0.77776700  0.31419400  0.90625500  1
  P  P24  1  0.90944300  0.77295800  0.90653700  1
  P  P25  1  0.66472600  0.67411500  0.12367600  1
  P  P26  1  0.66694100  0.66522500  0.62635800  1
  P  P27  1  0.77175700  0.91055600  0.40372700  1
  P  P28  1  0.68902300  0.08711600  0.59301800  1
  P  P29  1  0.31940500  0.77231900  0.40566700  1
  P  P30  1  0.68580600  0.22223300  0.09374500  1
  P  P31  1  0.31817200  0.91075600  0.90621800  1
  P  P32  1  0.22704200  0.09055700  0.09346300  1
  P  P33  1  0.32588500  0.33527400  0.87632400  1
  P  P34  1  0.33477500  0.33305900  0.37364200  1
  P  P35  1  0.08944400  0.22824300  0.59627300  1
  P  P36  1  0.22768100  0.68059500  0.59433300  1
  P  P37  1  0.08924400  0.68182800  0.09378200  1
  O  O38  1  0.99866000  0.23625300  0.68752900  1
  O  O39  1  0.92350100  0.33294600  0.91253000  1
  O  O40  1  0.77300600  0.21705200  0.18343400  1
  O  O41  1  0.74952900  0.32922600  0.40423400  1
  O  O42  1  0.89679800  0.47388100  0.41252200  1
  O  O43  1  0.81490500  0.52986600  0.07723100  1
  O  O44  1  0.89923000  0.62266500  0.91731900  1
  O  O45  1  0.99562500  0.76577600  0.18187400  1
  O  O46  1  0.92163200  0.75092500  0.40496600  1
  O  O47  1  0.67438400  0.51329300  0.58873300  1
  O  O48  1  0.63152500  0.47813600  0.91751600  1
  O  O49  1  0.81220900  0.67185600  0.58639900  1
  O  O50  1  0.67457800  0.67815600  0.23112100  1
  O  O51  1  0.66997500  0.66544400  0.73628700  1
  O  O52  1  0.66386600  0.82203600  0.07944500  1
  O  O53  1  0.48474800  0.62938200  0.41643400  1
  O  O54  1  0.51727200  0.67214200  0.08838000  1
  O  O55  1  0.74497600  0.91551200  0.90927800  1
  O  O56  1  0.78065200  0.00896200  0.49276200  1
  O  O57  1  0.79391300  0.98738500  0.67423600  1
  O  O58  1  0.76374700  0.00134000  0.31247100  1
  O  O59  1  0.62988200  0.88741300  0.41643300  1
  O  O60  1  0.51472200  0.81037000  0.58860000  1
  O  O61  1  0.66705400  0.07649900  0.08747000  1
  O  O62  1  0.48383400  0.88946000  0.92056000  1
  O  O63  1  0.33130200  0.74986500  0.90635800  1
  O  O64  1  0.78841200  0.21158800  0.00000000  1
  O  O65  1  0.78294800  0.22699400  0.81656600  1
  O  O66  1  0.23393300  0.76750200  0.68339400  1
  O  O67  1  0.67077400  0.25047100  0.59576600  1
  O  O68  1  0.52611900  0.10320200  0.58747800  1
  O  O69  1  0.32933500  0.92188000  0.40559400  1
  O  O70  1  0.47013400  0.18509500  0.92276900  1
  O  O71  1  0.37733500  0.10077000  0.08268100  1
  O  O72  1  0.22632100  0.00092100  0.18171500  1
  O  O73  1  0.23422400  0.00437500  0.81812600  1
  O  O74  1  0.21515700  0.99979800  0.99981600  1
  O  O75  1  0.24907500  0.07836800  0.59503400  1
  O  O76  1  0.48670700  0.32561600  0.41126700  1
  O  O77  1  0.52186400  0.36847500  0.08248400  1
  O  O78  1  0.32814400  0.18779100  0.41360100  1
  O  O79  1  0.33455600  0.33002500  0.26371300  1
  O  O80  1  0.32184400  0.32542200  0.76887900  1
  O  O81  1  0.17796400  0.33613400  0.92055500  1
  O  O82  1  0.37061800  0.51525200  0.58356600  1
  O  O83  1  0.32785800  0.48272800  0.91162000  1
  O  O84  1  0.08448800  0.25502400  0.09072200  1
  O  O85  1  0.99103800  0.21934800  0.50723800  1
  O  O86  1  0.01261500  0.20608700  0.32576400  1
  O  O87  1  0.11258700  0.37011800  0.58356700  1
  O  O88  1  0.18963000  0.48527800  0.41140000  1
  O  O89  1  0.11054000  0.51616600  0.07944000  1
  O  O90  1  0.25013500  0.66869800  0.09364200  1
  O  O91  1  0.23249800  0.76606700  0.31660600  1
  O  O92  1  0.21702800  0.78297200  0.50000000  1
  O  O93  1  0.07812000  0.67066500  0.59440600  1
  O  O94  1  0.99907900  0.77367900  0.81828500  1
  O  O95  1  0.00020200  0.78484300  0.00018400  1
