# generated using pymatgen
data_TmCrO3
_symmetry_space_group_name_H-M   'P 1'
_cell_length_a   5.16618224
_cell_length_b   5.50964451
_cell_length_c   7.48369507
_cell_angle_alpha   90.00000000
_cell_angle_beta   90.00000000
_cell_angle_gamma   90.00000000
_symmetry_Int_Tables_number   1
_chemical_formula_structural   TmCrO3
_chemical_formula_sum   'Tm4 Cr4 O12'
_cell_volume   213.01460641
_cell_formula_units_Z   4
loop_
 _symmetry_equiv_pos_site_id
 _symmetry_equiv_pos_as_xyz
  1  'x, y, z'
loop_
 _atom_site_type_symbol
 _atom_site_label
 _atom_site_symmetry_multiplicity
 _atom_site_fract_x
 _atom_site_fract_y
 _atom_site_fract_z
 _atom_site_occupancy
  Tm  Tm0  1  0.52145666  0.57276904  0.25000000  1
  Tm  Tm1  1  0.97854334  0.07276904  0.25000000  1
  Tm  Tm2  1  0.47854334  0.42723096  0.75000000  1
  Tm  Tm3  1  0.02145666  0.92723096  0.75000000  1
  Cr  Cr4  1  -0.00000000  0.50000000  -0.00000000  1
  Cr  Cr5  1  0.50000000  -0.00000000  0.50000000  1
  Cr  Cr6  1  -0.00000000  0.50000000  0.50000000  1
  Cr  Cr7  1  0.50000000  -0.00000000  -0.00000000  1
  O  O8  1  0.38199872  0.95753258  0.25000000  1
  O  O9  1  0.11800128  0.45753258  0.25000000  1
  O  O10  1  0.61800128  0.04246742  0.75000000  1
  O  O11  1  0.88199872  0.54246742  0.75000000  1
  O  O12  1  0.81120601  0.80540930  0.05981025  1
  O  O13  1  0.68879399  0.30540930  0.44018975  1
  O  O14  1  0.18879399  0.19459070  0.55981025  1
  O  O15  1  0.31120601  0.69459070  0.94018975  1
  O  O16  1  0.18879399  0.19459070  0.94018975  1
  O  O17  1  0.31120601  0.69459070  0.55981025  1
  O  O18  1  0.81120601  0.80540930  0.44018975  1
  O  O19  1  0.68879399  0.30540930  0.05981025  1
