# generated using pymatgen
data_Dy2TeO6
_symmetry_space_group_name_H-M   'P 1'
_cell_length_a   5.25325785
_cell_length_b   9.05584400
_cell_length_c   9.91298919
_cell_angle_alpha   90.00000000
_cell_angle_beta   90.00000000
_cell_angle_gamma   90.00000000
_symmetry_Int_Tables_number   1
_chemical_formula_structural   Dy2TeO6
_chemical_formula_sum   'Dy8 Te4 O24'
_cell_volume   471.58749808
_cell_formula_units_Z   4
loop_
 _symmetry_equiv_pos_site_id
 _symmetry_equiv_pos_as_xyz
  1  'x, y, z'
loop_
 _atom_site_type_symbol
 _atom_site_label
 _atom_site_symmetry_multiplicity
 _atom_site_fract_x
 _atom_site_fract_y
 _atom_site_fract_z
 _atom_site_occupancy
  Dy  Dy0  1  0.02047923  0.39585524  0.03771239  1
  Dy  Dy1  1  0.03811811  0.28293173  0.63467876  1
  Dy  Dy2  1  0.46188189  0.71706827  0.13467876  1
  Dy  Dy3  1  0.47952077  0.60414476  0.53771239  1
  Dy  Dy4  1  0.52047923  0.10414476  0.96228761  1
  Dy  Dy5  1  0.53811811  0.21706827  0.36532124  1
  Dy  Dy6  1  0.96188189  0.78293173  0.86532124  1
  Dy  Dy7  1  0.97952077  0.89585524  0.46228761  1
  Te  Te8  1  0.03941860  0.00479676  0.14819450  1
  Te  Te9  1  0.46058140  0.99520324  0.64819450  1
  Te  Te10  1  0.53941860  0.49520324  0.85180550  1
  Te  Te11  1  0.96058140  0.50479676  0.35180550  1
  O  O12  1  0.08397532  0.65426354  0.47175024  1
  O  O13  1  0.16760683  0.55165413  0.20144078  1
  O  O14  1  0.18753104  0.85927489  0.26189232  1
  O  O15  1  0.18164808  0.85988037  0.67901948  1
  O  O16  1  0.23085337  0.38576663  0.43014754  1
  O  O17  1  0.25564948  0.08539066  0.50593691  1
  O  O18  1  0.24435052  0.91460934  0.00593691  1
  O  O19  1  0.26914663  0.61423337  0.93014754  1
  O  O20  1  0.31835192  0.14011963  0.17901948  1
  O  O21  1  0.31246896  0.14072511  0.76189232  1
  O  O22  1  0.33239317  0.44834587  0.70144078  1
  O  O23  1  0.41602468  0.34573646  0.97175024  1
  O  O24  1  0.58397532  0.84573646  0.52824976  1
  O  O25  1  0.66760683  0.94834587  0.79855922  1
  O  O26  1  0.68753104  0.64072511  0.73810768  1
  O  O27  1  0.68164808  0.64011963  0.32098052  1
  O  O28  1  0.73085337  0.11423337  0.56985246  1
  O  O29  1  0.75564948  0.41460934  0.49406309  1
  O  O30  1  0.74435052  0.58539066  0.99406309  1
  O  O31  1  0.76914663  0.88576663  0.06985246  1
  O  O32  1  0.81835192  0.35988037  0.82098052  1
  O  O33  1  0.81246896  0.35927489  0.23810768  1
  O  O34  1  0.83239317  0.05165413  0.29855922  1
  O  O35  1  0.91602468  0.15426354  0.02824976  1
