# generated using pymatgen
data_V3OF11
_symmetry_space_group_name_H-M   'P 1'
_cell_length_a   5.12646996
_cell_length_b   5.34541742
_cell_length_c   13.95695774
_cell_angle_alpha   99.95143823
_cell_angle_beta   89.98949653
_cell_angle_gamma   90.21127012
_symmetry_Int_Tables_number   1
_chemical_formula_structural   V3OF11
_chemical_formula_sum   'V6 O2 F22'
_cell_volume   376.70727653
_cell_formula_units_Z   2
loop_
 _symmetry_equiv_pos_site_id
 _symmetry_equiv_pos_as_xyz
  1  'x, y, z'
loop_
 _atom_site_type_symbol
 _atom_site_label
 _atom_site_symmetry_multiplicity
 _atom_site_fract_x
 _atom_site_fract_y
 _atom_site_fract_z
 _atom_site_occupancy
  V  V0  1  -0.00008796  0.00002080  -0.00003497  1
  V  V1  1  0.52597942  0.12286730  0.33043412  1
  V  V2  1  0.00904663  0.31883162  0.66702630  1
  V  V3  1  0.49958445  0.49992748  -0.00021917  1
  V  V4  1  0.00925478  0.65245517  0.33432643  1
  V  V5  1  0.52571883  0.78937772  0.66313463  1
  O  O6  1  0.70308252  0.53402183  0.64150855  1
  O  O7  1  0.70401915  0.86802445  0.30863707  1
  F  F8  1  0.80320297  0.01474518  0.63950674  1
  F  F9  1  0.69292750  0.19019705  0.97375041  1
  F  F10  1  0.29985335  0.14255782  0.69221730  1
  F  F11  1  0.90104031  0.04103148  0.12102981  1
  F  F12  1  0.58208544  0.22750401  0.45420752  1
  F  F13  1  0.90155082  0.37956339  0.78719310  1
  F  F14  1  0.39956822  0.14010029  0.21548956  1
  F  F15  1  0.07957435  0.30265346  0.54405765  1
  F  F16  1  0.40212263  0.46905458  0.87890786  1
  F  F17  1  0.80211848  0.34914763  0.30625343  1
  F  F18  1  0.80495706  0.68651887  0.97353438  1
  F  F19  1  0.19410891  0.31236511  0.02662932  1
  F  F20  1  0.29945389  0.47544000  0.35966278  1
  F  F21  1  0.21172775  0.63666764  0.69359557  1
  F  F22  1  0.58454860  0.54519481  0.12233430  1
  F  F23  1  0.90093456  0.71349476  0.45435608  1
  F  F24  1  0.58123521  0.89338290  0.78694947  1
  F  F25  1  0.08199705  0.63745049  0.21162312  1
  F  F26  1  0.40179042  0.80900272  0.54805349  1
  F  F27  1  0.08274240  0.96373992  0.87757880  1
  F  F28  1  0.30298009  0.81510242  0.02659464  1
  F  F29  1  0.21288318  0.96956410  0.36166170  1
