# generated using pymatgen
data_RbVH4(OF2)2
_symmetry_space_group_name_H-M   'P 1'
_cell_length_a   6.25352365
_cell_length_b   6.73592744
_cell_length_c   14.94566556
_cell_angle_alpha   84.56198884
_cell_angle_beta   89.99792386
_cell_angle_gamma   117.67458845
_symmetry_Int_Tables_number   1
_chemical_formula_structural   RbVH4(OF2)2
_chemical_formula_sum   'Rb4 V4 H16 O8 F16'
_cell_volume   554.33596402
_cell_formula_units_Z   4
loop_
 _symmetry_equiv_pos_site_id
 _symmetry_equiv_pos_as_xyz
  1  'x, y, z'
loop_
 _atom_site_type_symbol
 _atom_site_label
 _atom_site_symmetry_multiplicity
 _atom_site_fract_x
 _atom_site_fract_y
 _atom_site_fract_z
 _atom_site_occupancy
  Rb  Rb0  1  0.40250690  0.24988564  0.37499746  1
  Rb  Rb1  1  0.90231083  0.24980538  0.87500209  1
  Rb  Rb2  1  0.09768952  0.75019791  0.12497655  1
  Rb  Rb3  1  0.59749171  0.75010807  0.62501534  1
  V  V4  1  0.24984633  -0.00004829  0.74996969  1
  V  V5  1  0.00003077  0.50001294  0.50000321  1
  V  V6  1  0.75016634  0.00005413  0.25002348  1
  V  V7  1  0.49994762  0.49998222  0.00000534  1
  H  H8  1  0.80730631  0.05587901  0.42529627  1
  H  H9  1  0.30708603  0.05576729  0.92525851  1
  H  H10  1  0.00152461  0.44400970  0.32473148  1
  H  H11  1  0.50139124  0.44388635  0.82478509  1
  H  H12  1  0.69288831  0.94419607  0.07474410  1
  H  H13  1  0.19272095  0.94416930  0.57469836  1
  H  H14  1  0.49863403  0.55610406  0.17524262  1
  H  H15  1  0.99848606  0.55603066  0.67525194  1
  H  H16  1  0.81946294  0.82889562  0.40877752  1
  H  H17  1  0.31920905  0.82876003  0.90874557  1
  H  H18  1  0.24071220  0.67098004  0.34132727  1
  H  H19  1  0.74057007  0.67091073  0.84130070  1
  H  H20  1  0.68073818  0.17118108  0.09126018  1
  H  H21  1  0.18061667  0.17120403  0.59119790  1
  H  H22  1  0.25944047  0.32908909  0.15870750  1
  H  H23  1  0.75928842  0.32903705  0.65866366  1
  O  O24  1  0.85524331  0.98161860  0.38094279  1
  O  O25  1  0.35490926  0.98141899  0.88087491  1
  O  O26  1  0.12360624  0.51829408  0.36915286  1
  O  O27  1  0.62353370  0.51817449  0.86914968  1
  O  O28  1  0.64508021  0.01851095  0.11910679  1
  O  O29  1  0.14480118  0.01842313  0.61906164  1
  O  O30  1  0.37643195  0.48179194  0.13086215  1
  O  O31  1  0.87638248  0.48170980  0.63084223  1
  F  F32  1  0.81346808  0.30553546  0.25623927  1
  F  F33  1  0.31308740  0.30541324  0.75630537  1
  F  F34  1  0.75745649  0.19451577  0.49378889  1
  F  F35  1  0.25736678  0.19448769  0.99375477  1
  F  F36  1  0.68688303  0.69455299  0.24371656  1
  F  F37  1  0.18658764  0.69450297  0.74374457  1
  F  F38  1  0.74254792  0.80549957  0.00622970  1
  F  F39  1  0.24258515  0.80548469  0.50623912  1
  F  F40  1  0.77073681  0.60086883  0.46117199  1
  F  F41  1  0.27065759  0.60083152  0.96122153  1
  F  F42  1  0.42011969  0.89917496  0.28895954  1
  F  F43  1  0.91966260  0.89903353  0.78885668  1
  F  F44  1  0.72921813  0.39913539  0.03882394  1
  F  F45  1  0.22931369  0.39914145  0.53880532  1
  F  F46  1  0.08028783  0.10088366  0.21109513  1
  F  F47  1  0.57996927  0.10089916  0.71107376  1
