# generated using pymatgen
data_Li3SbO3
_symmetry_space_group_name_H-M   'P 1'
_cell_length_a   7.40647531
_cell_length_b   7.40647563
_cell_length_c   7.40647486
_cell_angle_alpha   109.47123298
_cell_angle_beta   109.47121555
_cell_angle_gamma   109.47122559
_symmetry_Int_Tables_number   1
_chemical_formula_structural   Li3SbO3
_chemical_formula_sum   'Li12 Sb4 O12'
_cell_volume   312.76113083
_cell_formula_units_Z   4
loop_
 _symmetry_equiv_pos_site_id
 _symmetry_equiv_pos_as_xyz
  1  'x, y, z'
loop_
 _atom_site_type_symbol
 _atom_site_label
 _atom_site_symmetry_multiplicity
 _atom_site_fract_x
 _atom_site_fract_y
 _atom_site_fract_z
 _atom_site_occupancy
  Li  Li0  1  0.53428056  0.28889182  0.00000180  1
  Li  Li1  1  0.53428075  0.00000172  0.28889185  1
  Li  Li2  1  0.75461253  0.46572215  0.46572220  1
  Li  Li3  1  0.28889177  0.00000173  0.53428051  1
  Li  Li4  1  0.28889178  0.53428064  0.00000183  1
  Li  Li5  1  0.71111121  0.24539203  0.71111117  1
  Li  Li6  1  0.71111133  0.71111142  0.24539195  1
  Li  Li7  1  0.46572194  0.75461325  0.46572182  1
  Li  Li8  1  0.46572191  0.46572200  0.75461330  1
  Li  Li9  1  0.00000166  0.53428059  0.28889168  1
  Li  Li10  1  0.00000181  0.28889175  0.53428070  1
  Li  Li11  1  0.24539302  0.71111142  0.71111140  1
  Sb  Sb12  1  0.72033184  -0.00000128  -0.00000110  1
  Sb  Sb13  1  0.27966563  0.27966563  0.27966550  1
  Sb  Sb14  1  -0.00000002  0.72033201  -0.00000000  1
  Sb  Sb15  1  -0.00000122  -0.00000107  0.72033152  1
  O  O16  1  0.74288678  0.23842316  0.23842311  1
  O  O17  1  0.76157392  0.50446269  -0.00000113  1
  O  O18  1  0.76157319  -0.00000118  0.50446210  1
  O  O19  1  0.49553452  0.49553540  0.25710989  1
  O  O20  1  0.50446275  0.76157302  -0.00000128  1
  O  O21  1  0.49553469  0.25710992  0.49553461  1
  O  O22  1  0.50446266  -0.00000107  0.76157395  1
  O  O23  1  0.25710997  0.49553479  0.49553482  1
  O  O24  1  0.23842299  0.23842401  0.74288686  1
  O  O25  1  0.23842421  0.74288672  0.23842427  1
  O  O26  1  -0.00000099  0.50446266  0.76157384  1
  O  O27  1  -0.00000116  0.76157408  0.50446183  1
