# generated using pymatgen
data_Y15TmO24
_symmetry_space_group_name_H-M   'P 1'
_cell_length_a   9.17640353
_cell_length_b   9.17640353
_cell_length_c   10.59172273
_cell_angle_alpha   54.71797780
_cell_angle_beta   54.71797780
_cell_angle_gamma   70.50556679
_symmetry_Int_Tables_number   1
_chemical_formula_structural   Y15TmO24
_chemical_formula_sum   'Y15 Tm1 O24'
_cell_volume   594.33495380
_cell_formula_units_Z   1
loop_
 _symmetry_equiv_pos_site_id
 _symmetry_equiv_pos_as_xyz
  1  'x, y, z'
loop_
 _atom_site_type_symbol
 _atom_site_label
 _atom_site_symmetry_multiplicity
 _atom_site_fract_x
 _atom_site_fract_y
 _atom_site_fract_z
 _atom_site_occupancy
  Y  Y0  1  0.00048721  0.99956258  0.74945485  1
  Y  Y1  1  0.78260436  0.21739564  0.00000000  1
  Y  Y2  1  0.24990972  0.25117696  0.78195948  1
  Y  Y3  1  0.74882304  0.75009028  0.21804052  1
  Y  Y4  1  0.96805273  0.46787669  0.53242891  1
  Y  Y5  1  0.46656352  0.96726917  0.03374210  1
  Y  Y6  1  0.00043742  0.99951279  0.25054515  1
  Y  Y7  1  0.71755712  0.28244288  0.50000000  1
  Y  Y8  1  0.49887676  0.50024086  0.25106810  1
  Y  Y9  1  0.28245464  0.71754536  0.00000000  1
  Y  Y10  1  0.49975914  0.50112324  0.74893190  1
  Y  Y11  1  0.53212331  0.03194727  0.46757109  1
  Y  Y12  1  0.03273083  0.53343648  0.96625790  1
  Y  Y13  1  0.75089320  0.74994839  0.71742186  1
  Y  Y14  1  0.25005161  0.24910680  0.28257814  1
  Tm  Tm15  1  0.21682497  0.78317503  0.50000000  1
  O  O16  1  0.51016100  0.22977904  0.78204742  1
  O  O17  1  0.72902523  0.01051922  0.97821364  1
  O  O18  1  0.96006799  0.76188254  0.75773656  1
  O  O19  1  0.76136408  0.95720320  0.26091348  1
  O  O20  1  0.73951590  0.54273201  0.47898019  1
  O  O21  1  0.54314522  0.73906689  0.97955476  1
  O  O22  1  0.77022096  0.48983900  0.21795258  1
  O  O23  1  0.98948078  0.27097477  0.02178636  1
  O  O24  1  0.22823747  0.96844933  0.01091049  1
  O  O25  1  0.72820988  0.46847470  0.79237783  1
  O  O26  1  0.46472401  0.72836801  0.29603434  1
  O  O27  1  0.96841821  0.22825900  0.51092182  1
  O  O28  1  0.53152530  0.27179012  0.20762217  1
  O  O29  1  0.77174100  0.03158179  0.48907818  1
  O  O30  1  0.27163199  0.53527599  0.70396566  1
  O  O31  1  0.03155067  0.77176253  0.98908951  1
  O  O32  1  0.22917717  0.51076030  0.28151901  1
  O  O33  1  0.01411713  0.72881763  0.47889740  1
  O  O34  1  0.45726799  0.26048410  0.52101981  1
  O  O35  1  0.26093311  0.45685478  0.02044524  1
  O  O36  1  0.04279680  0.23863592  0.73908652  1
  O  O37  1  0.23811746  0.03993201  0.24226344  1
  O  O38  1  0.48923970  0.77082283  0.71848099  1
  O  O39  1  0.27118237  0.98588287  0.52110260  1
