# generated using pymatgen
data_NaH8O5
_symmetry_space_group_name_H-M   'P 1'
_cell_length_a   7.74928515
_cell_length_b   7.74928626
_cell_length_c   11.14174828
_cell_angle_alpha   64.24100161
_cell_angle_beta   64.24101620
_cell_angle_gamma   48.67596542
_symmetry_Int_Tables_number   1
_chemical_formula_structural   NaH8O5
_chemical_formula_sum   'Na4 H32 O20'
_cell_volume   441.62836145
_cell_formula_units_Z   4
loop_
 _symmetry_equiv_pos_site_id
 _symmetry_equiv_pos_as_xyz
  1  'x, y, z'
loop_
 _atom_site_type_symbol
 _atom_site_label
 _atom_site_symmetry_multiplicity
 _atom_site_fract_x
 _atom_site_fract_y
 _atom_site_fract_z
 _atom_site_occupancy
  Na  Na0  1  0.69605706  0.70505589  0.56993360  1
  Na  Na1  1  0.29494493  0.30394218  0.93006629  1
  Na  Na2  1  0.30394327  0.29494696  0.43006883  1
  Na  Na3  1  0.70505315  0.69605649  0.06993102  1
  H  H4  1  0.12544236  0.64039308  0.57203922  1
  H  H5  1  0.35960713  0.87455821  0.92796012  1
  H  H6  1  0.87455077  0.35962234  0.42796122  1
  H  H7  1  0.64037797  0.12544817  0.07203938  1
  H  H8  1  0.04821930  0.79217552  0.43178012  1
  H  H9  1  0.20782475  0.95178053  0.06821952  1
  H  H10  1  0.95178578  0.20782530  0.56821740  1
  H  H11  1  0.79217609  0.04821274  0.93178306  1
  H  H12  1  0.84202804  0.31339467  0.79172100  1
  H  H13  1  0.68660521  0.15797242  0.70827898  1
  H  H14  1  0.15796858  0.68660310  0.20827811  1
  H  H15  1  0.31339667  0.84203128  0.29172193  1
  H  H16  1  0.57710320  0.53336673  0.83646331  1
  H  H17  1  0.46663314  0.42289755  0.66353651  1
  H  H18  1  0.42289959  0.46663389  0.16353423  1
  H  H19  1  0.53336680  0.57710011  0.33646564  1
  H  H20  1  0.21349879  0.82513564  0.62617357  1
  H  H21  1  0.17486608  0.78650015  0.87382605  1
  H  H22  1  0.78650648  0.17485969  0.37382660  1
  H  H23  1  0.82514044  0.21349318  0.12617342  1
  H  H24  1  0.39445497  0.74183843  0.48525827  1
  H  H25  1  0.25816239  0.60554517  0.01474129  1
  H  H26  1  0.60554796  0.25816071  0.51474334  1
  H  H27  1  0.74183985  0.39445213  0.98525646  1
  H  H28  1  0.39949649  0.13015864  0.68854236  1
  H  H29  1  0.86984174  0.60050374  0.81145742  1
  H  H30  1  0.60049681  0.86984701  0.31145911  1
  H  H31  1  0.13015237  0.39950388  0.18854090  1
  H  H32  1  0.23340265  0.05755204  0.71218311  1
  H  H33  1  0.94244824  0.76659683  0.78781711  1
  H  H34  1  0.76659575  0.94244924  0.28781731  1
  H  H35  1  0.05755176  0.23340367  0.21218288  1
  O  O36  1  -0.00002771  0.03933885  0.80096638  1
  O  O37  1  0.96066056  0.00002865  0.69903332  1
  O  O38  1  0.00001767  0.96065631  0.19903786  1
  O  O39  1  0.03934482  -0.00001803  0.30096210  1
  O  O40  1  0.05173827  0.66134995  0.51092830  1
  O  O41  1  0.33864956  0.94826248  0.98907147  1
  O  O42  1  0.94826318  0.33865236  0.48906965  1
  O  O43  1  0.66134805  0.05173695  0.01092993  1
  O  O44  1  0.74235599  0.48317259  0.79746944  1
  O  O45  1  0.51682717  0.25764470  0.70253044  1
  O  O46  1  0.25764775  0.51682305  0.20253410  1
  O  O47  1  0.48317712  0.74235211  0.29746615  1
  O  O48  1  0.37814186  0.69938333  0.58407173  1
  O  O49  1  0.30061785  0.62185776  0.91592782  1
  O  O50  1  0.62186877  0.30061524  0.41592746  1
  O  O51  1  0.69938471  0.37813096  0.08407241  1
  O  O52  1  0.37443726  0.05464960  0.65294879  1
  O  O53  1  0.94535087  0.62556257  0.84705093  1
  O  O54  1  0.62556369  0.94535020  0.34705110  1
  O  O55  1  0.05465002  0.37443605  0.15294891  1
