# generated using pymatgen
data_Li2HfO3
_symmetry_space_group_name_H-M   'P 1'
_cell_length_a   5.17715537
_cell_length_b   5.17715537
_cell_length_c   3.14535666
_cell_angle_alpha   79.61468004
_cell_angle_beta   79.61468004
_cell_angle_gamma   47.05844570
_symmetry_Int_Tables_number   1
_chemical_formula_structural   Li2HfO3
_chemical_formula_sum   'Li2 Hf1 O3'
_cell_volume   60.51061860
_cell_formula_units_Z   1
loop_
 _symmetry_equiv_pos_site_id
 _symmetry_equiv_pos_as_xyz
  1  'x, y, z'
loop_
 _atom_site_type_symbol
 _atom_site_label
 _atom_site_symmetry_multiplicity
 _atom_site_fract_x
 _atom_site_fract_y
 _atom_site_fract_z
 _atom_site_occupancy
  Li  Li0  1  0.33577708  0.33577708  0.57862155  1
  Li  Li1  1  0.66422292  0.66422292  0.42137845  1
  Hf  Hf2  1  -0.00000000  -0.00000000  -0.00000000  1
  O  O3  1  0.14665391  0.14665391  0.41084163  1
  O  O4  1  0.50000000  0.50000000  -0.00000000  1
  O  O5  1  0.85334609  0.85334609  0.58915837  1
