# generated using pymatgen
data_Gd2P4O13
_symmetry_space_group_name_H-M   'P 1'
_cell_length_a   9.45461377
_cell_length_b   9.45461377
_cell_length_c   8.64373766
_cell_angle_alpha   90.00000000
_cell_angle_beta   90.00000000
_cell_angle_gamma   135.94175431
_symmetry_Int_Tables_number   1
_chemical_formula_structural   Gd2P4O13
_chemical_formula_sum   'Gd4 P8 O26'
_cell_volume   537.30038504
_cell_formula_units_Z   2
loop_
 _symmetry_equiv_pos_site_id
 _symmetry_equiv_pos_as_xyz
  1  'x, y, z'
loop_
 _atom_site_type_symbol
 _atom_site_label
 _atom_site_symmetry_multiplicity
 _atom_site_fract_x
 _atom_site_fract_y
 _atom_site_fract_z
 _atom_site_occupancy
  Gd  Gd0  1  0.89699544  0.60363362  0.35474367  1
  Gd  Gd1  1  0.39636638  0.10300456  0.14525633  1
  Gd  Gd2  1  0.60363362  0.89699544  0.64525633  1
  Gd  Gd3  1  0.10300456  0.39636638  0.85474367  1
  P  P4  1  0.85019165  0.72337258  0.72855091  1
  P  P5  1  0.27662742  0.14980835  0.77144909  1
  P  P6  1  0.41773883  0.10012008  0.50179717  1
  P  P7  1  0.89987992  0.58226117  0.99820283  1
  P  P8  1  0.10012008  0.41773883  0.49820283  1
  P  P9  1  0.58226117  0.89987992  0.00179717  1
  P  P10  1  0.14980835  0.27662742  0.22855091  1
  P  P11  1  0.72337258  0.85019165  0.27144909  1
  O  O12  1  0.25591845  0.21626043  0.20477956  1
  O  O13  1  0.78373957  0.74408155  0.29522044  1
  O  O14  1  0.08632960  0.91367040  0.75000000  1
  O  O15  1  0.37660851  0.20896434  0.60550939  1
  O  O16  1  0.79103566  0.62339149  0.89449061  1
  O  O17  1  0.40446795  0.17432720  0.89261709  1
  O  O18  1  0.82567280  0.59553205  0.60738291  1
  O  O19  1  0.22800995  0.93219252  0.40511566  1
  O  O20  1  0.06780748  0.77199005  0.09488434  1
  O  O21  1  0.73698867  0.42209558  0.11424907  1
  O  O22  1  0.57790442  0.26301133  0.38575093  1
  O  O23  1  0.97130388  0.51885932  0.89261645  1
  O  O24  1  0.48114068  0.02869612  0.60738355  1
  O  O25  1  0.02869612  0.48114068  0.39261645  1
  O  O26  1  0.51885932  0.97130388  0.10738355  1
  O  O27  1  0.26301133  0.57790442  0.61424907  1
  O  O28  1  0.42209558  0.73698867  0.88575093  1
  O  O29  1  0.77199005  0.06780748  0.90511566  1
  O  O30  1  0.93219252  0.22800995  0.59488434  1
  O  O31  1  0.59553205  0.82567280  0.39261709  1
  O  O32  1  0.17432720  0.40446795  0.10738291  1
  O  O33  1  0.20896434  0.37660851  0.39449061  1
  O  O34  1  0.62339149  0.79103566  0.10550939  1
  O  O35  1  0.91367040  0.08632960  0.25000000  1
  O  O36  1  0.21626043  0.25591845  0.79522044  1
  O  O37  1  0.74408155  0.78373957  0.70477956  1
