# generated using pymatgen
data_V2OF5
_symmetry_space_group_name_H-M   'P 1'
_cell_length_a   5.07800007
_cell_length_b   5.28981410
_cell_length_c   16.88519345
_cell_angle_alpha   88.44143190
_cell_angle_beta   98.27122383
_cell_angle_gamma   118.36868222
_symmetry_Int_Tables_number   1
_chemical_formula_structural   V2OF5
_chemical_formula_sum   'V8 O4 F20'
_cell_volume   394.50262052
_cell_formula_units_Z   4
loop_
 _symmetry_equiv_pos_site_id
 _symmetry_equiv_pos_as_xyz
  1  'x, y, z'
loop_
 _atom_site_type_symbol
 _atom_site_label
 _atom_site_symmetry_multiplicity
 _atom_site_fract_x
 _atom_site_fract_y
 _atom_site_fract_z
 _atom_site_occupancy
  V  V0  1  0.23973334  0.62168174  0.87657793  1
  V  V1  1  0.23779326  0.13310695  0.37638042  1
  V  V2  1  0.49865394  0.26191035  0.74754166  1
  V  V3  1  0.50132905  0.74999956  0.24566155  1
  V  V4  1  0.73495990  0.84544277  0.63033207  1
  V  V5  1  0.73482810  0.40342588  0.12413119  1
  V  V6  1  -0.00648520  0.03507244  0.99512147  1
  V  V7  1  0.00283528  0.47932200  0.49795083  1
  O  O8  1  0.03163862  0.31322471  0.93881172  1
  O  O9  1  0.08809094  0.31302256  0.41761963  1
  O  O10  1  0.53768230  0.55580508  0.68862876  1
  O  O11  1  0.58834826  0.58882400  0.16291491  1
  F  F12  1  0.06188763  0.84058651  0.90813756  1
  F  F13  1  0.01538370  0.78812556  0.43464193  1
  F  F14  1  0.48709312  0.95167102  0.81322899  1
  F  F15  1  0.06603400  0.03603279  0.71959219  1
  F  F16  1  0.07624092  0.53899517  0.21281231  1
  F  F17  1  0.56015977  0.79075415  0.96578416  1
  F  F18  1  0.43875483  0.42273779  0.84056924  1
  F  F19  1  0.42747535  0.91913147  0.33818303  1
  F  F20  1  0.42835275  0.70172031  0.53433486  1
  F  F21  1  0.48488957  0.44204190  0.31203139  1
  F  F22  1  0.55129571  0.06957138  0.66000684  1
  F  F23  1  0.57677282  0.26942796  0.46582242  1
  F  F24  1  0.42835253  0.21135341  0.03319519  1
  F  F25  1  0.94080242  0.66716982  0.58902837  1
  F  F26  1  0.93928452  0.46327390  0.78481963  1
  F  F27  1  0.93069929  0.96748315  0.28316100  1
  F  F28  1  0.51897690  0.06589664  0.18633523  1
  F  F29  1  0.97810407  0.69967698  0.05738679  1
  F  F30  1  0.97466203  0.18044095  0.56882221  1
  F  F31  1  0.92536526  0.17306910  0.09043351  1
