# generated using pymatgen
data_SbS2N
_symmetry_space_group_name_H-M   'P 1'
_cell_length_a   6.12239900
_cell_length_b   7.32360009
_cell_length_c   10.50193174
_cell_angle_alpha   81.50688116
_cell_angle_beta   76.74132821
_cell_angle_gamma   74.40857104
_symmetry_Int_Tables_number   1
_chemical_formula_structural   SbS2N
_chemical_formula_sum   'Sb4 S8 N4'
_cell_volume   439.60520170
_cell_formula_units_Z   4
loop_
 _symmetry_equiv_pos_site_id
 _symmetry_equiv_pos_as_xyz
  1  'x, y, z'
loop_
 _atom_site_type_symbol
 _atom_site_label
 _atom_site_symmetry_multiplicity
 _atom_site_fract_x
 _atom_site_fract_y
 _atom_site_fract_z
 _atom_site_occupancy
  Sb  Sb0  1  0.16564300  0.17763000  0.37233700  1
  Sb  Sb1  1  0.83435700  0.82237000  0.62766300  1
  Sb  Sb2  1  0.57212100  0.16536500  0.09915200  1
  Sb  Sb3  1  0.42787900  0.83463500  0.90084800  1
  S  S4  1  0.61582500  0.16103100  0.66854900  1
  S  S5  1  0.38417500  0.83896900  0.33145100  1
  S  S6  1  0.12268900  0.23068900  0.79659800  1
  S  S7  1  0.87731100  0.76931100  0.20340200  1
  S  S8  1  0.52940100  0.28200600  0.31356500  1
  S  S9  1  0.47059900  0.71799400  0.68643500  1
  S  S10  1  0.14868700  0.23653700  0.13198800  1
  S  S11  1  0.85131300  0.76346300  0.86801200  1
  N  N12  1  0.06991000  0.32965700  0.66973200  1
  N  N13  1  0.93009000  0.67034300  0.33026800  1
  N  N14  1  0.41294300  0.12416900  0.80394000  1
  N  N15  1  0.58705700  0.87583100  0.19606000  1
