# generated using pymatgen
data_Ni(IO3)2
_symmetry_space_group_name_H-M   'P 1'
_cell_length_a   5.08555049
_cell_length_b   9.32022871
_cell_length_c   10.83456308
_cell_angle_alpha   89.76689988
_cell_angle_beta   90.00032103
_cell_angle_gamma   90.00002839
_symmetry_Int_Tables_number   1
_chemical_formula_structural   Ni(IO3)2
_chemical_formula_sum   'Ni4 I8 O24'
_cell_volume   513.53771993
_cell_formula_units_Z   4
loop_
 _symmetry_equiv_pos_site_id
 _symmetry_equiv_pos_as_xyz
  1  'x, y, z'
loop_
 _atom_site_type_symbol
 _atom_site_label
 _atom_site_symmetry_multiplicity
 _atom_site_fract_x
 _atom_site_fract_y
 _atom_site_fract_z
 _atom_site_occupancy
  Ni  Ni0  1  0.41373799  0.74542578  0.38352546  1
  Ni  Ni1  1  0.91380339  0.25458132  0.61647697  1
  Ni  Ni2  1  0.41362190  0.74547054  0.88351603  1
  Ni  Ni3  1  0.91363598  0.25452452  0.11647664  1
  I  I4  1  0.48610013  0.93105065  0.63041928  1
  I  I5  1  0.48593715  0.93100721  0.13041383  1
  I  I6  1  0.98612692  0.06896178  0.36957748  1
  I  I7  1  0.98592143  0.06898455  0.86957285  1
  I  I8  1  0.00264958  0.59927805  0.63457895  1
  I  I9  1  0.00257909  0.59925039  0.13461279  1
  I  I10  1  0.50273213  0.40070254  0.36545291  1
  I  I11  1  0.50260471  0.40073768  0.86539461  1
  O  O12  1  0.20842752  0.92220291  0.83143369  1
  O  O13  1  0.20871431  0.92220073  0.33150102  1
  O  O14  1  0.70844502  0.07778109  0.16855245  1
  O  O15  1  0.70872654  0.07780970  0.66849096  1
  O  O16  1  0.19082013  0.60473075  0.77817590  1
  O  O17  1  0.19072987  0.60475479  0.27825803  1
  O  O18  1  0.69086919  0.39525466  0.22183124  1
  O  O19  1  0.69072570  0.39524990  0.72175969  1
  O  O20  1  0.63900232  0.80226466  0.73587605  1
  O  O21  1  0.63900873  0.80223353  0.23584627  1
  O  O22  1  0.13899931  0.19776257  0.26410930  1
  O  O23  1  0.13901004  0.19777096  0.76415197  1
  O  O24  1  0.13498985  0.43120777  0.57618497  1
  O  O25  1  0.13493275  0.43118815  0.07620309  1
  O  O26  1  0.63501917  0.56880053  0.42381462  1
  O  O27  1  0.63491368  0.56880592  0.92381018  1
  O  O28  1  0.20608660  0.72332702  0.54526995  1
  O  O29  1  0.20602882  0.72329363  0.04526597  1
  O  O30  1  0.70618715  0.27667820  0.45474574  1
  O  O31  1  0.70604190  0.27669977  0.95473183  1
  O  O32  1  0.15531533  0.12967001  0.50861127  1
  O  O33  1  0.15512719  0.12959171  0.00863044  1
  O  O34  1  0.65529169  0.87034875  0.49136976  1
  O  O35  1  0.65513577  0.87039525  0.99135482  1
