# generated using pymatgen
data_Ba2B2O5
_symmetry_space_group_name_H-M   'P 1'
_cell_length_a   5.53953799
_cell_length_b   8.49812913
_cell_length_c   12.28023391
_cell_angle_alpha   87.79405888
_cell_angle_beta   90.00000000
_cell_angle_gamma   90.00000000
_symmetry_Int_Tables_number   1
_chemical_formula_structural   Ba2B2O5
_chemical_formula_sum   'Ba8 B8 O20'
_cell_volume   577.67230709
_cell_formula_units_Z   4
loop_
 _symmetry_equiv_pos_site_id
 _symmetry_equiv_pos_as_xyz
  1  'x, y, z'
loop_
 _atom_site_type_symbol
 _atom_site_label
 _atom_site_symmetry_multiplicity
 _atom_site_fract_x
 _atom_site_fract_y
 _atom_site_fract_z
 _atom_site_occupancy
  Ba  Ba0  1  0.03359484  0.61540482  0.13386491  1
  Ba  Ba1  1  0.08012000  0.12018050  0.15291039  1
  Ba  Ba2  1  0.58012000  0.87981950  0.34708961  1
  Ba  Ba3  1  0.53359484  0.38459518  0.36613509  1
  Ba  Ba4  1  0.46640516  0.61540482  0.63386491  1
  Ba  Ba5  1  0.41988000  0.12018050  0.65291039  1
  Ba  Ba6  1  0.91988000  0.87981950  0.84708961  1
  Ba  Ba7  1  0.96640516  0.38459518  0.86613509  1
  B  B8  1  0.53566557  0.33986528  0.07835803  1
  B  B9  1  0.56084203  0.83444652  0.09523440  1
  B  B10  1  0.06084203  0.16555348  0.40476560  1
  B  B11  1  0.03566557  0.66013472  0.42164197  1
  B  B12  1  0.96433443  0.33986528  0.57835803  1
  B  B13  1  0.93915797  0.83444652  0.59523440  1
  B  B14  1  0.43915797  0.16555348  0.90476560  1
  B  B15  1  0.46433443  0.66013472  0.92164197  1
  O  O16  1  0.39861546  0.25833473  0.99764903  1
  O  O17  1  0.77950879  0.35045991  0.07277640  1
  O  O18  1  0.76897318  0.89049841  0.13917732  1
  O  O19  1  0.34165889  0.85404939  0.14117247  1
  O  O20  1  0.39276111  0.39477892  0.15889488  1
  O  O21  1  0.89276111  0.60522108  0.34110512  1
  O  O22  1  0.84165889  0.14595061  0.35882753  1
  O  O23  1  0.26897318  0.10950159  0.36082268  1
  O  O24  1  0.27950879  0.64954009  0.42722360  1
  O  O25  1  0.10138454  0.25833473  0.49764903  1
  O  O26  1  0.89861546  0.74166527  0.50235097  1
  O  O27  1  0.72049121  0.35045991  0.57277640  1
  O  O28  1  0.73102682  0.89049841  0.63917732  1
  O  O29  1  0.15834111  0.85404939  0.64117247  1
  O  O30  1  0.10723889  0.39477892  0.65889488  1
  O  O31  1  0.60723889  0.60522108  0.84110512  1
  O  O32  1  0.65834111  0.14595061  0.85882753  1
  O  O33  1  0.23102682  0.10950159  0.86082268  1
  O  O34  1  0.22049121  0.64954009  0.92722360  1
  O  O35  1  0.60138454  0.74166527  0.00235097  1
