# generated using pymatgen
data_Na2PtO3
_symmetry_space_group_name_H-M   'P 1'
_cell_length_a   10.55739268
_cell_length_b   10.06295096
_cell_length_c   5.57787202
_cell_angle_alpha   79.26144715
_cell_angle_beta   69.46761865
_cell_angle_gamma   31.27093420
_symmetry_Int_Tables_number   1
_chemical_formula_structural   Na2PtO3
_chemical_formula_sum   'Na8 Pt4 O12'
_cell_volume   280.10602644
_cell_formula_units_Z   4
loop_
 _symmetry_equiv_pos_site_id
 _symmetry_equiv_pos_as_xyz
  1  'x, y, z'
loop_
 _atom_site_type_symbol
 _atom_site_label
 _atom_site_symmetry_multiplicity
 _atom_site_fract_x
 _atom_site_fract_y
 _atom_site_fract_z
 _atom_site_occupancy
  Na  Na0  1  0.61930100  0.61530900  0.12616900  1
  Na  Na1  1  0.28588100  0.30192800  0.46051800  1
  Na  Na2  1  0.38186100  0.37914600  0.87786900  1
  Na  Na3  1  0.86654600  0.86810900  0.38913300  1
  Na  Na4  1  0.54915700  0.54551900  0.70698500  1
  Na  Na5  1  0.69545500  0.71261300  0.54597500  1
  Na  Na6  1  0.13861100  0.12560200  0.61103000  1
  Na  Na7  1  0.45598400  0.44889800  0.29848300  1
  Pt  Pt8  1  0.95542400  0.96012100  0.80122200  1
  Pt  Pt9  1  0.04908600  0.03187900  0.20875200  1
  Pt  Pt10  1  0.78685600  0.79394200  0.96832400  1
  Pt  Pt11  1  0.21107100  0.21013200  0.03351100  1
  O  O12  1  0.08701200  0.66244700  0.67363800  1
  O  O13  1  0.52717000  0.04438200  0.75385900  1
  O  O14  1  0.04627500  0.52591800  0.16178800  1
  O  O15  1  0.76286900  0.16789900  0.52273200  1
  O  O16  1  0.96360000  0.46935100  0.82181800  1
  O  O17  1  0.17000800  0.75437500  0.03756700  1
  O  O18  1  0.47420500  0.95807700  0.24286600  1
  O  O19  1  0.33020600  0.91760200  0.92597900  1
  O  O20  1  0.23542500  0.83027800  0.47066400  1
  O  O21  1  0.83374000  0.24151000  0.95479600  1
  O  O22  1  0.91491400  0.33923100  0.32834000  1
  O  O23  1  0.67276600  0.07999100  0.07477100  1
