# generated using pymatgen
data_CsEr2Cu3Se5
_symmetry_space_group_name_H-M   'P 1'
_cell_length_a   7.63361152
_cell_length_b   7.63361152
_cell_length_c   17.27301300
_cell_angle_alpha   90.00000000
_cell_angle_beta   90.00000000
_cell_angle_gamma   148.70124473
_symmetry_Int_Tables_number   1
_chemical_formula_structural   CsEr2Cu3Se5
_chemical_formula_sum   'Cs2 Er4 Cu6 Se10'
_cell_volume   522.89467568
_cell_formula_units_Z   2
loop_
 _symmetry_equiv_pos_site_id
 _symmetry_equiv_pos_as_xyz
  1  'x, y, z'
loop_
 _atom_site_type_symbol
 _atom_site_label
 _atom_site_symmetry_multiplicity
 _atom_site_fract_x
 _atom_site_fract_y
 _atom_site_fract_z
 _atom_site_occupancy
  Cs  Cs0  1  0.05888700  0.94307600  0.24920700  1
  Cs  Cs1  1  0.92855600  0.05614400  0.74978500  1
  Er  Er2  1  0.79956600  0.18574700  0.41063900  1
  Er  Er3  1  0.19477400  0.81231400  0.59416800  1
  Er  Er4  1  0.20235400  0.81460600  0.90714400  1
  Er  Er5  1  0.81244500  0.19981300  0.09356200  1
  Cu  Cu6  1  0.34311400  0.65131600  0.24747400  1
  Cu  Cu7  1  0.65935000  0.35025300  0.75251300  1
  Cu  Cu8  1  0.57823500  0.41847900  0.03333200  1
  Cu  Cu9  1  0.41667900  0.57891800  0.96458500  1
  Cu  Cu10  1  0.41973900  0.58171000  0.53537400  1
  Cu  Cu11  1  0.59374900  0.42242800  0.46744100  1
  Se  Se12  1  0.76141800  0.24239100  0.25200800  1
  Se  Se13  1  0.22811600  0.74938100  0.74989300  1
  Se  Se14  1  0.56177500  0.43675000  0.60927900  1
  Se  Se15  1  0.43309900  0.55303300  0.38948500  1
  Se  Se16  1  0.44032500  0.56797700  0.11437300  1
  Se  Se17  1  0.55063800  0.43035100  0.88701200  1
  Se  Se18  1  0.81852300  0.15741300  0.56984600  1
  Se  Se19  1  0.16362000  0.83028300  0.43140300  1
  Se  Se20  1  0.16738800  0.82250800  0.07013900  1
  Se  Se21  1  0.82446600  0.16016900  0.93162000  1
