# generated using pymatgen
data_Sm11Y5O24
_symmetry_space_group_name_H-M   'P 1'
_cell_length_a   9.37633185
_cell_length_b   9.37812139
_cell_length_c   9.39073026
_cell_angle_alpha   109.47742178
_cell_angle_beta   109.47925356
_cell_angle_gamma   109.39453782
_symmetry_Int_Tables_number   1
_chemical_formula_structural   Sm11Y5O24
_chemical_formula_sum   'Sm11 Y5 O24'
_cell_volume   636.15115867
_cell_formula_units_Z   1
loop_
 _symmetry_equiv_pos_site_id
 _symmetry_equiv_pos_as_xyz
  1  'x, y, z'
loop_
 _atom_site_type_symbol
 _atom_site_label
 _atom_site_symmetry_multiplicity
 _atom_site_fract_x
 _atom_site_fract_y
 _atom_site_fract_z
 _atom_site_occupancy
  Sm  Sm0  1  0.50602674  0.00291146  0.00516833  1
  Sm  Sm1  1  0.21949655  0.47046692  0.74991464  1
  Sm  Sm2  1  0.99299016  0.00056379  0.49806264  1
  Sm  Sm3  1  0.00018539  0.49704676  0.99933113  1
  Sm  Sm4  1  0.50001422  0.50040248  0.49929760  1
  Sm  Sm5  1  0.25133950  0.71887847  0.46860602  1
  Sm  Sm6  1  0.78080531  0.53186432  0.24996728  1
  Sm  Sm7  1  0.28088041  0.03074160  0.25101422  1
  Sm  Sm8  1  0.53226262  0.25012220  0.78075530  1
  Sm  Sm9  1  0.96664808  0.74921719  0.71983305  1
  Sm  Sm10  1  0.24804129  0.21885102  0.96905684  1
  Y  Y11  1  0.75027905  0.78372279  0.03232209  1
  Y  Y12  1  0.02965010  0.24862893  0.28056879  1
  Y  Y13  1  0.47072243  0.75214143  0.21982184  1
  Y  Y14  1  0.71811730  0.96799720  0.75082228  1
  Y  Y15  1  0.74985657  0.27987335  0.53158561  1
  O  O16  1  0.26848408  0.50817114  0.53709605  1
  O  O17  1  0.47483248  0.73182082  0.96220134  1
  O  O18  1  0.72495670  0.75926607  0.26599777  1
  O  O19  1  0.23137582  0.95730692  0.97133537  1
  O  O20  1  0.00627756  0.53569335  0.76813166  1
  O  O21  1  0.51834876  0.74593984  0.47030700  1
  O  O22  1  0.23130116  0.76816750  0.23915585  1
  O  O23  1  0.02527506  0.98784668  0.25740026  1
  O  O24  1  0.73701264  0.73185795  0.77345316  1
  O  O25  1  0.46435363  0.96950163  0.73254374  1
  O  O26  1  0.24788167  0.47652909  0.01693579  1
  O  O27  1  0.95380470  0.23110988  0.48296125  1
  O  O28  1  0.76082366  0.53473117  0.98770948  1
  O  O29  1  0.04118601  0.77344653  0.51254223  1
  O  O30  1  0.25374393  0.27018114  0.22964001  1
  O  O31  1  0.54638908  0.02970299  0.27644839  1
  O  O32  1  0.77092493  0.22398386  0.75495506  1
  O  O33  1  0.96521580  0.01169846  0.74155352  1
  O  O34  1  0.98646394  0.45332604  0.22789450  1
  O  O35  1  0.49298624  0.26066844  0.52982608  1
  O  O36  1  0.77628398  0.04264523  0.03081148  1
  O  O37  1  0.26712694  0.23879607  0.72554391  1
  O  O38  1  0.72893110  0.48370311  0.45854180  1
  O  O39  1  0.52870240  0.27047319  0.04088864  1
