# generated using pymatgen
data_Rb3ErO3
_symmetry_space_group_name_H-M   'P 1'
_cell_length_a   7.18835359
_cell_length_b   7.18835359
_cell_length_c   7.17627961
_cell_angle_alpha   85.05540310
_cell_angle_beta   85.05540310
_cell_angle_gamma   115.92563924
_symmetry_Int_Tables_number   1
_chemical_formula_structural   Rb3ErO3
_chemical_formula_sum   'Rb6 Er2 O6'
_cell_volume   329.06595946
_cell_formula_units_Z   2
loop_
 _symmetry_equiv_pos_site_id
 _symmetry_equiv_pos_as_xyz
  1  'x, y, z'
loop_
 _atom_site_type_symbol
 _atom_site_label
 _atom_site_symmetry_multiplicity
 _atom_site_fract_x
 _atom_site_fract_y
 _atom_site_fract_z
 _atom_site_occupancy
  Rb  Rb0  1  0.79576374  0.20423626  0.50000000  1
  Rb  Rb1  1  0.74054164  0.25945836  -0.00000000  1
  Rb  Rb2  1  0.63869033  0.63869033  0.63997448  1
  Rb  Rb3  1  0.36130967  0.36130967  0.36002552  1
  Rb  Rb4  1  0.25945836  0.74054164  -0.00000000  1
  Rb  Rb5  1  0.20423626  0.79576374  0.50000000  1
  Er  Er6  1  0.82257543  0.82257543  0.14871754  1
  Er  Er7  1  0.17742457  0.17742457  0.85128246  1
  O  O8  1  0.83300077  0.55401338  0.26828456  1
  O  O9  1  0.89788747  0.89788747  0.84443313  1
  O  O10  1  0.44598662  0.16699923  0.73171544  1
  O  O11  1  0.55401338  0.83300077  0.26828456  1
  O  O12  1  0.10211253  0.10211253  0.15556687  1
  O  O13  1  0.16699923  0.44598662  0.73171544  1
