# generated using pymatgen
data_KH(IO3)2
_symmetry_space_group_name_H-M   'P 1'
_cell_length_a   8.50848809
_cell_length_b   7.45983218
_cell_length_c   19.32187324
_cell_angle_alpha   90.00000000
_cell_angle_beta   90.00000000
_cell_angle_gamma   90.00000000
_symmetry_Int_Tables_number   1
_chemical_formula_structural   KH(IO3)2
_chemical_formula_sum   'K8 H8 I16 O48'
_cell_volume   1226.39587581
_cell_formula_units_Z   8
loop_
 _symmetry_equiv_pos_site_id
 _symmetry_equiv_pos_as_xyz
  1  'x, y, z'
loop_
 _atom_site_type_symbol
 _atom_site_label
 _atom_site_symmetry_multiplicity
 _atom_site_fract_x
 _atom_site_fract_y
 _atom_site_fract_z
 _atom_site_occupancy
  K  K0  1  0.51610818  0.52251908  0.35265335  1
  K  K1  1  0.48389182  0.47748092  0.85265335  1
  K  K2  1  0.98389182  0.52251908  0.85265335  1
  K  K3  1  0.01610818  0.47748092  0.35265335  1
  K  K4  1  0.53354689  0.99440194  0.15759604  1
  K  K5  1  0.46645311  0.00559806  0.65759604  1
  K  K6  1  0.96645311  0.99440194  0.65759604  1
  K  K7  1  0.03354689  0.00559806  0.15759604  1
  H  H8  1  0.50870991  0.75838832  0.00446755  1
  H  H9  1  0.49129009  0.24161168  0.50446755  1
  H  H10  1  0.99129009  0.75838832  0.50446755  1
  H  H11  1  0.00870991  0.24161168  0.00446755  1
  H  H12  1  0.25998104  0.72784423  0.26294847  1
  H  H13  1  0.74001896  0.27215577  0.76294847  1
  H  H14  1  0.24001896  0.72784423  0.76294847  1
  H  H15  1  0.75998104  0.27215577  0.26294847  1
  I  I16  1  0.82977405  0.81466945  0.00044102  1
  I  I17  1  0.17022495  0.18533055  0.50044102  1
  I  I18  1  0.67022595  0.81466945  0.50044102  1
  I  I19  1  0.32977505  0.18533055  0.00044102  1
  I  I20  1  0.72408748  0.31265461  0.00464564  1
  I  I21  1  0.27591252  0.68734539  0.50464564  1
  I  I22  1  0.77591252  0.31265461  0.50464564  1
  I  I23  1  0.22408748  0.68734539  0.00464564  1
  I  I24  1  0.81672076  0.94674243  0.33142992  1
  I  I25  1  0.18327924  0.05325757  0.83142992  1
  I  I26  1  0.68327924  0.94674243  0.83142992  1
  I  I27  1  0.31672076  0.05325757  0.33142992  1
  I  I28  1  0.75666726  0.54135650  0.18792509  1
  I  I29  1  0.24333274  0.45864350  0.68792509  1
  I  I30  1  0.74333274  0.54135650  0.68792509  1
  I  I31  1  0.25666726  0.45864350  0.18792509  1
  O  O32  1  0.65177974  0.72162883  0.96053631  1
  O  O33  1  0.34822026  0.27837117  0.46053631  1
  O  O34  1  0.84822026  0.72162883  0.46053631  1
  O  O35  1  0.15177974  0.27837117  0.96053631  1
  O  O36  1  0.94481864  0.60752988  0.98734787  1
  O  O37  1  0.05518136  0.39247012  0.48734787  1
  O  O38  1  0.55518136  0.60752988  0.48734787  1
  O  O39  1  0.44481864  0.39247012  0.98734787  1
  O  O40  1  0.78687311  0.78428765  0.09188201  1
  O  O41  1  0.21312689  0.21571235  0.59188201  1
  O  O42  1  0.71312689  0.78428765  0.59188201  1
  O  O43  1  0.28687311  0.21571235  0.09188201  1
  O  O44  1  0.62319280  0.10289381  0.02493417  1
  O  O45  1  0.37680720  0.89710619  0.52493417  1
  O  O46  1  0.87680720  0.10289381  0.52493417  1
  O  O47  1  0.12319280  0.89710619  0.02493417  1
  O  O48  1  0.91628813  0.20659213  0.03566281  1
  O  O49  1  0.08371187  0.79340787  0.53566281  1
  O  O50  1  0.58371187  0.20659213  0.53566281  1
  O  O51  1  0.41628813  0.79340787  0.03566281  1
  O  O52  1  0.75274338  0.27795009  0.91305489  1
  O  O53  1  0.24725662  0.72204991  0.41305489  1
  O  O54  1  0.74725662  0.27795009  0.41305489  1
  O  O55  1  0.25274338  0.72204991  0.91305489  1
  O  O56  1  0.76978459  0.07862479  0.25476834  1
  O  O57  1  0.23021541  0.92137521  0.75476834  1
  O  O58  1  0.73021541  0.07862479  0.75476834  1
  O  O59  1  0.26978459  0.92137521  0.25476834  1
  O  O60  1  0.62068433  0.87588227  0.35723691  1
  O  O61  1  0.37931567  0.12411773  0.85723691  1
  O  O62  1  0.87931567  0.87588227  0.85723691  1
  O  O63  1  0.12068433  0.12411773  0.35723691  1
  O  O64  1  0.88902002  0.75400648  0.28437029  1
  O  O65  1  0.11097998  0.24599352  0.78437029  1
  O  O66  1  0.61097998  0.75400648  0.78437029  1
  O  O67  1  0.38902002  0.24599352  0.28437029  1
  O  O68  1  0.68984445  0.35671922  0.13454726  1
  O  O69  1  0.31015555  0.64328078  0.63454726  1
  O  O70  1  0.81015555  0.35671922  0.63454726  1
  O  O71  1  0.18984445  0.64328078  0.13454726  1
  O  O72  1  0.75613151  0.40943737  0.27170626  1
  O  O73  1  0.24386849  0.59056263  0.77170626  1
  O  O74  1  0.74386849  0.40943737  0.77170626  1
  O  O75  1  0.25613151  0.59056263  0.27170626  1
  O  O76  1  0.57323430  0.65084080  0.20454481  1
  O  O77  1  0.42676570  0.34915920  0.70454481  1
  O  O78  1  0.92676570  0.65084080  0.70454481  1
  O  O79  1  0.07323430  0.34915920  0.20454481  1
