# generated using pymatgen
data_Mn2P2O7
_symmetry_space_group_name_H-M   'P 1'
_cell_length_a   4.54295490
_cell_length_b   10.26685959
_cell_length_c   5.38001655
_cell_angle_alpha   89.99990173
_cell_angle_beta   97.07558394
_cell_angle_gamma   89.99958848
_symmetry_Int_Tables_number   1
_chemical_formula_structural   Mn2P2O7
_chemical_formula_sum   'Mn4 P4 O14'
_cell_volume   249.02310298
_cell_formula_units_Z   2
loop_
 _symmetry_equiv_pos_site_id
 _symmetry_equiv_pos_as_xyz
  1  'x, y, z'
loop_
 _atom_site_type_symbol
 _atom_site_label
 _atom_site_symmetry_multiplicity
 _atom_site_fract_x
 _atom_site_fract_y
 _atom_site_fract_z
 _atom_site_occupancy
  Mn  Mn0  1  0.10115962  0.65370205  0.40876973  1
  Mn  Mn1  1  0.89885576  0.15370577  0.09121490  1
  Mn  Mn2  1  0.10108850  0.84629245  0.90878567  1
  Mn  Mn3  1  0.89888528  0.34629174  0.59121858  1
  P  P4  1  0.35862535  0.11023101  0.65083540  1
  P  P5  1  0.35863194  0.38976831  0.15084456  1
  P  P6  1  0.64137151  0.61024258  0.84916243  1
  P  P7  1  0.64137621  0.88975716  0.34916002  1
  O  O8  1  0.50004446  0.99999855  0.50001918  1
  O  O9  1  0.49995163  0.50002060  0.00000678  1
  O  O10  1  0.12958927  0.32192165  0.96489042  1
  O  O11  1  0.12958170  0.17806860  0.46487056  1
  O  O12  1  0.87042055  0.82190753  0.53510291  1
  O  O13  1  0.87041975  0.67807770  0.03512113  1
  O  O14  1  0.21187904  0.04356315  0.85691306  1
  O  O15  1  0.21191328  0.45642867  0.35694759  1
  O  O16  1  0.78810112  0.54356341  0.64308738  1
  O  O17  1  0.78809061  0.95642840  0.14306494  1
  O  O18  1  0.38681099  0.69793994  0.74524584  1
  O  O19  1  0.38677939  0.80208101  0.24525106  1
  O  O20  1  0.61319066  0.19792690  0.75474758  1
  O  O21  1  0.61322939  0.30208682  0.25473729  1
