# generated using pymatgen
data_Y2ReO5
_symmetry_space_group_name_H-M   'P 1'
_cell_length_a   8.49838607
_cell_length_b   8.49838607
_cell_length_c   5.62942740
_cell_angle_alpha   90.00000000
_cell_angle_beta   90.00000000
_cell_angle_gamma   90.00000000
_symmetry_Int_Tables_number   1
_chemical_formula_structural   Y2ReO5
_chemical_formula_sum   'Y8 Re4 O20'
_cell_volume   406.57169078
_cell_formula_units_Z   4
loop_
 _symmetry_equiv_pos_site_id
 _symmetry_equiv_pos_as_xyz
  1  'x, y, z'
loop_
 _atom_site_type_symbol
 _atom_site_label
 _atom_site_symmetry_multiplicity
 _atom_site_fract_x
 _atom_site_fract_y
 _atom_site_fract_z
 _atom_site_occupancy
  Y  Y0  1  0.35952081  0.35078871  0.24960599  1
  Y  Y1  1  0.64921129  0.35952081  0.75039401  1
  Y  Y2  1  0.35078871  0.64047919  0.75039401  1
  Y  Y3  1  0.64047919  0.64921129  0.24960599  1
  Y  Y4  1  0.85952081  0.85078871  0.75039401  1
  Y  Y5  1  0.14921129  0.85952081  0.24960599  1
  Y  Y6  1  0.85078871  0.14047919  0.24960599  1
  Y  Y7  1  0.14047919  0.14921129  0.75039401  1
  Re  Re8  1  -0.00000000  0.50000000  0.54444584  1
  Re  Re9  1  -0.00000000  0.50000000  0.14742644  1
  Re  Re10  1  0.50000000  0.00000000  0.45555416  1
  Re  Re11  1  0.50000000  0.00000000  0.85257356  1
  O  O12  1  0.90625708  0.29713547  0.60404450  1
  O  O13  1  0.09600732  0.29779533  0.09660149  1
  O  O14  1  0.20286453  0.40625708  0.60404450  1
  O  O15  1  0.79779533  0.40399268  0.09660149  1
  O  O16  1  0.50000000  0.50000000  0.50000000  1
  O  O17  1  0.50000000  0.50000000  -0.00000000  1
  O  O18  1  0.20220467  0.59600732  0.09660149  1
  O  O19  1  0.79713547  0.59374292  0.60404450  1
  O  O20  1  0.90399268  0.70220467  0.09660149  1
  O  O21  1  0.09374292  0.70286453  0.60404450  1
  O  O22  1  0.40625708  0.79713547  0.39595550  1
  O  O23  1  0.59600732  0.79779533  0.90339851  1
  O  O24  1  0.70286453  0.90625708  0.39595550  1
  O  O25  1  0.29779533  0.90399268  0.90339851  1
  O  O26  1  -0.00000000  0.00000000  0.50000000  1
  O  O27  1  -0.00000000  0.00000000  -0.00000000  1
  O  O28  1  0.70220467  0.09600732  0.90339851  1
  O  O29  1  0.29713547  0.09374292  0.39595550  1
  O  O30  1  0.40399268  0.20220467  0.90339851  1
  O  O31  1  0.59374292  0.20286453  0.39595550  1
