# generated using pymatgen
data_V5O12
_symmetry_space_group_name_H-M   'P 1'
_cell_length_a   6.59053749
_cell_length_b   6.59061719
_cell_length_c   5.86354217
_cell_angle_alpha   74.89661836
_cell_angle_beta   105.10199829
_cell_angle_gamma   99.56823776
_symmetry_Int_Tables_number   1
_chemical_formula_structural   V5O12
_chemical_formula_sum   'V5 O12'
_cell_volume   236.07258444
_cell_formula_units_Z   1
loop_
 _symmetry_equiv_pos_site_id
 _symmetry_equiv_pos_as_xyz
  1  'x, y, z'
loop_
 _atom_site_type_symbol
 _atom_site_label
 _atom_site_symmetry_multiplicity
 _atom_site_fract_x
 _atom_site_fract_y
 _atom_site_fract_z
 _atom_site_occupancy
  V  V0  1  0.18728589  0.63008341  0.74342178  1
  V  V1  1  0.38826693  0.78828145  0.27006014  1
  V  V2  1  0.63017760  0.18736299  0.75657023  1
  V  V3  1  0.78829499  0.38827130  0.22993769  1
  V  V4  1  0.92973430  0.92973377  0.25000611  1
  O  O5  1  0.02095817  0.82416952  0.57830120  1
  O  O6  1  0.03723352  0.41061660  0.75961943  1
  O  O7  1  0.21910142  0.97126592  0.20196278  1
  O  O8  1  0.36157713  0.62790119  0.55541625  1
  O  O9  1  0.41071120  0.03734643  0.74038900  1
  O  O10  1  0.32234476  0.63670429  0.04989233  1
  O  O11  1  0.62795254  0.36161431  0.94457092  1
  O  O12  1  0.63947379  0.90280830  0.29194852  1
  O  O13  1  0.63671870  0.32237837  0.45009087  1
  O  O14  1  0.82418547  0.02098646  0.92169100  1
  O  O15  1  0.90282488  0.63946116  0.20806389  1
  O  O16  1  0.97125071  0.21910253  0.29805684  1
