# generated using pymatgen
data_Hf2N2O
_symmetry_space_group_name_H-M   'P 1'
_cell_length_a   8.65417137
_cell_length_b   8.66540401
_cell_length_c   8.68437249
_cell_angle_alpha   109.47069486
_cell_angle_beta   109.41874643
_cell_angle_gamma   109.32488743
_symmetry_Int_Tables_number   1
_chemical_formula_structural   Hf2N2O
_chemical_formula_sum   'Hf16 N16 O8'
_cell_volume   502.56717175
_cell_formula_units_Z   8
loop_
 _symmetry_equiv_pos_site_id
 _symmetry_equiv_pos_as_xyz
  1  'x, y, z'
loop_
 _atom_site_type_symbol
 _atom_site_label
 _atom_site_symmetry_multiplicity
 _atom_site_fract_x
 _atom_site_fract_y
 _atom_site_fract_z
 _atom_site_occupancy
  Hf  Hf0  1  0.78570644  0.03660047  0.75138087  1
  Hf  Hf1  1  0.00312471  0.99889081  0.50996508  1
  Hf  Hf2  1  0.75720079  0.21755046  0.46872593  1
  Hf  Hf3  1  0.24108331  0.27452547  0.02980171  1
  Hf  Hf4  1  0.46972145  0.75677912  0.22325112  1
  Hf  Hf5  1  0.96802619  0.74605176  0.71150674  1
  Hf  Hf6  1  0.48928226  0.99765405  0.98212568  1
  Hf  Hf7  1  0.27822458  0.52913344  0.73643881  1
  Hf  Hf8  1  0.71564010  0.46486991  0.25390222  1
  Hf  Hf9  1  0.00300442  0.50981066  0.01235145  1
  Hf  Hf10  1  0.49500805  0.49009687  0.50237665  1
  Hf  Hf11  1  0.52944699  0.24846466  0.78760164  1
  Hf  Hf12  1  0.04483401  0.25824348  0.28593449  1
  Hf  Hf13  1  0.24956542  0.78716873  0.53225332  1
  Hf  Hf14  1  0.75210455  0.70625698  0.96513559  1
  Hf  Hf15  1  0.21318645  0.96476930  0.24972980  1
  N  N16  1  0.72212399  0.95398806  0.46592218  1
  N  N17  1  0.73476271  0.46157114  0.50859280  1
  N  N18  1  0.98551624  0.26441213  0.03462657  1
  N  N19  1  0.96334707  0.72619225  0.45038797  1
  N  N20  1  0.77469689  0.51079345  0.04643272  1
  N  N21  1  0.53805414  0.99128041  0.76480582  1
  N  N22  1  0.03148350  0.27510297  0.54560652  1
  N  N23  1  0.27436712  0.22584054  0.26080072  1
  N  N24  1  0.22968112  0.76158064  0.77648524  1
  N  N25  1  0.00620177  0.73896937  0.96602142  1
  N  N26  1  0.45549899  0.22753751  0.99192445  1
  N  N27  1  0.26183165  0.53345135  0.48458265  1
  N  N28  1  0.24504058  0.72830785  0.27009283  1
  N  N29  1  0.04429017  0.03221108  0.77331613  1
  N  N30  1  0.49322624  0.46216575  0.73085179  1
  N  N31  1  0.27182221  0.04932645  0.53138100  1
  O  O32  1  0.51188431  0.54778215  0.27036350  1
  O  O33  1  0.94945970  0.96474188  0.22429889  1
  O  O34  1  0.76582700  0.27479234  0.72732123  1
  O  O35  1  0.55102930  0.77833032  0.02022376  1
  O  O36  1  0.76864684  0.23247083  0.22674093  1
  O  O37  1  0.23523505  0.48921564  0.95679211  1
  O  O38  1  0.72432245  0.77283938  0.73534465  1
  O  O39  1  0.46649125  0.01023335  0.23459904  1
