# generated using pymatgen
data_Rb3YO3
_symmetry_space_group_name_H-M   'P 1'
_cell_length_a   7.31784698
_cell_length_b   7.80771427
_cell_length_c   11.71072933
_cell_angle_alpha   86.61501083
_cell_angle_beta   90.00000000
_cell_angle_gamma   90.00000000
_symmetry_Int_Tables_number   1
_chemical_formula_structural   Rb3YO3
_chemical_formula_sum   'Rb12 Y4 O12'
_cell_volume   667.93287112
_cell_formula_units_Z   4
loop_
 _symmetry_equiv_pos_site_id
 _symmetry_equiv_pos_as_xyz
  1  'x, y, z'
loop_
 _atom_site_type_symbol
 _atom_site_label
 _atom_site_symmetry_multiplicity
 _atom_site_fract_x
 _atom_site_fract_y
 _atom_site_fract_z
 _atom_site_occupancy
  Rb  Rb0  1  0.33609827  0.35890842  0.07985917  1
  Rb  Rb1  1  0.62608976  0.92177068  0.15951374  1
  Rb  Rb2  1  0.79993448  0.37593597  0.18897414  1
  Rb  Rb3  1  0.29993448  0.62406403  0.31102586  1
  Rb  Rb4  1  0.12608976  0.07822932  0.34048626  1
  Rb  Rb5  1  0.83609827  0.64109158  0.42014083  1
  Rb  Rb6  1  0.16390173  0.35890842  0.57985917  1
  Rb  Rb7  1  0.87391024  0.92177068  0.65951374  1
  Rb  Rb8  1  0.70006552  0.37593597  0.68897414  1
  Rb  Rb9  1  0.20006552  0.62406403  0.81102586  1
  Rb  Rb10  1  0.37391024  0.07822932  0.84048626  1
  Rb  Rb11  1  0.66390173  0.64109158  0.92014083  1
  Y  Y12  1  0.09155495  0.83776326  0.06930241  1
  Y  Y13  1  0.59155495  0.16223674  0.43069759  1
  Y  Y14  1  0.40844505  0.83776326  0.56930241  1
  Y  Y15  1  0.90844505  0.16223674  0.93069759  1
  O  O16  1  0.35797976  0.74023758  0.04885583  1
  O  O17  1  0.04777323  0.11294716  0.09499351  1
  O  O18  1  0.94343023  0.69246216  0.19340862  1
  O  O19  1  0.44343023  0.30753784  0.30659138  1
  O  O20  1  0.54777323  0.88705284  0.40500649  1
  O  O21  1  0.85797976  0.25976242  0.45114417  1
  O  O22  1  0.14202024  0.74023758  0.54885583  1
  O  O23  1  0.45222677  0.11294716  0.59499351  1
  O  O24  1  0.55656977  0.69246216  0.69340862  1
  O  O25  1  0.05656977  0.30753784  0.80659138  1
  O  O26  1  0.95222677  0.88705284  0.90500649  1
  O  O27  1  0.64202024  0.25976242  0.95114417  1
