# generated using pymatgen
data_Y7TmO12
_symmetry_space_group_name_H-M   'P 1'
_cell_length_a   9.16197794
_cell_length_b   9.16197531
_cell_length_c   9.16197722
_cell_angle_alpha   109.49075886
_cell_angle_beta   109.47469451
_cell_angle_gamma   109.44817909
_symmetry_Int_Tables_number   1
_chemical_formula_structural   Y7TmO12
_chemical_formula_sum   'Y14 Tm2 O24'
_cell_volume   592.03282674
_cell_formula_units_Z   2
loop_
 _symmetry_equiv_pos_site_id
 _symmetry_equiv_pos_as_xyz
  1  'x, y, z'
loop_
 _atom_site_type_symbol
 _atom_site_label
 _atom_site_symmetry_multiplicity
 _atom_site_fract_x
 _atom_site_fract_y
 _atom_site_fract_z
 _atom_site_occupancy
  Y  Y0  1  0.21736468  0.25000014  0.46736421  1
  Y  Y1  1  0.99829914  0.49932682  0.49872756  1
  Y  Y2  1  0.74999993  0.96736184  0.21736266  1
  Y  Y3  1  0.24999929  0.53263727  0.28263722  1
  Y  Y4  1  0.53367608  0.78367570  0.74999961  1
  Y  Y5  1  0.03172286  0.28172324  0.75000011  1
  Y  Y6  1  0.50170039  0.00042871  0.50102623  1
  Y  Y7  1  0.50059929  0.49957189  0.00127248  1
  Y  Y8  1  0.28263543  0.74999972  0.03263538  1
  Y  Y9  1  0.99940258  0.00067421  0.99897413  1
  Y  Y10  1  0.46827762  0.21827768  0.25000061  1
  Y  Y11  1  0.96632216  0.71632192  0.24999961  1
  Y  Y12  1  0.24999974  0.03186127  0.78186127  1
  Y  Y13  1  0.74999996  0.46813828  0.71813866  1
  Tm  Tm14  1  0.71681294  0.24999943  0.96681208  1
  Tm  Tm15  1  0.78318726  0.74999801  0.53318498  1
  O  O16  1  0.49018870  0.72800893  0.95763999  1
  O  O17  1  0.27036875  0.53254856  0.54235989  1
  O  O18  1  0.04046622  0.76997257  0.53184727  1
  O  O19  1  0.23912691  0.27083097  0.22788629  1
  O  O20  1  0.45953460  0.99138096  0.72950647  1
  O  O21  1  0.26087277  0.48875987  0.03170382  1
  O  O22  1  0.22963225  0.77199163  0.26218013  1
  O  O23  1  0.00981128  0.96745215  0.23781964  1
  O  O24  1  0.77154335  0.04585788  0.01067764  1
  O  O25  1  0.53518013  0.76086615  0.48932257  1
  O  O26  1  0.27172604  0.26091676  0.72952207  1
  O  O27  1  0.03139492  0.54220406  0.77047786  1
  O  O28  1  0.46860504  0.23908272  0.51080932  1
  O  O29  1  0.96482005  0.45414135  0.22568511  1
  O  O30  1  0.72845658  0.73913532  0.27431542  1
  O  O31  1  0.22827335  0.95779562  0.98919038  1
  O  O32  1  0.98602125  0.02799909  0.75669077  1
  O  O33  1  0.77130813  0.22932999  0.74331130  1
  O  O34  1  0.54294472  0.01124010  0.27211368  1
  O  O35  1  0.73812519  0.50861962  0.96815312  1
  O  O36  1  0.95705543  0.22916852  0.46829597  1
  O  O37  1  0.76187455  0.73002878  0.77049450  1
  O  O38  1  0.51397865  0.27066842  0.04197715  1
  O  O39  1  0.72869177  0.47200386  0.45802283  1
