# generated using pymatgen
data_V2(OF)3
_symmetry_space_group_name_H-M   'P 1'
_cell_length_a   5.11543749
_cell_length_b   5.13874477
_cell_length_c   12.95528542
_cell_angle_alpha   88.93133794
_cell_angle_beta   89.21495270
_cell_angle_gamma   60.48319339
_symmetry_Int_Tables_number   1
_chemical_formula_structural   V2(OF)3
_chemical_formula_sum   'V6 O9 F9'
_cell_volume   296.29894393
_cell_formula_units_Z   3
loop_
 _symmetry_equiv_pos_site_id
 _symmetry_equiv_pos_as_xyz
  1  'x, y, z'
loop_
 _atom_site_type_symbol
 _atom_site_label
 _atom_site_symmetry_multiplicity
 _atom_site_fract_x
 _atom_site_fract_y
 _atom_site_fract_z
 _atom_site_occupancy
  V  V0  1  0.96288254  0.03053464  0.49035341  1
  V  V1  1  0.97274740  0.00080003  0.00194241  1
  V  V2  1  0.37579982  0.33882487  0.83009346  1
  V  V3  1  0.68850675  0.70301675  0.66807540  1
  V  V4  1  0.27562297  0.36320785  0.33142881  1
  V  V5  1  0.63270445  0.68354403  0.15642447  1
  O  O6  1  0.57338374  0.98990697  0.74900683  1
  O  O7  1  0.67540832  0.09865817  0.41991191  1
  O  O8  1  0.66965778  0.23443825  0.91245765  1
  O  O9  1  0.00223400  0.56944456  0.25175187  1
  O  O10  1  0.91373587  0.75397634  0.58662018  1
  O  O11  1  0.42506524  0.55844707  0.74854832  1
  O  O12  1  0.10010273  0.24475625  0.42099938  1
  O  O13  1  0.77018312  0.90235172  0.08214300  1
  O  O14  1  0.33914261  0.76147850  0.08384577  1
  F  F15  1  0.99296577  0.41481055  0.75343168  1
  F  F16  1  0.92277416  0.33366569  0.08317049  1
  F  F17  1  0.76799420  0.32348970  0.59169134  1
  F  F18  1  0.42058138  0.99408481  0.25641674  1
  F  F19  1  0.24136208  0.08055818  0.91629416  1
  F  F20  1  0.58563931  0.40916105  0.25135320  1
  F  F21  1  0.25575340  0.67275850  0.41552706  1
  F  F22  1  0.08311074  0.65231268  0.91492391  1
  F  F23  1  0.35263961  0.88577484  0.58358754  1
