# generated using pymatgen
data_Tb2WO6
_symmetry_space_group_name_H-M   'P 1'
_cell_length_a   5.24260248
_cell_length_b   9.08664390
_cell_length_c   9.92804807
_cell_angle_alpha   90.00007469
_cell_angle_beta   89.99999259
_cell_angle_gamma   89.99999848
_symmetry_Int_Tables_number   1
_chemical_formula_structural   Tb2WO6
_chemical_formula_sum   'Tb8 W4 O24'
_cell_volume   472.94899674
_cell_formula_units_Z   4
loop_
 _symmetry_equiv_pos_site_id
 _symmetry_equiv_pos_as_xyz
  1  'x, y, z'
loop_
 _atom_site_type_symbol
 _atom_site_label
 _atom_site_symmetry_multiplicity
 _atom_site_fract_x
 _atom_site_fract_y
 _atom_site_fract_z
 _atom_site_occupancy
  Tb  Tb0  1  0.02023680  0.39652044  0.03433922  1
  Tb  Tb1  1  0.03700141  0.28074160  0.62830017  1
  Tb  Tb2  1  0.46299607  0.71926028  0.12830136  1
  Tb  Tb3  1  0.47976157  0.60348111  0.53433889  1
  Tb  Tb4  1  0.52023689  0.10347965  0.96566073  1
  Tb  Tb5  1  0.53700131  0.21925837  0.37169984  1
  Tb  Tb6  1  0.96299622  0.78073966  0.87169873  1
  Tb  Tb7  1  0.97976151  0.89651889  0.46566109  1
  W  W8  1  0.03983160  0.00457024  0.15239768  1
  W  W9  1  0.46016752  0.99542837  0.65239310  1
  W  W10  1  0.53983149  0.49542970  0.84760235  1
  W  W11  1  0.96016758  0.50457189  0.34760689  1
  O  O12  1  0.08061770  0.65534964  0.47032554  1
  O  O13  1  0.17489360  0.54738498  0.20400936  1
  O  O14  1  0.18254523  0.86298340  0.68073166  1
  O  O15  1  0.19212724  0.86029582  0.26392264  1
  O  O16  1  0.22965523  0.38671957  0.43261495  1
  O  O17  1  0.25121554  0.09002261  0.50679261  1
  O  O18  1  0.24878467  0.90997629  0.00679260  1
  O  O19  1  0.27034424  0.61328134  0.93261409  1
  O  O20  1  0.30787343  0.13970481  0.76392384  1
  O  O21  1  0.31745515  0.13701636  0.18073170  1
  O  O22  1  0.32510966  0.45261505  0.70400990  1
  O  O23  1  0.41938293  0.34465107  0.97032605  1
  O  O24  1  0.58061776  0.84465033  0.52967449  1
  O  O25  1  0.67489372  0.95261504  0.79599069  1
  O  O26  1  0.68254528  0.63701657  0.31926841  1
  O  O27  1  0.69212710  0.63970434  0.73607737  1
  O  O28  1  0.72965529  0.11328052  0.56738508  1
  O  O29  1  0.75121550  0.40997741  0.49320742  1
  O  O30  1  0.74878458  0.59002359  0.99320739  1
  O  O31  1  0.77034428  0.88671871  0.06738584  1
  O  O32  1  0.80787342  0.36029507  0.23607604  1
  O  O33  1  0.81745510  0.36298357  0.81926826  1
  O  O34  1  0.82510951  0.04738486  0.29599008  1
  O  O35  1  0.91938287  0.15534888  0.02967394  1
