# generated using pymatgen
data_Li5SbS4
_symmetry_space_group_name_H-M   'P 1'
_cell_length_a   16.50530500
_cell_length_b   16.50530500
_cell_length_c   5.93388600
_cell_angle_alpha   90.00000000
_cell_angle_beta   90.00000000
_cell_angle_gamma   90.00000000
_symmetry_Int_Tables_number   1
_chemical_formula_structural   Li5SbS4
_chemical_formula_sum   'Li40 Sb8 S32'
_cell_volume   1616.53944625
_cell_formula_units_Z   8
loop_
 _symmetry_equiv_pos_site_id
 _symmetry_equiv_pos_as_xyz
  1  'x, y, z'
loop_
 _atom_site_type_symbol
 _atom_site_label
 _atom_site_symmetry_multiplicity
 _atom_site_fract_x
 _atom_site_fract_y
 _atom_site_fract_z
 _atom_site_occupancy
  Li  Li0  1  0.98869300  0.01130700  0.25000000  1
  Li  Li1  1  0.01130700  0.98869300  0.75000000  1
  Li  Li2  1  0.98869300  0.48869300  0.25000000  1
  Li  Li3  1  0.01130700  0.51130700  0.75000000  1
  Li  Li4  1  0.11157100  0.36319400  0.81269900  1
  Li  Li5  1  0.11157100  0.13680600  0.81269900  1
  Li  Li6  1  0.12192600  0.62192600  0.25000000  1
  Li  Li7  1  0.12192600  0.87807400  0.25000000  1
  Li  Li8  1  0.13680600  0.11157100  0.31269900  1
  Li  Li9  1  0.13680600  0.38842900  0.31269900  1
  Li  Li10  1  0.25000000  0.25000000  0.33976200  1
  Li  Li11  1  0.25000000  0.75000000  0.75000000  1
  Li  Li12  1  0.25000000  0.75000000  0.25000000  1
  Li  Li13  1  0.25000000  0.25000000  0.83976200  1
  Li  Li14  1  0.36319400  0.11157100  0.31269900  1
  Li  Li15  1  0.36319400  0.38842900  0.31269900  1
  Li  Li16  1  0.37807400  0.62192600  0.25000000  1
  Li  Li17  1  0.37807400  0.87807400  0.25000000  1
  Li  Li18  1  0.38842900  0.13680600  0.81269900  1
  Li  Li19  1  0.38842900  0.36319400  0.81269900  1
  Li  Li20  1  0.51130700  0.48869300  0.25000000  1
  Li  Li21  1  0.48869300  0.51130700  0.75000000  1
  Li  Li22  1  0.51130700  0.01130700  0.25000000  1
  Li  Li23  1  0.48869300  0.98869300  0.75000000  1
  Li  Li24  1  0.61157100  0.63680600  0.18730100  1
  Li  Li25  1  0.61157100  0.86319400  0.18730100  1
  Li  Li26  1  0.62192600  0.12192600  0.75000000  1
  Li  Li27  1  0.62192600  0.37807400  0.75000000  1
  Li  Li28  1  0.63680600  0.61157100  0.68730100  1
  Li  Li29  1  0.63680600  0.88842900  0.68730100  1
  Li  Li30  1  0.75000000  0.25000000  0.75000000  1
  Li  Li31  1  0.75000000  0.25000000  0.25000000  1
  Li  Li32  1  0.75000000  0.75000000  0.16023800  1
  Li  Li33  1  0.75000000  0.75000000  0.66023800  1
  Li  Li34  1  0.86319400  0.61157100  0.68730100  1
  Li  Li35  1  0.86319400  0.88842900  0.68730100  1
  Li  Li36  1  0.87807400  0.12192600  0.75000000  1
  Li  Li37  1  0.87807400  0.37807400  0.75000000  1
  Li  Li38  1  0.88842900  0.63680600  0.18730100  1
  Li  Li39  1  0.88842900  0.86319400  0.18730100  1
  Sb  Sb40  1  0.01818000  0.75000000  0.71435000  1
  Sb  Sb41  1  0.25000000  0.51818000  0.78565000  1
  Sb  Sb42  1  0.25000000  0.98182000  0.78565000  1
  Sb  Sb43  1  0.48182000  0.75000000  0.71435000  1
  Sb  Sb44  1  0.51818000  0.25000000  0.28565000  1
  Sb  Sb45  1  0.75000000  0.01818000  0.21435000  1
  Sb  Sb46  1  0.75000000  0.48182000  0.21435000  1
  Sb  Sb47  1  0.98182000  0.25000000  0.28565000  1
  S  S48  1  0.00872000  0.11626200  0.52692000  1
  S  S49  1  0.00872000  0.38373800  0.52692000  1
  S  S50  1  0.11626200  0.00872000  0.02692000  1
  S  S51  1  0.11626200  0.49128000  0.02692000  1
  S  S52  1  0.13042800  0.25000000  0.09189000  1
  S  S53  1  0.12982100  0.75000000  0.02147800  1
  S  S54  1  0.25000000  0.13042800  0.59189000  1
  S  S55  1  0.25000000  0.62982100  0.47852200  1
  S  S56  1  0.25000000  0.36957200  0.59189000  1
  S  S57  1  0.25000000  0.87017900  0.47852200  1
  S  S58  1  0.37017900  0.75000000  0.02147800  1
  S  S59  1  0.36957200  0.25000000  0.09189000  1
  S  S60  1  0.38373800  0.49128000  0.02692000  1
  S  S61  1  0.38373800  0.00872000  0.02692000  1
  S  S62  1  0.49128000  0.11626200  0.52692000  1
  S  S63  1  0.49128000  0.38373800  0.52692000  1
  S  S64  1  0.50872000  0.61626200  0.47308000  1
  S  S65  1  0.50872000  0.88373800  0.47308000  1
  S  S66  1  0.61626200  0.50872000  0.97308000  1
  S  S67  1  0.61626200  0.99128000  0.97308000  1
  S  S68  1  0.63042800  0.75000000  0.90811000  1
  S  S69  1  0.62982100  0.25000000  0.97852200  1
  S  S70  1  0.75000000  0.12982100  0.52147800  1
  S  S71  1  0.75000000  0.37017900  0.52147800  1
  S  S72  1  0.75000000  0.63042800  0.40811000  1
  S  S73  1  0.75000000  0.86957200  0.40811000  1
  S  S74  1  0.87017900  0.25000000  0.97852200  1
  S  S75  1  0.86957200  0.75000000  0.90811000  1
  S  S76  1  0.88373800  0.50872000  0.97308000  1
  S  S77  1  0.88373800  0.99128000  0.97308000  1
  S  S78  1  0.99128000  0.61626200  0.47308000  1
  S  S79  1  0.99128000  0.88373800  0.47308000  1
