# generated using pymatgen
data_K4Sb2O5
_symmetry_space_group_name_H-M   'P 1'
_cell_length_a   6.35537429
_cell_length_b   7.89436584
_cell_length_c   18.11850408
_cell_angle_alpha   90.00000000
_cell_angle_beta   90.00000000
_cell_angle_gamma   90.00000000
_symmetry_Int_Tables_number   1
_chemical_formula_structural   K4Sb2O5
_chemical_formula_sum   'K16 Sb8 O20'
_cell_volume   909.03523971
_cell_formula_units_Z   4
loop_
 _symmetry_equiv_pos_site_id
 _symmetry_equiv_pos_as_xyz
  1  'x, y, z'
loop_
 _atom_site_type_symbol
 _atom_site_label
 _atom_site_symmetry_multiplicity
 _atom_site_fract_x
 _atom_site_fract_y
 _atom_site_fract_z
 _atom_site_occupancy
  K  K0  1  0.25000000  0.62452000  0.84865926  1
  K  K1  1  0.75000000  0.62484482  0.98576872  1
  K  K2  1  0.75000000  0.62568821  0.65085948  1
  K  K3  1  0.25000000  0.62521742  0.51205596  1
  K  K4  1  0.25000000  0.87478258  0.01205596  1
  K  K5  1  0.75000000  0.87431179  0.15085948  1
  K  K6  1  0.25000000  0.87548000  0.34865926  1
  K  K7  1  0.75000000  0.87515518  0.48576872  1
  K  K8  1  0.25000000  0.12568821  0.84914052  1
  K  K9  1  0.75000000  0.12521742  0.98794404  1
  K  K10  1  0.75000000  0.12452000  0.65134074  1
  K  K11  1  0.25000000  0.12484482  0.51423128  1
  K  K12  1  0.25000000  0.37431179  0.34914052  1
  K  K13  1  0.75000000  0.37478258  0.48794404  1
  K  K14  1  0.75000000  0.37548000  0.15134074  1
  K  K15  1  0.25000000  0.37515518  0.01423128  1
  Sb  Sb16  1  0.25000000  0.62211780  0.16792902  1
  Sb  Sb17  1  0.75000000  0.62809773  0.33187331  1
  Sb  Sb18  1  0.75000000  0.87190227  0.83187331  1
  Sb  Sb19  1  0.25000000  0.87788220  0.66792902  1
  Sb  Sb20  1  0.25000000  0.12809773  0.16812669  1
  Sb  Sb21  1  0.75000000  0.12211780  0.33207098  1
  Sb  Sb22  1  0.25000000  0.37190227  0.66812669  1
  Sb  Sb23  1  0.75000000  0.37788220  0.83207098  1
  O  O24  1  0.75000000  0.62495357  0.80387712  1
  O  O25  1  0.47758835  0.62480394  0.09812292  1
  O  O26  1  0.52248175  0.62535745  0.40168319  1
  O  O27  1  0.02241165  0.62480394  0.09812292  1
  O  O28  1  0.97751825  0.62535745  0.40168319  1
  O  O29  1  0.75000000  0.87504643  0.30387712  1
  O  O30  1  0.02241165  0.87519606  0.59812292  1
  O  O31  1  0.47758835  0.87519606  0.59812292  1
  O  O32  1  0.97751825  0.87464255  0.90168319  1
  O  O33  1  0.52248175  0.87464255  0.90168319  1
  O  O34  1  0.52241165  0.12480394  0.40187708  1
  O  O35  1  0.02248175  0.12535745  0.09831681  1
  O  O36  1  0.47751825  0.12535745  0.09831681  1
  O  O37  1  0.97758835  0.12480394  0.40187708  1
  O  O38  1  0.25000000  0.12495357  0.69612288  1
  O  O39  1  0.02248175  0.37464255  0.59831681  1
  O  O40  1  0.47751825  0.37464255  0.59831681  1
  O  O41  1  0.52241165  0.37519606  0.90187708  1
  O  O42  1  0.97758835  0.37519606  0.90187708  1
  O  O43  1  0.25000000  0.37504643  0.19612288  1
