# generated using pymatgen
data_CaPdF6
_symmetry_space_group_name_H-M   'P 1'
_cell_length_a   5.72185511
_cell_length_b   5.72185544
_cell_length_c   5.72185534
_cell_angle_alpha   53.39025365
_cell_angle_beta   53.39026287
_cell_angle_gamma   53.39026185
_symmetry_Int_Tables_number   1
_chemical_formula_structural   CaPdF6
_chemical_formula_sum   'Ca1 Pd1 F6'
_cell_volume   111.96833308
_cell_formula_units_Z   1
loop_
 _symmetry_equiv_pos_site_id
 _symmetry_equiv_pos_as_xyz
  1  'x, y, z'
loop_
 _atom_site_type_symbol
 _atom_site_label
 _atom_site_symmetry_multiplicity
 _atom_site_fract_x
 _atom_site_fract_y
 _atom_site_fract_z
 _atom_site_occupancy
  Ca  Ca0  1  0.50000000  0.50000000  0.50000000  1
  Pd  Pd1  1  0.00000000  -0.00000000  0.00000000  1
  F  F2  1  0.38449129  0.06380574  0.78173593  1
  F  F3  1  0.06380574  0.78173593  0.38449129  1
  F  F4  1  0.21826407  0.61550871  0.93619426  1
  F  F5  1  0.93619426  0.21826407  0.61550871  1
  F  F6  1  0.61550871  0.93619426  0.21826407  1
  F  F7  1  0.78173593  0.38449129  0.06380574  1
