# generated using pymatgen
data_WOF3
_symmetry_space_group_name_H-M   'P 1'
_cell_length_a   5.54778935
_cell_length_b   4.97041236
_cell_length_c   9.16448092
_cell_angle_alpha   90.00000000
_cell_angle_beta   90.00000000
_cell_angle_gamma   90.00000000
_symmetry_Int_Tables_number   1
_chemical_formula_structural   WOF3
_chemical_formula_sum   'W4 O4 F12'
_cell_volume   252.70873540
_cell_formula_units_Z   4
loop_
 _symmetry_equiv_pos_site_id
 _symmetry_equiv_pos_as_xyz
  1  'x, y, z'
loop_
 _atom_site_type_symbol
 _atom_site_label
 _atom_site_symmetry_multiplicity
 _atom_site_fract_x
 _atom_site_fract_y
 _atom_site_fract_z
 _atom_site_occupancy
  W  W0  1  0.13865144  0.59869032  0.10704227  1
  W  W1  1  0.36134856  0.40130968  0.60704227  1
  W  W2  1  0.63865144  0.90130968  0.89295773  1
  W  W3  1  0.86134856  0.09869032  0.39295773  1
  O  O4  1  0.12268685  0.23856308  0.49798171  1
  O  O5  1  0.37731315  0.76143692  0.99798171  1
  O  O6  1  0.62268685  0.26143692  0.50201829  1
  O  O7  1  0.87731315  0.73856308  0.00201829  1
  F  F8  1  0.10484505  0.91361748  0.25117111  1
  F  F9  1  0.14187346  0.53788565  0.74578875  1
  F  F10  1  0.35632380  0.73044316  0.50787623  1
  F  F11  1  0.14367620  0.26955684  0.00787623  1
  F  F12  1  0.35812654  0.46211435  0.24578875  1
  F  F13  1  0.39515495  0.08638252  0.75117111  1
  F  F14  1  0.60484505  0.58638252  0.74882889  1
  F  F15  1  0.64187346  0.96211435  0.25421125  1
  F  F16  1  0.85632380  0.76955684  0.49212377  1
  F  F17  1  0.64367620  0.23044316  0.99212377  1
  F  F18  1  0.85812654  0.03788565  0.75421125  1
  F  F19  1  0.89515495  0.41361748  0.24882889  1
