# generated using pymatgen
data_Sr2HfO4
_symmetry_space_group_name_H-M   'P 1'
_cell_length_a   13.61554685
_cell_length_b   13.61554298
_cell_length_c   13.61555623
_cell_angle_alpha   155.83491872
_cell_angle_beta   155.83492556
_cell_angle_gamma   34.43791564
_symmetry_Int_Tables_number   1
_chemical_formula_structural   Sr2HfO4
_chemical_formula_sum   'Sr8 Hf4 O16'
_cell_volume   422.54667282
_cell_formula_units_Z   4
loop_
 _symmetry_equiv_pos_site_id
 _symmetry_equiv_pos_as_xyz
  1  'x, y, z'
loop_
 _atom_site_type_symbol
 _atom_site_label
 _atom_site_symmetry_multiplicity
 _atom_site_fract_x
 _atom_site_fract_y
 _atom_site_fract_z
 _atom_site_occupancy
  Sr  Sr0  1  0.92495768  0.42495753  0.49999883  1
  Sr  Sr1  1  0.32504356  0.32504186  0.00000162  1
  Sr  Sr2  1  0.07504302  0.57504254  0.50000128  1
  Sr  Sr3  1  0.17495776  0.17495611  -0.00000142  1
  Sr  Sr4  1  0.82504187  0.82504281  0.00000105  1
  Sr  Sr5  1  0.42495697  0.92495809  0.49999879  1
  Sr  Sr6  1  0.57504251  0.07504280  0.50000102  1
  Sr  Sr7  1  0.67495662  0.67495772  -0.00000125  1
  Hf  Hf8  1  0.50000027  0.49999924  -0.00000199  1
  Hf  Hf9  1  0.74999327  0.24999685  0.49999089  1
  Hf  Hf10  1  0.00000227  0.00000251  0.00000265  1
  Hf  Hf11  1  0.25000360  0.75000479  0.50000942  1
  O  O12  1  0.95567402  0.95566506  0.41133806  1
  O  O13  1  0.45566837  0.04432315  -0.00000826  1
  O  O14  1  0.66933974  0.16933929  0.50000078  1
  O  O15  1  0.41933977  0.41933944  0.00000009  1
  O  O16  1  0.83066165  0.33066139  0.50000111  1
  O  O17  1  0.58066076  0.58066150  0.00000096  1
  O  O18  1  0.04433217  0.45567600  0.00000813  1
  O  O19  1  0.20566890  0.70567020  0.91133814  1
  O  O20  1  0.54432651  0.54433378  0.58866148  1
  O  O21  1  0.70567287  0.79432826  0.50000118  1
  O  O22  1  0.08066007  0.08066012  0.00000038  1
  O  O23  1  0.91933858  0.91933847  -0.00000095  1
  O  O24  1  0.16933928  0.66933931  0.49999863  1
  O  O25  1  0.33066030  0.83066053  0.49999991  1
  O  O26  1  0.29432724  0.20567127  0.49999853  1
  O  O27  1  0.79433036  0.29432941  0.08866094  1
