# generated using pymatgen
data_Be2GeO4
_symmetry_space_group_name_H-M   'P 1'
_cell_length_a   7.88735226
_cell_length_b   7.88735112
_cell_length_c   7.88735344
_cell_angle_alpha   108.00141950
_cell_angle_beta   108.00144167
_cell_angle_gamma   108.00145913
_symmetry_Int_Tables_number   1
_chemical_formula_structural   Be2GeO4
_chemical_formula_sum   'Be12 Ge6 O24'
_cell_volume   396.94662068
_cell_formula_units_Z   6
loop_
 _symmetry_equiv_pos_site_id
 _symmetry_equiv_pos_as_xyz
  1  'x, y, z'
loop_
 _atom_site_type_symbol
 _atom_site_label
 _atom_site_symmetry_multiplicity
 _atom_site_fract_x
 _atom_site_fract_y
 _atom_site_fract_z
 _atom_site_occupancy
  Be  Be0  1  0.29288138  0.89029441  0.06884417  1
  Be  Be1  1  0.93115587  0.70711835  0.10970520  1
  Be  Be2  1  0.39509387  0.62893956  0.22041795  1
  Be  Be3  1  0.10970559  0.93115594  0.70711876  1
  Be  Be4  1  0.77958226  0.60490658  0.37106106  1
  Be  Be5  1  0.37106081  0.77958233  0.60490639  1
  Be  Be6  1  0.62893907  0.22041762  0.39509336  1
  Be  Be7  1  0.22041749  0.39509356  0.62893885  1
  Be  Be8  1  0.89029443  0.06884400  0.29288110  1
  Be  Be9  1  0.60490626  0.37106043  0.77958192  1
  Be  Be10  1  0.06884412  0.29288143  0.89029481  1
  Be  Be11  1  0.70711851  0.10970554  0.93115590  1
  Ge  Ge12  1  0.73133808  0.96223746  0.55517874  1
  Ge  Ge13  1  0.44482108  0.26866161  0.03776326  1
  Ge  Ge14  1  0.03776310  0.44482098  0.26866202  1
  Ge  Ge15  1  0.96223737  0.55517914  0.73133797  1
  Ge  Ge16  1  0.55517863  0.73133830  0.96223704  1
  Ge  Ge17  1  0.26866133  0.03776218  0.44482054  1
  O  O18  1  0.80549681  0.83536644  0.13521587  1
  O  O19  1  0.40897455  0.75203948  0.08823954  1
  O  O20  1  0.16463325  0.86478440  0.19450350  1
  O  O21  1  0.24796062  0.91176069  0.59102583  1
  O  O22  1  0.47998521  0.78871525  0.45582993  1
  O  O23  1  0.16892503  0.45579742  0.12485295  1
  O  O24  1  0.87514738  0.83107510  0.54420303  1
  O  O25  1  0.91176025  0.59102610  0.24796050  1
  O  O26  1  0.54417039  0.52001509  0.21128554  1
  O  O27  1  0.21128535  0.54417141  0.52001699  1
  O  O28  1  0.86478417  0.19450305  0.16463307  1
  O  O29  1  0.54420252  0.87514722  0.83107524  1
  O  O30  1  0.45579727  0.12485313  0.16892468  1
  O  O31  1  0.13521566  0.80549652  0.83536656  1
  O  O32  1  0.78871453  0.45582858  0.47998288  1
  O  O33  1  0.45582826  0.47998241  0.78871367  1
  O  O34  1  0.08823943  0.40897398  0.75203939  1
  O  O35  1  0.12485272  0.16892494  0.45579712  1
  O  O36  1  0.83107462  0.54420258  0.87514691  1
  O  O37  1  0.52001718  0.21128589  0.54417142  1
  O  O38  1  0.75203956  0.08823960  0.40897412  1
  O  O39  1  0.83536676  0.13521618  0.80549710  1
  O  O40  1  0.59102608  0.24796067  0.91176019  1
  O  O41  1  0.19450313  0.16463347  0.86478391  1
