# generated using pymatgen
data_Ba2SrI6
_symmetry_space_group_name_H-M   'P 1'
_cell_length_a   14.52274217
_cell_length_b   14.52251412
_cell_length_c   7.82212148
_cell_angle_alpha   90.00064244
_cell_angle_beta   89.99964822
_cell_angle_gamma   119.99998850
_symmetry_Int_Tables_number   1
_chemical_formula_structural   Ba2SrI6
_chemical_formula_sum   'Ba6 Sr3 I18'
_cell_volume   1428.71522573
_cell_formula_units_Z   3
loop_
 _symmetry_equiv_pos_site_id
 _symmetry_equiv_pos_as_xyz
  1  'x, y, z'
loop_
 _atom_site_type_symbol
 _atom_site_label
 _atom_site_symmetry_multiplicity
 _atom_site_fract_x
 _atom_site_fract_y
 _atom_site_fract_z
 _atom_site_occupancy
  Ba  Ba0  1  0.00000267  0.63900550  -0.00001047  1
  Ba  Ba1  1  -0.00000019  0.30468951  0.49998669  1
  Ba  Ba2  1  0.36099577  0.36099882  -0.00001086  1
  Ba  Ba3  1  0.30469052  0.00000141  0.49998889  1
  Ba  Ba4  1  0.69531184  0.69531052  0.49998902  1
  Ba  Ba5  1  0.63900250  -0.00000347  -0.00000887  1
  Sr  Sr6  1  0.33333299  0.66666673  0.49593519  1
  Sr  Sr7  1  0.00000018  0.00000034  -0.00001136  1
  Sr  Sr8  1  0.66666716  0.33333388  0.50405625  1
  I  I9  1  0.08463397  0.87075114  0.76072506  1
  I  I10  1  0.22853458  0.77517067  0.25196902  1
  I  I11  1  0.12203308  0.53796297  0.74161479  1
  I  I12  1  0.41591549  0.87795360  0.74161047  1
  I  I13  1  0.22483643  0.45337127  0.25197105  1
  I  I14  1  0.12924879  0.21388218  0.76072560  1
  I  I15  1  0.54662902  0.77144907  0.25198687  1
  I  I16  1  0.21389518  0.12924896  0.23926311  1
  I  I17  1  0.46203780  0.58407604  0.74161428  1
  I  I18  1  0.78611980  0.91536975  0.76072777  1
  I  I19  1  0.45337441  0.22484254  0.74808540  1
  I  I20  1  0.58407642  0.46202979  0.25836624  1
  I  I21  1  0.53797047  0.12204545  0.25836388  1
  I  I22  1  0.77146817  0.54662853  0.74808665  1
  I  I23  1  0.91535294  0.78610585  0.23926369  1
  I  I24  1  0.77516183  0.22853281  0.74808871  1
  I  I25  1  0.87795556  0.41592559  0.25836521  1
  I  I26  1  0.87075462  0.08464858  0.23925973  1
