# generated using pymatgen
data_Hf2N2O
_symmetry_space_group_name_H-M   'P 1'
_cell_length_a   8.66672376
_cell_length_b   8.67170129
_cell_length_c   8.67557645
_cell_angle_alpha   109.49040813
_cell_angle_beta   109.44890365
_cell_angle_gamma   109.38886444
_symmetry_Int_Tables_number   1
_chemical_formula_structural   Hf2N2O
_chemical_formula_sum   'Hf16 N16 O8'
_cell_volume   502.44993592
_cell_formula_units_Z   8
loop_
 _symmetry_equiv_pos_site_id
 _symmetry_equiv_pos_as_xyz
  1  'x, y, z'
loop_
 _atom_site_type_symbol
 _atom_site_label
 _atom_site_symmetry_multiplicity
 _atom_site_fract_x
 _atom_site_fract_y
 _atom_site_fract_z
 _atom_site_occupancy
  Hf  Hf0  1  0.98862839  0.48189751  0.99142308  1
  Hf  Hf1  1  0.74583808  0.71575658  0.96711182  1
  Hf  Hf2  1  0.96356579  0.74763685  0.71462830  1
  Hf  Hf3  1  0.53386476  0.24948830  0.78586792  1
  Hf  Hf4  1  0.70309813  0.46015513  0.24128850  1
  Hf  Hf5  1  0.22340892  0.96658566  0.25802918  1
  Hf  Hf6  1  0.51176780  0.51152562  0.50077952  1
  Hf  Hf7  1  0.49133291  0.99603654  0.00324668  1
  Hf  Hf8  1  0.00149246  0.01094379  0.50992895  1
  Hf  Hf9  1  0.75026838  0.21373192  0.47121763  1
  Hf  Hf10  1  0.25032841  0.78537302  0.54077304  1
  Hf  Hf11  1  0.79071779  0.03058819  0.74784620  1
  Hf  Hf12  1  0.28064940  0.53783498  0.74999204  1
  Hf  Hf13  1  0.04254491  0.26065645  0.29108575  1
  Hf  Hf14  1  0.46792023  0.74935585  0.21057164  1
  Hf  Hf15  1  0.24800778  0.28950982  0.02976321  1
  N  N16  1  0.77621736  0.51987136  0.04983949  1
  N  N17  1  0.27443604  0.04405036  0.53145188  1
  N  N18  1  0.74186927  0.46741010  0.50936289  1
  N  N19  1  0.45738325  0.22495204  0.98907354  1
  N  N20  1  0.54986661  0.77487648  0.01262033  1
  N  N21  1  0.75800430  0.26978149  0.72776089  1
  N  N22  1  0.26330040  0.53706678  0.48436423  1
  N  N23  1  0.22765948  0.76428035  0.77288657  1
  N  N24  1  0.72816151  0.94974991  0.46341307  1
  N  N25  1  0.98875620  0.26153467  0.03732714  1
  N  N26  1  0.46245244  0.01237263  0.23759615  1
  N  N27  1  0.72516823  0.77065229  0.74164958  1
  N  N28  1  0.03331190  0.27030401  0.54110561  1
  N  N29  1  0.22351082  0.48880093  0.95266070  1
  N  N30  1  0.50830864  0.54245783  0.27201932  1
  N  N31  1  0.04655709  0.03218266  0.76960203  1
  O  O32  1  0.95879021  0.96686315  0.22242102  1
  O  O33  1  0.48731158  0.45218275  0.72640263  1
  O  O34  1  0.27025173  0.22500645  0.26690477  1
  O  O35  1  0.96872240  0.72601839  0.45363662  1
  O  O36  1  0.53233508  0.98582206  0.75981017  1
  O  O37  1  0.01727044  0.74508619  0.97055115  1
  O  O38  1  0.77348041  0.23430319  0.22405000  1
  O  O39  1  0.23344246  0.72730073  0.26993676  1
