# generated using pymatgen
data_Cs2NiH12(SO7)2
_symmetry_space_group_name_H-M   'P 1'
_cell_length_a   12.86981800
_cell_length_b   6.43421100
_cell_length_c   9.29136466
_cell_angle_alpha   73.70395597
_cell_angle_beta   90.00000000
_cell_angle_gamma   90.00000000
_symmetry_Int_Tables_number   1
_chemical_formula_structural   Cs2NiH12(SO7)2
_chemical_formula_sum   'Cs4 Ni2 H24 S4 O28'
_cell_volume   738.48064406
_cell_formula_units_Z   2
loop_
 _symmetry_equiv_pos_site_id
 _symmetry_equiv_pos_as_xyz
  1  'x, y, z'
loop_
 _atom_site_type_symbol
 _atom_site_label
 _atom_site_symmetry_multiplicity
 _atom_site_fract_x
 _atom_site_fract_y
 _atom_site_fract_z
 _atom_site_occupancy
  Cs  Cs0  1  0.64292500  0.34369400  0.87411800  1
  Cs  Cs1  1  0.14029600  0.64832900  0.62765000  1
  Cs  Cs2  1  0.35835000  0.64250500  0.12888500  1
  Cs  Cs3  1  0.85817200  0.34551100  0.37556900  1
  Ni  Ni4  1  0.99848800  0.00018000  0.99500900  1
  Ni  Ni5  1  0.49795400  0.99395900  0.49898100  1
  H  H6  1  0.90117500  0.31608000  0.78751300  1
  H  H7  1  0.39871000  0.68771500  0.70320000  1
  H  H8  1  0.09659400  0.69228000  0.20356500  1
  H  H9  1  0.59460900  0.31439800  0.29180800  1
  H  H10  1  0.87341500  0.08480000  0.76319800  1
  H  H11  1  0.37284300  0.91077700  0.73516400  1
  H  H12  1  0.13116600  0.91172800  0.23087400  1
  H  H13  1  0.63374300  0.08367600  0.26729900  1
  H  H14  1  0.90625800  0.92403500  0.28068000  1
  H  H15  1  0.40839200  0.07158800  0.22588300  1
  H  H16  1  0.09611100  0.07468500  0.71898800  1
  H  H17  1  0.59430600  0.92106100  0.78030600  1
  H  H18  1  0.81763500  0.98819800  0.14421800  1
  H  H19  1  0.32070200  0.01222000  0.34601500  1
  H  H20  1  0.17761200  0.01236000  0.85003500  1
  H  H21  1  0.68108000  0.98196600  0.65408000  1
  H  H22  1  0.05734900  0.33285200  0.10118500  1
  H  H23  1  0.55984400  0.67308200  0.40682600  1
  H  H24  1  0.93795500  0.67551800  0.90307400  1
  H  H25  1  0.44039700  0.33493900  0.59285400  1
  H  H26  1  0.13797400  0.30664700  0.97946100  1
  H  H27  1  0.63739700  0.68482600  0.52843800  1
  H  H28  1  0.86010100  0.68577200  0.02695300  1
  H  H29  1  0.35876000  0.30340700  0.47350500  1
  S  S30  1  0.85297400  0.74192200  0.59999200  1
  S  S31  1  0.34805800  0.25966400  0.89299700  1
  S  S32  1  0.14924800  0.25329100  0.39234200  1
  S  S33  1  0.64663700  0.74102900  0.11012500  1
  O  O34  1  0.76088800  0.61482800  0.57653600  1
  O  O35  1  0.25746500  0.38715400  0.92252100  1
  O  O36  1  0.24190300  0.38574600  0.41345700  1
  O  O37  1  0.74236400  0.60973700  0.08646500  1
  O  O38  1  0.92043600  0.79409800  0.46539900  1
  O  O39  1  0.41825600  0.19493100  0.03505500  1
  O  O40  1  0.08128400  0.19470900  0.53310500  1
  O  O41  1  0.58069100  0.80480000  0.96579500  1
  O  O42  1  0.91450500  0.60755500  0.72763800  1
  O  O43  1  0.41702700  0.39050200  0.76871000  1
  O  O44  1  0.08551700  0.39600300  0.26162800  1
  O  O45  1  0.58688100  0.61112000  0.23117800  1
  O  O46  1  0.81649300  0.93605600  0.64658900  1
  O  O47  1  0.31968300  0.05935100  0.85914800  1
  O  O48  1  0.18201400  0.05968800  0.36206900  1
  O  O49  1  0.68225500  0.93975000  0.14702400  1
  O  O50  1  0.88705700  0.15707500  0.83773700  1
  O  O51  1  0.38582500  0.84852800  0.65557300  1
  O  O52  1  0.11117100  0.84926200  0.15533200  1
  O  O53  1  0.61016200  0.15437600  0.34709900  1
  O  O54  1  0.89343500  0.01325500  0.17600100  1
  O  O55  1  0.39073800  0.97939800  0.32746200  1
  O  O56  1  0.10882500  0.99239700  0.82908400  1
  O  O57  1  0.60673000  0.00852900  0.67485200  1
  O  O58  1  0.06090700  0.28847400  0.99770200  1
  O  O59  1  0.56612800  0.71199100  0.49997600  1
  O  O60  1  0.93895200  0.70887800  0.00323100  1
  O  O61  1  0.43974100  0.28760900  0.50552600  1
