# generated using pymatgen
data_V4O7F5
_symmetry_space_group_name_H-M   'P 1'
_cell_length_a   5.08053335
_cell_length_b   5.23218427
_cell_length_c   8.66938439
_cell_angle_alpha   74.62234498
_cell_angle_beta   90.46544049
_cell_angle_gamma   60.89356626
_symmetry_Int_Tables_number   1
_chemical_formula_structural   V4O7F5
_chemical_formula_sum   'V4 O7 F5'
_cell_volume   191.55270000
_cell_formula_units_Z   1
loop_
 _symmetry_equiv_pos_site_id
 _symmetry_equiv_pos_as_xyz
  1  'x, y, z'
loop_
 _atom_site_type_symbol
 _atom_site_label
 _atom_site_symmetry_multiplicity
 _atom_site_fract_x
 _atom_site_fract_y
 _atom_site_fract_z
 _atom_site_occupancy
  V  V0  1  0.79385786  0.45397399  0.25707449  1
  V  V1  1  0.49047806  0.95622045  0.50725533  1
  V  V2  1  0.30973245  0.45906320  0.75327593  1
  V  V3  1  0.04163702  0.98211989  0.00496317  1
  O  O4  1  0.95309913  0.25077851  0.12909042  1
  O  O5  1  0.53184601  0.75628858  0.38151975  1
  O  O6  1  0.40571122  0.75991539  0.07964313  1
  O  O7  1  0.41134448  0.76547267  0.67245873  1
  O  O8  1  0.57390618  0.25776130  0.91610366  1
  O  O9  1  0.45430712  0.26818236  0.62248820  1
  O  O10  1  0.07549569  0.26332132  0.41809254  1
  F  F11  1  0.90731714  0.77824379  0.57408885  1
  F  F12  1  0.90304765  0.75986061  0.17011906  1
  F  F13  1  0.56641140  0.26625678  0.32571333  1
  F  F14  1  0.01785716  0.75507709  0.86983169  1
  F  F15  1  0.06395044  0.26746608  0.81828070  1
