# generated using pymatgen
data_TaFeO4
_symmetry_space_group_name_H-M   'P 1'
_cell_length_a   6.57362806
_cell_length_b   6.57362806
_cell_length_c   6.66283842
_cell_angle_alpha   73.39150151
_cell_angle_beta   73.39150151
_cell_angle_gamma   34.05375952
_symmetry_Int_Tables_number   1
_chemical_formula_structural   TaFeO4
_chemical_formula_sum   'Ta2 Fe2 O8'
_cell_volume   153.85363816
_cell_formula_units_Z   2
loop_
 _symmetry_equiv_pos_site_id
 _symmetry_equiv_pos_as_xyz
  1  'x, y, z'
loop_
 _atom_site_type_symbol
 _atom_site_label
 _atom_site_symmetry_multiplicity
 _atom_site_fract_x
 _atom_site_fract_y
 _atom_site_fract_z
 _atom_site_occupancy
  Ta  Ta0  1  0.89514192  0.89514192  0.22360485  1
  Ta  Ta1  1  0.10485808  0.10485808  0.77639515  1
  Fe  Fe2  1  0.80488906  0.80488906  0.80567604  1
  Fe  Fe3  1  0.19511094  0.19511094  0.19432396  1
  O  O4  1  0.94539071  0.94539071  0.86900856  1
  O  O5  1  0.86290619  0.86290619  0.51058578  1
  O  O6  1  0.63284318  0.63284318  0.79895156  1
  O  O7  1  0.74513526  0.74513526  0.14818265  1
  O  O8  1  0.25486474  0.25486474  0.85181735  1
  O  O9  1  0.36715682  0.36715682  0.20104844  1
  O  O10  1  0.13709381  0.13709381  0.48941422  1
  O  O11  1  0.05460929  0.05460929  0.13099144  1
