# generated using pymatgen
data_SrV4O10
_symmetry_space_group_name_H-M   'P 1'
_cell_length_a   6.12995198
_cell_length_b   7.35041460
_cell_length_c   8.95301994
_cell_angle_alpha   89.90183740
_cell_angle_beta   92.12895258
_cell_angle_gamma   107.38725334
_symmetry_Int_Tables_number   1
_chemical_formula_structural   SrV4O10
_chemical_formula_sum   'Sr2 V8 O20'
_cell_volume   384.68528532
_cell_formula_units_Z   2
loop_
 _symmetry_equiv_pos_site_id
 _symmetry_equiv_pos_as_xyz
  1  'x, y, z'
loop_
 _atom_site_type_symbol
 _atom_site_label
 _atom_site_symmetry_multiplicity
 _atom_site_fract_x
 _atom_site_fract_y
 _atom_site_fract_z
 _atom_site_occupancy
  Sr  Sr0  1  0.81915279  0.70677319  0.01779037  1
  Sr  Sr1  1  0.18084721  0.29322681  0.98220963  1
  V  V2  1  0.87716882  0.46545509  0.65999190  1
  V  V3  1  0.53911094  0.88160454  0.33854256  1
  V  V4  1  0.46088906  0.11839546  0.66145744  1
  V  V5  1  0.12283118  0.53454491  0.34000810  1
  V  V6  1  0.87040579  0.97093943  0.65937787  1
  V  V7  1  0.53001591  0.38629392  0.33730670  1
  V  V8  1  0.46998409  0.61370608  0.66269330  1
  V  V9  1  0.12959421  0.02906057  0.34062213  1
  O  O10  1  0.92139028  0.99193947  0.84335856  1
  O  O11  1  0.91473714  0.46539243  0.84502999  1
  O  O12  1  0.83948070  0.46341790  0.39828558  1
  O  O13  1  0.83163802  0.95501176  0.40650738  1
  O  O14  1  0.80173933  0.69700114  0.64313717  1
  O  O15  1  0.79634843  0.20188085  0.62899301  1
  O  O16  1  0.56491731  0.86660775  0.15954044  1
  O  O17  1  0.54978060  0.41450228  0.15391176  1
  O  O18  1  0.53099607  0.38038056  0.60484357  1
  O  O19  1  0.52920013  0.88422014  0.62749330  1
  O  O20  1  0.47079987  0.11577986  0.37250670  1
  O  O21  1  0.46900393  0.61961944  0.39515643  1
  O  O22  1  0.45021940  0.58549772  0.84608824  1
  O  O23  1  0.43508269  0.13339225  0.84045956  1
  O  O24  1  0.20365157  0.79811915  0.37100699  1
  O  O25  1  0.19826067  0.30299886  0.35686283  1
  O  O26  1  0.16836198  0.04498824  0.59349262  1
  O  O27  1  0.16051930  0.53658210  0.60171442  1
  O  O28  1  0.08526286  0.53460757  0.15497001  1
  O  O29  1  0.07860972  0.00806053  0.15664144  1
