# generated using pymatgen
data_Na3H7Os
_symmetry_space_group_name_H-M   'P 1'
_cell_length_a   9.49250597
_cell_length_b   9.49250597
_cell_length_c   5.23048139
_cell_angle_alpha   90.00000000
_cell_angle_beta   90.00000000
_cell_angle_gamma   90.00000000
_symmetry_Int_Tables_number   1
_chemical_formula_structural   Na3H7Os
_chemical_formula_sum   'Na12 H28 Os4'
_cell_volume   471.30648889
_cell_formula_units_Z   4
loop_
 _symmetry_equiv_pos_site_id
 _symmetry_equiv_pos_as_xyz
  1  'x, y, z'
loop_
 _atom_site_type_symbol
 _atom_site_label
 _atom_site_symmetry_multiplicity
 _atom_site_fract_x
 _atom_site_fract_y
 _atom_site_fract_z
 _atom_site_occupancy
  Na  Na0  1  0.69996556  0.96569021  0.50000000  1
  Na  Na1  1  0.30003444  0.03430979  0.50000000  1
  Na  Na2  1  0.19996556  0.53430979  0.00000000  1
  Na  Na3  1  0.80003444  0.46569021  0.00000000  1
  Na  Na4  1  0.96569021  0.69996556  0.50000000  1
  Na  Na5  1  0.03430979  0.30003444  0.50000000  1
  Na  Na6  1  0.53430979  0.19996556  0.00000000  1
  Na  Na7  1  0.46569021  0.80003444  0.00000000  1
  Na  Na8  1  0.38296866  0.38296866  0.50000000  1
  Na  Na9  1  0.61703134  0.61703134  0.50000000  1
  Na  Na10  1  0.88296866  0.11703134  0.00000000  1
  Na  Na11  1  0.11703134  0.88296866  0.00000000  1
  H  H12  1  0.60315489  0.39684511  0.69824594  1
  H  H13  1  0.39684511  0.60315489  0.69824594  1
  H  H14  1  0.10315489  0.10315489  0.19824594  1
  H  H15  1  0.89684511  0.89684511  0.19824594  1
  H  H16  1  0.39684511  0.60315489  0.30175406  1
  H  H17  1  0.60315489  0.39684511  0.30175406  1
  H  H18  1  0.89684511  0.89684511  0.80175406  1
  H  H19  1  0.10315489  0.10315489  0.80175406  1
  H  H20  1  0.74199562  0.25800438  0.20176120  1
  H  H21  1  0.25800438  0.74199562  0.20176120  1
  H  H22  1  0.24199562  0.24199562  0.70176120  1
  H  H23  1  0.75800438  0.75800438  0.70176120  1
  H  H24  1  0.25800438  0.74199562  0.79823880  1
  H  H25  1  0.74199562  0.25800438  0.79823880  1
  H  H26  1  0.75800438  0.75800438  0.29823880  1
  H  H27  1  0.24199562  0.24199562  0.29823880  1
  H  H28  1  0.56854751  0.17447489  0.50000000  1
  H  H29  1  0.43145249  0.82552511  0.50000000  1
  H  H30  1  0.06854751  0.32552511  0.00000000  1
  H  H31  1  0.93145249  0.67447489  0.00000000  1
  H  H32  1  0.17447489  0.56854751  0.50000000  1
  H  H33  1  0.82552511  0.43145249  0.50000000  1
  H  H34  1  0.32552511  0.06854751  0.00000000  1
  H  H35  1  0.67447489  0.93145249  0.00000000  1
  H  H36  1  0.82629278  0.17370722  0.50000000  1
  H  H37  1  0.17370722  0.82629278  0.50000000  1
  H  H38  1  0.32629278  0.32629278  0.00000000  1
  H  H39  1  0.67370722  0.67370722  0.00000000  1
  Os  Os40  1  0.70178095  0.29821905  0.50000000  1
  Os  Os41  1  0.29821905  0.70178095  0.50000000  1
  Os  Os42  1  0.20178095  0.20178095  0.00000000  1
  Os  Os43  1  0.79821905  0.79821905  0.00000000  1
