# generated using pymatgen
data_BaTiFe2(SiO5)2
_symmetry_space_group_name_H-M   'P 1'
_cell_length_a   8.78188653
_cell_length_b   8.78188653
_cell_length_c   12.12138410
_cell_angle_alpha   77.23146572
_cell_angle_beta   77.23146572
_cell_angle_gamma   104.56534813
_symmetry_Int_Tables_number   1
_chemical_formula_structural   BaTiFe2(SiO5)2
_chemical_formula_sum   'Ba4 Ti4 Fe8 Si8 O40'
_cell_volume   843.66843432
_cell_formula_units_Z   4
loop_
 _symmetry_equiv_pos_site_id
 _symmetry_equiv_pos_as_xyz
  1  'x, y, z'
loop_
 _atom_site_type_symbol
 _atom_site_label
 _atom_site_symmetry_multiplicity
 _atom_site_fract_x
 _atom_site_fract_y
 _atom_site_fract_z
 _atom_site_occupancy
  Ba  Ba0  1  0.65889700  0.65889700  0.43223600  1
  Ba  Ba1  1  0.16230600  0.16230600  0.42255900  1
  Ba  Ba2  1  0.11885200  0.62025500  0.56027800  1
  Ba  Ba3  1  0.62025500  0.11885200  0.56027800  1
  Ti  Ti4  1  0.31915900  0.31915900  0.65985100  1
  Ti  Ti5  1  0.81768100  0.81768100  0.66105000  1
  Ti  Ti6  1  0.95248400  0.46812900  0.32546700  1
  Ti  Ti7  1  0.46812900  0.95248400  0.32546700  1
  Fe  Fe8  1  0.00892400  0.00892400  0.98444700  1
  Fe  Fe9  1  0.51157500  0.51157500  0.98519800  1
  Fe  Fe10  1  0.38481200  0.14179900  0.98907500  1
  Fe  Fe11  1  0.14179900  0.38481200  0.98907500  1
  Fe  Fe12  1  0.89033900  0.63767600  0.99602200  1
  Fe  Fe13  1  0.63767600  0.89033900  0.99602200  1
  Fe  Fe14  1  0.26534700  0.76841000  0.00338500  1
  Fe  Fe15  1  0.76841000  0.26534700  0.00338500  1
  Si  Si16  1  0.11120500  0.88468600  0.24056900  1
  Si  Si17  1  0.88468600  0.11120500  0.24056900  1
  Si  Si18  1  0.60495600  0.37638300  0.23694700  1
  Si  Si19  1  0.37638300  0.60495600  0.23694700  1
  Si  Si20  1  0.66894600  0.39750700  0.74991500  1
  Si  Si21  1  0.39750700  0.66894600  0.74991500  1
  Si  Si22  1  0.17005400  0.89850500  0.74755600  1
  Si  Si23  1  0.89850500  0.17005400  0.74755600  1
  O  O24  1  0.02237000  0.02237000  0.25468300  1
  O  O25  1  0.47070200  0.47070200  0.25301900  1
  O  O26  1  0.19193200  0.92687000  0.09429800  1
  O  O27  1  0.92687000  0.19193200  0.09429800  1
  O  O28  1  0.24390600  0.92016600  0.31300700  1
  O  O29  1  0.92016600  0.24390600  0.31300700  1
  O  O30  1  0.98053500  0.70291800  0.29610200  1
  O  O31  1  0.70291800  0.98053500  0.29610200  1
  O  O32  1  0.68814400  0.42063000  0.09132200  1
  O  O33  1  0.42063000  0.68814400  0.09132200  1
  O  O34  1  0.73541200  0.44601700  0.30247200  1
  O  O35  1  0.44601700  0.73541200  0.30247200  1
  O  O36  1  0.50002800  0.18495700  0.30064900  1
  O  O37  1  0.18495700  0.50002800  0.30064900  1
  O  O38  1  0.77937800  0.27981500  0.73208700  1
  O  O39  1  0.27981500  0.77937800  0.73208700  1
  O  O40  1  0.53594600  0.34353800  0.68202100  1
  O  O41  1  0.34353800  0.53594600  0.68202100  1
  O  O42  1  0.78752400  0.58424500  0.69047800  1
  O  O43  1  0.58424500  0.78752400  0.69047800  1
  O  O44  1  0.58880100  0.35230900  0.89572300  1
  O  O45  1  0.35230900  0.58880100  0.89572300  1
  O  O46  1  0.03703000  0.84553100  0.67887500  1
  O  O47  1  0.84553100  0.03703000  0.67887500  1
  O  O48  1  0.28933100  0.08554100  0.68649200  1
  O  O49  1  0.08554100  0.28933100  0.68649200  1
  O  O50  1  0.08777000  0.85529200  0.89461000  1
  O  O51  1  0.85529200  0.08777000  0.89461000  1
  O  O52  1  0.20460400  0.20460400  0.91367500  1
  O  O53  1  0.70411200  0.70411200  0.91944900  1
  O  O54  1  0.58200200  0.06674200  0.07271000  1
  O  O55  1  0.06674200  0.58200200  0.07271000  1
  O  O56  1  0.37611500  0.37611500  0.50669200  1
  O  O57  1  0.87590200  0.87590200  0.50746400  1
  O  O58  1  0.89152800  0.41596500  0.47907400  1
  O  O59  1  0.41596500  0.89152800  0.47907400  1
  O  O60  1  0.31997600  0.31997600  0.06553400  1
  O  O61  1  0.81916800  0.81916800  0.07087000  1
  O  O62  1  0.45416400  0.96019700  0.91950400  1
  O  O63  1  0.96019700  0.45416400  0.91950400  1
