# generated using pymatgen
data_LaOF
_symmetry_space_group_name_H-M   'P 1'
_cell_length_a   7.11929028
_cell_length_b   7.11929066
_cell_length_c   7.11929150
_cell_angle_alpha   32.98561248
_cell_angle_beta   32.98560939
_cell_angle_gamma   32.98560250
_symmetry_Int_Tables_number   1
_chemical_formula_structural   LaOF
_chemical_formula_sum   'La2 O2 F2'
_cell_volume   95.17644634
_cell_formula_units_Z   2
loop_
 _symmetry_equiv_pos_site_id
 _symmetry_equiv_pos_as_xyz
  1  'x, y, z'
loop_
 _atom_site_type_symbol
 _atom_site_label
 _atom_site_symmetry_multiplicity
 _atom_site_fract_x
 _atom_site_fract_y
 _atom_site_fract_z
 _atom_site_occupancy
  La  La0  1  0.74190204  0.74190204  0.74190204  1
  La  La1  1  0.25809796  0.25809796  0.25809796  1
  O  O2  1  0.62270183  0.62270183  0.62270183  1
  O  O3  1  0.37729817  0.37729817  0.37729817  1
  F  F4  1  0.87065869  0.87065869  0.87065869  1
  F  F5  1  0.12934131  0.12934131  0.12934131  1
