# generated using pymatgen
data_Pr3SiAgS7
_symmetry_space_group_name_H-M   'P 1'
_cell_length_a   10.38985304
_cell_length_b   10.38985304
_cell_length_c   5.78563894
_cell_angle_alpha   90.00000000
_cell_angle_beta   90.00000000
_cell_angle_gamma   119.99999548
_symmetry_Int_Tables_number   1
_chemical_formula_structural   Pr3SiAgS7
_chemical_formula_sum   'Pr6 Si2 Ag2 S14'
_cell_volume   540.87983242
_cell_formula_units_Z   2
loop_
 _symmetry_equiv_pos_site_id
 _symmetry_equiv_pos_as_xyz
  1  'x, y, z'
loop_
 _atom_site_type_symbol
 _atom_site_label
 _atom_site_symmetry_multiplicity
 _atom_site_fract_x
 _atom_site_fract_y
 _atom_site_fract_z
 _atom_site_occupancy
  Pr  Pr0  1  0.12217792  0.35954468  0.25039154  1
  Pr  Pr1  1  0.87782208  0.64045532  0.75039154  1
  Pr  Pr2  1  0.64045532  0.76263325  0.25039154  1
  Pr  Pr3  1  0.23736675  0.87782208  0.25039154  1
  Pr  Pr4  1  0.76263325  0.12217792  0.75039154  1
  Pr  Pr5  1  0.35954468  0.23736675  0.75039154  1
  Si  Si6  1  0.33333300  0.66666700  0.66112089  1
  Si  Si7  1  0.66666700  0.33333300  0.16112089  1
  Ag  Ag8  1  0.00000000  0.00000000  0.29122135  1
  Ag  Ag9  1  0.00000000  0.00000000  0.79122135  1
  S  S10  1  0.33333300  0.66666700  0.02437080  1
  S  S11  1  0.66666700  0.33333300  0.52437080  1
  S  S12  1  0.40780318  0.52533561  0.51836282  1
  S  S13  1  0.59219682  0.47466439  0.01836282  1
  S  S14  1  0.47466439  0.88246857  0.51836282  1
  S  S15  1  0.11753143  0.59219682  0.51836282  1
  S  S16  1  0.88246857  0.40780318  0.01836282  1
  S  S17  1  0.52533561  0.11753143  0.01836282  1
  S  S18  1  0.08910341  0.26599986  0.76436263  1
  S  S19  1  0.91089659  0.73400014  0.26436263  1
  S  S20  1  0.73400014  0.82310355  0.76436263  1
  S  S21  1  0.17689645  0.91089659  0.76436263  1
  S  S22  1  0.82310355  0.08910341  0.26436263  1
  S  S23  1  0.26599986  0.17689645  0.26436263  1
