# generated using pymatgen
data_Lu2Ge2O7
_symmetry_space_group_name_H-M   'P 1'
_cell_length_a   6.68844815
_cell_length_b   6.68844815
_cell_length_c   12.15777031
_cell_angle_alpha   90.00000000
_cell_angle_beta   90.00000000
_cell_angle_gamma   90.00000000
_symmetry_Int_Tables_number   1
_chemical_formula_structural   Lu2Ge2O7
_chemical_formula_sum   'Lu8 Ge8 O28'
_cell_volume   543.88197211
_cell_formula_units_Z   4
loop_
 _symmetry_equiv_pos_site_id
 _symmetry_equiv_pos_as_xyz
  1  'x, y, z'
loop_
 _atom_site_type_symbol
 _atom_site_label
 _atom_site_symmetry_multiplicity
 _atom_site_fract_x
 _atom_site_fract_y
 _atom_site_fract_z
 _atom_site_occupancy
  Lu  Lu0  1  0.64286279  0.87244604  0.38580211  1
  Lu  Lu1  1  0.35713721  0.12755396  0.88580211  1
  Lu  Lu2  1  0.87244604  0.64286279  0.61419789  1
  Lu  Lu3  1  0.37244604  0.85713721  0.13580211  1
  Lu  Lu4  1  0.62755396  0.14286279  0.63580211  1
  Lu  Lu5  1  0.85713721  0.37244604  0.86419789  1
  Lu  Lu6  1  0.14286279  0.62755396  0.36419789  1
  Lu  Lu7  1  0.12755396  0.35713721  0.11419789  1
  Ge  Ge8  1  0.64864529  0.39863334  0.38322061  1
  Ge  Ge9  1  0.35135471  0.60136666  0.88322061  1
  Ge  Ge10  1  0.39863334  0.64864529  0.61677939  1
  Ge  Ge11  1  0.89863334  0.85135471  0.13322061  1
  Ge  Ge12  1  0.10136666  0.14864529  0.63322061  1
  Ge  Ge13  1  0.85135471  0.89863334  0.86677939  1
  Ge  Ge14  1  0.14864529  0.10136666  0.36677939  1
  Ge  Ge15  1  0.60136666  0.35135471  0.11677939  1
  O  O16  1  0.30432507  0.69567493  0.75000000  1
  O  O17  1  0.80432507  0.80432507  0.00000000  1
  O  O18  1  0.19567493  0.19567493  0.50000000  1
  O  O19  1  0.69567493  0.30432507  0.25000000  1
  O  O20  1  0.46157331  0.57947145  0.38003090  1
  O  O21  1  0.53842669  0.42052855  0.88003090  1
  O  O22  1  0.57947145  0.46157331  0.61996910  1
  O  O23  1  0.07947145  0.03842669  0.13003090  1
  O  O24  1  0.92052855  0.96157331  0.63003090  1
  O  O25  1  0.03842669  0.07947145  0.86996910  1
  O  O26  1  0.96157331  0.92052855  0.36996910  1
  O  O27  1  0.42052855  0.53842669  0.11996910  1
  O  O28  1  0.33777258  0.93381862  0.32032430  1
  O  O29  1  0.66222742  0.06618138  0.82032430  1
  O  O30  1  0.93381862  0.33777258  0.67967570  1
  O  O31  1  0.43381862  0.16222742  0.07032430  1
  O  O32  1  0.82447341  0.35694353  0.04309964  1
  O  O33  1  0.14305647  0.32447341  0.29309964  1
  O  O34  1  0.85694353  0.67552659  0.79309964  1
  O  O35  1  0.32447341  0.14305647  0.70690036  1
  O  O36  1  0.67552659  0.85694353  0.20690036  1
  O  O37  1  0.17552659  0.64305647  0.54309964  1
  O  O38  1  0.35694353  0.82447341  0.95690036  1
  O  O39  1  0.64305647  0.17552659  0.45690036  1
  O  O40  1  0.06618138  0.66222742  0.17967570  1
  O  O41  1  0.83777258  0.56618138  0.42967570  1
  O  O42  1  0.16222742  0.43381862  0.92967570  1
  O  O43  1  0.56618138  0.83777258  0.57032430  1
