# generated using pymatgen
data_Cd(PO3)2
_symmetry_space_group_name_H-M   'P 1'
_cell_length_a   7.57599934
_cell_length_b   7.57599934
_cell_length_c   10.44956844
_cell_angle_alpha   65.96801028
_cell_angle_beta   65.96801028
_cell_angle_gamma   69.68253713
_symmetry_Int_Tables_number   1
_chemical_formula_structural   Cd(PO3)2
_chemical_formula_sum   'Cd4 P8 O24'
_cell_volume   488.32141452
_cell_formula_units_Z   4
loop_
 _symmetry_equiv_pos_site_id
 _symmetry_equiv_pos_as_xyz
  1  'x, y, z'
loop_
 _atom_site_type_symbol
 _atom_site_label
 _atom_site_symmetry_multiplicity
 _atom_site_fract_x
 _atom_site_fract_y
 _atom_site_fract_z
 _atom_site_occupancy
  Cd  Cd0  1  0.96427835  0.03572165  0.25000000  1
  Cd  Cd1  1  0.03572165  0.96427835  0.75000000  1
  Cd  Cd2  1  0.00000000  0.50000000  -0.00000000  1
  Cd  Cd3  1  0.50000000  -0.00000000  0.50000000  1
  P  P4  1  0.27981800  0.74013233  0.02092689  1
  P  P5  1  0.25986767  0.72018200  0.47907311  1
  P  P6  1  0.72018200  0.25986767  0.97907311  1
  P  P7  1  0.74013233  0.27981800  0.52092689  1
  P  P8  1  0.30978339  0.31273583  0.19161032  1
  P  P9  1  0.68726417  0.69021661  0.30838968  1
  P  P10  1  0.69021661  0.68726417  0.80838968  1
  P  P11  1  0.31273583  0.30978339  0.69161032  1
  O  O12  1  0.18969394  0.91356205  0.07381615  1
  O  O13  1  0.08643795  0.81030606  0.42618385  1
  O  O14  1  0.81030606  0.08643795  0.92618385  1
  O  O15  1  0.91356205  0.18969394  0.57381615  1
  O  O16  1  0.20050893  0.71854311  0.91861050  1
  O  O17  1  0.28145689  0.79949107  0.58138950  1
  O  O18  1  0.79949107  0.28145689  0.08138950  1
  O  O19  1  0.71854311  0.20050893  0.41861050  1
  O  O20  1  0.48838267  0.27060778  0.05198158  1
  O  O21  1  0.72939222  0.51161733  0.44801842  1
  O  O22  1  0.51161733  0.72939222  0.94801842  1
  O  O23  1  0.27060778  0.48838267  0.55198158  1
  O  O24  1  0.27562868  0.54483052  0.16069148  1
  O  O25  1  0.45516948  0.72437132  0.33930852  1
  O  O26  1  0.72437132  0.45516948  0.83930852  1
  O  O27  1  0.54483052  0.27562868  0.66069148  1
  O  O28  1  0.35761221  0.20689579  0.32982282  1
  O  O29  1  0.79310421  0.64238779  0.17017718  1
  O  O30  1  0.64238779  0.79310421  0.67017718  1
  O  O31  1  0.20689579  0.35761221  0.82982282  1
  O  O32  1  0.13412702  0.27873001  0.17937002  1
  O  O33  1  0.72126999  0.86587298  0.32062998  1
  O  O34  1  0.86587298  0.72126999  0.82062998  1
  O  O35  1  0.27873001  0.13412702  0.67937002  1
