# generated using pymatgen
data_HfSnS3
_symmetry_space_group_name_H-M   'P 1'
_cell_length_a   3.70225689
_cell_length_b   9.38317293
_cell_length_c   14.17625343
_cell_angle_alpha   90.00000000
_cell_angle_beta   90.00000000
_cell_angle_gamma   90.00000000
_symmetry_Int_Tables_number   1
_chemical_formula_structural   HfSnS3
_chemical_formula_sum   'Hf4 Sn4 S12'
_cell_volume   492.46768603
_cell_formula_units_Z   4
loop_
 _symmetry_equiv_pos_site_id
 _symmetry_equiv_pos_as_xyz
  1  'x, y, z'
loop_
 _atom_site_type_symbol
 _atom_site_label
 _atom_site_symmetry_multiplicity
 _atom_site_fract_x
 _atom_site_fract_y
 _atom_site_fract_z
 _atom_site_occupancy
  Hf  Hf0  1  0.75000000  0.34359948  0.44968417  1
  Hf  Hf1  1  0.25000000  0.65640052  0.55031583  1
  Hf  Hf2  1  0.75000000  0.84359948  0.05031583  1
  Hf  Hf3  1  0.25000000  0.15640052  0.94968417  1
  Sn  Sn4  1  0.75000000  0.94670308  0.66796601  1
  Sn  Sn5  1  0.25000000  0.05329692  0.33203399  1
  Sn  Sn6  1  0.75000000  0.44670308  0.83203399  1
  Sn  Sn7  1  0.25000000  0.55329692  0.16796601  1
  S  S8  1  0.25000000  0.01541336  0.10422038  1
  S  S9  1  0.75000000  0.98458664  0.89577962  1
  S  S10  1  0.25000000  0.51541336  0.39577962  1
  S  S11  1  0.75000000  0.48458664  0.60422038  1
  S  S12  1  0.25000000  0.17786736  0.50345555  1
  S  S13  1  0.75000000  0.82213264  0.49654445  1
  S  S14  1  0.25000000  0.67786736  0.99654445  1
  S  S15  1  0.75000000  0.32213264  0.00345555  1
  S  S16  1  0.75000000  0.23561417  0.28731750  1
  S  S17  1  0.25000000  0.76438583  0.71268250  1
  S  S18  1  0.75000000  0.73561417  0.21268250  1
  S  S19  1  0.25000000  0.26438583  0.78731750  1
