# generated using pymatgen
data_Na3SbO3
_symmetry_space_group_name_H-M   'P 1'
_cell_length_a   8.17706382
_cell_length_b   8.17707041
_cell_length_c   8.17704941
_cell_angle_alpha   109.47319480
_cell_angle_beta   109.47317028
_cell_angle_gamma   109.47332387
_symmetry_Int_Tables_number   1
_chemical_formula_structural   Na3SbO3
_chemical_formula_sum   'Na12 Sb4 O12'
_cell_volume   420.85990018
_cell_formula_units_Z   4
loop_
 _symmetry_equiv_pos_site_id
 _symmetry_equiv_pos_as_xyz
  1  'x, y, z'
loop_
 _atom_site_type_symbol
 _atom_site_label
 _atom_site_symmetry_multiplicity
 _atom_site_fract_x
 _atom_site_fract_y
 _atom_site_fract_z
 _atom_site_occupancy
  Na  Na0  1  0.24317768  0.72283365  0.72283378  1
  Na  Na1  1  0.72283351  0.72283319  0.24317772  1
  Na  Na2  1  0.72283402  0.24317753  0.72283398  1
  Na  Na3  1  -0.00006277  0.52024884  0.27715896  1
  Na  Na4  1  -0.00006283  0.27715856  0.52024923  1
  Na  Na5  1  0.75694516  0.47976675  0.47976692  1
  Na  Na6  1  0.47976705  0.47976690  0.75694521  1
  Na  Na7  1  0.52024953  0.27715866  -0.00006266  1
  Na  Na8  1  0.27715848  -0.00006296  0.52024942  1
  Na  Na9  1  0.52024988  -0.00006278  0.27715927  1
  Na  Na10  1  0.47976723  0.75694489  0.47976742  1
  Na  Na11  1  0.27715860  0.52024865  -0.00006324  1
  Sb  Sb12  1  0.00003766  0.71030418  0.00003957  1
  Sb  Sb13  1  0.00003936  0.00003956  0.71030114  1
  Sb  Sb14  1  0.28964029  0.28964057  0.28964056  1
  Sb  Sb15  1  0.71030147  0.00003926  0.00003974  1
  O  O16  1  0.48189878  0.26021895  0.48189885  1
  O  O17  1  0.26021928  0.48189872  0.48189900  1
  O  O18  1  0.48189854  0.48189833  0.26021901  1
  O  O19  1  0.51802971  0.77830813  0.00002595  1
  O  O20  1  0.77830840  0.00002562  0.51802936  1
  O  O21  1  0.51802966  0.00002558  0.77830852  1
  O  O22  1  0.22174391  0.73973439  0.22174402  1
  O  O23  1  0.77830841  0.51802899  0.00002552  1
  O  O24  1  0.00002528  0.51803067  0.77830615  1
  O  O25  1  0.22174391  0.22174378  0.73973497  1
  O  O26  1  0.73973518  0.22174396  0.22174408  1
  O  O27  1  0.00002561  0.77830841  0.51802953  1
