# generated using pymatgen
data_AlCuSe2
_symmetry_space_group_name_H-M   'P 1'
_cell_length_a   5.58689573
_cell_length_b   5.58689546
_cell_length_c   6.79504529
_cell_angle_alpha   114.27399356
_cell_angle_beta   114.27399326
_cell_angle_gamma   90.00000801
_symmetry_Int_Tables_number   1
_chemical_formula_structural   AlCuSe2
_chemical_formula_sum   'Al2 Cu2 Se4'
_cell_volume   172.56789466
_cell_formula_units_Z   2
loop_
 _symmetry_equiv_pos_site_id
 _symmetry_equiv_pos_as_xyz
  1  'x, y, z'
loop_
 _atom_site_type_symbol
 _atom_site_label
 _atom_site_symmetry_multiplicity
 _atom_site_fract_x
 _atom_site_fract_y
 _atom_site_fract_z
 _atom_site_occupancy
  Al  Al0  1  0.75000000  0.25000000  0.50000000  1
  Al  Al1  1  0.50000000  0.50000000  0.00000000  1
  Cu  Cu2  1  0.25000000  0.75000000  0.50000000  1
  Cu  Cu3  1  0.00000000  0.00000000  0.00000000  1
  Se  Se4  1  0.37789564  0.37500000  0.25000000  1
  Se  Se5  1  0.12500000  0.62210436  0.75000000  1
  Se  Se6  1  0.62500000  0.12789564  0.75000000  1
  Se  Se7  1  0.87210436  0.87500000  0.25000000  1
