# generated using pymatgen
data_CsSi
_symmetry_space_group_name_H-M   'P 1'
_cell_length_a   12.31712188
_cell_length_b   12.31710572
_cell_length_c   12.31713297
_cell_angle_alpha   124.76082201
_cell_angle_beta   124.76068096
_cell_angle_gamma   81.93468385
_symmetry_Int_Tables_number   1
_chemical_formula_structural   CsSi
_chemical_formula_sum   'Cs16 Si16'
_cell_volume   1213.02135539
_cell_formula_units_Z   16
loop_
 _symmetry_equiv_pos_site_id
 _symmetry_equiv_pos_as_xyz
  1  'x, y, z'
loop_
 _atom_site_type_symbol
 _atom_site_label
 _atom_site_symmetry_multiplicity
 _atom_site_fract_x
 _atom_site_fract_y
 _atom_site_fract_z
 _atom_site_occupancy
  Cs  Cs0  1  0.39098039  0.74999834  0.14098071  1
  Cs  Cs1  1  0.10901544  0.25000258  0.35901231  1
  Cs  Cs2  1  0.75000129  0.10901696  0.35901721  1
  Cs  Cs3  1  0.24999750  0.39098567  0.14098526  1
  Cs  Cs4  1  0.75000198  0.60901340  0.85901184  1
  Cs  Cs5  1  0.24999775  0.89098293  0.64098184  1
  Cs  Cs6  1  0.89098786  0.75000101  0.64098956  1
  Cs  Cs7  1  0.60901685  0.25000055  0.85901684  1
  Cs  Cs8  1  0.49537767  0.24538090  0.49076238  1
  Cs  Cs9  1  0.25461237  0.00461762  0.00923495  1
  Cs  Cs10  1  0.00462100  0.49538492  0.75000077  1
  Cs  Cs11  1  0.24538556  0.25462048  0.75000303  1
  Cs  Cs12  1  0.50461809  0.75461821  0.50923386  1
  Cs  Cs13  1  0.74538553  0.99538607  0.99076336  1
  Cs  Cs14  1  0.99538113  0.50461569  0.25000088  1
  Cs  Cs15  1  0.75461569  0.74537874  0.25000087  1
  Si  Si16  1  0.58115181  0.47706476  0.21661387  1
  Si  Si17  1  0.76045125  0.36453983  0.28338802  1
  Si  Si18  1  0.91885102  0.13546607  0.89591768  1
  Si  Si19  1  0.73955204  0.02293592  0.60409026  1
  Si  Si20  1  0.02293707  0.91884902  0.28338433  1
  Si  Si21  1  0.13546420  0.73955118  0.21661238  1
  Si  Si22  1  0.36453207  0.58114826  0.60408295  1
  Si  Si23  1  0.47706177  0.76044736  0.89591014  1
  Si  Si24  1  0.41884565  0.52293464  0.78338318  1
  Si  Si25  1  0.23954680  0.63546031  0.71660900  1
  Si  Si26  1  0.08115240  0.86453577  0.10408574  1
  Si  Si27  1  0.26045064  0.97706614  0.39591338  1
  Si  Si28  1  0.97706442  0.08115145  0.71661667  1
  Si  Si29  1  0.86453891  0.26045084  0.78339061  1
  Si  Si30  1  0.63546629  0.41885158  0.39591469  1
  Si  Si31  1  0.52293657  0.23955180  0.10408739  1
