# generated using pymatgen
data_S
_symmetry_space_group_name_H-M   'P 1'
_cell_length_a   6.17737842
_cell_length_b   15.54675498
_cell_length_c   15.56810536
_cell_angle_alpha   91.91256174
_cell_angle_beta   90.00001773
_cell_angle_gamma   89.99979468
_symmetry_Int_Tables_number   1
_chemical_formula_structural   S
_chemical_formula_sum   S56
_cell_volume   1494.29973647
_cell_formula_units_Z   56
loop_
 _symmetry_equiv_pos_site_id
 _symmetry_equiv_pos_as_xyz
  1  'x, y, z'
loop_
 _atom_site_type_symbol
 _atom_site_label
 _atom_site_symmetry_multiplicity
 _atom_site_fract_x
 _atom_site_fract_y
 _atom_site_fract_z
 _atom_site_occupancy
  S  S0  1  0.93583876  0.51311092  0.21536422  1
  S  S1  1  0.43583857  0.98687303  0.28465622  1
  S  S2  1  0.06412675  0.48684996  0.78462173  1
  S  S3  1  0.56413681  0.01315771  0.71536385  1
  S  S4  1  0.19920196  0.61279047  0.57330533  1
  S  S5  1  0.69919538  0.88719431  0.92669349  1
  S  S6  1  0.80079969  0.38720389  0.42671575  1
  S  S7  1  0.30078882  0.11281079  0.07329118  1
  S  S8  1  0.86521739  0.82931579  0.58248878  1
  S  S9  1  0.36521521  0.67067051  0.91749441  1
  S  S10  1  0.13478910  0.17068793  0.41755358  1
  S  S11  1  0.63477967  0.32933177  0.08246461  1
  S  S12  1  0.85962785  0.61256538  0.55626108  1
  S  S13  1  0.35961388  0.88741885  0.94372965  1
  S  S14  1  0.14037110  0.38744113  0.44375291  1
  S  S15  1  0.64036041  0.11257475  0.05625463  1
  S  S16  1  0.74051268  0.78291670  0.68809072  1
  S  S17  1  0.24052364  0.71707231  0.81189188  1
  S  S18  1  0.25953332  0.21707603  0.31195014  1
  S  S19  1  0.75953291  0.28294121  0.18806485  1
  S  S20  1  0.73150651  0.64156690  0.66963152  1
  S  S21  1  0.23150847  0.85842043  0.83035496  1
  S  S22  1  0.26848008  0.35842658  0.33038291  1
  S  S23  1  0.76847409  0.14158824  0.16962808  1
  S  S24  1  0.83861009  0.57300552  0.10749787  1
  S  S25  1  0.33861513  0.92697259  0.39252581  1
  S  S26  1  0.16136846  0.42696823  0.89248938  1
  S  S27  1  0.66137601  0.07303753  0.60748938  1
  S  S28  1  0.86323656  0.59363855  0.31763261  1
  S  S29  1  0.36323173  0.90635249  0.18238494  1
  S  S30  1  0.13676454  0.40632687  0.68235524  1
  S  S31  1  0.63677297  0.09368059  0.81762689  1
  S  S32  1  0.49845141  0.55850197  0.11192301  1
  S  S33  1  0.99846001  0.94148392  0.38809799  1
  S  S34  1  0.50152022  0.44149029  0.88806088  1
  S  S35  1  0.00152343  0.05851603  0.61192419  1
  S  S36  1  0.52350357  0.57959549  0.32921847  1
  S  S37  1  0.02350327  0.92039939  0.17079482  1
  S  S38  1  0.47648218  0.42038672  0.67076605  1
  S  S39  1  0.97649547  0.07962160  0.82921533  1
  S  S40  1  0.37735266  0.67229781  0.14505867  1
  S  S41  1  0.87734549  0.82769429  0.35495506  1
  S  S42  1  0.62267143  0.32770294  0.85492422  1
  S  S43  1  0.12266598  0.17230634  0.64505016  1
  S  S44  1  0.39377254  0.68597412  0.28632886  1
  S  S45  1  0.89376356  0.81401977  0.21368452  1
  S  S46  1  0.60626395  0.31401941  0.71365938  1
  S  S47  1  0.10628131  0.18599324  0.78631683  1
  S  S48  1  0.29002611  0.72267710  0.51531438  1
  S  S49  1  0.78999720  0.77730703  0.98468545  1
  S  S50  1  0.70998714  0.27731565  0.48471330  1
  S  S51  1  0.20997875  0.22270239  0.01529896  1
  S  S52  1  0.20562173  0.82297688  0.59642469  1
  S  S53  1  0.70561906  0.67701281  0.90356313  1
  S  S54  1  0.79438851  0.17702291  0.40359955  1
  S  S55  1  0.29437552  0.32299291  0.09641648  1
