# generated using pymatgen
data_Cs2MoSe4
_symmetry_space_group_name_H-M   'P 1'
_cell_length_a   7.54533652
_cell_length_b   10.52459549
_cell_length_c   13.29249043
_cell_angle_alpha   90.00000000
_cell_angle_beta   90.00000000
_cell_angle_gamma   90.00000000
_symmetry_Int_Tables_number   1
_chemical_formula_structural   Cs2MoSe4
_chemical_formula_sum   'Cs8 Mo4 Se16'
_cell_volume   1055.57812855
_cell_formula_units_Z   4
loop_
 _symmetry_equiv_pos_site_id
 _symmetry_equiv_pos_as_xyz
  1  'x, y, z'
loop_
 _atom_site_type_symbol
 _atom_site_label
 _atom_site_symmetry_multiplicity
 _atom_site_fract_x
 _atom_site_fract_y
 _atom_site_fract_z
 _atom_site_occupancy
  Cs  Cs0  1  0.75000000  0.45724385  0.66226967  1
  Cs  Cs1  1  0.25000000  0.04275615  0.16226967  1
  Cs  Cs2  1  0.75000000  0.95724385  0.83773033  1
  Cs  Cs3  1  0.25000000  0.54275615  0.33773033  1
  Cs  Cs4  1  0.75000000  0.16179020  0.39206373  1
  Cs  Cs5  1  0.25000000  0.33820980  0.89206373  1
  Cs  Cs6  1  0.75000000  0.66179020  0.10793627  1
  Cs  Cs7  1  0.25000000  0.83820980  0.60793627  1
  Mo  Mo8  1  0.75000000  0.25290848  0.07598950  1
  Mo  Mo9  1  0.25000000  0.24709152  0.57598950  1
  Mo  Mo10  1  0.75000000  0.75290848  0.42401050  1
  Mo  Mo11  1  0.25000000  0.74709152  0.92401050  1
  Se  Se12  1  0.75000000  0.28662045  0.90404396  1
  Se  Se13  1  0.25000000  0.21337955  0.40404396  1
  Se  Se14  1  0.75000000  0.78662045  0.59595604  1
  Se  Se15  1  0.25000000  0.71337955  0.09595604  1
  Se  Se16  1  0.75000000  0.53635159  0.38915335  1
  Se  Se17  1  0.25000000  0.96364841  0.88915335  1
  Se  Se18  1  0.75000000  0.03635159  0.11084665  1
  Se  Se19  1  0.25000000  0.46364841  0.61084665  1
  Se  Se20  1  0.00133621  0.15348242  0.64512613  1
  Se  Se21  1  -0.00133621  0.34651758  0.14512613  1
  Se  Se22  1  0.49866379  0.65348242  0.85487387  1
  Se  Se23  1  0.50133621  0.84651758  0.35487387  1
  Se  Se24  1  -0.00133621  0.84651758  0.35487387  1
  Se  Se25  1  0.00133621  0.65348242  0.85487387  1
  Se  Se26  1  0.50133621  0.34651758  0.14512613  1
  Se  Se27  1  0.49866379  0.15348242  0.64512613  1
