# generated using pymatgen
data_K2As2Pd
_symmetry_space_group_name_H-M   'P 1'
_cell_length_a   6.00301851
_cell_length_b   6.51798905
_cell_length_c   7.93549515
_cell_angle_alpha   114.24792161
_cell_angle_beta   90.00000000
_cell_angle_gamma   90.00000000
_symmetry_Int_Tables_number   1
_chemical_formula_structural   K2As2Pd
_chemical_formula_sum   'K4 As4 Pd2'
_cell_volume   283.10396045
_cell_formula_units_Z   2
loop_
 _symmetry_equiv_pos_site_id
 _symmetry_equiv_pos_as_xyz
  1  'x, y, z'
loop_
 _atom_site_type_symbol
 _atom_site_label
 _atom_site_symmetry_multiplicity
 _atom_site_fract_x
 _atom_site_fract_y
 _atom_site_fract_z
 _atom_site_occupancy
  K  K0  1  0.75000000  0.42014490  0.84028880  1
  K  K1  1  0.25000000  0.57985510  0.15971120  1
  K  K2  1  0.75000000  0.79469759  0.58939618  1
  K  K3  1  0.25000000  0.20530241  0.41060382  1
  As  As4  1  0.25000000  0.70354399  0.77664748  1
  As  As5  1  0.75000000  0.29645601  0.22335252  1
  As  As6  1  0.75000000  0.92689652  0.22335252  1
  As  As7  1  0.25000000  0.07310348  0.77664748  1
  Pd  Pd8  1  0.00000000  0.00000000  0.00000000  1
  Pd  Pd9  1  0.50000000  0.00000000  0.00000000  1
