# generated using pymatgen
data_Sr2CdAs2
_symmetry_space_group_name_H-M   'P 1'
_cell_length_a   8.78287867
_cell_length_b   8.78287867
_cell_length_c   7.66288762
_cell_angle_alpha   90.00000000
_cell_angle_beta   90.00000000
_cell_angle_gamma   150.54367023
_symmetry_Int_Tables_number   1
_chemical_formula_structural   Sr2CdAs2
_chemical_formula_sum   'Sr4 Cd2 As4'
_cell_volume   290.68288332
_cell_formula_units_Z   2
loop_
 _symmetry_equiv_pos_site_id
 _symmetry_equiv_pos_as_xyz
  1  'x, y, z'
loop_
 _atom_site_type_symbol
 _atom_site_label
 _atom_site_symmetry_multiplicity
 _atom_site_fract_x
 _atom_site_fract_y
 _atom_site_fract_z
 _atom_site_occupancy
  Sr  Sr0  1  0.53448587  0.46551413  0.23554883  1
  Sr  Sr1  1  0.70294433  0.29705567  0.89203969  1
  Sr  Sr2  1  0.29705567  0.70294433  0.39203969  1
  Sr  Sr3  1  0.46551413  0.53448587  0.73554883  1
  Cd  Cd4  1  0.09575752  0.90424248  0.57889041  1
  Cd  Cd5  1  0.90424248  0.09575752  0.07889041  1
  As  As6  1  0.06271058  0.93728942  0.94064928  1
  As  As7  1  0.67495765  0.32504235  0.48723078  1
  As  As8  1  0.32504235  0.67495765  0.98723078  1
  As  As9  1  0.93728942  0.06271058  0.44064928  1
