# generated using pymatgen
data_CdSnO3
_symmetry_space_group_name_H-M   'P 1'
_cell_length_a   5.47790823
_cell_length_b   5.60073751
_cell_length_c   7.91411222
_cell_angle_alpha   90.00000000
_cell_angle_beta   90.00000000
_cell_angle_gamma   90.00000000
_symmetry_Int_Tables_number   1
_chemical_formula_structural   CdSnO3
_chemical_formula_sum   'Cd4 Sn4 O12'
_cell_volume   242.80754370
_cell_formula_units_Z   4
loop_
 _symmetry_equiv_pos_site_id
 _symmetry_equiv_pos_as_xyz
  1  'x, y, z'
loop_
 _atom_site_type_symbol
 _atom_site_label
 _atom_site_symmetry_multiplicity
 _atom_site_fract_x
 _atom_site_fract_y
 _atom_site_fract_z
 _atom_site_occupancy
  Cd  Cd0  1  0.01189613  0.95334974  0.75000000  1
  Cd  Cd1  1  0.48810387  0.45334974  0.75000000  1
  Cd  Cd2  1  0.51189613  0.54665026  0.25000000  1
  Cd  Cd3  1  0.98810387  0.04665026  0.25000000  1
  Sn  Sn4  1  0.00000000  0.50000000  0.00000000  1
  Sn  Sn5  1  0.00000000  0.50000000  0.50000000  1
  Sn  Sn6  1  0.50000000  0.00000000  0.00000000  1
  Sn  Sn7  1  0.50000000  0.00000000  0.50000000  1
  O  O8  1  0.11260973  0.44953684  0.25000000  1
  O  O9  1  0.19462543  0.19809466  0.56052039  1
  O  O10  1  0.19462543  0.19809466  0.93947961  1
  O  O11  1  0.30537457  0.69809466  0.56052039  1
  O  O12  1  0.30537457  0.69809466  0.93947961  1
  O  O13  1  0.38739027  0.94953684  0.25000000  1
  O  O14  1  0.61260973  0.05046316  0.75000000  1
  O  O15  1  0.69462543  0.30190534  0.06052039  1
  O  O16  1  0.69462543  0.30190534  0.43947961  1
  O  O17  1  0.80537457  0.80190534  0.06052039  1
  O  O18  1  0.80537457  0.80190534  0.43947961  1
  O  O19  1  0.88739027  0.55046316  0.75000000  1
