# generated using pymatgen
data_Li4CrP2O9
_symmetry_space_group_name_H-M   'P 1'
_cell_length_a   14.74933845
_cell_length_b   14.40646015
_cell_length_c   6.73252972
_cell_angle_alpha   90.00000000
_cell_angle_beta   90.00000000
_cell_angle_gamma   90.00000000
_symmetry_Int_Tables_number   1
_chemical_formula_structural   Li4CrP2O9
_chemical_formula_sum   'Li32 Cr8 P16 O72'
_cell_volume   1430.56667151
_cell_formula_units_Z   8
loop_
 _symmetry_equiv_pos_site_id
 _symmetry_equiv_pos_as_xyz
  1  'x, y, z'
loop_
 _atom_site_type_symbol
 _atom_site_label
 _atom_site_symmetry_multiplicity
 _atom_site_fract_x
 _atom_site_fract_y
 _atom_site_fract_z
 _atom_site_occupancy
  Li  Li0  1  0.00384093  0.00257776  0.77841520  1
  Li  Li1  1  0.00384093  0.49742224  0.27841520  1
  Li  Li2  1  0.02489064  0.24724060  0.24506991  1
  Li  Li3  1  0.02489064  0.25275940  0.74506991  1
  Li  Li4  1  0.12307663  0.62872961  0.00115369  1
  Li  Li5  1  0.12307663  0.87127039  0.50115369  1
  Li  Li6  1  0.22779567  0.01905349  0.19798383  1
  Li  Li7  1  0.22779567  0.48094651  0.69798383  1
  Li  Li8  1  0.27220433  0.51905349  0.19798383  1
  Li  Li9  1  0.27220433  0.98094651  0.69798383  1
  Li  Li10  1  0.37692337  0.12872961  0.00115369  1
  Li  Li11  1  0.37692337  0.37127039  0.50115369  1
  Li  Li12  1  0.47510936  0.74724060  0.24506991  1
  Li  Li13  1  0.47510936  0.75275940  0.74506991  1
  Li  Li14  1  0.49615907  0.50257776  0.77841520  1
  Li  Li15  1  0.49615907  0.99742224  0.27841520  1
  Li  Li16  1  0.50384093  0.00257776  0.72158480  1
  Li  Li17  1  0.50384093  0.49742224  0.22158480  1
  Li  Li18  1  0.52489064  0.24724060  0.25493009  1
  Li  Li19  1  0.52489064  0.25275940  0.75493009  1
  Li  Li20  1  0.62307663  0.62872961  0.49884631  1
  Li  Li21  1  0.62307663  0.87127039  0.99884631  1
  Li  Li22  1  0.72779567  0.01905349  0.30201617  1
  Li  Li23  1  0.72779567  0.48094651  0.80201617  1
  Li  Li24  1  0.77220433  0.51905349  0.30201617  1
  Li  Li25  1  0.77220433  0.98094651  0.80201617  1
  Li  Li26  1  0.87692337  0.12872961  0.49884631  1
  Li  Li27  1  0.87692337  0.37127039  0.99884631  1
  Li  Li28  1  0.97510936  0.74724060  0.25493009  1
  Li  Li29  1  0.97510936  0.75275940  0.75493009  1
  Li  Li30  1  0.99615907  0.50257776  0.72158480  1
  Li  Li31  1  0.99615907  0.99742224  0.22158480  1
  Cr  Cr32  1  0.23319151  0.24638921  0.75243636  1
  Cr  Cr33  1  0.23319151  0.25361079  0.25243636  1
  Cr  Cr34  1  0.26680849  0.74638921  0.75243636  1
  Cr  Cr35  1  0.26680849  0.75361079  0.25243636  1
  Cr  Cr36  1  0.73319151  0.24638921  0.74756364  1
  Cr  Cr37  1  0.73319151  0.25361079  0.24756364  1
  Cr  Cr38  1  0.76680849  0.74638921  0.74756364  1
  Cr  Cr39  1  0.76680849  0.75361079  0.24756364  1
  P  P40  1  0.11300077  0.10408166  0.49760218  1
  P  P41  1  0.11300077  0.39591834  0.99760218  1
  P  P42  1  0.11756085  0.63822639  0.50170970  1
  P  P43  1  0.11756085  0.86177361  0.00170970  1
  P  P44  1  0.38243915  0.13822639  0.50170970  1
  P  P45  1  0.38243915  0.36177361  0.00170970  1
  P  P46  1  0.38699923  0.60408166  0.49760218  1
  P  P47  1  0.38699923  0.89591834  0.99760218  1
  P  P48  1  0.61300077  0.10408166  0.00239782  1
  P  P49  1  0.61300077  0.39591834  0.50239782  1
  P  P50  1  0.61756085  0.63822639  0.99829030  1
  P  P51  1  0.61756085  0.86177361  0.49829030  1
  P  P52  1  0.88243915  0.13822639  0.99829030  1
  P  P53  1  0.88243915  0.36177361  0.49829030  1
  P  P54  1  0.88699923  0.60408166  0.00239782  1
  P  P55  1  0.88699923  0.89591834  0.50239782  1
  O  O56  1  0.00997894  0.08863322  0.49790690  1
  O  O57  1  0.00997894  0.41136678  0.99790690  1
  O  O58  1  0.04371511  0.78620644  0.00566743  1
  O  O59  1  0.04371511  0.71379356  0.50566743  1
  O  O60  1  0.08277374  0.53748514  0.50546152  1
  O  O61  1  0.08277374  0.96251486  0.00546152  1
  O  O62  1  0.13222882  0.16550212  0.68598075  1
  O  O63  1  0.13222882  0.33449788  0.18598075  1
  O  O64  1  0.13527762  0.16005520  0.30430614  1
  O  O65  1  0.13527762  0.33994480  0.80430614  1
  O  O66  1  0.16987937  0.01395674  0.49875719  1
  O  O67  1  0.16987937  0.48604326  0.99875719  1
  O  O68  1  0.17563374  0.64881180  0.30617280  1
  O  O69  1  0.17563374  0.85118820  0.80617280  1
  O  O70  1  0.17816012  0.64597047  0.69374502  1
  O  O71  1  0.17816012  0.85402953  0.19374502  1
  O  O72  1  0.24718381  0.20579408  0.00203708  1
  O  O73  1  0.24718381  0.29420592  0.50203708  1
  O  O74  1  0.25281619  0.70579408  0.00203708  1
  O  O75  1  0.25281619  0.79420592  0.50203708  1
  O  O76  1  0.32183988  0.14597047  0.69374502  1
  O  O77  1  0.32183988  0.35402953  0.19374502  1
  O  O78  1  0.32436626  0.14881180  0.30617280  1
  O  O79  1  0.32436626  0.35118820  0.80617280  1
  O  O80  1  0.33012063  0.51395674  0.49875719  1
  O  O81  1  0.33012063  0.98604326  0.99875719  1
  O  O82  1  0.36472238  0.66005520  0.30430614  1
  O  O83  1  0.36472238  0.83994480  0.80430614  1
  O  O84  1  0.36777118  0.66550212  0.68598075  1
  O  O85  1  0.36777118  0.83449788  0.18598075  1
  O  O86  1  0.41722626  0.03748514  0.50546152  1
  O  O87  1  0.41722626  0.46251486  0.00546152  1
  O  O88  1  0.45628489  0.21379356  0.50566743  1
  O  O89  1  0.45628489  0.28620644  0.00566743  1
  O  O90  1  0.49002106  0.58863322  0.49790690  1
  O  O91  1  0.49002106  0.91136678  0.99790690  1
  O  O92  1  0.50997894  0.08863322  0.00209310  1
  O  O93  1  0.50997894  0.41136678  0.50209310  1
  O  O94  1  0.54371511  0.71379356  0.99433257  1
  O  O95  1  0.54371511  0.78620644  0.49433257  1
  O  O96  1  0.58277374  0.53748514  0.99453848  1
  O  O97  1  0.58277374  0.96251486  0.49453848  1
  O  O98  1  0.63222882  0.16550212  0.81401925  1
  O  O99  1  0.63222882  0.33449788  0.31401925  1
  O  O100  1  0.63527762  0.16005520  0.19569386  1
  O  O101  1  0.63527762  0.33994480  0.69569386  1
  O  O102  1  0.66987937  0.01395674  0.00124281  1
  O  O103  1  0.66987937  0.48604326  0.50124281  1
  O  O104  1  0.67563374  0.64881180  0.19382720  1
  O  O105  1  0.67563374  0.85118820  0.69382720  1
  O  O106  1  0.67816012  0.64597047  0.80625498  1
  O  O107  1  0.67816012  0.85402953  0.30625498  1
  O  O108  1  0.74718381  0.20579408  0.49796292  1
  O  O109  1  0.74718381  0.29420592  0.99796292  1
  O  O110  1  0.75281619  0.70579408  0.49796292  1
  O  O111  1  0.75281619  0.79420592  0.99796292  1
  O  O112  1  0.82183988  0.14597047  0.80625498  1
  O  O113  1  0.82183988  0.35402953  0.30625498  1
  O  O114  1  0.82436626  0.14881180  0.19382720  1
  O  O115  1  0.82436626  0.35118820  0.69382720  1
  O  O116  1  0.83012063  0.51395674  0.00124281  1
  O  O117  1  0.83012063  0.98604326  0.50124281  1
  O  O118  1  0.86472238  0.66005520  0.19569386  1
  O  O119  1  0.86472238  0.83994480  0.69569386  1
  O  O120  1  0.86777118  0.66550212  0.81401925  1
  O  O121  1  0.86777118  0.83449788  0.31401925  1
  O  O122  1  0.91722626  0.03748514  0.99453848  1
  O  O123  1  0.91722626  0.46251486  0.49453848  1
  O  O124  1  0.95628489  0.21379356  0.99433257  1
  O  O125  1  0.95628489  0.28620644  0.49433257  1
  O  O126  1  0.99002106  0.58863322  0.00209310  1
  O  O127  1  0.99002106  0.91136678  0.50209310  1
