# generated using pymatgen
data_BaTe3
_symmetry_space_group_name_H-M   'P 1'
_cell_length_a   4.48622749
_cell_length_b   8.07663720
_cell_length_c   8.07663720
_cell_angle_alpha   90.00000000
_cell_angle_beta   90.00000000
_cell_angle_gamma   90.00000000
_symmetry_Int_Tables_number   1
_chemical_formula_structural   BaTe3
_chemical_formula_sum   'Ba2 Te6'
_cell_volume   292.64589876
_cell_formula_units_Z   2
loop_
 _symmetry_equiv_pos_site_id
 _symmetry_equiv_pos_as_xyz
  1  'x, y, z'
loop_
 _atom_site_type_symbol
 _atom_site_label
 _atom_site_symmetry_multiplicity
 _atom_site_fract_x
 _atom_site_fract_y
 _atom_site_fract_z
 _atom_site_occupancy
  Ba  Ba0  1  0.00000000  0.50000000  0.50000000  1
  Ba  Ba1  1  0.00000000  -0.00000000  -0.00000000  1
  Te  Te2  1  0.49253965  0.80056401  0.30056401  1
  Te  Te3  1  0.50746035  0.30056401  0.19943599  1
  Te  Te4  1  0.12814062  -0.00000000  0.50000000  1
  Te  Te5  1  0.87185938  0.50000000  -0.00000000  1
  Te  Te6  1  0.49253965  0.19943599  0.69943599  1
  Te  Te7  1  0.50746035  0.69943599  0.80056401  1
