# generated using pymatgen
data_YSnF7
_symmetry_space_group_name_H-M   'P 1'
_cell_length_a   5.72577750
_cell_length_b   5.95049900
_cell_length_c   8.13821318
_cell_angle_alpha   76.89292719
_cell_angle_beta   90.00000000
_cell_angle_gamma   90.00000000
_symmetry_Int_Tables_number   1
_chemical_formula_structural   YSnF7
_chemical_formula_sum   'Y2 Sn2 F14'
_cell_volume   270.05528313
_cell_formula_units_Z   2
loop_
 _symmetry_equiv_pos_site_id
 _symmetry_equiv_pos_as_xyz
  1  'x, y, z'
loop_
 _atom_site_type_symbol
 _atom_site_label
 _atom_site_symmetry_multiplicity
 _atom_site_fract_x
 _atom_site_fract_y
 _atom_site_fract_z
 _atom_site_occupancy
  Y  Y0  1  0.75424774  0.15483367  0.81010810  1
  Y  Y1  1  0.25424774  0.84516633  0.18989190  1
  Sn  Sn2  1  0.76025385  0.31458917  0.27364163  1
  Sn  Sn3  1  0.26025385  0.68541083  0.72635837  1
  F  F4  1  0.47074910  0.02851517  0.98632039  1
  F  F5  1  0.97074910  0.97148483  0.01367961  1
  F  F6  1  0.49162719  0.43634469  0.73598722  1
  F  F7  1  0.99162719  0.56365531  0.26401278  1
  F  F8  1  0.75561336  0.27266246  0.52046348  1
  F  F9  1  0.25561336  0.72733754  0.47953652  1
  F  F10  1  0.01711793  0.44348699  0.74247522  1
  F  F11  1  0.51711793  0.55651301  0.25752478  1
  F  F12  1  0.52672590  0.90313771  0.70393670  1
  F  F13  1  0.02672590  0.09686229  0.29606330  1
  F  F14  1  0.52421232  0.06746280  0.29673581  1
  F  F15  1  0.02421232  0.93253720  0.70326419  1
  F  F16  1  0.76135261  0.36994957  0.02557093  1
  F  F17  1  0.26135261  0.63005043  0.97442907  1
