# generated using pymatgen
data_YNb2NO5
_symmetry_space_group_name_H-M   'P 1'
_cell_length_a   14.95658608
_cell_length_b   5.27082564
_cell_length_c   5.69253176
_cell_angle_alpha   89.85353886
_cell_angle_beta   90.00000000
_cell_angle_gamma   90.00000000
_symmetry_Int_Tables_number   1
_chemical_formula_structural   YNb2NO5
_chemical_formula_sum   'Y4 Nb8 N4 O20'
_cell_volume   448.76106294
_cell_formula_units_Z   4
loop_
 _symmetry_equiv_pos_site_id
 _symmetry_equiv_pos_as_xyz
  1  'x, y, z'
loop_
 _atom_site_type_symbol
 _atom_site_label
 _atom_site_symmetry_multiplicity
 _atom_site_fract_x
 _atom_site_fract_y
 _atom_site_fract_z
 _atom_site_occupancy
  Y  Y0  1  0.25192594  0.73920079  0.73571803  1
  Y  Y1  1  0.25100600  0.26000477  0.26778611  1
  Y  Y2  1  0.74899400  0.26000477  0.76778611  1
  Y  Y3  1  0.74807406  0.73920079  0.23571803  1
  Nb  Nb4  1  0.42228457  0.29749484  0.80459828  1
  Nb  Nb5  1  0.41600414  0.81684058  0.18997148  1
  Nb  Nb6  1  0.58399586  0.81684058  0.68997148  1
  Nb  Nb7  1  0.57771543  0.29749484  0.30459828  1
  Nb  Nb8  1  0.91259750  0.68568465  0.69965476  1
  Nb  Nb9  1  0.91542678  0.18669976  0.30972422  1
  Nb  Nb10  1  0.08457322  0.18669976  0.80972422  1
  Nb  Nb11  1  0.08740250  0.68568465  0.19965476  1
  N  N12  1  0.49030521  0.12980354  0.11792458  1
  N  N13  1  0.50969479  0.12980354  0.61792458  1
  N  N14  1  0.83683683  0.58247111  0.92405750  1
  N  N15  1  0.16316317  0.58247111  0.42405750  1
  O  O16  1  0.33407847  0.92257352  0.41290899  1
  O  O17  1  0.33601171  0.41876095  0.58559774  1
  O  O18  1  0.34008042  0.02771858  0.93151374  1
  O  O19  1  0.34034490  0.53842672  0.05868634  1
  O  O20  1  0.49216401  0.62999052  0.86472809  1
  O  O21  1  0.50783599  0.62999052  0.36472809  1
  O  O22  1  0.65965510  0.53842672  0.55868634  1
  O  O23  1  0.65991958  0.02771858  0.43151374  1
  O  O24  1  0.66592153  0.92257352  0.91290899  1
  O  O25  1  0.66398829  0.41876095  0.08559774  1
  O  O26  1  0.83274550  0.08069574  0.09202257  1
  O  O27  1  0.84120173  0.97755642  0.56591811  1
  O  O28  1  0.84186681  0.46976339  0.44230303  1
  O  O29  1  0.99112131  0.35899513  0.63509461  1
  O  O30  1  0.99028579  0.87731899  0.36179180  1
  O  O31  1  0.00971421  0.87731899  0.86179180  1
  O  O32  1  0.00887869  0.35899513  0.13509461  1
  O  O33  1  0.15813319  0.46976339  0.94230303  1
  O  O34  1  0.15879827  0.97755642  0.06591811  1
  O  O35  1  0.16725450  0.08069574  0.59202257  1
