# generated using pymatgen
data_Sm27Y5O48
_symmetry_space_group_name_H-M   'P 1'
_cell_length_a   9.49298700
_cell_length_b   9.48045369
_cell_length_c   15.49796264
_cell_angle_alpha   90.01727119
_cell_angle_beta   90.02749820
_cell_angle_gamma   109.46098244
_symmetry_Int_Tables_number   1
_chemical_formula_structural   Sm27Y5O48
_chemical_formula_sum   'Sm27 Y5 O48'
_cell_volume   1315.09668480
_cell_formula_units_Z   1
loop_
 _symmetry_equiv_pos_site_id
 _symmetry_equiv_pos_as_xyz
  1  'x, y, z'
loop_
 _atom_site_type_symbol
 _atom_site_label
 _atom_site_symmetry_multiplicity
 _atom_site_fract_x
 _atom_site_fract_y
 _atom_site_fract_z
 _atom_site_occupancy
  Sm  Sm0  1  0.60897500  0.89208200  0.35847100  1
  Sm  Sm1  1  0.34203200  0.09157900  0.37493400  1
  Sm  Sm2  1  0.65796800  0.90842100  0.62506600  1
  Sm  Sm3  1  0.48398700  0.51656300  0.26587900  1
  Sm  Sm4  1  0.23308900  0.76667300  0.51629800  1
  Sm  Sm5  1  0.64040300  0.85999100  0.88995000  1
  Sm  Sm6  1  0.50000000  0.50000000  0.50000000  1
  Sm  Sm7  1  0.13993000  0.35779300  0.39063500  1
  Sm  Sm8  1  0.39102500  0.10791800  0.64152900  1
  Sm  Sm9  1  0.76691100  0.23332700  0.48370200  1
  Sm  Sm10  1  0.51601300  0.48343700  0.73412100  1
  Sm  Sm11  1  0.84418600  0.59270000  0.37489800  1
  Sm  Sm12  1  0.34408100  0.09188800  0.87456600  1
  Sm  Sm13  1  0.15581400  0.40730000  0.62510200  1
  Sm  Sm14  1  0.65591900  0.90811200  0.12543400  1
  Sm  Sm15  1  0.98463400  0.01717500  0.76509200  1
  Sm  Sm16  1  0.73482600  0.26640100  0.01629700  1
  Sm  Sm17  1  0.50000000  0.50000000  0.00000000  1
  Sm  Sm18  1  0.00000000  0.00000000  0.00000000  1
  Sm  Sm19  1  0.35959700  0.14000900  0.11005000  1
  Sm  Sm20  1  0.86007000  0.64220700  0.60936500  1
  Sm  Sm21  1  0.10810800  0.39174300  0.85809400  1
  Sm  Sm22  1  0.26517400  0.73359900  0.98370300  1
  Sm  Sm23  1  0.01536600  0.98282500  0.23490800  1
  Sm  Sm24  1  0.84351900  0.59275000  0.87379700  1
  Sm  Sm25  1  0.15648100  0.40725000  0.12620300  1
  Sm  Sm26  1  0.89189200  0.60825700  0.14190600  1
  Y  Y27  1  0.25006000  0.74978200  0.25032800  1
  Y  Y28  1  0.74962600  0.25011800  0.25026300  1
  Y  Y29  1  0.00000000  0.00000000  0.50000000  1
  Y  Y30  1  0.25037400  0.74988200  0.74973700  1
  Y  Y31  1  0.74994000  0.25021800  0.74967200  1
  O  O32  1  0.60079300  0.14287500  0.36852100  1
  O  O33  1  0.71424200  0.48089700  0.24456000  1
  O  O34  1  0.35331500  0.84185100  0.38390300  1
  O  O35  1  0.09170700  0.10164400  0.36697600  1
  O  O36  1  0.64668500  0.15814900  0.61609700  1
  O  O37  1  0.73601100  0.46533800  0.50569900  1
  O  O38  1  0.39042200  0.34995500  0.37937100  1
  O  O39  1  0.39920700  0.85712500  0.63147900  1
  O  O40  1  0.25184100  0.02647400  0.51541300  1
  O  O41  1  0.22397800  0.49930400  0.26564400  1
  O  O42  1  0.62660800  0.65568600  0.38504500  1
  O  O43  1  0.72436600  0.99955600  0.76469100  1
  O  O44  1  0.40342800  0.87235300  0.86195400  1
  O  O45  1  0.90383000  0.37263600  0.36252900  1
  O  O46  1  0.74815900  0.97352600  0.48458700  1
  O  O47  1  0.37339200  0.34431400  0.61495500  1
  O  O48  1  0.00966200  0.24557200  0.52043100  1
  O  O49  1  0.50440200  0.23965000  0.77088600  1
  O  O50  1  0.00464600  0.73938400  0.27112300  1
  O  O51  1  0.50833600  0.75003000  0.02005700  1
  O  O52  1  0.60957800  0.65004500  0.62062900  1
  O  O53  1  0.90829300  0.89835600  0.63302400  1
  O  O54  1  0.21438600  0.98035900  0.74427400  1
  O  O55  1  0.26398900  0.53466200  0.49430100  1
  O  O56  1  0.28575800  0.51910300  0.75544000  1
  O  O57  1  0.59423300  0.60541700  0.86485300  1
  O  O58  1  0.23491600  0.96477600  0.00558300  1
  O  O59  1  0.49166400  0.24997000  0.97994300  1
  O  O60  1  0.89117500  0.85109300  0.87885600  1
  O  O61  1  0.49559800  0.76035000  0.22911400  1
  O  O62  1  0.99033800  0.75442800  0.47956900  1
  O  O63  1  0.99535400  0.26061600  0.72887700  1
  O  O64  1  0.75691700  0.52690600  0.01446400  1
  O  O65  1  0.09617000  0.62736400  0.63747100  1
  O  O66  1  0.12719800  0.15611600  0.88474800  1
  O  O67  1  0.59657200  0.12764700  0.13804600  1
  O  O68  1  0.24308300  0.47309400  0.98553600  1
  O  O69  1  0.77602200  0.50069600  0.73435600  1
  O  O70  1  0.27563400  0.00044400  0.23530900  1
  O  O71  1  0.87280200  0.84388400  0.11525200  1
  O  O72  1  0.10882500  0.14890700  0.12114400  1
  O  O73  1  0.10110200  0.64324800  0.86743500  1
  O  O74  1  0.40576700  0.39458300  0.13514700  1
  O  O75  1  0.85281500  0.34150600  0.88306800  1
  O  O76  1  0.76508400  0.03522400  0.99441700  1
  O  O77  1  0.14718500  0.65849400  0.11693200  1
  O  O78  1  0.78561500  0.01964100  0.25572600  1
  O  O79  1  0.89889800  0.35675200  0.13256500  1
