# generated using pymatgen
data_CaSnS3
_symmetry_space_group_name_H-M   'P 1'
_cell_length_a   7.19223993
_cell_length_b   16.58966631
_cell_length_c   27.99056523
_cell_angle_alpha   86.39820362
_cell_angle_beta   82.61845506
_cell_angle_gamma   77.48068326
_symmetry_Int_Tables_number   1
_chemical_formula_structural   CaSnS3
_chemical_formula_sum   'Ca24 Sn24 S72'
_cell_volume   3231.20716122
_cell_formula_units_Z   24
loop_
 _symmetry_equiv_pos_site_id
 _symmetry_equiv_pos_as_xyz
  1  'x, y, z'
loop_
 _atom_site_type_symbol
 _atom_site_label
 _atom_site_symmetry_multiplicity
 _atom_site_fract_x
 _atom_site_fract_y
 _atom_site_fract_z
 _atom_site_occupancy
  Ca  Ca0  1  0.50000000  0.50000000  0.00000000  1
  Ca  Ca1  1  0.00000000  -0.00000000  0.50000000  1
  Ca  Ca2  1  0.93957530  0.75000000  0.25000000  1
  Ca  Ca3  1  0.06042470  0.25000000  0.75000000  1
  Ca  Ca4  1  0.24209847  0.47466264  0.45792177  1
  Ca  Ca5  1  0.17468188  0.02533736  0.04207823  1
  Ca  Ca6  1  0.75790153  0.52533736  0.54207823  1
  Ca  Ca7  1  0.82531812  0.97466264  0.95792177  1
  Ca  Ca8  1  0.47031626  0.15044149  0.42461194  1
  Ca  Ca9  1  0.04536969  0.34955851  0.07538806  1
  Ca  Ca10  1  0.52968374  0.84955851  0.57538806  1
  Ca  Ca11  1  0.95463031  0.65044149  0.92461194  1
  Ca  Ca12  1  0.37635668  0.56490739  0.31607477  1
  Ca  Ca13  1  0.25733885  0.93509261  0.18392523  1
  Ca  Ca14  1  0.62364332  0.43509261  0.68392523  1
  Ca  Ca15  1  0.74266115  0.06490739  0.81607477  1
  Ca  Ca16  1  0.50171872  0.85505243  0.87620512  1
  Ca  Ca17  1  0.23297727  0.64494757  0.62379488  1
  Ca  Ca18  1  0.49828128  0.14494757  0.12379488  1
  Ca  Ca19  1  0.76702273  0.35505243  0.37620512  1
  Ca  Ca20  1  0.39708396  0.95057891  0.72518858  1
  Ca  Ca21  1  0.07285146  0.54942109  0.77481142  1
  Ca  Ca22  1  0.60291604  0.04942109  0.27481142  1
  Ca  Ca23  1  0.92714854  0.45057891  0.22518858  1
  Sn  Sn24  1  0.43992861  0.29429386  0.28218296  1
  Sn  Sn25  1  0.01640542  0.20570614  0.21781704  1
  Sn  Sn26  1  0.56007139  0.70570614  0.71781704  1
  Sn  Sn27  1  0.98359458  0.79429386  0.78218296  1
  Sn  Sn28  1  0.58611641  0.56147768  0.86067611  1
  Sn  Sn29  1  0.00827021  0.93852232  0.63932389  1
  Sn  Sn30  1  0.41388359  0.43852232  0.13932389  1
  Sn  Sn31  1  0.99172979  0.06147768  0.36067611  1
  Sn  Sn32  1  0.23024228  0.12193933  0.88761435  1
  Sn  Sn33  1  0.23979496  0.37806067  0.61238565  1
  Sn  Sn34  1  0.76975772  0.87806067  0.11238565  1
  Sn  Sn35  1  0.76020504  0.62193933  0.38761435  1
  Sn  Sn36  1  0.63554996  0.86464951  0.40173145  1
  Sn  Sn37  1  0.90193191  0.63535049  0.09826855  1
  Sn  Sn38  1  0.36445004  0.13535049  0.59826855  1
  Sn  Sn39  1  0.09806809  0.36464951  0.90173145  1
  Sn  Sn40  1  0.27754688  0.74289146  0.01558055  1
  Sn  Sn41  1  0.03601789  0.75710854  0.48441945  1
  Sn  Sn42  1  0.72245312  0.25710854  0.98441945  1
  Sn  Sn43  1  0.96398211  0.24289146  0.51558055  1
  Sn  Sn44  1  0.61117589  0.34918887  0.82697492  1
  Sn  Sn45  1  0.78733867  0.15081113  0.67302508  1
  Sn  Sn46  1  0.38882411  0.65081113  0.17302508  1
  Sn  Sn47  1  0.21266133  0.84918887  0.32697492  1
  S  S48  1  0.30796011  0.33427330  0.40680541  1
  S  S49  1  0.04903783  0.16572670  0.09319459  1
  S  S50  1  0.69203989  0.66572770  0.59319459  1
  S  S51  1  0.95096217  0.83427230  0.90680541  1
  S  S52  1  0.59531114  0.40683718  0.29237060  1
  S  S53  1  0.29451791  0.09316282  0.20762940  1
  S  S54  1  0.40468886  0.59316282  0.70762940  1
  S  S55  1  0.70548209  0.90683718  0.79237060  1
  S  S56  1  0.06830025  0.41090437  0.31823739  1
  S  S57  1  0.79744301  0.08909563  0.18176261  1
  S  S58  1  0.93169975  0.58909563  0.68176261  1
  S  S59  1  0.20255699  0.91090437  0.81823739  1
  S  S60  1  0.56600307  0.63179634  0.94063406  1
  S  S61  1  0.13843347  0.86820366  0.55936594  1
  S  S62  1  0.43399693  0.36820366  0.05936594  1
  S  S63  1  0.86156653  0.13179634  0.44063406  1
  S  S64  1  0.15429189  0.67782519  0.82588998  1
  S  S65  1  0.65800706  0.82217481  0.67411002  1
  S  S66  1  0.84570811  0.32217481  0.17411002  1
  S  S67  1  0.34199294  0.17782519  0.32588998  1
  S  S68  1  0.72882866  0.69059231  0.79016180  1
  S  S69  1  0.20958277  0.80940769  0.70983820  1
  S  S70  1  0.27117134  0.30940769  0.20983820  1
  S  S71  1  0.79041723  0.19059231  0.29016180  1
  S  S72  1  0.39787349  0.14817365  0.78272824  1
  S  S73  1  0.32877638  0.35182635  0.71727176  1
  S  S74  1  0.60212651  0.85182635  0.21727176  1
  S  S75  1  0.67122362  0.64817365  0.28272824  1
  S  S76  1  0.06028706  0.00407790  0.86559345  1
  S  S77  1  0.92995942  0.49592210  0.63440655  1
  S  S78  1  0.93971294  0.99592210  0.13440655  1
  S  S79  1  0.07004058  0.50407790  0.36559345  1
  S  S80  1  0.66074680  0.01133142  0.37209413  1
  S  S81  1  0.04417335  0.48866858  0.12790587  1
  S  S82  1  0.33925320  0.98866858  0.62790587  1
  S  S83  1  0.95582665  0.51133142  0.87209413  1
  S  S84  1  0.73913528  0.88663374  0.48585952  1
  S  S85  1  0.11162854  0.61336626  0.01414048  1
  S  S86  1  0.26086472  0.11336626  0.51414048  1
  S  S87  1  0.88837146  0.38663374  0.98585952  1
  S  S88  1  0.22895343  0.91129831  0.40495229  1
  S  S89  1  0.54520402  0.58870169  0.09504771  1
  S  S90  1  0.77104657  0.08870169  0.59504771  1
  S  S91  1  0.45479598  0.41129831  0.90495229  1
  S  S92  1  0.01006598  0.88859946  0.03425599  1
  S  S93  1  0.93292042  0.61140054  0.46574401  1
  S  S94  1  0.98993402  0.11140054  0.96574401  1
  S  S95  1  0.06707958  0.38859946  0.53425599  1
  S  S96  1  0.22150728  0.76117986  0.92362072  1
  S  S97  1  0.90630787  0.73882014  0.57637928  1
  S  S98  1  0.77849272  0.23882014  0.07637928  1
  S  S99  1  0.09369213  0.26117986  0.42362072  1
  S  S100  1  0.72848910  0.80616401  0.95624671  1
  S  S101  1  0.49089982  0.69383599  0.54375329  1
  S  S102  1  0.27151090  0.19383599  0.04375329  1
  S  S103  1  0.50910018  0.30616401  0.45624671  1
  S  S104  1  0.82347830  0.21969921  0.83992400  1
  S  S105  1  0.88310151  0.28030079  0.66007600  1
  S  S106  1  0.17652170  0.78030079  0.16007600  1
  S  S107  1  0.11689849  0.71969921  0.33992400  1
  S  S108  1  0.29845955  0.38052689  0.79086595  1
  S  S109  1  0.46985138  0.11947311  0.70913405  1
  S  S110  1  0.70154045  0.61947311  0.20913405  1
  S  S111  1  0.53014862  0.88052689  0.29086595  1
  S  S112  1  0.81199873  0.41729727  0.76969758  1
  S  S113  1  0.99899357  0.08270273  0.73030242  1
  S  S114  1  0.18800127  0.58270273  0.23030242  1
  S  S115  1  0.00100643  0.91729727  0.26969758  1
  S  S116  1  0.52162619  0.01187623  0.90601250  1
  S  S117  1  0.43951593  0.48812377  0.59398750  1
  S  S118  1  0.47837381  0.98812377  0.09398750  1
  S  S119  1  0.56048407  0.51187623  0.40601250  1
