# generated using pymatgen
data_V3(PO4)2
_symmetry_space_group_name_H-M   'P 1'
_cell_length_a   4.80763093
_cell_length_b   10.35266039
_cell_length_c   6.01154538
_cell_angle_alpha   91.47856572
_cell_angle_beta   89.95544653
_cell_angle_gamma   89.92666317
_symmetry_Int_Tables_number   1
_chemical_formula_structural   V3(PO4)2
_chemical_formula_sum   'V6 P4 O16'
_cell_volume   299.10529169
_cell_formula_units_Z   2
loop_
 _symmetry_equiv_pos_site_id
 _symmetry_equiv_pos_as_xyz
  1  'x, y, z'
loop_
 _atom_site_type_symbol
 _atom_site_label
 _atom_site_symmetry_multiplicity
 _atom_site_fract_x
 _atom_site_fract_y
 _atom_site_fract_z
 _atom_site_occupancy
  V  V0  1  0.98808245  0.27279444  0.24669072  1
  V  V1  1  0.01254102  0.72678431  0.75266280  1
  V  V2  1  0.48842427  0.22704011  0.75474046  1
  V  V3  1  0.49890286  0.49795365  0.50149003  1
  V  V4  1  0.00146323  0.00262936  0.50264467  1
  V  V5  1  0.51054897  0.77337534  0.24244547  1
  P  P6  1  0.07509072  0.59445026  0.24923839  1
  P  P7  1  0.42442455  0.09500693  0.24847368  1
  P  P8  1  0.57657849  0.90528725  0.74885558  1
  P  P9  1  0.92369899  0.40489297  0.75283435  1
  O  O10  1  0.18964413  0.66943924  0.05332008  1
  O  O11  1  0.30767463  0.17034565  0.05394417  1
  O  O12  1  0.69270576  0.82919837  0.94289713  1
  O  O13  1  0.80645463  0.33004746  0.94780130  1
  O  O14  1  0.31170209  0.95647194  0.25588026  1
  O  O15  1  0.18569326  0.45539168  0.25653830  1
  O  O16  1  0.81287724  0.54381569  0.74440673  1
  O  O17  1  0.68623963  0.04440549  0.74523271  1
  O  O18  1  0.75952634  0.60059400  0.27100814  1
  O  O19  1  0.73983410  0.10020417  0.26763527  1
  O  O20  1  0.26111325  0.89936961  0.73021237  1
  O  O21  1  0.23916716  0.39904435  0.73420211  1
  O  O22  1  0.22932938  0.66169078  0.45588094  1
  O  O23  1  0.27540325  0.16306344  0.45703858  1
  O  O24  1  0.72850323  0.83958256  0.53940007  1
  O  O25  1  0.77437639  0.33712294  0.54452469  1
