# generated using pymatgen
data_K4UO5
_symmetry_space_group_name_H-M   'P 1'
_cell_length_a   6.47448246
_cell_length_b   6.45042262
_cell_length_c   9.71084660
_cell_angle_alpha   101.46247799
_cell_angle_beta   108.88568641
_cell_angle_gamma   102.29389438
_symmetry_Int_Tables_number   1
_chemical_formula_structural   K4UO5
_chemical_formula_sum   'K8 U2 O10'
_cell_volume   358.86700688
_cell_formula_units_Z   2
loop_
 _symmetry_equiv_pos_site_id
 _symmetry_equiv_pos_as_xyz
  1  'x, y, z'
loop_
 _atom_site_type_symbol
 _atom_site_label
 _atom_site_symmetry_multiplicity
 _atom_site_fract_x
 _atom_site_fract_y
 _atom_site_fract_z
 _atom_site_occupancy
  K  K0  1  0.69455767  0.48105426  0.90310471  1
  K  K1  1  0.88922632  0.50362840  0.30226400  1
  K  K2  1  0.69853004  0.00148444  0.40320965  1
  K  K3  1  0.30146996  0.99851556  0.59679035  1
  K  K4  1  0.30544233  0.51894574  0.09689529  1
  K  K5  1  0.50000000  0.50000000  0.50000000  1
  K  K6  1  0.50000000  0.00000000  -0.00000000  1
  K  K7  1  0.11077368  0.49637160  0.69773600  1
  U  U8  1  0.90470518  0.99434290  0.80377203  1
  U  U9  1  0.09529482  0.00565710  0.19622797  1
  O  O10  1  0.21545458  0.19819043  0.84140730  1
  O  O11  1  0.78454542  0.80180957  0.15859270  1
  O  O12  1  0.90736629  0.78900523  0.61034880  1
  O  O13  1  0.09263371  0.21099477  0.38965120  1
  O  O14  1  0.40823118  0.20694520  0.23626653  1
  O  O15  1  0.59176882  0.79305480  0.76373347  1
  O  O16  1  0.06933035  0.81855215  0.96457821  1
  O  O17  1  0.93066965  0.18144785  0.03542179  1
  O  O18  1  0.24551500  0.80265584  0.30692004  1
  O  O19  1  0.75448500  0.19734416  0.69307996  1
