# generated using pymatgen
data_Sr(DySe2)2
_symmetry_space_group_name_H-M   'P 1'
_cell_length_a   4.13987351
_cell_length_b   12.58885188
_cell_length_c   14.94418270
_cell_angle_alpha   90.00000000
_cell_angle_beta   90.00000000
_cell_angle_gamma   90.00000000
_symmetry_Int_Tables_number   1
_chemical_formula_structural   Sr(DySe2)2
_chemical_formula_sum   'Sr4 Dy8 Se16'
_cell_volume   778.83482768
_cell_formula_units_Z   4
loop_
 _symmetry_equiv_pos_site_id
 _symmetry_equiv_pos_as_xyz
  1  'x, y, z'
loop_
 _atom_site_type_symbol
 _atom_site_label
 _atom_site_symmetry_multiplicity
 _atom_site_fract_x
 _atom_site_fract_y
 _atom_site_fract_z
 _atom_site_occupancy
  Sr  Sr0  1  0.25000000  0.75836167  0.66400114  1
  Sr  Sr1  1  0.75000000  0.74163833  0.16400114  1
  Sr  Sr2  1  0.25000000  0.25836167  0.83599886  1
  Sr  Sr3  1  0.75000000  0.24163833  0.33599886  1
  Dy  Dy4  1  0.25000000  0.43522980  0.61076548  1
  Dy  Dy5  1  0.75000000  0.06477020  0.11076548  1
  Dy  Dy6  1  0.25000000  0.93522980  0.88923452  1
  Dy  Dy7  1  0.75000000  0.56477020  0.38923452  1
  Dy  Dy8  1  0.25000000  0.41819845  0.09872219  1
  Dy  Dy9  1  0.75000000  0.08180155  0.59872219  1
  Dy  Dy10  1  0.25000000  0.91819845  0.40127781  1
  Dy  Dy11  1  0.75000000  0.58180155  0.90127781  1
  Se  Se12  1  0.25000000  0.41142885  0.42210204  1
  Se  Se13  1  0.75000000  0.08857115  0.92210204  1
  Se  Se14  1  0.25000000  0.91142885  0.07789796  1
  Se  Se15  1  0.75000000  0.58857115  0.57789796  1
  Se  Se16  1  0.25000000  0.02449813  0.71549487  1
  Se  Se17  1  0.75000000  0.47550187  0.21549487  1
  Se  Se18  1  0.25000000  0.52449813  0.78450513  1
  Se  Se19  1  0.75000000  0.97550187  0.28450513  1
  Se  Se20  1  0.25000000  0.12987861  0.47094648  1
  Se  Se21  1  0.75000000  0.37012139  0.97094648  1
  Se  Se22  1  0.25000000  0.62987861  0.02905352  1
  Se  Se23  1  0.75000000  0.87012139  0.52905352  1
  Se  Se24  1  0.25000000  0.20681347  0.17242764  1
  Se  Se25  1  0.75000000  0.29318653  0.67242764  1
  Se  Se26  1  0.25000000  0.70681347  0.32757236  1
  Se  Se27  1  0.75000000  0.79318653  0.82757236  1
