# generated using pymatgen
data_V10As2O35
_symmetry_space_group_name_H-M   'P 1'
_cell_length_a   14.89499955
_cell_length_b   14.89499955
_cell_length_c   14.89499955
_cell_angle_alpha   109.47122063
_cell_angle_beta   109.47122063
_cell_angle_gamma   109.47122063
_symmetry_Int_Tables_number   1
_chemical_formula_structural   V10As2O35
_chemical_formula_sum   'V30 As6 O105'
_cell_volume   2543.89740662
_cell_formula_units_Z   3
loop_
 _symmetry_equiv_pos_site_id
 _symmetry_equiv_pos_as_xyz
  1  'x, y, z'
loop_
 _atom_site_type_symbol
 _atom_site_label
 _atom_site_symmetry_multiplicity
 _atom_site_fract_x
 _atom_site_fract_y
 _atom_site_fract_z
 _atom_site_occupancy
  V  V0  1  0.29547100  0.00000000  0.51485100  1
  V  V1  1  0.00000000  0.29547100  0.51485100  1
  V  V2  1  0.70452900  0.70452900  0.21937900  1
  V  V3  1  0.70452900  0.21937900  0.70452900  1
  V  V4  1  0.00000000  0.51485100  0.29547100  1
  V  V5  1  0.29547100  0.51485100  0.00000000  1
  V  V6  1  0.51485100  0.00000000  0.29547100  1
  V  V7  1  0.21937900  0.70452900  0.70452900  1
  V  V8  1  0.51485100  0.29547100  0.00000000  1
  V  V9  1  0.48514900  0.78062100  0.48514900  1
  V  V10  1  0.78062100  0.48514900  0.48514900  1
  V  V11  1  0.48514900  0.48514900  0.78062100  1
  V  V12  1  0.52509600  0.21722000  0.52509600  1
  V  V13  1  0.78278000  0.30787600  0.30787600  1
  V  V14  1  0.69212400  0.47490400  0.00000000  1
  V  V15  1  0.47490400  0.69212400  0.00000000  1
  V  V16  1  0.21722000  0.52509600  0.52509600  1
  V  V17  1  0.30787600  0.78278000  0.30787600  1
  V  V18  1  0.47490400  0.00000000  0.69212400  1
  V  V19  1  0.30787600  0.30787600  0.78278000  1
  V  V20  1  0.52509600  0.52509600  0.21722000  1
  V  V21  1  0.69212400  0.00000000  0.47490400  1
  V  V22  1  0.00000000  0.69212400  0.47490400  1
  V  V23  1  0.00000000  0.47490400  0.69212400  1
  V  V24  1  0.33924700  0.00000000  0.33924700  1
  V  V25  1  0.00000000  0.33924700  0.33924700  1
  V  V26  1  0.66075300  0.66075300  0.00000000  1
  V  V27  1  0.66075300  0.00000000  0.66075300  1
  V  V28  1  0.33924700  0.33924700  0.00000000  1
  V  V29  1  0.00000000  0.66075300  0.66075300  1
  As  As30  1  0.50000000  0.25000000  0.75000000  1
  As  As31  1  0.75000000  0.25000000  0.50000000  1
  As  As32  1  0.75000000  0.50000000  0.25000000  1
  As  As33  1  0.50000000  0.75000000  0.25000000  1
  As  As34  1  0.25000000  0.50000000  0.75000000  1
  As  As35  1  0.25000000  0.75000000  0.50000000  1
  O  O36  1  0.18263500  0.00000000  0.49261300  1
  O  O37  1  0.00000000  0.18263500  0.49261300  1
  O  O38  1  0.81736500  0.81736500  0.30997800  1
  O  O39  1  0.81736500  0.30997800  0.81736500  1
  O  O40  1  0.00000000  0.49261300  0.18263500  1
  O  O41  1  0.18263500  0.49261300  0.00000000  1
  O  O42  1  0.49261300  0.00000000  0.18263500  1
  O  O43  1  0.30997800  0.81736500  0.81736500  1
  O  O44  1  0.49261300  0.18263500  0.00000000  1
  O  O45  1  0.50738700  0.69002200  0.50738700  1
  O  O46  1  0.69002200  0.50738700  0.50738700  1
  O  O47  1  0.50738700  0.50738700  0.69002200  1
  O  O48  1  0.24562100  0.00000000  0.24562100  1
  O  O49  1  0.00000000  0.24562100  0.24562100  1
  O  O50  1  0.75437900  0.75437900  0.00000000  1
  O  O51  1  0.75437900  0.00000000  0.75437900  1
  O  O52  1  0.24562100  0.24562100  0.00000000  1
  O  O53  1  0.00000000  0.75437900  0.75437900  1
  O  O54  1  0.52303600  0.32356400  0.52303600  1
  O  O55  1  0.67643600  0.19947200  0.19947200  1
  O  O56  1  0.80052800  0.47696400  0.00000000  1
  O  O57  1  0.47696400  0.80052800  0.00000000  1
  O  O58  1  0.32356400  0.52303600  0.52303600  1
  O  O59  1  0.19947200  0.67643600  0.19947200  1
  O  O60  1  0.47696400  0.00000000  0.80052800  1
  O  O61  1  0.19947200  0.19947200  0.67643600  1
  O  O62  1  0.52303600  0.52303600  0.32356400  1
  O  O63  1  0.80052800  0.00000000  0.47696400  1
  O  O64  1  0.00000000  0.80052800  0.47696400  1
  O  O65  1  0.00000000  0.47696400  0.80052800  1
  O  O66  1  0.41486300  0.10816800  0.68322800  1
  O  O67  1  0.89183200  0.30669400  0.57506000  1
  O  O68  1  0.69330600  0.58513700  0.26836600  1
  O  O69  1  0.58513700  0.69330600  0.26836600  1
  O  O70  1  0.10816800  0.41486300  0.68322800  1
  O  O71  1  0.30669400  0.89183200  0.57506000  1
  O  O72  1  0.58513700  0.26836600  0.69330600  1
  O  O73  1  0.10816800  0.68322800  0.41486300  1
  O  O74  1  0.30669400  0.57506000  0.89183200  1
  O  O75  1  0.41486300  0.68322800  0.10816800  1
  O  O76  1  0.89183200  0.57506000  0.30669400  1
  O  O77  1  0.69330600  0.26836600  0.58513700  1
  O  O78  1  0.57506000  0.89183200  0.30669400  1
  O  O79  1  0.26836600  0.69330600  0.58513700  1
  O  O80  1  0.68322800  0.41486300  0.10816800  1
  O  O81  1  0.57506000  0.30669400  0.89183200  1
  O  O82  1  0.26836600  0.58513700  0.69330600  1
  O  O83  1  0.68322800  0.10816800  0.41486300  1
  O  O84  1  0.42494000  0.73163400  0.31677200  1
  O  O85  1  0.73163400  0.31677200  0.42494000  1
  O  O86  1  0.31677200  0.42494000  0.73163400  1
  O  O87  1  0.42494000  0.31677200  0.73163400  1
  O  O88  1  0.73163400  0.42494000  0.31677200  1
  O  O89  1  0.31677200  0.73163400  0.42494000  1
  O  O90  1  0.48123000  0.10606600  0.37738100  1
  O  O91  1  0.89393400  0.37516400  0.27131500  1
  O  O92  1  0.62483600  0.51877000  0.89615000  1
  O  O93  1  0.51877000  0.62483600  0.89615000  1
  O  O94  1  0.10606600  0.48123000  0.37738100  1
  O  O95  1  0.37516400  0.89393400  0.27131500  1
  O  O96  1  0.51877000  0.89615000  0.62483600  1
  O  O97  1  0.10606600  0.37738100  0.48123000  1
  O  O98  1  0.37516400  0.27131500  0.89393400  1
  O  O99  1  0.48123000  0.37738100  0.10606600  1
  O  O100  1  0.89393400  0.27131500  0.37516400  1
  O  O101  1  0.62483600  0.89615000  0.51877000  1
  O  O102  1  0.27131500  0.89393400  0.37516400  1
  O  O103  1  0.89615000  0.62483600  0.51877000  1
  O  O104  1  0.37738100  0.48123000  0.10606600  1
  O  O105  1  0.27131500  0.37516400  0.89393400  1
  O  O106  1  0.89615000  0.51877000  0.62483600  1
  O  O107  1  0.37738100  0.10606600  0.48123000  1
  O  O108  1  0.72868500  0.10385000  0.62261900  1
  O  O109  1  0.10385000  0.62261900  0.72868500  1
  O  O110  1  0.62261900  0.72868500  0.10385000  1
  O  O111  1  0.72868500  0.62261900  0.10385000  1
  O  O112  1  0.10385000  0.72868500  0.62261900  1
  O  O113  1  0.62261900  0.10385000  0.72868500  1
  O  O114  1  0.50000000  0.00000000  0.50000000  1
  O  O115  1  0.00000000  0.50000000  0.50000000  1
  O  O116  1  0.50000000  0.50000000  0.00000000  1
  O  O117  1  0.47123500  0.27752400  0.27752400  1
  O  O118  1  0.72247600  0.19371100  0.00000000  1
  O  O119  1  0.80628900  0.52876500  0.80628900  1
  O  O120  1  0.52876500  0.80628900  0.80628900  1
  O  O121  1  0.27752400  0.47123500  0.27752400  1
  O  O122  1  0.19371100  0.72247600  0.00000000  1
  O  O123  1  0.27752400  0.27752400  0.47123500  1
  O  O124  1  0.19371100  0.00000000  0.72247600  1
  O  O125  1  0.72247600  0.00000000  0.19371100  1
  O  O126  1  0.80628900  0.80628900  0.52876500  1
  O  O127  1  0.00000000  0.72247600  0.19371100  1
  O  O128  1  0.00000000  0.19371100  0.72247600  1
  O  O129  1  0.46494800  0.34525200  0.34525200  1
  O  O130  1  0.65474800  0.11969600  0.00000000  1
  O  O131  1  0.88030400  0.53505200  0.88030400  1
  O  O132  1  0.53505200  0.88030400  0.88030400  1
  O  O133  1  0.34525200  0.46494800  0.34525200  1
  O  O134  1  0.11969600  0.65474800  0.00000000  1
  O  O135  1  0.34525200  0.34525200  0.46494800  1
  O  O136  1  0.11969600  0.00000000  0.65474800  1
  O  O137  1  0.65474800  0.00000000  0.11969600  1
  O  O138  1  0.88030400  0.88030400  0.53505200  1
  O  O139  1  0.00000000  0.65474800  0.11969600  1
  O  O140  1  0.00000000  0.11969600  0.65474800  1
