# generated using pymatgen
data_RbMnP3HO10
_symmetry_space_group_name_H-M   'P 1'
_cell_length_a   7.45061739
_cell_length_b   7.44947860
_cell_length_c   8.81472559
_cell_angle_alpha   76.23618966
_cell_angle_beta   103.76421994
_cell_angle_gamma   109.87850337
_symmetry_Int_Tables_number   1
_chemical_formula_structural   RbMnP3HO10
_chemical_formula_sum   'Rb2 Mn2 P6 H2 O20'
_cell_volume   440.22939372
_cell_formula_units_Z   2
loop_
 _symmetry_equiv_pos_site_id
 _symmetry_equiv_pos_as_xyz
  1  'x, y, z'
loop_
 _atom_site_type_symbol
 _atom_site_label
 _atom_site_symmetry_multiplicity
 _atom_site_fract_x
 _atom_site_fract_y
 _atom_site_fract_z
 _atom_site_occupancy
  Rb  Rb0  1  0.62900589  0.09805911  0.24356673  1
  Rb  Rb1  1  0.09823789  0.62927790  0.75664783  1
  Mn  Mn2  1  0.19890975  0.19881811  0.49993964  1
  Mn  Mn3  1  0.70887192  0.70881861  0.00009421  1
  P  P4  1  0.06756736  0.53452471  0.20797372  1
  P  P5  1  0.53478258  0.06776034  0.79200058  1
  P  P6  1  0.06693036  0.91711850  0.23533250  1
  P  P7  1  0.91722549  0.06683726  0.76469301  1
  P  P8  1  0.45739017  0.51425760  0.27033097  1
  P  P9  1  0.51411266  0.45754804  0.72957926  1
  H  H10  1  0.61943902  0.61914882  0.50034476  1
  H  H11  1  0.12823612  0.12865456  0.99967248  1
  O  O12  1  0.20217531  0.05040715  0.12316601  1
  O  O13  1  0.05055900  0.20221449  0.87689648  1
  O  O14  1  0.08972890  0.98337366  0.38912904  1
  O  O15  1  0.98362580  0.08964933  0.61101401  1
  O  O16  1  0.85586557  0.86712498  0.15588369  1
  O  O17  1  0.86725581  0.85586110  0.84428954  1
  O  O18  1  0.12284297  0.71870438  0.29187090  1
  O  O19  1  0.71902118  0.12303685  0.70816891  1
  O  O20  1  0.92502877  0.54989288  0.05936159  1
  O  O21  1  0.55018750  0.92531656  0.94067637  1
  O  O22  1  0.02092547  0.35860518  0.33125245  1
  O  O23  1  0.35890727  0.02107341  0.66874680  1
  O  O24  1  0.26765742  0.55740199  0.15714109  1
  O  O25  1  0.55769566  0.26800684  0.84268513  1
  O  O26  1  0.39904028  0.31387426  0.37115751  1
  O  O27  1  0.31385978  0.39909543  0.62874619  1
  O  O28  1  0.58065587  0.51223867  0.15773245  1
  O  O29  1  0.51230231  0.58091625  0.84213739  1
  O  O30  1  0.54758164  0.67549766  0.36790948  1
  O  O31  1  0.67537427  0.54787937  0.63186129  1
