# generated using pymatgen
data_La2Ti2O7
_symmetry_space_group_name_H-M   'P 1'
_cell_length_a   12.94738024
_cell_length_b   12.94738024
_cell_length_c   5.56971758
_cell_angle_alpha   90.00000000
_cell_angle_beta   90.00000000
_cell_angle_gamma   162.61405211
_symmetry_Int_Tables_number   1
_chemical_formula_structural   La2Ti2O7
_chemical_formula_sum   'La4 Ti4 O14'
_cell_volume   278.98919518
_cell_formula_units_Z   2
loop_
 _symmetry_equiv_pos_site_id
 _symmetry_equiv_pos_as_xyz
  1  'x, y, z'
loop_
 _atom_site_type_symbol
 _atom_site_label
 _atom_site_symmetry_multiplicity
 _atom_site_fract_x
 _atom_site_fract_y
 _atom_site_fract_z
 _atom_site_occupancy
  La  La0  1  0.29760363  0.70239637  0.66218711  1
  La  La1  1  0.70239637  0.29760363  0.16218711  1
  La  La2  1  0.44724350  0.55275650  0.24452334  1
  La  La3  1  0.55275650  0.44724350  0.74452334  1
  Ti  Ti4  1  0.83729533  0.16270467  0.20353185  1
  Ti  Ti5  1  0.16270467  0.83729533  0.70353185  1
  Ti  Ti6  1  0.93973541  0.06026459  0.74102735  1
  Ti  Ti7  1  0.06026459  0.93973541  0.24102735  1
  O  O8  1  0.78040884  0.21959116  0.41847340  1
  O  O9  1  0.21959116  0.78040884  0.91847340  1
  O  O10  1  0.88313606  0.11686394  0.55056089  1
  O  O11  1  0.11686394  0.88313606  0.05056089  1
  O  O12  1  0.34662904  0.65337096  0.24321303  1
  O  O13  1  0.65337096  0.34662904  0.74321303  1
  O  O14  1  0.45065198  0.54934802  0.76859641  1
  O  O15  1  0.54934802  0.45065198  0.26859641  1
  O  O16  1  0.98903570  0.01096430  0.47623307  1
  O  O17  1  0.01096430  0.98903570  0.97623307  1
  O  O18  1  0.09207168  0.90792832  0.55961533  1
  O  O19  1  0.90792832  0.09207168  0.05961533  1
  O  O20  1  0.20243435  0.79756565  0.43643725  1
  O  O21  1  0.79756565  0.20243435  0.93643725  1
