# generated using pymatgen
data_SmY3O6
_symmetry_space_group_name_H-M   'P 1'
_cell_length_a   9.24917762
_cell_length_b   9.26213288
_cell_length_c   9.26213581
_cell_angle_alpha   109.47700669
_cell_angle_beta   109.44997068
_cell_angle_gamma   109.45335168
_symmetry_Int_Tables_number   1
_chemical_formula_structural   SmY3O6
_chemical_formula_sum   'Sm4 Y12 O24'
_cell_volume   611.05723078
_cell_formula_units_Z   4
loop_
 _symmetry_equiv_pos_site_id
 _symmetry_equiv_pos_as_xyz
  1  'x, y, z'
loop_
 _atom_site_type_symbol
 _atom_site_label
 _atom_site_symmetry_multiplicity
 _atom_site_fract_x
 _atom_site_fract_y
 _atom_site_fract_z
 _atom_site_occupancy
  Sm  Sm0  1  0.99957802  0.99949527  0.49853951  1
  Sm  Sm1  1  0.99977880  0.50211422  0.00014162  1
  Sm  Sm2  1  0.50019339  0.50034568  0.50238873  1
  Sm  Sm3  1  0.25180167  0.21910699  0.96953629  1
  Y  Y4  1  0.50054272  0.99900374  0.99996696  1
  Y  Y5  1  0.74829403  0.78176979  0.03133552  1
  Y  Y6  1  0.46935969  0.75346224  0.21911658  1
  Y  Y7  1  0.02926461  0.24977555  0.28174140  1
  Y  Y8  1  0.71705330  0.96777446  0.75108877  1
  Y  Y9  1  0.21906291  0.47126102  0.75005050  1
  Y  Y10  1  0.25045508  0.71909446  0.46972327  1
  Y  Y11  1  0.74954754  0.28090992  0.53026224  1
  Y  Y12  1  0.78181711  0.53054454  0.24985211  1
  Y  Y13  1  0.28205613  0.03119831  0.24981405  1
  Y  Y14  1  0.96880076  0.74908957  0.71790711  1
  Y  Y15  1  0.53256370  0.24811085  0.78158979  1
  O  O16  1  0.26744259  0.51271890  0.54236479  1
  O  O17  1  0.46892802  0.73088394  0.95711872  1
  O  O18  1  0.22954697  0.95270921  0.96908478  1
  O  O19  1  0.72459673  0.75510378  0.26701982  1
  O  O20  1  0.00978633  0.54065037  0.76627677  1
  O  O21  1  0.51213647  0.74454918  0.47026856  1
  O  O22  1  0.02864857  0.98676297  0.25420518  1
  O  O23  1  0.23267566  0.77608270  0.24574218  1
  O  O24  1  0.45673837  0.96785586  0.73021116  1
  O  O25  1  0.24536593  0.47614532  0.01284115  1
  O  O26  1  0.95791370  0.23190361  0.48846090  1
  O  O27  1  0.74454320  0.73243972  0.77561563  1
  O  O28  1  0.54347037  0.03213842  0.26974186  1
  O  O29  1  0.04182533  0.76782771  0.51135831  1
  O  O30  1  0.75425504  0.52964337  0.98724639  1
  O  O31  1  0.25571434  0.26798064  0.23061545  1
  O  O32  1  0.96634716  0.00788451  0.74015224  1
  O  O33  1  0.76861004  0.22500104  0.75642793  1
  O  O34  1  0.98895843  0.45847664  0.23176867  1
  O  O35  1  0.48905333  0.25464820  0.53004442  1
  O  O36  1  0.27608581  0.24627302  0.72888196  1
  O  O37  1  0.76989038  0.04266534  0.03150656  1
  O  O38  1  0.73117599  0.48816591  0.45738438  1
  O  O39  1  0.53612680  0.26843002  0.04260773  1
