# generated using pymatgen
data_LuCl3
_symmetry_space_group_name_H-M   'P 1'
_cell_length_a   9.46366212
_cell_length_b   9.46416949
_cell_length_c   3.47256959
_cell_angle_alpha   90.00001149
_cell_angle_beta   90.00002715
_cell_angle_gamma   119.99818722
_symmetry_Int_Tables_number   1
_chemical_formula_structural   LuCl3
_chemical_formula_sum   'Lu2 Cl6'
_cell_volume   269.35885529
_cell_formula_units_Z   2
loop_
 _symmetry_equiv_pos_site_id
 _symmetry_equiv_pos_as_xyz
  1  'x, y, z'
loop_
 _atom_site_type_symbol
 _atom_site_label
 _atom_site_symmetry_multiplicity
 _atom_site_fract_x
 _atom_site_fract_y
 _atom_site_fract_z
 _atom_site_occupancy
  Lu  Lu0  1  0.66660903  0.33321506  0.24999800  1
  Lu  Lu1  1  0.33339297  0.66678594  0.75000000  1
  Cl  Cl2  1  0.78393281  0.21591127  0.75000000  1
  Cl  Cl3  1  0.43198146  0.21591027  0.75000000  1
  Cl  Cl4  1  0.78397588  0.56795276  0.74999900  1
  Cl  Cl5  1  0.21606919  0.78409073  0.24999900  1
  Cl  Cl6  1  0.56802054  0.78408973  0.25000000  1
  Cl  Cl7  1  0.21602412  0.43204924  0.24999900  1
