# generated using pymatgen
data_Ho2O3
_symmetry_space_group_name_H-M   'P 1'
_cell_length_a   9.11408048
_cell_length_b   9.11407923
_cell_length_c   9.11408003
_cell_angle_alpha   109.47122919
_cell_angle_beta   109.47122645
_cell_angle_gamma   109.47121441
_symmetry_Int_Tables_number   1
_chemical_formula_structural   Ho2O3
_chemical_formula_sum   'Ho16 O24'
_cell_volume   582.79600013
_cell_formula_units_Z   8
loop_
 _symmetry_equiv_pos_site_id
 _symmetry_equiv_pos_as_xyz
  1  'x, y, z'
loop_
 _atom_site_type_symbol
 _atom_site_label
 _atom_site_symmetry_multiplicity
 _atom_site_fract_x
 _atom_site_fract_y
 _atom_site_fract_z
 _atom_site_occupancy
  Ho  Ho0  1  0.75000000  0.78232138  0.03232138  1
  Ho  Ho1  1  0.46767862  0.25000000  0.71767862  1
  Ho  Ho2  1  0.71767862  0.46767862  0.25000000  1
  Ho  Ho3  1  0.03232138  0.75000000  0.78232138  1
  Ho  Ho4  1  0.78232138  0.03232138  0.75000000  1
  Ho  Ho5  1  0.25000000  0.71767862  0.46767862  1
  Ho  Ho6  1  0.75000000  0.28233510  0.53233510  1
  Ho  Ho7  1  0.96766490  0.25000000  0.21766490  1
  Ho  Ho8  1  0.21766490  0.96766490  0.25000000  1
  Ho  Ho9  1  0.53233510  0.75000000  0.28233510  1
  Ho  Ho10  1  0.28233510  0.53233510  0.75000000  1
  Ho  Ho11  1  0.25000000  0.21766490  0.96766490  1
  Ho  Ho12  1  0.00002235  0.50000000  0.00000000  1
  Ho  Ho13  1  0.50000000  0.00000000  0.00002235  1
  Ho  Ho14  1  0.00000000  0.00002235  0.50000000  1
  Ho  Ho15  1  0.49997765  0.49997765  0.49997765  1
  O  O16  1  0.72919048  0.26020354  0.77217575  1
  O  O17  1  0.98802779  0.95701674  0.72782425  1
  O  O18  1  0.51197221  0.23979646  0.96898794  1
  O  O19  1  0.54298326  0.53101206  0.77080952  1
  O  O20  1  0.53101206  0.77080952  0.54298326  1
  O  O21  1  0.77217575  0.72919048  0.26020354  1
  O  O22  1  0.95701674  0.72782425  0.98802779  1
  O  O23  1  0.96898794  0.51197221  0.23979646  1
  O  O24  1  0.26020354  0.77217575  0.72919048  1
  O  O25  1  0.72782425  0.98802779  0.95701674  1
  O  O26  1  0.23979646  0.96898794  0.51197221  1
  O  O27  1  0.77080952  0.54298326  0.53101206  1
  O  O28  1  0.04298231  0.27215108  0.01196174  1
  O  O29  1  0.76018935  0.03102057  0.48803826  1
  O  O30  1  0.73981065  0.22784892  0.27083223  1
  O  O31  1  0.46897943  0.22916777  0.45701769  1
  O  O32  1  0.45701769  0.46897943  0.22916777  1
  O  O33  1  0.22784892  0.27083223  0.73981065  1
  O  O34  1  0.48803826  0.76018935  0.03102057  1
  O  O35  1  0.27215108  0.01196174  0.04298231  1
  O  O36  1  0.27083223  0.73981065  0.22784892  1
  O  O37  1  0.03102057  0.48803826  0.76018935  1
  O  O38  1  0.01196174  0.04298231  0.27215108  1
  O  O39  1  0.22916777  0.45701769  0.46897943  1
