# generated using pymatgen
data_LaPO4
_symmetry_space_group_name_H-M   'P 1'
_cell_length_a   7.21805778
_cell_length_b   7.21805878
_cell_length_c   6.45527402
_cell_angle_alpha   90.00000000
_cell_angle_beta   90.00000000
_cell_angle_gamma   120.00000469
_symmetry_Int_Tables_number   1
_chemical_formula_structural   LaPO4
_chemical_formula_sum   'La3 P3 O12'
_cell_volume   291.26349861
_cell_formula_units_Z   3
loop_
 _symmetry_equiv_pos_site_id
 _symmetry_equiv_pos_as_xyz
  1  'x, y, z'
loop_
 _atom_site_type_symbol
 _atom_site_label
 _atom_site_symmetry_multiplicity
 _atom_site_fract_x
 _atom_site_fract_y
 _atom_site_fract_z
 _atom_site_occupancy
  La  La0  1  0.00000000  0.50000000  0.66666700  1
  La  La1  1  0.50000000  0.50000000  0.33333300  1
  La  La2  1  0.50000000  0.00000000  -0.00000000  1
  P  P3  1  0.00000000  0.50000000  0.16666700  1
  P  P4  1  0.50000000  0.50000000  0.83333300  1
  P  P5  1  0.50000000  0.00000000  0.50000000  1
  O  O6  1  0.44745912  0.31149403  0.97874336  1
  O  O7  1  0.68850597  0.13596609  0.64541036  1
  O  O8  1  0.86403391  0.55254088  0.31207736  1
  O  O9  1  0.13596609  0.44745912  0.31207736  1
  O  O10  1  0.55254088  0.86403391  0.35458964  1
  O  O11  1  0.55254088  0.68850597  0.97874336  1
  O  O12  1  0.44745912  0.13596609  0.35458964  1
  O  O13  1  0.31149403  0.44745912  0.68792264  1
  O  O14  1  0.13596609  0.68850597  0.02125664  1
  O  O15  1  0.86403391  0.31149403  0.02125664  1
  O  O16  1  0.68850597  0.55254088  0.68792264  1
  O  O17  1  0.31149403  0.86403391  0.64541036  1
