# generated using pymatgen
data_RbTlO2
_symmetry_space_group_name_H-M   'P 1'
_cell_length_a   6.71058260
_cell_length_b   6.71058288
_cell_length_c   6.71058303
_cell_angle_alpha   30.12543493
_cell_angle_beta   30.12542842
_cell_angle_gamma   30.12543144
_symmetry_Int_Tables_number   1
_chemical_formula_structural   RbTlO2
_chemical_formula_sum   'Rb1 Tl1 O2'
_cell_volume   67.43939834
_cell_formula_units_Z   1
loop_
 _symmetry_equiv_pos_site_id
 _symmetry_equiv_pos_as_xyz
  1  'x, y, z'
loop_
 _atom_site_type_symbol
 _atom_site_label
 _atom_site_symmetry_multiplicity
 _atom_site_fract_x
 _atom_site_fract_y
 _atom_site_fract_z
 _atom_site_occupancy
  Rb  Rb0  1  0.50000000  0.50000000  0.50000000  1
  Tl  Tl1  1  0.00000000  -0.00000000  0.00000000  1
  O  O2  1  0.72816061  0.72816061  0.72816061  1
  O  O3  1  0.27183939  0.27183939  0.27183939  1
