# generated using pymatgen
data_Li4Co7(OF7)2
_symmetry_space_group_name_H-M   'P 1'
_cell_length_a   6.05637100
_cell_length_b   6.19164738
_cell_length_c   10.46647897
_cell_angle_alpha   106.96038461
_cell_angle_beta   89.13423602
_cell_angle_gamma   119.16824496
_symmetry_Int_Tables_number   1
_chemical_formula_structural   Li4Co7(OF7)2
_chemical_formula_sum   'Li4 Co7 O2 F14'
_cell_volume   323.99063605
_cell_formula_units_Z   1
loop_
 _symmetry_equiv_pos_site_id
 _symmetry_equiv_pos_as_xyz
  1  'x, y, z'
loop_
 _atom_site_type_symbol
 _atom_site_label
 _atom_site_symmetry_multiplicity
 _atom_site_fract_x
 _atom_site_fract_y
 _atom_site_fract_z
 _atom_site_occupancy
  Li  Li0  1  0.96184200  0.26409000  0.82117500  1
  Li  Li1  1  0.53018900  0.69982800  0.68814200  1
  Li  Li2  1  0.03815800  0.73591000  0.17882500  1
  Li  Li3  1  0.46981100  0.30017200  0.31185800  1
  Co  Co4  1  0.00000000  0.00000000  0.50000000  1
  Co  Co5  1  0.24127500  0.01568600  0.74593600  1
  Co  Co6  1  0.50000000  0.50000000  0.50000000  1
  Co  Co7  1  0.50000000  0.50000000  0.00000000  1
  Co  Co8  1  0.00000000  0.50000000  0.50000000  1
  Co  Co9  1  0.50000000  0.00000000  0.00000000  1
  Co  Co10  1  0.75872500  0.98431400  0.25406400  1
  O  O11  1  0.66200200  0.53627500  0.39028800  1
  O  O12  1  0.33799800  0.46372500  0.60971200  1
  F  F13  1  0.64653000  0.00668100  0.37880700  1
  F  F14  1  0.87170100  0.98720200  0.62158500  1
  F  F15  1  0.40635200  0.53431400  0.11471800  1
  F  F16  1  0.16494900  0.54871700  0.86869800  1
  F  F17  1  0.11702100  0.47633000  0.37763700  1
  F  F18  1  0.88297900  0.52367000  0.62236300  1
  F  F19  1  0.15843800  0.02475300  0.87217800  1
  F  F20  1  0.61887900  0.99570800  0.87669600  1
  F  F21  1  0.12829900  0.01279800  0.37841500  1
  F  F22  1  0.38112100  0.00429200  0.12330400  1
  F  F23  1  0.84156200  0.97524700  0.12782200  1
  F  F24  1  0.35347000  0.99331900  0.62119300  1
  F  F25  1  0.83505100  0.45128300  0.13130200  1
  F  F26  1  0.59364800  0.46568600  0.88528200  1
