# generated using pymatgen
data_Ba(GaS2)2
_symmetry_space_group_name_H-M   'P 1'
_cell_length_a   12.77293467
_cell_length_b   12.77293467
_cell_length_c   12.77293467
_cell_angle_alpha   90.00000000
_cell_angle_beta   90.00000000
_cell_angle_gamma   90.00000000
_symmetry_Int_Tables_number   1
_chemical_formula_structural   Ba(GaS2)2
_chemical_formula_sum   'Ba12 Ga24 S48'
_cell_volume   2083.87695840
_cell_formula_units_Z   12
loop_
 _symmetry_equiv_pos_site_id
 _symmetry_equiv_pos_as_xyz
  1  'x, y, z'
loop_
 _atom_site_type_symbol
 _atom_site_label
 _atom_site_symmetry_multiplicity
 _atom_site_fract_x
 _atom_site_fract_y
 _atom_site_fract_z
 _atom_site_occupancy
  Ba  Ba0  1  0.00000000  0.00000000  -0.00000000  1
  Ba  Ba1  1  0.00000000  0.50000000  0.50000000  1
  Ba  Ba2  1  0.12786104  0.87213896  0.37213896  1
  Ba  Ba3  1  0.12786104  0.62786104  0.87213896  1
  Ba  Ba4  1  0.37213896  0.37213896  0.37213896  1
  Ba  Ba5  1  0.37213896  0.12786104  0.87213896  1
  Ba  Ba6  1  0.50000000  0.00000000  0.50000000  1
  Ba  Ba7  1  0.50000000  0.50000000  -0.00000000  1
  Ba  Ba8  1  0.62786104  0.87213896  0.12786104  1
  Ba  Ba9  1  0.62786104  0.62786104  0.62786104  1
  Ba  Ba10  1  0.87213896  0.12786104  0.62786104  1
  Ba  Ba11  1  0.87213896  0.37213896  0.12786104  1
  Ga  Ga12  1  0.12698889  0.19517668  0.35624608  1
  Ga  Ga13  1  0.12698889  0.30482332  0.85624608  1
  Ga  Ga14  1  0.14375392  0.62698889  0.19517668  1
  Ga  Ga15  1  0.14375392  0.87301111  0.69517668  1
  Ga  Ga16  1  0.19517668  0.14375392  0.62698889  1
  Ga  Ga17  1  0.19517668  0.35624608  0.12698889  1
  Ga  Ga18  1  0.30482332  0.85624608  0.12698889  1
  Ga  Ga19  1  0.30482332  0.64375392  0.62698889  1
  Ga  Ga20  1  0.35624608  0.12698889  0.19517668  1
  Ga  Ga21  1  0.35624608  0.37301111  0.69517668  1
  Ga  Ga22  1  0.37301111  0.69517668  0.35624608  1
  Ga  Ga23  1  0.37301111  0.80482332  0.85624608  1
  Ga  Ga24  1  0.62698889  0.19517668  0.14375392  1
  Ga  Ga25  1  0.62698889  0.30482332  0.64375392  1
  Ga  Ga26  1  0.64375392  0.62698889  0.30482332  1
  Ga  Ga27  1  0.64375392  0.87301111  0.80482332  1
  Ga  Ga28  1  0.69517668  0.14375392  0.87301111  1
  Ga  Ga29  1  0.69517668  0.35624608  0.37301111  1
  Ga  Ga30  1  0.80482332  0.64375392  0.87301111  1
  Ga  Ga31  1  0.80482332  0.85624608  0.37301111  1
  Ga  Ga32  1  0.85624608  0.12698889  0.30482332  1
  Ga  Ga33  1  0.85624608  0.37301111  0.80482332  1
  Ga  Ga34  1  0.87301111  0.69517668  0.14375392  1
  Ga  Ga35  1  0.87301111  0.80482332  0.64375392  1
  S  S36  1  0.02545940  0.07797594  0.27098852  1
  S  S37  1  0.02545940  0.42202406  0.77098852  1
  S  S38  1  0.07797594  0.27098852  0.02545940  1
  S  S39  1  0.07797594  0.22901148  0.52545940  1
  S  S40  1  0.12714309  0.36088184  0.29232024  1
  S  S41  1  0.12714309  0.13911816  0.79232024  1
  S  S42  1  0.13911816  0.79232024  0.12714309  1
  S  S43  1  0.13911816  0.70767976  0.62714309  1
  S  S44  1  0.20767976  0.62714309  0.36088184  1
  S  S45  1  0.20767976  0.87285691  0.86088184  1
  S  S46  1  0.22901148  0.52545940  0.07797594  1
  S  S47  1  0.22901148  0.97454060  0.57797594  1
  S  S48  1  0.27098852  0.02545940  0.07797594  1
  S  S49  1  0.27098852  0.47454060  0.57797594  1
  S  S50  1  0.29232024  0.12714309  0.36088184  1
  S  S51  1  0.29232024  0.37285691  0.86088184  1
  S  S52  1  0.36088184  0.29232024  0.12714309  1
  S  S53  1  0.36088184  0.20767976  0.62714309  1
  S  S54  1  0.37285691  0.86088184  0.29232024  1
  S  S55  1  0.37285691  0.63911816  0.79232024  1
  S  S56  1  0.42202406  0.72901148  0.52545940  1
  S  S57  1  0.42202406  0.77098852  0.02545940  1
  S  S58  1  0.47454060  0.57797594  0.27098852  1
  S  S59  1  0.47454060  0.92202406  0.77098852  1
  S  S60  1  0.52545940  0.07797594  0.22901148  1
  S  S61  1  0.52545940  0.42202406  0.72901148  1
  S  S62  1  0.57797594  0.27098852  0.47454060  1
  S  S63  1  0.57797594  0.22901148  0.97454060  1
  S  S64  1  0.62714309  0.36088184  0.20767976  1
  S  S65  1  0.62714309  0.13911816  0.70767976  1
  S  S66  1  0.63911816  0.70767976  0.87285691  1
  S  S67  1  0.63911816  0.79232024  0.37285691  1
  S  S68  1  0.70767976  0.62714309  0.13911816  1
  S  S69  1  0.70767976  0.87285691  0.63911816  1
  S  S70  1  0.72901148  0.52545940  0.42202406  1
  S  S71  1  0.72901148  0.97454060  0.92202406  1
  S  S72  1  0.77098852  0.02545940  0.42202406  1
  S  S73  1  0.77098852  0.47454060  0.92202406  1
  S  S74  1  0.79232024  0.12714309  0.13911816  1
  S  S75  1  0.79232024  0.37285691  0.63911816  1
  S  S76  1  0.86088184  0.20767976  0.87285691  1
  S  S77  1  0.86088184  0.29232024  0.37285691  1
  S  S78  1  0.87285691  0.63911816  0.70767976  1
  S  S79  1  0.87285691  0.86088184  0.20767976  1
  S  S80  1  0.92202406  0.72901148  0.97454060  1
  S  S81  1  0.92202406  0.77098852  0.47454060  1
  S  S82  1  0.97454060  0.57797594  0.22901148  1
  S  S83  1  0.97454060  0.92202406  0.72901148  1
