# generated using pymatgen
data_CsGe
_symmetry_space_group_name_H-M   'P 1'
_cell_length_a   12.43895312
_cell_length_b   12.43894436
_cell_length_c   12.43890362
_cell_angle_alpha   124.69317532
_cell_angle_beta   124.69317845
_cell_angle_gamma   82.04648403
_symmetry_Int_Tables_number   1
_chemical_formula_structural   CsGe
_chemical_formula_sum   'Cs16 Ge16'
_cell_volume   1251.12395907
_cell_formula_units_Z   16
loop_
 _symmetry_equiv_pos_site_id
 _symmetry_equiv_pos_as_xyz
  1  'x, y, z'
loop_
 _atom_site_type_symbol
 _atom_site_label
 _atom_site_symmetry_multiplicity
 _atom_site_fract_x
 _atom_site_fract_y
 _atom_site_fract_z
 _atom_site_occupancy
  Cs  Cs0  1  0.25000040  0.39175720  0.14175717  1
  Cs  Cs1  1  0.75000005  0.10824250  0.35824323  1
  Cs  Cs2  1  0.10824287  0.24999971  0.35824291  1
  Cs  Cs3  1  0.39175750  0.74999992  0.14175680  1
  Cs  Cs4  1  0.74999962  0.60824282  0.85824285  1
  Cs  Cs5  1  0.24999986  0.89175748  0.64175675  1
  Cs  Cs6  1  0.89175706  0.75000020  0.64175703  1
  Cs  Cs7  1  0.60824249  0.25000005  0.85824315  1
  Cs  Cs8  1  0.49494240  0.24494123  0.48988626  1
  Cs  Cs9  1  0.25505884  0.00505757  0.01011390  1
  Cs  Cs10  1  0.00505785  0.49494203  0.74999990  1
  Cs  Cs11  1  0.24494208  0.25505790  0.74999989  1
  Cs  Cs12  1  0.50505764  0.75505881  0.51011376  1
  Cs  Cs13  1  0.74494122  0.99494239  0.98988621  1
  Cs  Cs14  1  0.99494203  0.50505784  0.24999997  1
  Cs  Cs15  1  0.75505790  0.74494204  0.24999993  1
  Ge  Ge16  1  0.57806690  0.48109222  0.21262282  1
  Ge  Ge17  1  0.76846960  0.36544552  0.28737716  1
  Ge  Ge18  1  0.92193247  0.13455534  0.90302449  1
  Ge  Ge19  1  0.73153032  0.01890699  0.59697530  1
  Ge  Ge20  1  0.01890771  0.92193277  0.28737690  1
  Ge  Ge21  1  0.13455457  0.73153017  0.21262323  1
  Ge  Ge22  1  0.36544463  0.57806743  0.59697528  1
  Ge  Ge23  1  0.48109287  0.76846889  0.90302466  1
  Ge  Ge24  1  0.42193280  0.51890701  0.78737630  1
  Ge  Ge25  1  0.23153052  0.63455418  0.71262281  1
  Ge  Ge26  1  0.07806705  0.86544368  0.09697474  1
  Ge  Ge27  1  0.26846923  0.98109261  0.40302410  1
  Ge  Ge28  1  0.98109194  0.07806697  0.71262277  1
  Ge  Ge29  1  0.86544494  0.26846947  0.78737660  1
  Ge  Ge30  1  0.63455533  0.42193266  0.40302468  1
  Ge  Ge31  1  0.51890732  0.23153041  0.09697547  1
