# generated using pymatgen
data_Cs2SnO3
_symmetry_space_group_name_H-M   'P 1'
_cell_length_a   6.86496016
_cell_length_b   6.86496016
_cell_length_c   5.83739726
_cell_angle_alpha   90.00000000
_cell_angle_beta   90.00000000
_cell_angle_gamma   110.76286869
_symmetry_Int_Tables_number   1
_chemical_formula_structural   Cs2SnO3
_chemical_formula_sum   'Cs4 Sn2 O6'
_cell_volume   257.23658376
_cell_formula_units_Z   2
loop_
 _symmetry_equiv_pos_site_id
 _symmetry_equiv_pos_as_xyz
  1  'x, y, z'
loop_
 _atom_site_type_symbol
 _atom_site_label
 _atom_site_symmetry_multiplicity
 _atom_site_fract_x
 _atom_site_fract_y
 _atom_site_fract_z
 _atom_site_occupancy
  Cs  Cs0  1  0.51605641  0.19263850  0.75000000  1
  Cs  Cs1  1  0.80736150  0.48394359  0.25000000  1
  Cs  Cs2  1  0.48394359  0.80736150  0.25000000  1
  Cs  Cs3  1  0.19263850  0.51605641  0.75000000  1
  Sn  Sn4  1  0.08307963  0.08307963  0.25000000  1
  Sn  Sn5  1  0.91692037  0.91692037  0.75000000  1
  O  O6  1  0.88198153  0.11801847  0.00000000  1
  O  O7  1  0.88198153  0.11801847  0.50000000  1
  O  O8  1  0.66669197  0.66669197  0.75000000  1
  O  O9  1  0.33330803  0.33330803  0.25000000  1
  O  O10  1  0.11801847  0.88198153  0.00000000  1
  O  O11  1  0.11801847  0.88198153  0.50000000  1
