# generated using pymatgen
data_RbCaCO3F
_symmetry_space_group_name_H-M   'P 1'
_cell_length_a   9.17045175
_cell_length_b   9.17045175
_cell_length_c   4.44100353
_cell_angle_alpha   90.00000000
_cell_angle_beta   90.00000000
_cell_angle_gamma   120.00000241
_symmetry_Int_Tables_number   1
_chemical_formula_structural   RbCaCO3F
_chemical_formula_sum   'Rb3 Ca3 C3 O9 F3'
_cell_volume   323.43960676
_cell_formula_units_Z   3
loop_
 _symmetry_equiv_pos_site_id
 _symmetry_equiv_pos_as_xyz
  1  'x, y, z'
loop_
 _atom_site_type_symbol
 _atom_site_label
 _atom_site_symmetry_multiplicity
 _atom_site_fract_x
 _atom_site_fract_y
 _atom_site_fract_z
 _atom_site_occupancy
  Rb  Rb0  1  0.00000000  0.71828707  0.00000000  1
  Rb  Rb1  1  0.28171293  0.28171293  0.00000000  1
  Rb  Rb2  1  0.71828707  0.00000000  0.00000000  1
  Ca  Ca3  1  0.61217714  0.61217714  0.50000000  1
  Ca  Ca4  1  0.38782286  0.00000000  0.50000000  1
  Ca  Ca5  1  0.00000000  0.38782286  0.50000000  1
  C  C6  1  0.33333300  0.66666700  0.50000000  1
  C  C7  1  0.00000000  0.00000000  0.50000000  1
  C  C8  1  0.66666700  0.33333300  0.50000000  1
  O  O9  1  0.85953358  0.85953358  0.50000000  1
  O  O10  1  0.14046642  1.00000000  0.50000000  1
  O  O11  1  1.00000000  0.14046642  0.50000000  1
  O  O12  1  0.48451853  0.79494178  0.50000000  1
  O  O13  1  0.20505822  0.68957674  0.50000000  1
  O  O14  1  0.31042326  0.51548147  0.50000000  1
  O  O15  1  0.68957674  0.20505822  0.50000000  1
  O  O16  1  0.51548147  0.31042326  0.50000000  1
  O  O17  1  0.79494178  0.48451853  0.50000000  1
  F  F18  1  0.61415691  0.61415691  0.00000000  1
  F  F19  1  0.38584309  -0.00000000  -0.00000000  1
  F  F20  1  -0.00000000  0.38584309  -0.00000000  1
