# generated using pymatgen
data_VO2
_symmetry_space_group_name_H-M   'P 1'
_cell_length_a   5.52067845
_cell_length_b   7.12399019
_cell_length_c   5.31599621
_cell_angle_alpha   70.00756093
_cell_angle_beta   58.45151346
_cell_angle_gamma   78.46600156
_symmetry_Int_Tables_number   1
_chemical_formula_structural   VO2
_chemical_formula_sum   'V5 O10'
_cell_volume   167.37754709
_cell_formula_units_Z   5
loop_
 _symmetry_equiv_pos_site_id
 _symmetry_equiv_pos_as_xyz
  1  'x, y, z'
loop_
 _atom_site_type_symbol
 _atom_site_label
 _atom_site_symmetry_multiplicity
 _atom_site_fract_x
 _atom_site_fract_y
 _atom_site_fract_z
 _atom_site_occupancy
  V  V0  1  0.00250938  0.00847963  0.00790113  1
  V  V1  1  0.49600912  0.61538214  0.70987609  1
  V  V2  1  0.50347366  0.17931744  0.89066733  1
  V  V3  1  0.49988346  0.39721819  0.30020223  1
  V  V4  1  -0.00288083  0.78613374  0.59252191  1
  O  O5  1  0.68571355  0.61228958  0.91436229  1
  O  O6  1  0.78700236  0.80513479  0.39858543  1
  O  O7  1  0.79868303  0.00255514  0.78463865  1
  O  O8  1  0.68475915  0.40877042  0.52072073  1
  O  O9  1  0.73976094  0.20210323  0.10892200  1
  O  O10  1  0.20068383  0.79221934  0.81579029  1
  O  O11  1  0.31372869  0.18245170  0.68615962  1
  O  O12  1  0.25968737  0.59262415  0.49137750  1
  O  O13  1  0.21238897  0.98962060  0.20206274  1
  O  O14  1  0.31463233  0.38608392  0.07977508  1
