# generated using pymatgen
data_TlSbF6
_symmetry_space_group_name_H-M   'P 1'
_cell_length_a   5.13062941
_cell_length_b   5.13062961
_cell_length_c   5.13062960
_cell_angle_alpha   97.10687334
_cell_angle_beta   97.10686453
_cell_angle_gamma   97.10687806
_symmetry_Int_Tables_number   1
_chemical_formula_structural   TlSbF6
_chemical_formula_sum   'Tl1 Sb1 F6'
_cell_volume   131.65596902
_cell_formula_units_Z   1
loop_
 _symmetry_equiv_pos_site_id
 _symmetry_equiv_pos_as_xyz
  1  'x, y, z'
loop_
 _atom_site_type_symbol
 _atom_site_label
 _atom_site_symmetry_multiplicity
 _atom_site_fract_x
 _atom_site_fract_y
 _atom_site_fract_z
 _atom_site_occupancy
  Tl  Tl0  1  0.00000000  0.00000000  0.00000000  1
  Sb  Sb1  1  0.50000000  0.50000000  0.50000000  1
  F  F2  1  0.76012142  0.76012142  0.41479963  1
  F  F3  1  0.76012142  0.41479963  0.76012142  1
  F  F4  1  0.23987858  0.58520037  0.23987858  1
  F  F5  1  0.23987858  0.23987858  0.58520037  1
  F  F6  1  0.58520037  0.23987858  0.23987858  1
  F  F7  1  0.41479963  0.76012142  0.76012142  1
