# generated using pymatgen
data_Bi2CO5
_symmetry_space_group_name_H-M   'P 1'
_cell_length_a   7.61654432
_cell_length_b   7.61654432
_cell_length_c   7.61673509
_cell_angle_alpha   29.95274739
_cell_angle_beta   29.95274739
_cell_angle_gamma   42.86839040
_symmetry_Int_Tables_number   1
_chemical_formula_structural   Bi2CO5
_chemical_formula_sum   'Bi2 C1 O5'
_cell_volume   109.86857383
_cell_formula_units_Z   1
loop_
 _symmetry_equiv_pos_site_id
 _symmetry_equiv_pos_as_xyz
  1  'x, y, z'
loop_
 _atom_site_type_symbol
 _atom_site_label
 _atom_site_symmetry_multiplicity
 _atom_site_fract_x
 _atom_site_fract_y
 _atom_site_fract_z
 _atom_site_occupancy
  Bi  Bi0  1  0.83588000  0.83588000  0.00984500  1
  Bi  Bi1  1  0.15427500  0.15427500  0.00984500  1
  C  C2  1  0.45138300  0.45138300  0.09723300  1
  O  O3  1  0.21732200  0.21732200  0.56535500  1
  O  O4  1  0.64134700  0.64134700  0.88799600  1
  O  O5  1  0.74625700  0.24625700  0.50748600  1
  O  O6  1  0.49170100  0.49170100  0.86434200  1
  O  O7  1  0.24625700  0.74625700  0.50748600  1
