# generated using pymatgen
data_Rb4FeO4
_symmetry_space_group_name_H-M   'P 1'
_cell_length_a   6.60221948
_cell_length_b   10.61779766
_cell_length_c   11.16496798
_cell_angle_alpha   69.22225090
_cell_angle_beta   90.00000000
_cell_angle_gamma   90.00000000
_symmetry_Int_Tables_number   1
_chemical_formula_structural   Rb4FeO4
_chemical_formula_sum   'Rb16 Fe4 O16'
_cell_volume   731.77327880
_cell_formula_units_Z   4
loop_
 _symmetry_equiv_pos_site_id
 _symmetry_equiv_pos_as_xyz
  1  'x, y, z'
loop_
 _atom_site_type_symbol
 _atom_site_label
 _atom_site_symmetry_multiplicity
 _atom_site_fract_x
 _atom_site_fract_y
 _atom_site_fract_z
 _atom_site_occupancy
  Rb  Rb0  1  0.68963644  0.27423043  0.10036544  1
  Rb  Rb1  1  0.20045164  0.40192475  0.10798979  1
  Rb  Rb2  1  0.37180134  0.05914343  0.34424034  1
  Rb  Rb3  1  0.81036356  0.77423043  0.10036544  1
  Rb  Rb4  1  0.29954836  0.90192475  0.10798979  1
  Rb  Rb5  1  0.92943085  0.21452108  0.42838383  1
  Rb  Rb6  1  0.12819866  0.55914343  0.34424034  1
  Rb  Rb7  1  0.42943085  0.28547892  0.57161617  1
  Rb  Rb8  1  0.57056915  0.71452108  0.42838383  1
  Rb  Rb9  1  0.87180134  0.44085657  0.65575966  1
  Rb  Rb10  1  0.07056915  0.78547892  0.57161617  1
  Rb  Rb11  1  0.70045164  0.09807525  0.89201021  1
  Rb  Rb12  1  0.18963644  0.22576957  0.89963456  1
  Rb  Rb13  1  0.62819866  0.94085657  0.65575966  1
  Rb  Rb14  1  0.79954836  0.59807525  0.89201021  1
  Rb  Rb15  1  0.31036356  0.72576957  0.89963456  1
  Fe  Fe16  1  0.61922071  0.47868197  0.26262804  1
  Fe  Fe17  1  0.88077929  0.97868197  0.26262804  1
  Fe  Fe18  1  0.11922071  0.02131803  0.73737196  1
  Fe  Fe19  1  0.38077929  0.52131803  0.73737196  1
  O  O20  1  0.04120900  0.11095763  0.15629702  1
  O  O21  1  0.84737070  0.49333284  0.16893407  1
  O  O22  1  0.45962000  0.33152302  0.30926958  1
  O  O23  1  0.45879100  0.61095763  0.15629702  1
  O  O24  1  0.65262930  -0.00666716  0.16893407  1
  O  O25  1  0.72327881  0.47030108  0.41177373  1
  O  O26  1  0.22327881  0.02969892  0.58822627  1
  O  O27  1  0.04038000  0.83152302  0.30926958  1
  O  O28  1  0.95962000  0.16847698  0.69073042  1
  O  O29  1  0.77672119  0.97030108  0.41177373  1
  O  O30  1  0.27672119  0.52969892  0.58822627  1
  O  O31  1  0.34737070  0.00666716  0.83106593  1
  O  O32  1  0.54120900  0.38904237  0.84370298  1
  O  O33  1  0.54038000  0.66847698  0.69073042  1
  O  O34  1  0.15262930  0.50666716  0.83106593  1
  O  O35  1  0.95879100  0.88904237  0.84370298  1
