# generated using pymatgen
data_Cs2Li2TiO4
_symmetry_space_group_name_H-M   'P 1'
_cell_length_a   5.78543575
_cell_length_b   5.89288069
_cell_length_c   9.41522015
_cell_angle_alpha   83.66839266
_cell_angle_beta   74.38820937
_cell_angle_gamma   86.62435961
_symmetry_Int_Tables_number   1
_chemical_formula_structural   Cs2Li2TiO4
_chemical_formula_sum   'Cs4 Li4 Ti2 O8'
_cell_volume   307.12095291
_cell_formula_units_Z   2
loop_
 _symmetry_equiv_pos_site_id
 _symmetry_equiv_pos_as_xyz
  1  'x, y, z'
loop_
 _atom_site_type_symbol
 _atom_site_label
 _atom_site_symmetry_multiplicity
 _atom_site_fract_x
 _atom_site_fract_y
 _atom_site_fract_z
 _atom_site_occupancy
  Cs  Cs0  1  0.47157658  0.85255362  0.71638815  1
  Cs  Cs1  1  0.52842342  0.14744638  0.28361185  1
  Cs  Cs2  1  0.78284886  0.72620229  0.01475438  1
  Cs  Cs3  1  0.21715114  0.27379771  0.98524562  1
  Li  Li4  1  0.92630049  0.17877940  0.44159580  1
  Li  Li5  1  0.07369951  0.82122060  0.55840420  1
  Li  Li6  1  0.69190395  0.58438039  0.42550634  1
  Li  Li7  1  0.30809605  0.41561961  0.57449366  1
  Ti  Ti8  1  0.13823294  0.68067838  0.29137877  1
  Ti  Ti9  1  0.86176706  0.31932162  0.70862123  1
  O  O10  1  0.02502538  0.57540626  0.70806749  1
  O  O11  1  0.97497462  0.42459374  0.29193251  1
  O  O12  1  0.90060181  0.86197561  0.40422515  1
  O  O13  1  0.09939819  0.13802439  0.59577485  1
  O  O14  1  0.25947885  0.79547963  0.10266086  1
  O  O15  1  0.74052115  0.20452037  0.89733914  1
  O  O16  1  0.36884789  0.63930500  0.39710696  1
  O  O17  1  0.63115211  0.36069500  0.60289304  1
