# generated using pymatgen
data_Sc7V9O24
_symmetry_space_group_name_H-M   'P 1'
_cell_length_a   8.27097572
_cell_length_b   8.34886762
_cell_length_c   8.34384660
_cell_angle_alpha   109.27407545
_cell_angle_beta   109.63907064
_cell_angle_gamma   109.72308304
_symmetry_Int_Tables_number   1
_chemical_formula_structural   Sc7V9O24
_chemical_formula_sum   'Sc7 V9 O24'
_cell_volume   442.30762614
_cell_formula_units_Z   1
loop_
 _symmetry_equiv_pos_site_id
 _symmetry_equiv_pos_as_xyz
  1  'x, y, z'
loop_
 _atom_site_type_symbol
 _atom_site_label
 _atom_site_symmetry_multiplicity
 _atom_site_fract_x
 _atom_site_fract_y
 _atom_site_fract_z
 _atom_site_occupancy
  Sc  Sc0  1  0.74832696  0.28418049  0.53448919  1
  Sc  Sc1  1  0.54134221  0.74958790  0.28870051  1
  Sc  Sc2  1  0.24969509  0.71366093  0.46264048  1
  Sc  Sc3  1  0.25047129  0.21552288  0.96512664  1
  Sc  Sc4  1  0.21172589  0.96610141  0.25153078  1
  Sc  Sc5  1  0.28945499  0.53505423  0.74954537  1
  Sc  Sc6  1  0.03339525  0.75076087  0.78835382  1
  V  V7  1  0.50769056  0.00419291  0.99602770  1
  V  V8  1  0.95891124  0.24774709  0.20944245  1
  V  V9  1  0.78248384  0.03289363  0.75280504  1
  V  V10  1  0.71646729  0.46709605  0.24672558  1
  V  V11  1  0.74991088  0.78790091  0.03852938  1
  V  V12  1  0.50133808  0.50041043  0.50130000  1
  V  V13  1  0.99875733  0.99868891  0.50056475  1
  V  V14  1  0.46873228  0.25349215  0.71944280  1
  V  V15  1  0.99120766  0.49608319  0.99964331  1
  O  O16  1  0.73510098  0.22519574  0.26219992  1
  O  O17  1  0.77456344  0.03940394  0.49587553  1
  O  O18  1  0.95667688  0.50569245  0.23040572  1
  O  O19  1  0.28453136  0.01134614  0.04882125  1
  O  O20  1  0.46174854  0.23724922  0.45904493  1
  O  O21  1  0.79144372  0.73054474  0.27228882  1
  O  O22  1  0.45723433  0.46417056  0.23209267  1
  O  O23  1  0.03733499  0.27577358  0.01328136  1
  O  O24  1  0.99181405  0.04068655  0.26068657  1
  O  O25  1  0.50479368  0.76956384  0.03870534  1
  O  O26  1  0.76808711  0.54417939  0.52355803  1
  O  O27  1  0.71858646  0.24931368  0.76816020  1
  O  O28  1  0.22337467  0.44494022  0.45471980  1
  O  O29  1  0.27230016  0.73732195  0.22513592  1
  O  O30  1  0.51912112  0.24836313  0.96845875  1
  O  O31  1  0.97993681  0.95566636  0.72952835  1
  O  O32  1  0.55317864  0.53387535  0.77540451  1
  O  O33  1  0.94560717  0.71964188  0.99235602  1
  O  O34  1  0.22046392  0.26594511  0.72887133  1
  O  O35  1  0.54178266  0.76918639  0.54985874  1
  O  O36  1  0.03601107  0.49065880  0.77363695  1
  O  O37  1  0.71901290  0.98729490  0.94307798  1
  O  O38  1  0.24039017  0.97405020  0.51833443  1
  O  O39  1  0.26700330  0.77656592  0.73063109  1
