# generated using pymatgen
data_Li11V8(PO4)12
_symmetry_space_group_name_H-M   'P 1'
_cell_length_a   12.25535474
_cell_length_b   8.72008018
_cell_length_c   8.78387889
_cell_angle_alpha   90.30482948
_cell_angle_beta   90.18092658
_cell_angle_gamma   90.15872245
_symmetry_Int_Tables_number   1
_chemical_formula_structural   Li11V8(PO4)12
_chemical_formula_sum   'Li11 V8 P12 O48'
_cell_volume   938.69111162
_cell_formula_units_Z   1
loop_
 _symmetry_equiv_pos_site_id
 _symmetry_equiv_pos_as_xyz
  1  'x, y, z'
loop_
 _atom_site_type_symbol
 _atom_site_label
 _atom_site_symmetry_multiplicity
 _atom_site_fract_x
 _atom_site_fract_y
 _atom_site_fract_z
 _atom_site_occupancy
  Li  Li0  1  0.18189464  0.21802753  0.77763231  1
  Li  Li1  1  0.18053161  0.77423248  0.27598789  1
  Li  Li2  1  0.28960134  0.05580736  0.41820205  1
  Li  Li3  1  0.31749385  0.31390397  0.26679341  1
  Li  Li4  1  0.31728690  0.71532684  0.77294539  1
  Li  Li5  1  0.68158898  0.27324015  0.22827720  1
  Li  Li6  1  0.68493016  0.68514611  0.73217289  1
  Li  Li7  1  0.71295877  0.94798718  0.58628499  1
  Li  Li8  1  0.78547051  0.55394782  0.08239772  1
  Li  Li9  1  0.81909278  0.22721413  0.72934526  1
  Li  Li10  1  0.81560306  0.81364732  0.23309689  1
  V  V11  1  0.11259622  0.26008095  0.46179249  1
  V  V12  1  0.11418018  0.74642825  0.95805202  1
  V  V13  1  0.38751863  0.74673659  0.46188022  1
  V  V14  1  0.38511465  0.24443114  0.96127603  1
  V  V15  1  0.61192720  0.25509482  0.54015878  1
  V  V16  1  0.60961330  0.75988424  0.03910223  1
  V  V17  1  0.88820095  0.24533671  0.04095984  1
  V  V18  1  0.88889561  0.74256476  0.53911674  1
  P  P19  1  0.99863091  0.54438408  0.24667777  1
  P  P20  1  0.00023301  0.45953898  0.75041504  1
  P  P21  1  0.14781293  0.10059067  0.10565556  1
  P  P22  1  0.14557960  0.89778255  0.60380027  1
  P  P23  1  0.35352118  0.39263935  0.60530999  1
  P  P24  1  0.35135817  0.60923273  0.09945438  1
  P  P25  1  0.49789677  0.04641978  0.25323443  1
  P  P26  1  0.50178009  0.95606657  0.75121573  1
  P  P27  1  0.64697589  0.60679440  0.39279705  1
  P  P28  1  0.64530719  0.39070918  0.90247465  1
  P  P29  1  0.85429354  0.10949780  0.40308490  1
  P  P30  1  0.85520334  0.89296968  0.89437291  1
  O  O31  1  0.03157412  0.15341262  0.07132741  1
  O  O32  1  0.03184511  0.84497417  0.56111975  1
  O  O33  1  0.06812482  0.56578527  0.86035150  1
  O  O34  1  0.06744038  0.44665059  0.35333773  1
  O  O35  1  0.08376038  0.35961246  0.66742236  1
  O  O36  1  0.08039290  0.64609278  0.15484624  1
  O  O37  1  0.15851164  0.07554409  0.60189953  1
  O  O38  1  0.15397312  0.92073094  0.09972519  1
  O  O39  1  0.18379683  0.15151976  0.26859815  1
  O  O40  1  0.17886589  0.83797450  0.76499014  1
  O  O41  1  0.22536809  0.16777996  0.98510201  1
  O  O42  1  0.22838558  0.84060701  0.48030643  1
  O  O43  1  0.26815093  0.67838302  0.98092518  1
  O  O44  1  0.27825859  0.31361003  0.48095145  1
  O  O45  1  0.32098617  0.33112255  0.76291470  1
  O  O46  1  0.31977992  0.66104021  0.26296159  1
  O  O47  1  0.34084738  0.43310760  0.09077067  1
  O  O48  1  0.33726363  0.56807650  0.60075464  1
  O  O49  1  0.41822641  0.15690070  0.17317939  1
  O  O50  1  0.41967204  0.85103824  0.66324700  1
  O  O51  1  0.43663808  0.05304337  0.86299462  1
  O  O52  1  0.42584709  0.95096829  0.36195633  1
  O  O53  1  0.46455237  0.66393280  0.05510176  1
  O  O54  1  0.47103902  0.35113665  0.56419988  1
  O  O55  1  0.53054194  0.65364376  0.42713453  1
  O  O56  1  0.53200575  0.34170822  0.94441803  1
  O  O57  1  0.57466339  0.04942631  0.64156591  1
  O  O58  1  0.56735338  0.95058504  0.14332082  1
  O  O59  1  0.58106174  0.14804064  0.34343480  1
  O  O60  1  0.58372132  0.84574644  0.83172135  1
  O  O61  1  0.66300109  0.43172977  0.39520563  1
  O  O62  1  0.66226527  0.56866041  0.91387665  1
  O  O63  1  0.67924134  0.34099015  0.74011520  1
  O  O64  1  0.68353058  0.66428253  0.23130983  1
  O  O65  1  0.72992496  0.32954273  0.02342233  1
  O  O66  1  0.72214038  0.68647866  0.51517286  1
  O  O67  1  0.77164639  0.16909629  0.52534648  1
  O  O68  1  0.78237212  0.81460068  0.01698603  1
  O  O69  1  0.82137065  0.15868924  0.24107927  1
  O  O70  1  0.81711764  0.83593316  0.73402045  1
  O  O71  1  0.84169984  0.06883641  0.89715279  1
  O  O72  1  0.83969487  0.93139231  0.41347029  1
  O  O73  1  0.92292998  0.35406690  0.84071057  1
  O  O74  1  0.92101836  0.65670171  0.32932995  1
  O  O75  1  0.92385024  0.45037007  0.13931317  1
  O  O76  1  0.92969689  0.55314435  0.64113755  1
  O  O77  1  0.96845486  0.16147692  0.44537046  1
  O  O78  1  0.97450360  0.84644504  0.92503035  1
