# generated using pymatgen
data_Rb3InO3
_symmetry_space_group_name_H-M   'P 1'
_cell_length_a   7.09163270
_cell_length_b   7.75869261
_cell_length_c   11.35828284
_cell_angle_alpha   85.97981099
_cell_angle_beta   90.00000000
_cell_angle_gamma   90.00000000
_symmetry_Int_Tables_number   1
_chemical_formula_structural   Rb3InO3
_chemical_formula_sum   'Rb12 In4 O12'
_cell_volume   623.41539255
_cell_formula_units_Z   4
loop_
 _symmetry_equiv_pos_site_id
 _symmetry_equiv_pos_as_xyz
  1  'x, y, z'
loop_
 _atom_site_type_symbol
 _atom_site_label
 _atom_site_symmetry_multiplicity
 _atom_site_fract_x
 _atom_site_fract_y
 _atom_site_fract_z
 _atom_site_occupancy
  Rb  Rb0  1  0.32428979  0.36019999  0.07516150  1
  Rb  Rb1  1  0.62445186  0.94354686  0.15497418  1
  Rb  Rb2  1  0.80500505  0.36819271  0.19230847  1
  Rb  Rb3  1  0.30500505  0.63180729  0.30769153  1
  Rb  Rb4  1  0.12445186  0.05645314  0.34502582  1
  Rb  Rb5  1  0.82428979  0.63980001  0.42483850  1
  Rb  Rb6  1  0.17571021  0.36019999  0.57516150  1
  Rb  Rb7  1  0.87554814  0.94354686  0.65497418  1
  Rb  Rb8  1  0.69499495  0.36819271  0.69230847  1
  Rb  Rb9  1  0.19499495  0.63180729  0.80769153  1
  Rb  Rb10  1  0.37554814  0.05645314  0.84502582  1
  Rb  Rb11  1  0.67571021  0.63980001  0.92483850  1
  In  In12  1  0.08754735  0.83879787  0.06710652  1
  In  In13  1  0.58754735  0.16120213  0.43289348  1
  In  In14  1  0.41245265  0.83879787  0.56710652  1
  In  In15  1  0.91245265  0.16120213  0.93289348  1
  O  O16  1  0.35318408  0.74748332  0.03916185  1
  O  O17  1  0.04659705  0.10512859  0.09945954  1
  O  O18  1  0.93736375  0.69429461  0.19068822  1
  O  O19  1  0.43736375  0.30570539  0.30931178  1
  O  O20  1  0.54659705  0.89487141  0.40054046  1
  O  O21  1  0.85318408  0.25251668  0.46083815  1
  O  O22  1  0.14681592  0.74748332  0.53916185  1
  O  O23  1  0.45340295  0.10512859  0.59945954  1
  O  O24  1  0.56263625  0.69429461  0.69068822  1
  O  O25  1  0.06263625  0.30570539  0.80931178  1
  O  O26  1  0.95340295  0.89487141  0.90054046  1
  O  O27  1  0.64681592  0.25251668  0.96083815  1
