# generated using pymatgen
data_RbNaO
_symmetry_space_group_name_H-M   'P 1'
_cell_length_a   4.05017426
_cell_length_b   4.05017426
_cell_length_c   6.49398464
_cell_angle_alpha   90.00000000
_cell_angle_beta   90.00000000
_cell_angle_gamma   90.00000000
_symmetry_Int_Tables_number   1
_chemical_formula_structural   RbNaO
_chemical_formula_sum   'Rb2 Na2 O2'
_cell_volume   106.52674955
_cell_formula_units_Z   2
loop_
 _symmetry_equiv_pos_site_id
 _symmetry_equiv_pos_as_xyz
  1  'x, y, z'
loop_
 _atom_site_type_symbol
 _atom_site_label
 _atom_site_symmetry_multiplicity
 _atom_site_fract_x
 _atom_site_fract_y
 _atom_site_fract_z
 _atom_site_occupancy
  Rb  Rb0  1  0.25000000  0.25000000  0.64306242  1
  Rb  Rb1  1  0.75000000  0.75000000  0.35693758  1
  Na  Na2  1  0.75000000  0.25000000  -0.00000000  1
  Na  Na3  1  0.25000000  0.75000000  -0.00000000  1
  O  O4  1  0.75000000  0.75000000  0.80649318  1
  O  O5  1  0.25000000  0.25000000  0.19350682  1
