# generated using pymatgen
data_KGeBiS4
_symmetry_space_group_name_H-M   'P 1'
_cell_length_a   6.84425409
_cell_length_b   6.64028188
_cell_length_c   17.32764852
_cell_angle_alpha   72.62205121
_cell_angle_beta   90.00000000
_cell_angle_gamma   90.00000000
_symmetry_Int_Tables_number   1
_chemical_formula_structural   KGeBiS4
_chemical_formula_sum   'K4 Ge4 Bi4 S16'
_cell_volume   751.55779123
_cell_formula_units_Z   4
loop_
 _symmetry_equiv_pos_site_id
 _symmetry_equiv_pos_as_xyz
  1  'x, y, z'
loop_
 _atom_site_type_symbol
 _atom_site_label
 _atom_site_symmetry_multiplicity
 _atom_site_fract_x
 _atom_site_fract_y
 _atom_site_fract_z
 _atom_site_occupancy
  K  K0  1  0.25282782  0.72803673  0.03420526  1
  K  K1  1  0.75282782  0.27196327  0.46579474  1
  K  K2  1  0.74717218  0.27196327  0.96579474  1
  K  K3  1  0.24717218  0.72803673  0.53420526  1
  Ge  Ge4  1  0.73464137  0.78822185  0.15647335  1
  Ge  Ge5  1  0.23464137  0.21177815  0.34352665  1
  Ge  Ge6  1  0.26535863  0.21177815  0.84352665  1
  Ge  Ge7  1  0.76535863  0.78822185  0.65647335  1
  Bi  Bi8  1  0.30954775  0.76293086  0.28086131  1
  Bi  Bi9  1  0.80954775  0.23706914  0.21913869  1
  Bi  Bi10  1  0.69045225  0.23706914  0.71913869  1
  Bi  Bi11  1  0.19045225  0.76293086  0.78086131  1
  S  S12  1  0.49669004  0.00834892  0.35816877  1
  S  S13  1  -0.00330996  0.99165108  0.14183123  1
  S  S14  1  0.50330996  0.99165108  0.64183123  1
  S  S15  1  0.00330996  0.00834892  0.85816877  1
  S  S16  1  0.75830135  0.57625373  0.08064575  1
  S  S17  1  0.25830135  0.42374627  0.41935425  1
  S  S18  1  0.24169865  0.42374627  0.91935425  1
  S  S19  1  0.74169865  0.57625373  0.58064575  1
  S  S20  1  0.99152274  0.98707135  0.36897718  1
  S  S21  1  0.49152274  0.01292865  0.13102282  1
  S  S22  1  0.00847726  0.01292865  0.63102282  1
  S  S23  1  0.50847726  0.98707135  0.86897718  1
  S  S24  1  0.67620813  0.58854466  0.28355679  1
  S  S25  1  0.17620813  0.41145534  0.21644321  1
  S  S26  1  0.32379187  0.41145534  0.71644321  1
  S  S27  1  0.82379187  0.58854466  0.78355679  1
