# generated using pymatgen
data_Zr(PS3)2
_symmetry_space_group_name_H-M   'P 1'
_cell_length_a   6.79088051
_cell_length_b   6.79088051
_cell_length_c   9.53951841
_cell_angle_alpha   90.00000000
_cell_angle_beta   90.00000000
_cell_angle_gamma   90.00000000
_symmetry_Int_Tables_number   1
_chemical_formula_structural   Zr(PS3)2
_chemical_formula_sum   'Zr2 P4 S12'
_cell_volume   439.92498525
_cell_formula_units_Z   2
loop_
 _symmetry_equiv_pos_site_id
 _symmetry_equiv_pos_as_xyz
  1  'x, y, z'
loop_
 _atom_site_type_symbol
 _atom_site_label
 _atom_site_symmetry_multiplicity
 _atom_site_fract_x
 _atom_site_fract_y
 _atom_site_fract_z
 _atom_site_occupancy
  Zr  Zr0  1  0.00000000  -0.00000000  0.75000000  1
  Zr  Zr1  1  0.00000000  -0.00000000  0.25000000  1
  P  P2  1  0.65666432  0.05533809  0.00000000  1
  P  P3  1  0.34333568  0.94466191  0.00000000  1
  P  P4  1  0.05533809  0.34333568  0.50000000  1
  P  P5  1  0.94466191  0.65666432  0.50000000  1
  S  S6  1  0.20704959  0.30690247  0.67861891  1
  S  S7  1  0.69309753  0.20704959  0.17861891  1
  S  S8  1  0.16028253  0.18055996  0.00000000  1
  S  S9  1  0.81944004  0.16028253  0.50000000  1
  S  S10  1  0.18055996  0.83971747  0.50000000  1
  S  S11  1  0.83971747  0.81944004  0.00000000  1
  S  S12  1  0.20704959  0.30690247  0.32138109  1
  S  S13  1  0.69309753  0.20704959  0.82138109  1
  S  S14  1  0.30690247  0.79295041  0.82138109  1
  S  S15  1  0.79295041  0.69309753  0.32138109  1
  S  S16  1  0.79295041  0.69309753  0.67861891  1
  S  S17  1  0.30690247  0.79295041  0.17861891  1
