# generated using pymatgen
data_Na2AgAs
_symmetry_space_group_name_H-M   'P 1'
_cell_length_a   5.59684731
_cell_length_b   5.72855843
_cell_length_c   5.72855770
_cell_angle_alpha   99.69777462
_cell_angle_beta   90.00000000
_cell_angle_gamma   90.00000000
_symmetry_Int_Tables_number   1
_chemical_formula_structural   Na2AgAs
_chemical_formula_sum   'Na4 Ag2 As2'
_cell_volume   181.04363689
_cell_formula_units_Z   2
loop_
 _symmetry_equiv_pos_site_id
 _symmetry_equiv_pos_as_xyz
  1  'x, y, z'
loop_
 _atom_site_type_symbol
 _atom_site_label
 _atom_site_symmetry_multiplicity
 _atom_site_fract_x
 _atom_site_fract_y
 _atom_site_fract_z
 _atom_site_occupancy
  Na  Na0  1  0.25026255  0.67894545  0.03186140  1
  Na  Na1  1  0.75026255  0.32105455  0.96813860  1
  Na  Na2  1  0.24973745  0.03186140  0.67894545  1
  Na  Na3  1  0.74973745  0.96813860  0.32105455  1
  Ag  Ag4  1  0.50000000  0.49993570  0.50006430  1
  Ag  Ag5  1  -0.00000000  0.50006430  0.49993570  1
  As  As6  1  0.75000000  0.78674212  0.78674212  1
  As  As7  1  0.25000000  0.21325788  0.21325788  1
