# generated using pymatgen
data_Ba3In(BO3)3
_symmetry_space_group_name_H-M   'P 1'
_cell_length_a   8.04297546
_cell_length_b   8.04297546
_cell_length_c   8.04297535
_cell_angle_alpha   105.72080171
_cell_angle_beta   105.72080172
_cell_angle_gamma   105.72079908
_symmetry_Int_Tables_number   1
_chemical_formula_structural   Ba3In(BO3)3
_chemical_formula_sum   'Ba6 In2 B6 O18'
_cell_volume   447.56784825
_cell_formula_units_Z   2
loop_
 _symmetry_equiv_pos_site_id
 _symmetry_equiv_pos_as_xyz
  1  'x, y, z'
loop_
 _atom_site_type_symbol
 _atom_site_label
 _atom_site_symmetry_multiplicity
 _atom_site_fract_x
 _atom_site_fract_y
 _atom_site_fract_z
 _atom_site_occupancy
  Ba  Ba0  1  0.15601692  0.66484355  0.76303213  1
  Ba  Ba1  1  0.76303213  0.15601692  0.66484355  1
  Ba  Ba2  1  0.66484355  0.76303213  0.15601692  1
  Ba  Ba3  1  0.84398308  0.33515645  0.23696787  1
  Ba  Ba4  1  0.23696787  0.84398308  0.33515645  1
  Ba  Ba5  1  0.33515645  0.23696787  0.84398308  1
  In  In6  1  -0.00000000  -0.00000000  -0.00000000  1
  In  In7  1  0.50000000  0.50000000  0.50000000  1
  B  B8  1  0.13480867  0.20923157  0.45070520  1
  B  B9  1  0.45070520  0.13480867  0.20923157  1
  B  B10  1  0.20923157  0.45070520  0.13480867  1
  B  B11  1  0.86519133  0.79076843  0.54929480  1
  B  B12  1  0.54929480  0.86519133  0.79076843  1
  B  B13  1  0.79076843  0.54929480  0.86519133  1
  O  O14  1  0.32360628  0.23788198  0.50194470  1
  O  O15  1  0.50194470  0.32360628  0.23788198  1
  O  O16  1  0.23788198  0.50194470  0.32360628  1
  O  O17  1  0.67639372  0.76211802  0.49805530  1
  O  O18  1  0.49805530  0.67639372  0.76211802  1
  O  O19  1  0.76211802  0.49805530  0.67639372  1
  O  O20  1  0.06833751  0.30098596  0.57124714  1
  O  O21  1  0.57124714  0.06833751  0.30098596  1
  O  O22  1  0.30098596  0.57124714  0.06833751  1
  O  O23  1  0.93166249  0.69901404  0.42875286  1
  O  O24  1  0.42875286  0.93166249  0.69901404  1
  O  O25  1  0.69901404  0.42875286  0.93166249  1
  O  O26  1  0.00827695  0.06999328  0.28205591  1
  O  O27  1  0.28205591  0.00827695  0.06999328  1
  O  O28  1  0.06999328  0.28205591  0.00827695  1
  O  O29  1  0.99172305  0.93000672  0.71794409  1
  O  O30  1  0.71794409  0.99172305  0.93000672  1
  O  O31  1  0.93000672  0.71794409  0.99172305  1
