# generated using pymatgen
data_Ba3Dy4O9
_symmetry_space_group_name_H-M   'P 1'
_cell_length_a   9.18208195
_cell_length_b   9.18208186
_cell_length_c   9.18208229
_cell_angle_alpha   38.84329647
_cell_angle_beta   38.84329331
_cell_angle_gamma   38.84329311
_symmetry_Int_Tables_number   1
_chemical_formula_structural   Ba3Dy4O9
_chemical_formula_sum   'Ba3 Dy4 O9'
_cell_volume   273.78500703
_cell_formula_units_Z   1
loop_
 _symmetry_equiv_pos_site_id
 _symmetry_equiv_pos_as_xyz
  1  'x, y, z'
loop_
 _atom_site_type_symbol
 _atom_site_label
 _atom_site_symmetry_multiplicity
 _atom_site_fract_x
 _atom_site_fract_y
 _atom_site_fract_z
 _atom_site_occupancy
  Ba  Ba0  1  0.99800089  0.99800089  0.99800089  1
  Ba  Ba1  1  0.16296458  0.16296458  0.16296458  1
  Ba  Ba2  1  0.57572906  0.57572906  0.57572906  1
  Dy  Dy3  1  0.42414711  0.42414711  0.42414711  1
  Dy  Dy4  1  0.86294580  0.86294580  0.86294580  1
  Dy  Dy5  1  0.73714577  0.73714577  0.73714577  1
  Dy  Dy6  1  0.29892906  0.29892906  0.29892906  1
  O  O7  1  0.45520929  0.58111673  0.04029201  1
  O  O8  1  0.58111673  0.04029201  0.45520929  1
  O  O9  1  0.04029201  0.45520929  0.58111673  1
  O  O10  1  0.58897228  0.69841137  0.12609011  1
  O  O11  1  0.69841137  0.12609011  0.58897228  1
  O  O12  1  0.12609011  0.58897228  0.69841137  1
  O  O13  1  0.02062848  0.57938781  0.14213266  1
  O  O14  1  0.14213266  0.02062848  0.57938781  1
  O  O15  1  0.57938781  0.14213266  0.02062848  1
