# generated using pymatgen
data_Ca2SnS4
_symmetry_space_group_name_H-M   'P 1'
_cell_length_a   6.56253781
_cell_length_b   8.22000785
_cell_length_c   13.97510648
_cell_angle_alpha   90.00000000
_cell_angle_beta   90.00000000
_cell_angle_gamma   90.00000000
_symmetry_Int_Tables_number   1
_chemical_formula_structural   Ca2SnS4
_chemical_formula_sum   'Ca8 Sn4 S16'
_cell_volume   753.87471356
_cell_formula_units_Z   4
loop_
 _symmetry_equiv_pos_site_id
 _symmetry_equiv_pos_as_xyz
  1  'x, y, z'
loop_
 _atom_site_type_symbol
 _atom_site_label
 _atom_site_symmetry_multiplicity
 _atom_site_fract_x
 _atom_site_fract_y
 _atom_site_fract_z
 _atom_site_occupancy
  Ca  Ca0  1  -0.00000000  0.50000000  -0.00000000  1
  Ca  Ca1  1  0.50000000  0.00000000  0.50000000  1
  Ca  Ca2  1  -0.00000000  0.00000000  -0.00000000  1
  Ca  Ca3  1  0.50000000  0.50000000  0.50000000  1
  Ca  Ca4  1  0.48979115  0.75000000  0.22819884  1
  Ca  Ca5  1  0.01020885  0.75000000  0.72819884  1
  Ca  Ca6  1  0.51020885  0.25000000  0.77180116  1
  Ca  Ca7  1  0.98979115  0.25000000  0.27180116  1
  Sn  Sn8  1  0.91451078  0.75000000  0.40712760  1
  Sn  Sn9  1  0.58548922  0.75000000  0.90712760  1
  Sn  Sn10  1  0.08548922  0.25000000  0.59287240  1
  Sn  Sn11  1  0.41451078  0.25000000  0.09287240  1
  S  S12  1  0.76207346  0.75000000  0.56433309  1
  S  S13  1  0.73792654  0.75000000  0.06433309  1
  S  S14  1  0.23792654  0.25000000  0.43566691  1
  S  S15  1  0.26207346  0.25000000  0.93566691  1
  S  S16  1  0.27561340  0.75000000  0.40689254  1
  S  S17  1  0.22438660  0.75000000  0.90689254  1
  S  S18  1  0.72438660  0.25000000  0.59310746  1
  S  S19  1  0.77561340  0.25000000  0.09310746  1
  S  S20  1  0.74858270  0.52285210  0.33101696  1
  S  S21  1  0.75141730  0.97714790  0.83101696  1
  S  S22  1  0.25141730  0.02285210  0.66898304  1
  S  S23  1  0.24858270  0.47714790  0.16898304  1
  S  S24  1  0.25141730  0.47714790  0.66898304  1
  S  S25  1  0.24858270  0.02285210  0.16898304  1
  S  S26  1  0.74858270  0.97714790  0.33101696  1
  S  S27  1  0.75141730  0.52285210  0.83101696  1
