# generated using pymatgen
data_Ba(NdS2)2
_symmetry_space_group_name_H-M   'P 1'
_cell_length_a   4.19898505
_cell_length_b   12.41079018
_cell_length_c   14.94208972
_cell_angle_alpha   90.00000000
_cell_angle_beta   90.00000000
_cell_angle_gamma   90.00000000
_symmetry_Int_Tables_number   1
_chemical_formula_structural   Ba(NdS2)2
_chemical_formula_sum   'Ba4 Nd8 S16'
_cell_volume   778.67297402
_cell_formula_units_Z   4
loop_
 _symmetry_equiv_pos_site_id
 _symmetry_equiv_pos_as_xyz
  1  'x, y, z'
loop_
 _atom_site_type_symbol
 _atom_site_label
 _atom_site_symmetry_multiplicity
 _atom_site_fract_x
 _atom_site_fract_y
 _atom_site_fract_z
 _atom_site_occupancy
  Ba  Ba0  1  0.25000000  0.25296661  0.65876922  1
  Ba  Ba1  1  0.75000000  0.24703339  0.15876922  1
  Ba  Ba2  1  0.25000000  0.75296661  0.84123078  1
  Ba  Ba3  1  0.75000000  0.74703339  0.34123078  1
  Nd  Nd4  1  0.25000000  0.92242154  0.60715950  1
  Nd  Nd5  1  0.75000000  0.57757846  0.10715950  1
  Nd  Nd6  1  0.25000000  0.42242154  0.89284050  1
  Nd  Nd7  1  0.75000000  0.07757846  0.39284050  1
  Nd  Nd8  1  0.25000000  0.92425415  0.10464434  1
  Nd  Nd9  1  0.75000000  0.57574585  0.60464434  1
  Nd  Nd10  1  0.25000000  0.42425415  0.39535566  1
  Nd  Nd11  1  0.75000000  0.07574585  0.89535566  1
  S  S12  1  0.25000000  0.51607676  0.71759932  1
  S  S13  1  0.75000000  -0.01607676  0.21759932  1
  S  S14  1  0.25000000  0.01607676  0.78240068  1
  S  S15  1  0.75000000  0.48392324  0.28240068  1
  S  S16  1  0.25000000  0.63159085  0.47907686  1
  S  S17  1  0.75000000  0.86840915  0.97907686  1
  S  S18  1  0.25000000  0.13159085  0.02092314  1
  S  S19  1  0.75000000  0.36840915  0.52092314  1
  S  S20  1  0.25000000  0.71127524  0.17459013  1
  S  S21  1  0.75000000  0.78872476  0.67459013  1
  S  S22  1  0.25000000  0.21127524  0.32540987  1
  S  S23  1  0.75000000  0.28872476  0.82540987  1
  S  S24  1  0.25000000  0.92292908  0.41974004  1
  S  S25  1  0.75000000  0.57707092  0.91974004  1
  S  S26  1  0.25000000  0.42292908  0.08025996  1
  S  S27  1  0.75000000  0.07707092  0.58025996  1
