# generated using pymatgen
data_K4Li3Nb18P12(WO42)2
_symmetry_space_group_name_H-M   'P 1'
_cell_length_a   15.85213865
_cell_length_b   10.57971420
_cell_length_c   10.64673050
_cell_angle_alpha   90.00000000
_cell_angle_beta   90.00000000
_cell_angle_gamma   90.11615064
_symmetry_Int_Tables_number   1
_chemical_formula_structural   K4Li3Nb18P12(WO42)2
_chemical_formula_sum   'K4 Li3 Nb18 P12 W2 O84'
_cell_volume   1785.57117547
_cell_formula_units_Z   1
loop_
 _symmetry_equiv_pos_site_id
 _symmetry_equiv_pos_as_xyz
  1  'x, y, z'
loop_
 _atom_site_type_symbol
 _atom_site_label
 _atom_site_symmetry_multiplicity
 _atom_site_fract_x
 _atom_site_fract_y
 _atom_site_fract_z
 _atom_site_occupancy
  K  K0  1  0.00011603  0.50210818  0.00000000  1
  K  K1  1  0.00806108  0.39113003  0.50000000  1
  K  K2  1  0.50008180  0.00076365  0.00000000  1
  K  K3  1  0.59441266  0.00362285  0.50000000  1
  Li  Li4  1  0.03390832  0.80807057  0.50000000  1
  Li  Li5  1  0.46489224  0.31018218  0.50000000  1
  Li  Li6  1  0.53387365  0.68744819  0.50000000  1
  Nb  Nb7  1  0.21669947  0.82792852  0.50000000  1
  Nb  Nb8  1  0.22289252  0.43037691  0.17692161  1
  Nb  Nb9  1  0.22289252  0.43037691  0.82307839  1
  Nb  Nb10  1  0.27943209  0.92741366  0.17504071  1
  Nb  Nb11  1  0.27943209  0.92741366  0.82495929  1
  Nb  Nb12  1  0.28246721  0.32575582  0.50000000  1
  Nb  Nb13  1  0.42349719  0.63581030  0.18092953  1
  Nb  Nb14  1  0.42349719  0.63581030  0.81907047  1
  Nb  Nb15  1  0.57841411  0.35964584  0.18037306  1
  Nb  Nb16  1  0.57841411  0.35964584  0.81962694  1
  Nb  Nb17  1  0.71732473  0.66846278  0.50000000  1
  Nb  Nb18  1  0.72341859  0.06985118  0.17608647  1
  Nb  Nb19  1  0.72341859  0.06985118  0.82391353  1
  Nb  Nb20  1  0.77814653  0.56987425  0.17540230  1
  Nb  Nb21  1  0.77814653  0.56987425  0.82459770  1
  Nb  Nb22  1  0.79115549  0.17183345  0.50000000  1
  Nb  Nb23  1  0.92292603  0.86178010  0.18057803  1
  Nb  Nb24  1  0.92292603  0.86178010  0.81942197  1
  P  P25  1  0.11957399  0.71470767  0.23225184  1
  P  P26  1  0.11957399  0.71470767  0.76774816  1
  P  P27  1  0.11968910  0.11847690  0.50000000  1
  P  P28  1  0.37824926  0.61902821  0.50000000  1
  P  P29  1  0.38035075  0.21466876  0.23209640  1
  P  P30  1  0.38035075  0.21466876  0.76790360  1
  P  P31  1  0.61936386  0.78516601  0.23163134  1
  P  P32  1  0.61936386  0.78516601  0.76836866  1
  P  P33  1  0.62300448  0.37906684  0.50000000  1
  P  P34  1  0.87771486  0.87921817  0.50000000  1
  P  P35  1  0.88022375  0.28570548  0.22996818  1
  P  P36  1  0.88022375  0.28570548  0.77003182  1
  W  W37  1  0.07712477  0.14249093  0.18117424  1
  W  W38  1  0.07712477  0.14249093  0.81882576  1
  O  O39  1  0.00087759  0.00370830  0.20442548  1
  O  O40  1  0.00087759  0.00370830  0.79557452  1
  O  O41  1  0.03084496  0.73808902  0.81849787  1
  O  O42  1  0.03084496  0.73808902  0.18150213  1
  O  O43  1  0.07197949  0.12844986  0.00000000  1
  O  O44  1  0.07435257  0.17279439  0.38195209  1
  O  O45  1  0.07435257  0.17279439  0.61804791  1
  O  O46  1  0.12052262  0.97216017  0.50000000  1
  O  O47  1  0.12397450  0.74046866  0.37583219  1
  O  O48  1  0.12397450  0.74046866  0.62416781  1
  O  O49  1  0.13426347  0.30888161  0.16347749  1
  O  O50  1  0.13426347  0.30888161  0.83652251  1
  O  O51  1  0.13884613  0.57231852  0.20699107  1
  O  O52  1  0.13884613  0.57231852  0.79300893  1
  O  O53  1  0.17477969  0.05818464  0.20330537  1
  O  O54  1  0.17477969  0.05818464  0.79669463  1
  O  O55  1  0.18591283  0.79616527  0.16256424  1
  O  O56  1  0.18591283  0.79616527  0.83743576  1
  O  O57  1  0.21305789  0.16685452  0.50000000  1
  O  O58  1  0.22624150  0.39960072  0.36756617  1
  O  O59  1  0.22624150  0.39960072  0.63243383  1
  O  O60  1  0.22705434  0.46667321  0.00000000  1
  O  O61  1  0.26828526  0.97154603  0.00000000  1
  O  O62  1  0.27052925  0.90239493  0.36585124  1
  O  O63  1  0.27052925  0.90239493  0.63414876  1
  O  O64  1  0.28567168  0.66833338  0.50000000  1
  O  O65  1  0.31345416  0.29578384  0.16251823  1
  O  O66  1  0.31345416  0.29578384  0.83748177  1
  O  O67  1  0.32070531  0.55528822  0.20742480  1
  O  O68  1  0.32070531  0.55528822  0.79257520  1
  O  O69  1  0.35958442  0.07289201  0.20675345  1
  O  O70  1  0.35958442  0.07289201  0.79324655  1
  O  O71  1  0.36535854  0.81189175  0.16042570  1
  O  O72  1  0.36535854  0.81189175  0.83957430  1
  O  O73  1  0.37606943  0.24116864  0.37548813  1
  O  O74  1  0.37606943  0.24116864  0.62451187  1
  O  O75  1  0.37686554  0.47222516  0.50000000  1
  O  O76  1  0.42832319  0.67082733  0.38555823  1
  O  O77  1  0.42832319  0.67082733  0.61444177  1
  O  O78  1  0.42735338  0.62275515  0.00000000  1
  O  O79  1  0.46892495  0.23657186  0.18104899  1
  O  O80  1  0.46892495  0.23657186  0.81895101  1
  O  O81  1  0.49981938  0.49907684  0.21051822  1
  O  O82  1  0.49981938  0.49907684  0.78948178  1
  O  O83  1  0.53065130  0.76289428  0.18080650  1
  O  O84  1  0.53065130  0.76289428  0.81919350  1
  O  O85  1  0.57257614  0.37725848  0.00000000  1
  O  O86  1  0.57184730  0.32742554  0.61398634  1
  O  O87  1  0.57184730  0.32742554  0.38601366  1
  O  O88  1  0.62251966  0.52681616  0.50000000  1
  O  O89  1  0.62330609  0.76151057  0.37641337  1
  O  O90  1  0.62330609  0.76151057  0.62358663  1
  O  O91  1  0.63572343  0.18772401  0.16272241  1
  O  O92  1  0.63572343  0.18772401  0.83727759  1
  O  O93  1  0.63871265  0.92827201  0.20938976  1
  O  O94  1  0.63871265  0.92827201  0.79061024  1
  O  O95  1  0.67867267  0.44383406  0.20886929  1
  O  O96  1  0.67867267  0.44383406  0.79113071  1
  O  O97  1  0.68601021  0.70443560  0.16285614  1
  O  O98  1  0.68601021  0.70443560  0.83714386  1
  O  O99  1  0.71525272  0.33149702  0.50000000  1
  O  O100  1  0.72882213  0.10115547  0.36826419  1
  O  O101  1  0.72882213  0.10115547  0.63173581  1
  O  O102  1  0.72960835  0.02871678  0.00000000  1
  O  O103  1  0.76982662  0.52881763  0.00000000  1
  O  O104  1  0.77315218  0.59788101  0.36681502  1
  O  O105  1  0.77315218  0.59788101  0.63318498  1
  O  O106  1  0.78478713  0.83100899  0.50000000  1
  O  O107  1  0.81519758  0.20402810  0.15945927  1
  O  O108  1  0.81519758  0.20402810  0.84054073  1
  O  O109  1  0.82205679  0.94467687  0.20878159  1
  O  O110  1  0.82205679  0.94467687  0.79121841  1
  O  O111  1  0.86351886  0.42778660  0.20284688  1
  O  O112  1  0.86351886  0.42778660  0.79715312  1
  O  O113  1  0.86426181  0.68903403  0.16122326  1
  O  O114  1  0.86426181  0.68903403  0.83877674  1
  O  O115  1  0.87489471  0.26371590  0.62693628  1
  O  O116  1  0.87489471  0.26371590  0.37306372  1
  O  O117  1  0.87463611  0.02542854  0.50000000  1
  O  O118  1  0.92836278  0.82939304  0.38557570  1
  O  O119  1  0.92836278  0.82939304  0.61442430  1
  O  O120  1  0.92785875  0.87760442  0.00000000  1
  O  O121  1  0.97062595  0.26071535  0.18213158  1
  O  O122  1  0.97062595  0.26071535  0.81786842  1
