# generated using pymatgen
data_SbH5(Cl3O)2
_symmetry_space_group_name_H-M   'P 1'
_cell_length_a   7.11153900
_cell_length_b   7.11153889
_cell_length_c   12.78662610
_cell_angle_alpha   96.28669775
_cell_angle_beta   99.82651062
_cell_angle_gamma   119.75241313
_symmetry_Int_Tables_number   1
_chemical_formula_structural   SbH5(Cl3O)2
_chemical_formula_sum   'Sb2 H10 Cl12 O4'
_cell_volume   538.74564603
_cell_formula_units_Z   2
loop_
 _symmetry_equiv_pos_site_id
 _symmetry_equiv_pos_as_xyz
  1  'x, y, z'
loop_
 _atom_site_type_symbol
 _atom_site_label
 _atom_site_symmetry_multiplicity
 _atom_site_fract_x
 _atom_site_fract_y
 _atom_site_fract_z
 _atom_site_occupancy
  Sb  Sb0  1  0.99645600  0.24860600  0.24676300  1
  Sb  Sb1  1  0.00184200  0.74969300  0.75323700  1
  H  H2  1  0.69457900  0.43235200  0.08358100  1
  H  H3  1  0.56588100  0.51331900  0.15038700  1
  H  H4  1  0.46524700  0.46892900  0.99599900  1
  H  H5  1  0.36293200  0.41549400  0.84961300  1
  H  H6  1  0.64724300  0.88705900  0.57729600  1
  H  H7  1  0.34877100  0.61099800  0.91641900  1
  H  H8  1  0.62019000  0.06875200  0.64912800  1
  H  H9  1  0.52904600  0.02904600  0.50000000  1
  H  H10  1  0.41962400  0.97106200  0.35087200  1
  H  H11  1  0.30976300  0.06994700  0.42270400  1
  Cl  Cl12  1  0.19256900  0.07673900  0.67531500  1
  Cl  Cl13  1  0.68293900  0.58893400  0.59096100  1
  Cl  Cl14  1  0.07387300  0.99549700  0.15546300  1
  Cl  Cl15  1  0.84003400  0.91841000  0.84453700  1
  Cl  Cl16  1  0.99797300  0.09197800  0.40903900  1
  Cl  Cl17  1  0.40142300  0.51725400  0.32468500  1
  Cl  Cl18  1  0.59830700  0.98330500  0.17261400  1
  Cl  Cl19  1  0.00096100  0.41157100  0.08902000  1
  Cl  Cl20  1  0.16527500  0.57997200  0.65772200  1
  Cl  Cl21  1  0.92225000  0.50755300  0.34227800  1
  Cl  Cl22  1  0.32255100  0.91194100  0.91098000  1
  Cl  Cl23  1  0.81069000  0.42569300  0.82738600  1
  O  O24  1  0.55641500  0.43700700  0.07906800  1
  O  O25  1  0.35793900  0.47734700  0.92093200  1
  O  O26  1  0.63741700  0.02073500  0.57834100  1
  O  O27  1  0.44239400  0.05907700  0.42165900  1
