# generated using pymatgen
data_Ba4PtO6
_symmetry_space_group_name_H-M   'P 1'
_cell_length_a   7.31973219
_cell_length_b   7.31973219
_cell_length_c   7.31973186
_cell_angle_alpha   89.43398305
_cell_angle_beta   89.43398305
_cell_angle_gamma   89.43398627
_symmetry_Int_Tables_number   1
_chemical_formula_structural   Ba4PtO6
_chemical_formula_sum   'Ba8 Pt2 O12'
_cell_volume   392.12306787
_cell_formula_units_Z   2
loop_
 _symmetry_equiv_pos_site_id
 _symmetry_equiv_pos_as_xyz
  1  'x, y, z'
loop_
 _atom_site_type_symbol
 _atom_site_label
 _atom_site_symmetry_multiplicity
 _atom_site_fract_x
 _atom_site_fract_y
 _atom_site_fract_z
 _atom_site_occupancy
  Ba  Ba0  1  0.25000000  0.25000000  0.25000000  1
  Ba  Ba1  1  0.75000000  0.75000000  0.75000000  1
  Ba  Ba2  1  0.75000000  0.11905965  0.38094035  1
  Ba  Ba3  1  0.38094035  0.75000000  0.11905965  1
  Ba  Ba4  1  0.11905965  0.38094035  0.75000000  1
  Ba  Ba5  1  0.25000000  0.88094035  0.61905965  1
  Ba  Ba6  1  0.61905965  0.25000000  0.88094035  1
  Ba  Ba7  1  0.88094035  0.61905965  0.25000000  1
  Pt  Pt8  1  -0.00000000  0.00000000  0.00000000  1
  Pt  Pt9  1  0.50000000  0.50000000  0.50000000  1
  O  O10  1  0.57270068  0.77082295  0.43888914  1
  O  O11  1  0.43888914  0.57270068  0.77082295  1
  O  O12  1  0.77082295  0.43888914  0.57270068  1
  O  O13  1  0.92729932  0.06111086  0.72917705  1
  O  O14  1  0.72917705  0.92729932  0.06111086  1
  O  O15  1  0.06111086  0.72917705  0.92729932  1
  O  O16  1  0.42729932  0.22917705  0.56111086  1
  O  O17  1  0.56111086  0.42729932  0.22917705  1
  O  O18  1  0.22917705  0.56111086  0.42729932  1
  O  O19  1  0.07270068  0.93888914  0.27082295  1
  O  O20  1  0.93888914  0.27082295  0.07270068  1
  O  O21  1  0.27082295  0.07270068  0.93888914  1
