# generated using pymatgen
data_Sr(BS2)2
_symmetry_space_group_name_H-M   'P 1'
_cell_length_a   14.20115577
_cell_length_b   6.12034097
_cell_length_c   6.50843039
_cell_angle_alpha   70.12946251
_cell_angle_beta   90.00000000
_cell_angle_gamma   90.00000000
_symmetry_Int_Tables_number   1
_chemical_formula_structural   Sr(BS2)2
_chemical_formula_sum   'Sr4 B8 S16'
_cell_volume   532.00694579
_cell_formula_units_Z   4
loop_
 _symmetry_equiv_pos_site_id
 _symmetry_equiv_pos_as_xyz
  1  'x, y, z'
loop_
 _atom_site_type_symbol
 _atom_site_label
 _atom_site_symmetry_multiplicity
 _atom_site_fract_x
 _atom_site_fract_y
 _atom_site_fract_z
 _atom_site_occupancy
  Sr  Sr0  1  0.60323799  0.30393830  0.31159678  1
  Sr  Sr1  1  0.10323799  0.19606170  0.68840322  1
  Sr  Sr2  1  0.39676201  0.69606170  0.68840322  1
  Sr  Sr3  1  0.89676201  0.80393830  0.31159678  1
  B  B4  1  0.58390137  0.93024330  0.96557375  1
  B  B5  1  0.08390137  0.56975670  0.03442625  1
  B  B6  1  0.41609863  0.06975670  0.03442625  1
  B  B7  1  0.91609863  0.43024330  0.96557375  1
  B  B8  1  0.27215256  0.32189322  0.22886017  1
  B  B9  1  0.77215256  0.17810678  0.77113983  1
  B  B10  1  0.72784744  0.67810678  0.77113983  1
  B  B11  1  0.22784744  0.82189322  0.22886017  1
  S  S12  1  0.50750126  0.85725328  0.23230345  1
  S  S13  1  0.26101855  0.50820848  0.41375360  1
  S  S14  1  0.23898145  0.00820848  0.41375360  1
  S  S15  1  0.76101855  0.99179152  0.58624640  1
  S  S16  1  0.90022673  0.16871475  0.87085120  1
  S  S17  1  0.40022673  0.33128525  0.12914880  1
  S  S18  1  0.09977327  0.83128525  0.12914880  1
  S  S19  1  0.59977327  0.66871475  0.87085120  1
  S  S20  1  0.80421019  0.55964229  0.02752702  1
  S  S21  1  0.30421019  0.94035771  0.97247298  1
  S  S22  1  0.19578981  0.44035771  0.97247298  1
  S  S23  1  0.69578981  0.05964229  0.02752702  1
  S  S24  1  0.49249874  0.14274672  0.76769655  1
  S  S25  1  0.99249874  0.35725328  0.23230345  1
  S  S26  1  0.73898145  0.49179152  0.58624640  1
  S  S27  1  0.00750126  0.64274672  0.76769655  1
