# generated using pymatgen
data_WO3
_symmetry_space_group_name_H-M   'P 1'
_cell_length_a   7.38447519
_cell_length_b   7.54844982
_cell_length_c   7.73167919
_cell_angle_alpha   88.85603773
_cell_angle_beta   90.00000000
_cell_angle_gamma   90.00000000
_symmetry_Int_Tables_number   1
_chemical_formula_structural   WO3
_chemical_formula_sum   'W8 O24'
_cell_volume   430.88826353
_cell_formula_units_Z   8
loop_
 _symmetry_equiv_pos_site_id
 _symmetry_equiv_pos_as_xyz
  1  'x, y, z'
loop_
 _atom_site_type_symbol
 _atom_site_label
 _atom_site_symmetry_multiplicity
 _atom_site_fract_x
 _atom_site_fract_y
 _atom_site_fract_z
 _atom_site_occupancy
  W  W0  1  0.24883590  0.47618426  0.77973891  1
  W  W1  1  0.75116410  0.52381574  0.22026109  1
  W  W2  1  0.24265226  0.97889280  0.71892191  1
  W  W3  1  0.75734774  0.02110720  0.28107809  1
  W  W4  1  0.25116410  0.47618426  0.27973891  1
  W  W5  1  0.74883590  0.52381574  0.72026109  1
  W  W6  1  0.25734774  0.97889280  0.21892191  1
  W  W7  1  0.74265226  0.02110720  0.78107809  1
  O  O8  1  0.21254463  0.99168337  0.99377252  1
  O  O9  1  0.78745537  0.00831663  0.00622748  1
  O  O10  1  0.21432279  0.49060786  0.50560990  1
  O  O11  1  0.78567721  0.50939214  0.49439010  1
  O  O12  1  0.28567721  0.49060786  0.00560990  1
  O  O13  1  0.71432279  0.50939214  0.99439010  1
  O  O14  1  0.28745537  0.99168337  0.49377252  1
  O  O15  1  0.71254463  0.00831663  0.50622748  1
  O  O16  1  0.99937134  0.03580668  0.71300591  1
  O  O17  1  0.00062866  0.96419332  0.28699409  1
  O  O18  1  0.49821179  0.53646556  0.71521249  1
  O  O19  1  0.50178821  0.46353444  0.28478751  1
  O  O20  1  0.99821179  0.46353444  0.78478751  1
  O  O21  1  0.00178821  0.53646556  0.21521249  1
  O  O22  1  0.49937134  0.96419332  0.78699409  1
  O  O23  1  0.50062866  0.03580668  0.21300591  1
  O  O24  1  0.71456174  0.25780770  0.75313143  1
  O  O25  1  0.28543826  0.74219230  0.24686857  1
  O  O26  1  0.78847158  0.75811709  0.74793667  1
  O  O27  1  0.21152842  0.24188291  0.25206333  1
  O  O28  1  0.78543826  0.25780770  0.25313143  1
  O  O29  1  0.21456174  0.74219230  0.74686857  1
  O  O30  1  0.71152842  0.75811709  0.24793667  1
  O  O31  1  0.28847158  0.24188291  0.75206333  1
