# generated using pymatgen
data_Ag7PSe6
_symmetry_space_group_name_H-M   'P 1'
_cell_length_a   10.82954327
_cell_length_b   10.82954327
_cell_length_c   10.82954327
_cell_angle_alpha   90.00000000
_cell_angle_beta   90.00000000
_cell_angle_gamma   90.00000000
_symmetry_Int_Tables_number   1
_chemical_formula_structural   Ag7PSe6
_chemical_formula_sum   'Ag28 P4 Se24'
_cell_volume   1270.07808570
_cell_formula_units_Z   4
loop_
 _symmetry_equiv_pos_site_id
 _symmetry_equiv_pos_as_xyz
  1  'x, y, z'
loop_
 _atom_site_type_symbol
 _atom_site_label
 _atom_site_symmetry_multiplicity
 _atom_site_fract_x
 _atom_site_fract_y
 _atom_site_fract_z
 _atom_site_occupancy
  Ag  Ag0  1  0.07051320  0.89170136  0.72665917  1
  Ag  Ag1  1  0.72665917  0.07051320  0.89170136  1
  Ag  Ag2  1  0.89170136  0.72665917  0.07051320  1
  Ag  Ag3  1  0.60829864  0.27334083  0.57051320  1
  Ag  Ag4  1  0.22665917  0.42948680  0.10829864  1
  Ag  Ag5  1  0.10829864  0.22665917  0.42948680  1
  Ag  Ag6  1  0.77334083  0.92948680  0.39170136  1
  Ag  Ag7  1  0.27334083  0.57051320  0.60829864  1
  Ag  Ag8  1  0.39170136  0.77334083  0.92948680  1
  Ag  Ag9  1  0.57051320  0.60829864  0.27334083  1
  Ag  Ag10  1  0.92948680  0.39170136  0.77334083  1
  Ag  Ag11  1  0.42948680  0.10829864  0.22665917  1
  Ag  Ag12  1  0.01036564  0.01692871  0.28005124  1
  Ag  Ag13  1  0.28005124  0.01036564  0.01692871  1
  Ag  Ag14  1  0.01692871  0.28005124  0.01036564  1
  Ag  Ag15  1  0.48307129  0.71994876  0.51036564  1
  Ag  Ag16  1  0.78005124  0.48963436  0.98307129  1
  Ag  Ag17  1  0.98307129  0.78005124  0.48963436  1
  Ag  Ag18  1  0.21994876  0.98963436  0.51692871  1
  Ag  Ag19  1  0.71994876  0.51036564  0.48307129  1
  Ag  Ag20  1  0.51692871  0.21994876  0.98963436  1
  Ag  Ag21  1  0.51036564  0.48307129  0.71994876  1
  Ag  Ag22  1  0.98963436  0.51692871  0.21994876  1
  Ag  Ag23  1  0.48963436  0.98307129  0.78005124  1
  Ag  Ag24  1  0.34331382  0.34331382  0.34331382  1
  Ag  Ag25  1  0.15668618  0.65668618  0.84331382  1
  Ag  Ag26  1  0.84331382  0.15668618  0.65668618  1
  Ag  Ag27  1  0.65668618  0.84331382  0.15668618  1
  P  P28  1  0.74624641  0.74624641  0.74624641  1
  P  P29  1  0.75375359  0.25375359  0.24624641  1
  P  P30  1  0.24624641  0.75375359  0.25375359  1
  P  P31  1  0.25375359  0.24624641  0.75375359  1
  Se  Se32  1  0.86620244  0.86620244  0.86620244  1
  Se  Se33  1  0.63379756  0.13379756  0.36620244  1
  Se  Se34  1  0.36620244  0.63379756  0.13379756  1
  Se  Se35  1  0.13379756  0.36620244  0.63379756  1
  Se  Se36  1  0.35917357  0.36875866  0.88002831  1
  Se  Se37  1  0.88002831  0.35917357  0.36875866  1
  Se  Se38  1  0.36875866  0.88002831  0.35917357  1
  Se  Se39  1  0.13124134  0.11997169  0.85917357  1
  Se  Se40  1  0.38002831  0.14082643  0.63124134  1
  Se  Se41  1  0.63124134  0.38002831  0.14082643  1
  Se  Se42  1  0.61997169  0.64082643  0.86875866  1
  Se  Se43  1  0.11997169  0.85917357  0.13124134  1
  Se  Se44  1  0.86875866  0.61997169  0.64082643  1
  Se  Se45  1  0.85917357  0.13124134  0.11997169  1
  Se  Se46  1  0.64082643  0.86875866  0.61997169  1
  Se  Se47  1  0.14082643  0.63124134  0.38002831  1
  Se  Se48  1  0.20979835  0.20979835  0.20979835  1
  Se  Se49  1  0.29020165  0.79020165  0.70979835  1
  Se  Se50  1  0.70979835  0.29020165  0.79020165  1
  Se  Se51  1  0.79020165  0.70979835  0.29020165  1
  Se  Se52  1  0.47810325  0.47810325  0.47810325  1
  Se  Se53  1  0.02189675  0.52189675  0.97810325  1
  Se  Se54  1  0.97810325  0.02189675  0.52189675  1
  Se  Se55  1  0.52189675  0.97810325  0.02189675  1
