# generated using pymatgen
data_TlBS2
_symmetry_space_group_name_H-M   'P 1'
_cell_length_a   8.26783612
_cell_length_b   8.26783612
_cell_length_c   8.26783514
_cell_angle_alpha   74.48566790
_cell_angle_beta   74.48566790
_cell_angle_gamma   74.48567294
_symmetry_Int_Tables_number   1
_chemical_formula_structural   TlBS2
_chemical_formula_sum   'Tl6 B6 S12'
_cell_volume   512.91303569
_cell_formula_units_Z   6
loop_
 _symmetry_equiv_pos_site_id
 _symmetry_equiv_pos_as_xyz
  1  'x, y, z'
loop_
 _atom_site_type_symbol
 _atom_site_label
 _atom_site_symmetry_multiplicity
 _atom_site_fract_x
 _atom_site_fract_y
 _atom_site_fract_z
 _atom_site_occupancy
  Tl  Tl0  1  0.32444427  0.72541800  0.72541800  1
  Tl  Tl1  1  0.72541800  0.32444427  0.72541800  1
  Tl  Tl2  1  0.72541800  0.72541800  0.32444427  1
  Tl  Tl3  1  0.67555573  0.27458200  0.27458200  1
  Tl  Tl4  1  0.27458200  0.67555573  0.27458200  1
  Tl  Tl5  1  0.27458200  0.27458200  0.67555573  1
  B  B6  1  0.10180310  0.40867000  0.10180310  1
  B  B7  1  0.10180310  0.10180310  0.40867000  1
  B  B8  1  0.40867000  0.10180310  0.10180310  1
  B  B9  1  0.89819690  0.89819690  0.59133000  1
  B  B10  1  0.59133000  0.89819690  0.89819690  1
  B  B11  1  0.89819690  0.59133000  0.89819690  1
  S  S12  1  0.96883625  0.34552710  0.96883625  1
  S  S13  1  0.34552710  0.96883625  0.96883625  1
  S  S14  1  0.96883625  0.96883625  0.34552710  1
  S  S15  1  0.65447290  0.03116375  0.03116375  1
  S  S16  1  0.03116375  0.03116375  0.65447290  1
  S  S17  1  0.03116375  0.65447290  0.03116375  1
  S  S18  1  0.97479752  0.65630229  0.65630229  1
  S  S19  1  0.65630229  0.65630229  0.97479752  1
  S  S20  1  0.65630229  0.97479752  0.65630229  1
  S  S21  1  0.34369771  0.02520248  0.34369771  1
  S  S22  1  0.02520248  0.34369771  0.34369771  1
  S  S23  1  0.34369771  0.34369771  0.02520248  1
