# generated using pymatgen
data_Rb2PtSe2
_symmetry_space_group_name_H-M   'P 1'
_cell_length_a   3.79587635
_cell_length_b   6.64303828
_cell_length_c   6.64303758
_cell_angle_alpha   69.98613861
_cell_angle_beta   73.39911088
_cell_angle_gamma   73.39911473
_symmetry_Int_Tables_number   1
_chemical_formula_structural   Rb2PtSe2
_chemical_formula_sum   'Rb2 Pt1 Se2'
_cell_volume   147.51382839
_cell_formula_units_Z   1
loop_
 _symmetry_equiv_pos_site_id
 _symmetry_equiv_pos_as_xyz
  1  'x, y, z'
loop_
 _atom_site_type_symbol
 _atom_site_label
 _atom_site_symmetry_multiplicity
 _atom_site_fract_x
 _atom_site_fract_y
 _atom_site_fract_z
 _atom_site_occupancy
  Rb  Rb0  1  0.19732999  0.30267001  0.30267001  1
  Rb  Rb1  1  0.80267001  0.69732999  0.69732999  1
  Pt  Pt2  1  0.00000000  0.00000000  -0.00000000  1
  Se  Se3  1  0.50000000  0.78666000  0.21334000  1
  Se  Se4  1  0.50000000  0.21334000  0.78666000  1
