# generated using pymatgen
data_Dy2S2O
_symmetry_space_group_name_H-M   'P 1'
_cell_length_a   6.87578454
_cell_length_b   6.84691724
_cell_length_c   8.25686489
_cell_angle_alpha   80.58051041
_cell_angle_beta   90.00000000
_cell_angle_gamma   90.00000000
_symmetry_Int_Tables_number   1
_chemical_formula_structural   Dy2S2O
_chemical_formula_sum   'Dy8 S8 O4'
_cell_volume   383.47485379
_cell_formula_units_Z   4
loop_
 _symmetry_equiv_pos_site_id
 _symmetry_equiv_pos_as_xyz
  1  'x, y, z'
loop_
 _atom_site_type_symbol
 _atom_site_label
 _atom_site_symmetry_multiplicity
 _atom_site_fract_x
 _atom_site_fract_y
 _atom_site_fract_z
 _atom_site_occupancy
  Dy  Dy0  1  0.05348452  0.25048898  0.86144400  1
  Dy  Dy1  1  0.55348452  0.24951102  0.13855600  1
  Dy  Dy2  1  0.94651548  0.74951102  0.13855600  1
  Dy  Dy3  1  0.44651548  0.75048898  0.86144400  1
  Dy  Dy4  1  0.14350249  0.32172358  0.42396746  1
  Dy  Dy5  1  0.64350249  0.17827642  0.57603254  1
  Dy  Dy6  1  0.85649751  0.67827642  0.57603254  1
  Dy  Dy7  1  0.35649751  0.82172358  0.42396746  1
  S  S8  1  0.72278776  0.03026147  0.92358047  1
  S  S9  1  0.63430475  0.57580962  0.31955525  1
  S  S10  1  0.36569525  0.42419038  0.68044475  1
  S  S11  1  0.86569525  0.07580962  0.31955525  1
  S  S12  1  0.22278776  0.46973853  0.07641953  1
  S  S13  1  0.27721224  0.96973853  0.07641953  1
  S  S14  1  0.77721224  0.53026147  0.92358047  1
  S  S15  1  0.13430475  0.92419038  0.68044475  1
  O  O16  1  0.08705426  0.64949708  0.38340143  1
  O  O17  1  0.41294574  0.14949708  0.38340143  1
  O  O18  1  0.91294574  0.35050292  0.61659857  1
  O  O19  1  0.58705426  0.85050292  0.61659857  1
