# generated using pymatgen
data_Rb3PdF5
_symmetry_space_group_name_H-M   'P 1'
_cell_length_a   6.39198845
_cell_length_b   7.42276177
_cell_length_c   7.42276177
_cell_angle_alpha   90.00000000
_cell_angle_beta   90.00000000
_cell_angle_gamma   90.00000000
_symmetry_Int_Tables_number   1
_chemical_formula_structural   Rb3PdF5
_chemical_formula_sum   'Rb6 Pd2 F10'
_cell_volume   352.18189517
_cell_formula_units_Z   2
loop_
 _symmetry_equiv_pos_site_id
 _symmetry_equiv_pos_as_xyz
  1  'x, y, z'
loop_
 _atom_site_type_symbol
 _atom_site_label
 _atom_site_symmetry_multiplicity
 _atom_site_fract_x
 _atom_site_fract_y
 _atom_site_fract_z
 _atom_site_occupancy
  Rb  Rb0  1  -0.00000000  0.00000000  -0.00000000  1
  Rb  Rb1  1  -0.00000000  0.50000000  0.50000000  1
  Rb  Rb2  1  0.50000000  0.82729214  0.32729214  1
  Rb  Rb3  1  0.50000000  0.67270786  0.82729214  1
  Rb  Rb4  1  0.50000000  0.32729214  0.17270786  1
  Rb  Rb5  1  0.50000000  0.17270786  0.67270786  1
  Pd  Pd6  1  -0.00000000  0.00000000  0.50000000  1
  Pd  Pd7  1  -0.00000000  0.50000000  -0.00000000  1
  F  F8  1  0.78670980  0.63453735  0.13453735  1
  F  F9  1  0.78670980  0.36546265  0.86546265  1
  F  F10  1  0.78670980  0.13453735  0.36546265  1
  F  F11  1  0.78670980  0.86546265  0.63453735  1
  F  F12  1  0.21329020  0.63453735  0.13453735  1
  F  F13  1  0.21329020  0.86546265  0.63453735  1
  F  F14  1  0.21329020  0.13453735  0.36546265  1
  F  F15  1  0.21329020  0.36546265  0.86546265  1
  F  F16  1  0.50000000  0.00000000  -0.00000000  1
  F  F17  1  0.50000000  0.50000000  0.50000000  1
