# generated using pymatgen
data_Li2Mn2Si4O11
_symmetry_space_group_name_H-M   'P 1'
_cell_length_a   8.91924100
_cell_length_b   7.58928726
_cell_length_c   7.04708849
_cell_angle_alpha   104.56049889
_cell_angle_beta   100.97545245
_cell_angle_gamma   99.49426915
_symmetry_Int_Tables_number   1
_chemical_formula_structural   Li2Mn2Si4O11
_chemical_formula_sum   'Li4 Mn4 Si8 O22'
_cell_volume   441.74184991
_cell_formula_units_Z   2
loop_
 _symmetry_equiv_pos_site_id
 _symmetry_equiv_pos_as_xyz
  1  'x, y, z'
loop_
 _atom_site_type_symbol
 _atom_site_label
 _atom_site_symmetry_multiplicity
 _atom_site_fract_x
 _atom_site_fract_y
 _atom_site_fract_z
 _atom_site_occupancy
  Li  Li0  1  0.60965800  0.19679100  0.79364800  1
  Li  Li1  1  0.14214800  0.14846200  0.75226100  1
  Li  Li2  1  0.85785200  0.85153800  0.24773900  1
  Li  Li3  1  0.39034200  0.80320900  0.20635200  1
  Mn  Mn4  1  0.88182900  0.38842400  0.62432700  1
  Mn  Mn5  1  0.37048200  0.39749400  0.61817800  1
  Mn  Mn6  1  0.62951800  0.60250600  0.38182200  1
  Mn  Mn7  1  0.11817100  0.61157600  0.37567300  1
  Si  Si8  1  0.24003300  0.03326300  0.38861700  1
  Si  Si9  1  0.95793500  0.23119700  0.22380100  1
  Si  Si10  1  0.52032300  0.22368800  0.22192500  1
  Si  Si11  1  0.76772400  0.59848600  0.97326100  1
  Si  Si12  1  0.23227600  0.40151400  0.02673900  1
  Si  Si13  1  0.47967700  0.77631200  0.77807500  1
  Si  Si14  1  0.04206500  0.76880300  0.77619900  1
  Si  Si15  1  0.75996700  0.96673700  0.61138300  1
  O  O16  1  0.81620400  0.15091400  0.62158800  1
  O  O17  1  0.39829400  0.06042800  0.25869300  1
  O  O18  1  0.32270800  0.15157500  0.59371500  1
  O  O19  1  0.02550800  0.06850400  0.26040200  1
  O  O20  1  0.70985700  0.18201700  0.15158600  1
  O  O21  1  0.38154400  0.27392800  0.04044800  1
  O  O22  1  0.67819800  0.43767500  0.81203600  1
  O  O23  1  0.58091200  0.36454600  0.40702300  1
  O  O24  1  0.18465100  0.41456500  0.81065000  1
  O  O25  1  0.02272800  0.29270000  0.04963400  1
  O  O26  1  0.05972200  0.36888300  0.41239600  1
  O  O27  1  0.94027800  0.63111700  0.58760400  1
  O  O28  1  0.97727200  0.70730000  0.95036600  1
  O  O29  1  0.81534900  0.58543500  0.18935000  1
  O  O30  1  0.41908800  0.63545400  0.59297700  1
  O  O31  1  0.32180200  0.56232500  0.18796400  1
  O  O32  1  0.61845600  0.72607200  0.95955200  1
  O  O33  1  0.29014300  0.81798300  0.84841400  1
  O  O34  1  0.97449200  0.93149600  0.73959800  1
  O  O35  1  0.67729200  0.84842500  0.40628500  1
  O  O36  1  0.60170600  0.93957200  0.74130700  1
  O  O37  1  0.18379600  0.84908600  0.37841200  1
