# generated using pymatgen
data_La10Se19
_symmetry_space_group_name_H-M   'P 1'
_cell_length_a   9.49983199
_cell_length_b   9.49983199
_cell_length_c   17.18369913
_cell_angle_alpha   90.00000000
_cell_angle_beta   90.00000000
_cell_angle_gamma   90.00000000
_symmetry_Int_Tables_number   1
_chemical_formula_structural   La10Se19
_chemical_formula_sum   'La20 Se38'
_cell_volume   1550.77399340
_cell_formula_units_Z   2
loop_
 _symmetry_equiv_pos_site_id
 _symmetry_equiv_pos_as_xyz
  1  'x, y, z'
loop_
 _atom_site_type_symbol
 _atom_site_label
 _atom_site_symmetry_multiplicity
 _atom_site_fract_x
 _atom_site_fract_y
 _atom_site_fract_z
 _atom_site_occupancy
  La  La0  1  0.25000000  0.75000000  0.11515376  1
  La  La1  1  0.25000000  0.75000000  0.61515376  1
  La  La2  1  0.75000000  0.25000000  0.88484624  1
  La  La3  1  0.75000000  0.25000000  0.38484624  1
  La  La4  1  0.55397559  0.64802953  0.89652365  1
  La  La5  1  0.35197047  0.05397559  0.39652365  1
  La  La6  1  0.14802953  0.44602441  0.39652365  1
  La  La7  1  0.94602441  0.85197047  0.89652365  1
  La  La8  1  0.44602441  0.35197047  0.10347635  1
  La  La9  1  0.64802953  0.94602441  0.60347635  1
  La  La10  1  0.85197047  0.55397559  0.60347635  1
  La  La11  1  0.05397559  0.14802953  0.10347635  1
  La  La12  1  0.45699735  0.34721589  0.62055710  1
  La  La13  1  0.65278411  0.95699735  0.12055710  1
  La  La14  1  0.84721589  0.54300265  0.12055710  1
  La  La15  1  0.04300265  0.15278411  0.62055710  1
  La  La16  1  0.54300265  0.65278411  0.37944290  1
  La  La17  1  0.34721589  0.04300265  0.87944290  1
  La  La18  1  0.15278411  0.45699735  0.87944290  1
  La  La19  1  0.95699735  0.84721589  0.37944290  1
  Se  Se20  1  0.75000000  0.25000000  0.06598541  1
  Se  Se21  1  0.75000000  0.25000000  0.56598541  1
  Se  Se22  1  0.25000000  0.75000000  0.93401459  1
  Se  Se23  1  0.25000000  0.75000000  0.43401459  1
  Se  Se24  1  0.85090052  0.55298020  0.93706566  1
  Se  Se25  1  0.44701980  0.35090052  0.43706566  1
  Se  Se26  1  0.05298020  0.14909948  0.43706566  1
  Se  Se27  1  0.64909948  0.94701980  0.93706566  1
  Se  Se28  1  0.14909948  0.44701980  0.06293434  1
  Se  Se29  1  0.55298020  0.64909948  0.56293434  1
  Se  Se30  1  0.94701980  0.85090052  0.56293434  1
  Se  Se31  1  0.35090052  0.05298020  0.06293434  1
  Se  Se32  1  0.45136745  0.34838262  0.92640114  1
  Se  Se33  1  0.65161738  0.95136745  0.42640114  1
  Se  Se34  1  0.84838262  0.54863255  0.42640114  1
  Se  Se35  1  0.04863255  0.15161738  0.92640114  1
  Se  Se36  1  0.54863255  0.65161738  0.07359886  1
  Se  Se37  1  0.34838262  0.04863255  0.57359886  1
  Se  Se38  1  0.15161738  0.45136745  0.57359886  1
  Se  Se39  1  0.95136745  0.84838262  0.07359886  1
  Se  Se40  1  0.88606748  0.07171290  0.24934216  1
  Se  Se41  1  0.92828710  0.38606748  0.74934216  1
  Se  Se42  1  0.57171290  0.11393252  0.74934216  1
  Se  Se43  1  0.61393252  0.42828710  0.24934216  1
  Se  Se44  1  0.11393252  0.92828710  0.75065784  1
  Se  Se45  1  0.07171290  0.61393252  0.25065784  1
  Se  Se46  1  0.42828710  0.88606748  0.25065784  1
  Se  Se47  1  0.38606748  0.57171290  0.75065784  1
  Se  Se48  1  0.97192569  0.32115832  0.25032615  1
  Se  Se49  1  0.67884168  0.47192569  0.75032615  1
  Se  Se50  1  0.82115832  0.02807431  0.75032615  1
  Se  Se51  1  0.52807431  0.17884168  0.25032615  1
  Se  Se52  1  0.02807431  0.67884168  0.74967385  1
  Se  Se53  1  0.32115832  0.52807431  0.24967385  1
  Se  Se54  1  0.17884168  0.97192569  0.24967385  1
  Se  Se55  1  0.47192569  0.82115832  0.74967385  1
  Se  Se56  1  0.75000000  0.75000000  0.25000000  1
  Se  Se57  1  0.25000000  0.25000000  0.75000000  1
