# generated using pymatgen
data_Li5V3P8O29
_symmetry_space_group_name_H-M   'P 1'
_cell_length_a   9.77913119
_cell_length_b   9.77913119
_cell_length_c   14.07686925
_cell_angle_alpha   89.72555713
_cell_angle_beta   89.72555713
_cell_angle_gamma   59.97201237
_symmetry_Int_Tables_number   1
_chemical_formula_structural   Li5V3P8O29
_chemical_formula_sum   'Li10 V6 P16 O58'
_cell_volume   1165.48868693
_cell_formula_units_Z   2
loop_
 _symmetry_equiv_pos_site_id
 _symmetry_equiv_pos_as_xyz
  1  'x, y, z'
loop_
 _atom_site_type_symbol
 _atom_site_label
 _atom_site_symmetry_multiplicity
 _atom_site_fract_x
 _atom_site_fract_y
 _atom_site_fract_z
 _atom_site_occupancy
  Li  Li0  1  0.33369100  0.76314700  0.94103000  1
  Li  Li1  1  0.33598800  0.90344900  0.44027500  1
  Li  Li2  1  0.76314700  0.33369100  0.44103000  1
  Li  Li3  1  0.90344900  0.33598800  0.94027500  1
  Li  Li4  1  0.76358000  0.89919300  0.93984500  1
  Li  Li5  1  0.89919300  0.76358000  0.43984500  1
  Li  Li6  1  0.23488100  0.66560400  0.55981700  1
  Li  Li7  1  0.66560400  0.23488100  0.05981700  1
  Li  Li8  1  0.04389400  0.97861600  0.00534100  1
  Li  Li9  1  0.97861600  0.04389400  0.50534100  1
  V  V10  1  0.00271800  0.43434300  0.74887400  1
  V  V11  1  0.00037700  0.56285300  0.24785800  1
  V  V12  1  0.43434300  0.00271800  0.24887400  1
  V  V13  1  0.56285300  0.00037700  0.74785800  1
  V  V14  1  0.43483100  0.56410800  0.75363000  1
  V  V15  1  0.56410800  0.43483100  0.25363000  1
  P  P16  1  0.31369300  0.77541000  0.15895800  1
  P  P17  1  0.31085000  0.91134100  0.65496100  1
  P  P18  1  0.77541000  0.31369300  0.65895800  1
  P  P19  1  0.66852100  0.66561300  0.86904500  1
  P  P20  1  0.66561300  0.66852100  0.36904500  1
  P  P21  1  0.91134100  0.31085000  0.15496100  1
  P  P22  1  0.08239500  0.21986400  0.33817600  1
  P  P23  1  0.77291700  0.91283600  0.15789800  1
  P  P24  1  0.21986400  0.08239500  0.83817600  1
  P  P25  1  0.91283600  0.77291700  0.65789800  1
  P  P26  1  0.08354300  0.69271900  0.84224300  1
  P  P27  1  0.33160000  0.33561400  0.63122100  1
  P  P28  1  0.33561400  0.33160000  0.13122100  1
  P  P29  1  0.22556100  0.68415600  0.34049400  1
  P  P30  1  0.69271900  0.08354300  0.34224300  1
  P  P31  1  0.68415600  0.22556100  0.84049400  1
  O  O32  1  0.23028100  0.76848500  0.42898900  1
  O  O33  1  0.33644400  0.74085200  0.66690700  1
  O  O34  1  0.20107200  0.98976400  0.91808800  1
  O  O35  1  0.34293500  0.91744300  0.17097700  1
  O  O36  1  0.46686100  0.61846600  0.16943900  1
  O  O37  1  0.51248900  0.67430400  0.83237600  1
  O  O38  1  0.61846600  0.46686100  0.66943900  1
  O  O39  1  0.76848500  0.23028100  0.92898900  1
  O  O40  1  0.74085200  0.33644400  0.16690700  1
  O  O41  1  0.51095400  0.81332300  0.32711900  1
  O  O42  1  0.46978500  0.90453400  0.66864400  1
  O  O43  1  0.67430400  0.51248900  0.33237600  1
  O  O44  1  0.67524900  0.66061500  0.97523100  1
  O  O45  1  0.66061500  0.67524900  0.47523100  1
  O  O46  1  0.81332300  0.51095400  0.82711900  1
  O  O47  1  0.61619600  0.91194600  0.17344900  1
  O  O48  1  0.67386900  0.81199000  0.82684200  1
  O  O49  1  0.91744300  0.34293500  0.67097700  1
  O  O50  1  0.01318200  0.19414800  0.23999700  1
  O  O51  1  0.98976400  0.20107200  0.41808800  1
  O  O52  1  0.98146300  0.22683000  0.06221500  1
  O  O53  1  0.90453400  0.46978500  0.16864400  1
  O  O54  1  0.81199000  0.67386900  0.32684200  1
  O  O55  1  0.08192000  0.25678300  0.84011200  1
  O  O56  1  0.91194600  0.61619600  0.67344900  1
  O  O57  1  0.74621900  0.91113500  0.66115600  1
  O  O58  1  0.19414800  0.01318200  0.73999700  1
  O  O59  1  0.22683000  0.98146300  0.56221500  1
  O  O60  1  0.79896000  0.98805800  0.42362100  1
  O  O61  1  0.25678300  0.08192000  0.34011200  1
  O  O62  1  0.07381800  0.38123600  0.33003500  1
  O  O63  1  0.91113500  0.74621900  0.16115600  1
  O  O64  1  0.18576900  0.33349300  0.68195800  1
  O  O65  1  0.07898400  0.53707200  0.83073700  1
  O  O66  1  0.98805800  0.79896000  0.92362100  1
  O  O67  1  0.00025400  0.76822200  0.56607500  1
  O  O68  1  0.01329700  0.78879800  0.74320500  1
  O  O69  1  0.08257600  0.65855300  0.34108300  1
  O  O70  1  0.33349300  0.18576900  0.18195800  1
  O  O71  1  0.38123600  0.07381800  0.83003500  1
  O  O72  1  0.19372800  0.47795400  0.17698100  1
  O  O73  1  0.34241400  0.31759500  0.02630100  1
  O  O74  1  0.31759500  0.34241400  0.52630100  1
  O  O75  1  0.32611300  0.48724600  0.66937800  1
  O  O76  1  0.53707200  0.07898400  0.33073700  1
  O  O77  1  0.47795400  0.19372800  0.67698100  1
  O  O78  1  0.25625400  0.65776100  0.84505700  1
  O  O79  1  0.20112200  0.79326400  0.24827800  1
  O  O80  1  0.22634900  0.79563200  0.06802400  1
  O  O81  1  0.38148000  0.52648000  0.32608400  1
  O  O82  1  0.48724600  0.32611300  0.16937800  1
  O  O83  1  0.52648000  0.38148000  0.82608400  1
  O  O84  1  0.65855300  0.08257600  0.84108300  1
  O  O85  1  0.76822200  0.00025400  0.06607500  1
  O  O86  1  0.78879800  0.01329700  0.24320500  1
  O  O87  1  0.65776100  0.25625400  0.34505700  1
  O  O88  1  0.79563200  0.22634900  0.56802400  1
  O  O89  1  0.79326400  0.20112200  0.74827800  1
