# generated using pymatgen
data_Rb4Sb2O5
_symmetry_space_group_name_H-M   'P 1'
_cell_length_a   6.58300215
_cell_length_b   8.16970377
_cell_length_c   19.08580452
_cell_angle_alpha   90.00000000
_cell_angle_beta   90.00000000
_cell_angle_gamma   90.00000000
_symmetry_Int_Tables_number   1
_chemical_formula_structural   Rb4Sb2O5
_chemical_formula_sum   'Rb16 Sb8 O20'
_cell_volume   1026.45704029
_cell_formula_units_Z   4
loop_
 _symmetry_equiv_pos_site_id
 _symmetry_equiv_pos_as_xyz
  1  'x, y, z'
loop_
 _atom_site_type_symbol
 _atom_site_label
 _atom_site_symmetry_multiplicity
 _atom_site_fract_x
 _atom_site_fract_y
 _atom_site_fract_z
 _atom_site_occupancy
  Rb  Rb0  1  0.25000000  0.62469281  0.84350032  1
  Rb  Rb1  1  0.25000000  0.62550447  0.51162700  1
  Rb  Rb2  1  0.75000000  0.62444573  0.98773804  1
  Rb  Rb3  1  0.75000000  0.62525004  0.65630006  1
  Rb  Rb4  1  0.25000000  0.87449553  0.01162700  1
  Rb  Rb5  1  0.25000000  0.87530719  0.34350032  1
  Rb  Rb6  1  0.75000000  0.87474996  0.15630006  1
  Rb  Rb7  1  0.75000000  0.87555427  0.48773804  1
  Rb  Rb8  1  0.75000000  0.12469281  0.65649968  1
  Rb  Rb9  1  0.25000000  0.12525004  0.84369994  1
  Rb  Rb10  1  0.75000000  0.12550447  0.98837300  1
  Rb  Rb11  1  0.25000000  0.12444573  0.51226196  1
  Rb  Rb12  1  0.25000000  0.37474996  0.34369994  1
  Rb  Rb13  1  0.75000000  0.37449553  0.48837300  1
  Rb  Rb14  1  0.25000000  0.37555427  0.01226196  1
  Rb  Rb15  1  0.75000000  0.37530719  0.15649968  1
  Sb  Sb16  1  0.25000000  0.61595279  0.16537973  1
  Sb  Sb17  1  0.75000000  0.63404049  0.33491025  1
  Sb  Sb18  1  0.75000000  0.86595951  0.83491025  1
  Sb  Sb19  1  0.25000000  0.88404721  0.66537973  1
  Sb  Sb20  1  0.75000000  0.11595279  0.33462027  1
  Sb  Sb21  1  0.25000000  0.13404049  0.16508975  1
  Sb  Sb22  1  0.25000000  0.36595951  0.66508975  1
  Sb  Sb23  1  0.75000000  0.38404721  0.83462027  1
  O  O24  1  0.52853325  0.62669322  0.40038464  1
  O  O25  1  0.02866642  0.62361755  0.09989335  1
  O  O26  1  0.75000000  0.62513990  0.81065018  1
  O  O27  1  0.47133358  0.62361755  0.09989335  1
  O  O28  1  0.97146675  0.62669322  0.40038464  1
  O  O29  1  0.52853325  0.87330678  0.90038464  1
  O  O30  1  0.75000000  0.87486010  0.31065018  1
  O  O31  1  0.47133358  0.87638245  0.59989335  1
  O  O32  1  0.02866642  0.87638245  0.59989335  1
  O  O33  1  0.97146675  0.87330678  0.90038464  1
  O  O34  1  0.02853325  0.12669322  0.09961536  1
  O  O35  1  0.47146675  0.12669322  0.09961536  1
  O  O36  1  0.97133358  0.12361755  0.40010665  1
  O  O37  1  0.52866642  0.12361755  0.40010665  1
  O  O38  1  0.25000000  0.12513990  0.68934982  1
  O  O39  1  0.02853325  0.37330678  0.59961536  1
  O  O40  1  0.47146675  0.37330678  0.59961536  1
  O  O41  1  0.52866642  0.37638245  0.90010665  1
  O  O42  1  0.97133358  0.37638245  0.90010665  1
  O  O43  1  0.25000000  0.37486010  0.18934982  1
