# generated using pymatgen
data_BaAl4S7
_symmetry_space_group_name_H-M   'P 1'
_cell_length_a   5.92746583
_cell_length_b   6.25334407
_cell_length_c   14.91800445
_cell_angle_alpha   90.00000000
_cell_angle_beta   90.00000000
_cell_angle_gamma   90.00000000
_symmetry_Int_Tables_number   1
_chemical_formula_structural   BaAl4S7
_chemical_formula_sum   'Ba2 Al8 S14'
_cell_volume   552.95796279
_cell_formula_units_Z   2
loop_
 _symmetry_equiv_pos_site_id
 _symmetry_equiv_pos_as_xyz
  1  'x, y, z'
loop_
 _atom_site_type_symbol
 _atom_site_label
 _atom_site_symmetry_multiplicity
 _atom_site_fract_x
 _atom_site_fract_y
 _atom_site_fract_z
 _atom_site_occupancy
  Ba  Ba0  1  0.48570503  0.34316672  0.50000000  1
  Ba  Ba1  1  0.98570503  0.65683328  -0.00000000  1
  Al  Al2  1  0.08920433  0.82947004  0.38043728  1
  Al  Al3  1  0.07227504  0.31521897  0.74795597  1
  Al  Al4  1  0.57227504  0.68478103  0.75204403  1
  Al  Al5  1  0.58920433  0.17052996  0.11956272  1
  Al  Al6  1  0.58920433  0.17052996  0.88043728  1
  Al  Al7  1  0.08920433  0.82947004  0.61956272  1
  Al  Al8  1  0.07227504  0.31521897  0.25204403  1
  Al  Al9  1  0.57227504  0.68478103  0.24795597  1
  S  S10  1  0.97506151  0.64621764  0.50000000  1
  S  S11  1  0.47506151  0.35378236  -0.00000000  1
  S  S12  1  0.96618677  0.19344497  0.11966943  1
  S  S13  1  0.46618677  0.80655503  0.38033057  1
  S  S14  1  0.46618677  0.80655503  0.61966943  1
  S  S15  1  0.96618677  0.19344497  0.88033057  1
  S  S16  1  0.98437844  0.17182177  0.38291827  1
  S  S17  1  0.48437844  0.82817823  0.11708173  1
  S  S18  1  0.48437844  0.82817823  0.88291827  1
  S  S19  1  0.98437844  0.17182177  0.61708173  1
  S  S20  1  0.96097215  0.66677881  0.25158450  1
  S  S21  1  0.46097215  0.33322119  0.24841550  1
  S  S22  1  0.46097215  0.33322119  0.75158450  1
  S  S23  1  0.96097215  0.66677881  0.74841550  1
