# generated using pymatgen
data_AsPO4
_symmetry_space_group_name_H-M   'P 1'
_cell_length_a   5.01173144
_cell_length_b   7.35046832
_cell_length_c   8.41549222
_cell_angle_alpha   90.00000000
_cell_angle_beta   90.00000000
_cell_angle_gamma   90.00000000
_symmetry_Int_Tables_number   1
_chemical_formula_structural   AsPO4
_chemical_formula_sum   'As4 P4 O16'
_cell_volume   310.01472598
_cell_formula_units_Z   4
loop_
 _symmetry_equiv_pos_site_id
 _symmetry_equiv_pos_as_xyz
  1  'x, y, z'
loop_
 _atom_site_type_symbol
 _atom_site_label
 _atom_site_symmetry_multiplicity
 _atom_site_fract_x
 _atom_site_fract_y
 _atom_site_fract_z
 _atom_site_occupancy
  As  As0  1  0.25000000  0.69134754  0.73821076  1
  As  As1  1  0.75000000  0.30865246  0.26178924  1
  As  As2  1  0.75000000  0.19134754  0.76178924  1
  As  As3  1  0.25000000  0.80865246  0.23821076  1
  P  P4  1  0.25000000  0.31465269  0.58510817  1
  P  P5  1  0.75000000  0.68534731  0.41489183  1
  P  P6  1  0.75000000  0.81465269  0.91489183  1
  P  P7  1  0.25000000  0.18534731  0.08510817  1
  O  O8  1  0.25000000  0.40318369  0.42727169  1
  O  O9  1  0.75000000  0.59681631  0.57272831  1
  O  O10  1  0.75000000  0.90318369  0.07272831  1
  O  O11  1  0.25000000  0.09681631  0.92727169  1
  O  O12  1  0.25000000  0.44551887  0.73245322  1
  O  O13  1  0.75000000  0.55448113  0.26754678  1
  O  O14  1  0.75000000  0.94551887  0.76754678  1
  O  O15  1  0.25000000  0.05448113  0.23245322  1
  O  O16  1  0.00340201  0.31170613  0.10797695  1
  O  O17  1  0.50340201  0.68829387  0.89202305  1
  O  O18  1  0.99659799  0.81170613  0.39202305  1
  O  O19  1  0.49659799  0.18829387  0.60797695  1
  O  O20  1  0.99659799  0.68829387  0.89202305  1
  O  O21  1  0.49659799  0.31170613  0.10797695  1
  O  O22  1  0.00340201  0.18829387  0.60797695  1
  O  O23  1  0.50340201  0.81170613  0.39202305  1
