# generated using pymatgen
data_SbIrS
_symmetry_space_group_name_H-M   'P 1'
_cell_length_a   6.07434534
_cell_length_b   6.07434534
_cell_length_c   6.07434534
_cell_angle_alpha   90.00000000
_cell_angle_beta   90.00000000
_cell_angle_gamma   90.00000000
_symmetry_Int_Tables_number   1
_chemical_formula_structural   SbIrS
_chemical_formula_sum   'Sb4 Ir4 S4'
_cell_volume   224.12919778
_cell_formula_units_Z   4
loop_
 _symmetry_equiv_pos_site_id
 _symmetry_equiv_pos_as_xyz
  1  'x, y, z'
loop_
 _atom_site_type_symbol
 _atom_site_label
 _atom_site_symmetry_multiplicity
 _atom_site_fract_x
 _atom_site_fract_y
 _atom_site_fract_z
 _atom_site_occupancy
  Sb  Sb0  1  0.37784809  0.37784809  0.37784809  1
  Sb  Sb1  1  0.12215191  0.62215191  0.87784809  1
  Sb  Sb2  1  0.87784809  0.12215191  0.62215191  1
  Sb  Sb3  1  0.62215191  0.87784809  0.12215191  1
  Ir  Ir4  1  0.98825121  0.51174879  0.48825121  1
  Ir  Ir5  1  0.51174879  0.48825121  0.98825121  1
  Ir  Ir6  1  0.48825121  0.98825121  0.51174879  1
  Ir  Ir7  1  0.01174879  0.01174879  0.01174879  1
  S  S8  1  0.38344079  0.11655921  0.88344079  1
  S  S9  1  0.11655921  0.88344079  0.38344079  1
  S  S10  1  0.88344079  0.38344079  0.11655921  1
  S  S11  1  0.61655921  0.61655921  0.61655921  1
