# generated using pymatgen
data_K2Si4O9
_symmetry_space_group_name_H-M   'P 1'
_cell_length_a   6.59497985
_cell_length_b   6.59498102
_cell_length_c   9.52514880
_cell_angle_alpha   90.00000000
_cell_angle_beta   90.00000000
_cell_angle_gamma   120.00000688
_symmetry_Int_Tables_number   1
_chemical_formula_structural   K2Si4O9
_chemical_formula_sum   'K4 Si8 O18'
_cell_volume   358.78096486
_cell_formula_units_Z   2
loop_
 _symmetry_equiv_pos_site_id
 _symmetry_equiv_pos_as_xyz
  1  'x, y, z'
loop_
 _atom_site_type_symbol
 _atom_site_label
 _atom_site_symmetry_multiplicity
 _atom_site_fract_x
 _atom_site_fract_y
 _atom_site_fract_z
 _atom_site_occupancy
  K  K0  1  0.33333300  0.66666700  0.44260884  1
  K  K1  1  0.66666700  0.33333300  0.94260884  1
  K  K2  1  0.66666700  0.33333300  0.55739116  1
  K  K3  1  0.33333300  0.66666700  0.05739116  1
  Si  Si4  1  0.63520844  0.76571827  0.75000000  1
  Si  Si5  1  0.86949017  0.63520844  0.25000000  1
  Si  Si6  1  0.76571827  0.13050983  0.25000000  1
  Si  Si7  1  0.23428173  0.86949017  0.75000000  1
  Si  Si8  1  0.13050983  0.36479156  0.75000000  1
  Si  Si9  1  0.36479156  0.23428173  0.25000000  1
  Si  Si10  1  0.00000000  -0.00000000  0.50000000  1
  Si  Si11  1  0.00000000  -0.00000000  -0.00000000  1
  O  O12  1  0.23159205  0.21020136  0.39395839  1
  O  O13  1  0.02138870  0.23159205  0.89395839  1
  O  O14  1  0.21020136  0.97861130  0.89395839  1
  O  O15  1  0.78979864  0.02138870  0.39395839  1
  O  O16  1  0.97861130  0.76840795  0.39395839  1
  O  O17  1  0.76840795  0.78979864  0.89395839  1
  O  O18  1  0.76840795  0.78979864  0.60604161  1
  O  O19  1  0.97861130  0.76840795  0.10604161  1
  O  O20  1  0.78979864  0.02138870  0.10604161  1
  O  O21  1  0.21020136  0.97861130  0.60604161  1
  O  O22  1  0.02138870  0.23159205  0.60604161  1
  O  O23  1  0.23159205  0.21020136  0.10604161  1
  O  O24  1  0.49060495  0.07303833  0.25000000  1
  O  O25  1  0.41756762  0.49060495  0.75000000  1
  O  O26  1  0.07303833  0.58243238  0.75000000  1
  O  O27  1  0.92696167  0.41756762  0.25000000  1
  O  O28  1  0.58243238  0.50939505  0.25000000  1
  O  O29  1  0.50939505  0.92696167  0.75000000  1
