# generated using pymatgen
data_Sr4P2O
_symmetry_space_group_name_H-M   'P 1'
_cell_length_a   4.81425609
_cell_length_b   4.81425522
_cell_length_c   8.69203954
_cell_angle_alpha   106.07734843
_cell_angle_beta   106.07733545
_cell_angle_gamma   90.00000297
_symmetry_Int_Tables_number   1
_chemical_formula_structural   Sr4P2O
_chemical_formula_sum   'Sr4 P2 O1'
_cell_volume   185.36289597
_cell_formula_units_Z   1
loop_
 _symmetry_equiv_pos_site_id
 _symmetry_equiv_pos_as_xyz
  1  'x, y, z'
loop_
 _atom_site_type_symbol
 _atom_site_label
 _atom_site_symmetry_multiplicity
 _atom_site_fract_x
 _atom_site_fract_y
 _atom_site_fract_z
 _atom_site_occupancy
  Sr  Sr0  1  0.67506105  0.67506105  0.35012309  1
  Sr  Sr1  1  0.32493895  0.32493895  0.64987691  1
  Sr  Sr2  1  0.00000000  0.50000000  0.00000000  1
  Sr  Sr3  1  0.50000000  0.00000000  0.00000000  1
  P  P4  1  0.86494251  0.86494251  0.72988703  1
  P  P5  1  0.13505749  0.13505749  0.27011297  1
  O  O6  1  0.50000000  0.50000000  0.00000000  1
