# generated using pymatgen
data_Li2Mn5(Si2O5)6
_symmetry_space_group_name_H-M   'P 1'
_cell_length_a   10.40591907
_cell_length_b   10.40591907
_cell_length_c   14.67722100
_cell_angle_alpha   90.00000000
_cell_angle_beta   90.00000000
_cell_angle_gamma   119.99999411
_symmetry_Int_Tables_number   1
_chemical_formula_structural   Li2Mn5(Si2O5)6
_chemical_formula_sum   'Li4 Mn10 Si24 O60'
_cell_volume   1376.37057449
_cell_formula_units_Z   2
loop_
 _symmetry_equiv_pos_site_id
 _symmetry_equiv_pos_as_xyz
  1  'x, y, z'
loop_
 _atom_site_type_symbol
 _atom_site_label
 _atom_site_symmetry_multiplicity
 _atom_site_fract_x
 _atom_site_fract_y
 _atom_site_fract_z
 _atom_site_occupancy
  Li  Li0  1  0.33333300  0.66666700  0.75000000  1
  Li  Li1  1  0.00000000  0.00000000  0.50000000  1
  Li  Li2  1  0.00000000  0.00000000  0.00000000  1
  Li  Li3  1  0.66666700  0.33333300  0.25000000  1
  Mn  Mn4  1  0.00000000  0.49880700  0.50000000  1
  Mn  Mn5  1  0.00000000  0.49880700  0.00000000  1
  Mn  Mn6  1  0.33333300  0.66666700  0.00385300  1
  Mn  Mn7  1  0.33333300  0.66666700  0.49614700  1
  Mn  Mn8  1  0.50119300  0.50119300  0.00000000  1
  Mn  Mn9  1  0.50119300  0.50119300  0.50000000  1
  Mn  Mn10  1  0.66666700  0.33333300  0.99614700  1
  Mn  Mn11  1  0.66666700  0.33333300  0.50385300  1
  Mn  Mn12  1  0.49880700  0.00000000  0.00000000  1
  Mn  Mn13  1  0.49880700  0.00000000  0.50000000  1
  Si  Si14  1  0.11325900  0.76539800  0.35866700  1
  Si  Si15  1  0.11325900  0.76539800  0.14133300  1
  Si  Si16  1  0.23365200  0.88604200  0.85915600  1
  Si  Si17  1  0.23365200  0.88604200  0.64084400  1
  Si  Si18  1  0.11395800  0.34761000  0.85915600  1
  Si  Si19  1  0.11395800  0.34761000  0.64084400  1
  Si  Si20  1  0.23460200  0.34786200  0.14133300  1
  Si  Si21  1  0.23460200  0.34786200  0.35866700  1
  Si  Si22  1  0.65213800  0.88674100  0.14133300  1
  Si  Si23  1  0.65213800  0.88674100  0.35866700  1
  Si  Si24  1  0.34786200  0.23460200  0.64133300  1
  Si  Si25  1  0.34786200  0.23460200  0.85866700  1
  Si  Si26  1  0.65239000  0.76634800  0.64084400  1
  Si  Si27  1  0.65239000  0.76634800  0.85915600  1
  Si  Si28  1  0.34761000  0.11395800  0.35915600  1
  Si  Si29  1  0.34761000  0.11395800  0.14084400  1
  Si  Si30  1  0.76634800  0.65239000  0.14084400  1
  Si  Si31  1  0.76634800  0.65239000  0.35915600  1
  Si  Si32  1  0.88674100  0.65213800  0.85866700  1
  Si  Si33  1  0.88674100  0.65213800  0.64133300  1
  Si  Si34  1  0.76539800  0.11325900  0.85866700  1
  Si  Si35  1  0.76539800  0.11325900  0.64133300  1
  Si  Si36  1  0.88604200  0.23365200  0.14084400  1
  Si  Si37  1  0.88604200  0.23365200  0.35915600  1
  O  O38  1  0.05695500  0.78516700  0.61475100  1
  O  O39  1  0.05695500  0.78516700  0.88524900  1
  O  O40  1  0.21777200  0.94333100  0.38371400  1
  O  O41  1  0.21777200  0.94333100  0.11628600  1
  O  O42  1  0.12381400  0.74194400  0.25000000  1
  O  O43  1  0.15498300  0.66172300  0.41800300  1
  O  O44  1  0.15498300  0.66172300  0.08199700  1
  O  O45  1  0.25679200  0.86317700  0.75000000  1
  O  O46  1  0.15832000  0.49781800  0.91460400  1
  O  O47  1  0.15832000  0.49781800  0.58539600  1
  O  O48  1  0.05666900  0.27444100  0.11628600  1
  O  O49  1  0.05666900  0.27444100  0.38371400  1
  O  O50  1  0.33949900  0.84168000  0.91460400  1
  O  O51  1  0.33949900  0.84168000  0.58539600  1
  O  O52  1  0.13682300  0.39361600  0.75000000  1
  O  O53  1  0.25805600  0.38186900  0.25000000  1
  O  O54  1  0.50674000  0.84501700  0.41800300  1
  O  O55  1  0.50674000  0.84501700  0.08199700  1
  O  O56  1  0.21483300  0.27178700  0.88524900  1
  O  O57  1  0.21483300  0.27178700  0.61475100  1
  O  O58  1  0.33827700  0.49326000  0.41800300  1
  O  O59  1  0.33827700  0.49326000  0.08199700  1
  O  O60  1  0.27178700  0.21483300  0.11475100  1
  O  O61  1  0.27178700  0.21483300  0.38524900  1
  O  O62  1  0.61813100  0.87618600  0.25000000  1
  O  O63  1  0.50218200  0.66050100  0.58539600  1
  O  O64  1  0.50218200  0.66050100  0.91460400  1
  O  O65  1  0.27444100  0.05666900  0.88371400  1
  O  O66  1  0.27444100  0.05666900  0.61628600  1
  O  O67  1  0.60638400  0.74320800  0.75000000  1
  O  O68  1  0.38186900  0.25805600  0.75000000  1
  O  O69  1  0.72821300  0.94304500  0.88524900  1
  O  O70  1  0.72821300  0.94304500  0.61475100  1
  O  O71  1  0.49326000  0.33827700  0.91800300  1
  O  O72  1  0.49326000  0.33827700  0.58199700  1
  O  O73  1  0.39361600  0.13682300  0.25000000  1
  O  O74  1  0.72555900  0.78222800  0.11628600  1
  O  O75  1  0.72555900  0.78222800  0.38371400  1
  O  O76  1  0.66050100  0.50218200  0.08539600  1
  O  O77  1  0.66050100  0.50218200  0.41460400  1
  O  O78  1  0.78222800  0.72555900  0.88371400  1
  O  O79  1  0.78222800  0.72555900  0.61628600  1
  O  O80  1  0.49781800  0.15832000  0.08539600  1
  O  O81  1  0.49781800  0.15832000  0.41460400  1
  O  O82  1  0.74320800  0.60638400  0.25000000  1
  O  O83  1  0.87618600  0.61813100  0.75000000  1
  O  O84  1  0.66172300  0.15498300  0.91800300  1
  O  O85  1  0.66172300  0.15498300  0.58199700  1
  O  O86  1  0.94304500  0.72821300  0.11475100  1
  O  O87  1  0.94304500  0.72821300  0.38524900  1
  O  O88  1  0.84501700  0.50674000  0.91800300  1
  O  O89  1  0.84501700  0.50674000  0.58199700  1
  O  O90  1  0.74194400  0.12381400  0.75000000  1
  O  O91  1  0.84168000  0.33949900  0.08539600  1
  O  O92  1  0.84168000  0.33949900  0.41460400  1
  O  O93  1  0.86317700  0.25679200  0.25000000  1
  O  O94  1  0.78516700  0.05695500  0.11475100  1
  O  O95  1  0.78516700  0.05695500  0.38524900  1
  O  O96  1  0.94333100  0.21777200  0.88371400  1
  O  O97  1  0.94333100  0.21777200  0.61628600  1
