# generated using pymatgen
data_Rb2SnAs2
_symmetry_space_group_name_H-M   'P 1'
_cell_length_a   6.95069341
_cell_length_b   7.51063823
_cell_length_c   8.72483470
_cell_angle_alpha   115.49404041
_cell_angle_beta   113.47369551
_cell_angle_gamma   89.99999392
_symmetry_Int_Tables_number   1
_chemical_formula_structural   Rb2SnAs2
_chemical_formula_sum   'Rb4 Sn2 As4'
_cell_volume   368.92595767
_cell_formula_units_Z   2
loop_
 _symmetry_equiv_pos_site_id
 _symmetry_equiv_pos_as_xyz
  1  'x, y, z'
loop_
 _atom_site_type_symbol
 _atom_site_label
 _atom_site_symmetry_multiplicity
 _atom_site_fract_x
 _atom_site_fract_y
 _atom_site_fract_z
 _atom_site_occupancy
  Rb  Rb0  1  0.85530477  0.01565147  0.71060953  1
  Rb  Rb1  1  0.64469523  0.30504094  0.28939047  1
  Rb  Rb2  1  0.14469523  0.98434853  0.28939047  1
  Rb  Rb3  1  0.35530477  0.69495906  0.71060953  1
  Sn  Sn4  1  0.25000000  0.50000000  -0.00000000  1
  Sn  Sn5  1  0.75000000  0.50000000  -0.00000000  1
  As  As6  1  0.39684172  0.21621386  0.79368244  1
  As  As7  1  0.10315828  0.42253142  0.20631756  1
  As  As8  1  0.60315828  0.78378614  0.20631756  1
  As  As9  1  0.89684172  0.57746858  0.79368244  1
