# generated using pymatgen
data_Sm3Y5O12
_symmetry_space_group_name_H-M   'P 1'
_cell_length_a   9.29534745
_cell_length_b   9.29535187
_cell_length_c   9.29535011
_cell_angle_alpha   109.47894733
_cell_angle_beta   109.49837838
_cell_angle_gamma   109.43634412
_symmetry_Int_Tables_number   1
_chemical_formula_structural   Sm3Y5O12
_chemical_formula_sum   'Sm6 Y10 O24'
_cell_volume   618.26573972
_cell_formula_units_Z   2
loop_
 _symmetry_equiv_pos_site_id
 _symmetry_equiv_pos_as_xyz
  1  'x, y, z'
loop_
 _atom_site_type_symbol
 _atom_site_label
 _atom_site_symmetry_multiplicity
 _atom_site_fract_x
 _atom_site_fract_y
 _atom_site_fract_z
 _atom_site_occupancy
  Sm  Sm0  1  0.00250420  0.00322536  0.00161278  1
  Sm  Sm1  1  0.50161268  0.00089096  0.49838716  1
  Sm  Sm2  1  0.49749567  0.49910843  0.00072094  1
  Sm  Sm3  1  0.99838772  0.49677428  0.49927852  1
  Sm  Sm4  1  0.46949942  0.71949930  0.75000053  1
  Sm  Sm5  1  0.03050140  0.78050106  0.24999987  1
  Y  Y6  1  0.96871391  0.21871391  0.74999990  1
  Y  Y7  1  0.71885222  0.75000011  0.46885259  1
  Y  Y8  1  0.78114776  0.25000009  0.03114795  1
  Y  Y9  1  0.25000016  0.03239954  0.78239964  1
  Y  Y10  1  0.24999985  0.52970192  0.27970162  1
  Y  Y11  1  0.53128627  0.28128579  0.24999950  1
  Y  Y12  1  0.75000045  0.46760063  0.71760091  1
  Y  Y13  1  0.74999987  0.97029824  0.22029830  1
  Y  Y14  1  0.28230988  0.25000024  0.53231016  1
  Y  Y15  1  0.21769015  0.75000002  0.96769000  1
  O  O16  1  0.45712968  0.48608435  0.23198133  1
  O  O17  1  0.04287056  0.27485167  0.02895499  1
  O  O18  1  0.02993101  0.04566343  0.27573521  1
  O  O19  1  0.73208457  0.24374674  0.77388019  1
  O  O20  1  0.23007159  0.45433600  0.48426667  1
  O  O21  1  0.53013371  0.25625315  0.98833780  1
  O  O22  1  0.75410339  0.22514815  0.26801884  1
  O  O23  1  0.74589660  0.01391548  0.47104487  1
  O  O24  1  0.98750816  0.52485156  0.25621704  1
  O  O25  1  0.51249232  0.76870923  0.53734345  1
  O  O26  1  0.22509304  0.26797619  0.75580890  1
  O  O27  1  0.27490703  0.03071616  0.04288301  1
  O  O28  1  0.73136384  0.97514763  0.96265764  1
  O  O29  1  0.01216704  0.46928378  0.74419094  1
  O  O30  1  0.76863450  0.73129111  0.24378309  1
  O  O31  1  0.48783278  0.23202380  0.45711656  1
  O  O32  1  0.26195922  0.99226817  0.53498842  1
  O  O33  1  0.23804081  0.77302921  0.73030867  1
  O  O34  1  0.47006895  0.74580396  0.01573228  1
  O  O35  1  0.76791567  0.54179578  0.51166229  1
  O  O36  1  0.26992823  0.75419577  0.22426467  1
  O  O37  1  0.96986655  0.95820419  0.72611951  1
  O  O38  1  0.95727933  0.72697070  0.96501111  1
  O  O39  1  0.54272078  0.50773192  0.76969115  1
