# generated using pymatgen
data_Tl4SiS4
_symmetry_space_group_name_H-M   'P 1'
_cell_length_a   7.65600529
_cell_length_b   8.55694573
_cell_length_c   8.55694597
_cell_angle_alpha   83.74687821
_cell_angle_beta   72.58965561
_cell_angle_gamma   72.58965734
_symmetry_Int_Tables_number   1
_chemical_formula_structural   Tl4SiS4
_chemical_formula_sum   'Tl8 Si2 S8'
_cell_volume   510.27892918
_cell_formula_units_Z   2
loop_
 _symmetry_equiv_pos_site_id
 _symmetry_equiv_pos_as_xyz
  1  'x, y, z'
loop_
 _atom_site_type_symbol
 _atom_site_label
 _atom_site_symmetry_multiplicity
 _atom_site_fract_x
 _atom_site_fract_y
 _atom_site_fract_z
 _atom_site_occupancy
  Tl  Tl0  1  0.08387255  0.78449691  0.79532448  1
  Tl  Tl1  1  0.58387255  0.79532448  0.78449691  1
  Tl  Tl2  1  0.04392119  0.97724541  0.41199860  1
  Tl  Tl3  1  0.54392119  0.41199860  0.97724541  1
  Tl  Tl4  1  0.07326867  0.25431259  0.99639095  1
  Tl  Tl5  1  0.57326867  0.99639095  0.25431259  1
  Tl  Tl6  1  0.99315746  0.37065794  0.59475226  1
  Tl  Tl7  1  0.49315746  0.59475226  0.37065794  1
  Si  Si8  1  0.02878999  0.61678626  0.20207402  1
  Si  Si9  1  0.52878999  0.20207402  0.61678626  1
  S  S10  1  0.70836167  0.08862898  0.76862202  1
  S  S11  1  0.69966914  0.24476249  0.37627689  1
  S  S12  1  0.19966914  0.37627689  0.24476249  1
  S  S13  1  0.84469796  0.71890831  0.42923907  1
  S  S14  1  0.35546138  0.05267442  0.60524841  1
  S  S15  1  0.85546138  0.60524841  0.05267442  1
  S  S16  1  0.34469796  0.42923907  0.71890831  1
  S  S17  1  0.20836167  0.76862202  0.08862898  1
