# generated using pymatgen
data_SnO2
_symmetry_space_group_name_H-M   'P 1'
_cell_length_a   3.20749977
_cell_length_b   4.76383605
_cell_length_c   4.76580004
_cell_angle_alpha   90.00000000
_cell_angle_beta   90.00000000
_cell_angle_gamma   90.00000000
_symmetry_Int_Tables_number   1
_chemical_formula_structural   SnO2
_chemical_formula_sum   'Sn2 O4'
_cell_volume   72.82143907
_cell_formula_units_Z   2
loop_
 _symmetry_equiv_pos_site_id
 _symmetry_equiv_pos_as_xyz
  1  'x, y, z'
loop_
 _atom_site_type_symbol
 _atom_site_label
 _atom_site_symmetry_multiplicity
 _atom_site_fract_x
 _atom_site_fract_y
 _atom_site_fract_z
 _atom_site_occupancy
  Sn  Sn0  1  0.50000000  0.50000000  0.50000000  1
  Sn  Sn1  1  0.00000000  -0.00000000  0.00000000  1
  O  O2  1  0.50000000  0.19421615  0.80616074  1
  O  O3  1  0.50000000  0.80578385  0.19383926  1
  O  O4  1  -0.00000000  0.30578385  0.30616074  1
  O  O5  1  -0.00000000  0.69421615  0.69383926  1
