# generated using pymatgen
data_V2Pb14Cl4O17
_symmetry_space_group_name_H-M   'P 1'
_cell_length_a   13.06009547
_cell_length_b   13.06009547
_cell_length_c   11.33772910
_cell_angle_alpha   76.85394497
_cell_angle_beta   76.85394497
_cell_angle_gamma   121.79654084
_symmetry_Int_Tables_number   1
_chemical_formula_structural   V2Pb14Cl4O17
_chemical_formula_sum   'V4 Pb28 Cl8 O34'
_cell_volume   1452.83377913
_cell_formula_units_Z   2
loop_
 _symmetry_equiv_pos_site_id
 _symmetry_equiv_pos_as_xyz
  1  'x, y, z'
loop_
 _atom_site_type_symbol
 _atom_site_label
 _atom_site_symmetry_multiplicity
 _atom_site_fract_x
 _atom_site_fract_y
 _atom_site_fract_z
 _atom_site_occupancy
  V  V0  1  0.18845953  0.54315499  0.17437169  1
  V  V1  1  0.45684501  0.81154047  0.32562831  1
  V  V2  1  0.81154047  0.45684501  0.82562831  1
  V  V3  1  0.54315499  0.18845953  0.67437169  1
  Pb  Pb4  1  0.97056534  0.80260448  0.17987526  1
  Pb  Pb5  1  0.19739552  0.02943466  0.32012474  1
  Pb  Pb6  1  0.02943466  0.19739552  0.82012474  1
  Pb  Pb7  1  0.80260448  0.97056534  0.67987526  1
  Pb  Pb8  1  0.71709492  0.54173532  0.07517916  1
  Pb  Pb9  1  0.45826468  0.28290508  0.42482084  1
  Pb  Pb10  1  0.28290508  0.45826468  0.92482084  1
  Pb  Pb11  1  0.54173532  0.71709492  0.57517916  1
  Pb  Pb12  1  0.29269111  0.44978732  0.45516936  1
  Pb  Pb13  1  0.55021268  0.70730889  0.04483064  1
  Pb  Pb14  1  0.70730889  0.55021268  0.54483064  1
  Pb  Pb15  1  0.44978732  0.29269111  0.95516936  1
  Pb  Pb16  1  0.03992778  0.20651084  0.30604050  1
  Pb  Pb17  1  0.79348916  0.96007222  0.19395950  1
  Pb  Pb18  1  0.96007222  0.79348916  0.69395950  1
  Pb  Pb19  1  0.20651084  0.03992778  0.80604050  1
  Pb  Pb20  1  0.84089339  0.45272687  0.29951090  1
  Pb  Pb21  1  0.54727313  0.15910661  0.20048910  1
  Pb  Pb22  1  0.15910661  0.54727313  0.70048910  1
  Pb  Pb23  1  0.45272687  0.84089339  0.79951090  1
  Pb  Pb24  1  0.07595926  0.68021547  0.42086268  1
  Pb  Pb25  1  0.31978453  0.92404074  0.07913732  1
  Pb  Pb26  1  0.92404074  0.31978453  0.57913732  1
  Pb  Pb27  1  0.68021547  0.07595926  0.92086268  1
  Pb  Pb28  1  0.90541155  0.29710207  0.06063292  1
  Pb  Pb29  1  0.70289793  0.09458845  0.43936708  1
  Pb  Pb30  1  0.09458845  0.70289793  0.93936708  1
  Pb  Pb31  1  0.29710207  0.90541155  0.56063292  1
  Cl  Cl32  1  0.12099753  0.12669332  0.06514196  1
  Cl  Cl33  1  0.87330668  0.87900247  0.43485804  1
  Cl  Cl34  1  0.87900247  0.87330668  0.93485804  1
  Cl  Cl35  1  0.12669332  0.12099753  0.56514196  1
  Cl  Cl36  1  0.63654053  0.60417322  0.30389720  1
  Cl  Cl37  1  0.39582678  0.36345947  0.19610280  1
  Cl  Cl38  1  0.36345947  0.39582678  0.69610280  1
  Cl  Cl39  1  0.60417322  0.63654053  0.80389720  1
  O  O40  1  0.90626615  0.62078636  0.11166637  1
  O  O41  1  0.37921364  0.09373385  0.38833363  1
  O  O42  1  0.09373385  0.37921364  0.88833363  1
  O  O43  1  0.62078636  0.90626615  0.61166637  1
  O  O44  1  0.88510613  0.61118255  0.37790622  1
  O  O45  1  0.38881745  0.11489387  0.12209378  1
  O  O46  1  0.11489387  0.38881745  0.62209378  1
  O  O47  1  0.61118255  0.88510613  0.87790622  1
  O  O48  1  0.88511974  0.16922464  0.48581042  1
  O  O49  1  0.83077536  0.11488026  0.01418958  1
  O  O50  1  0.11488026  0.83077536  0.51418958  1
  O  O51  1  0.16922464  0.88511974  0.98581042  1
  O  O52  1  0.34425184  0.63648334  0.04064370  1
  O  O53  1  0.36351666  0.65574816  0.45935630  1
  O  O54  1  0.65574816  0.36351666  0.95935630  1
  O  O55  1  0.63648334  0.34425184  0.54064370  1
  O  O56  1  0.08912898  0.40754147  0.14323885  1
  O  O57  1  0.59245853  0.91087102  0.35676115  1
  O  O58  1  0.91087102  0.59245853  0.85676115  1
  O  O59  1  0.40754147  0.08912898  0.64323885  1
  O  O60  1  0.14348166  0.85651834  0.25000000  1
  O  O61  1  0.85651834  0.14348166  0.75000000  1
  O  O62  1  0.64420138  0.35579862  0.25000000  1
  O  O63  1  0.35579862  0.64420138  0.75000000  1
  O  O64  1  0.86675637  0.13324363  0.25000000  1
  O  O65  1  0.13324363  0.86675637  0.75000000  1
  O  O66  1  0.18595682  0.47882855  0.32540261  1
  O  O67  1  0.52117145  0.81404318  0.17459739  1
  O  O68  1  0.81404318  0.52117145  0.67459739  1
  O  O69  1  0.47882855  0.18595682  0.82540261  1
  O  O70  1  0.12878129  0.63173711  0.18063815  1
  O  O71  1  0.36826289  0.87121871  0.31936185  1
  O  O72  1  0.87121871  0.36826289  0.81936185  1
  O  O73  1  0.63173711  0.12878129  0.68063815  1
