# generated using pymatgen
data_Cs2As2Pd
_symmetry_space_group_name_H-M   'P 1'
_cell_length_a   6.38183078
_cell_length_b   7.08801793
_cell_length_c   8.40555131
_cell_angle_alpha   114.93736543
_cell_angle_beta   90.00000000
_cell_angle_gamma   90.00000000
_symmetry_Int_Tables_number   1
_chemical_formula_structural   Cs2As2Pd
_chemical_formula_sum   'Cs4 As4 Pd2'
_cell_volume   344.77286391
_cell_formula_units_Z   2
loop_
 _symmetry_equiv_pos_site_id
 _symmetry_equiv_pos_as_xyz
  1  'x, y, z'
loop_
 _atom_site_type_symbol
 _atom_site_label
 _atom_site_symmetry_multiplicity
 _atom_site_fract_x
 _atom_site_fract_y
 _atom_site_fract_z
 _atom_site_occupancy
  Cs  Cs0  1  0.25000000  0.20815035  0.41630070  1
  Cs  Cs1  1  0.75000000  0.79184965  0.58369930  1
  Cs  Cs2  1  0.25000000  0.58623935  0.17247871  1
  Cs  Cs3  1  0.75000000  0.41376065  0.82752129  1
  As  As4  1  0.75000000  0.26971697  0.20071237  1
  As  As5  1  0.25000000  0.73028303  0.79928763  1
  As  As6  1  0.25000000  0.06900460  0.79928763  1
  As  As7  1  0.75000000  0.93099540  0.20071237  1
  Pd  Pd8  1  0.00000000  -0.00000000  -0.00000000  1
  Pd  Pd9  1  0.50000000  -0.00000000  -0.00000000  1
