# generated using pymatgen
data_SmFeC6(N3O2)2
_symmetry_space_group_name_H-M   'P 1'
_cell_length_a   7.58109661
_cell_length_b   7.58109661
_cell_length_c   13.68240400
_cell_angle_alpha   90.00000000
_cell_angle_beta   90.00000000
_cell_angle_gamma   122.01616810
_symmetry_Int_Tables_number   1
_chemical_formula_structural   SmFeC6(N3O2)2
_chemical_formula_sum   'Sm2 Fe2 C12 N12 O8'
_cell_volume   666.76124965
_cell_formula_units_Z   2
loop_
 _symmetry_equiv_pos_site_id
 _symmetry_equiv_pos_as_xyz
  1  'x, y, z'
loop_
 _atom_site_type_symbol
 _atom_site_label
 _atom_site_symmetry_multiplicity
 _atom_site_fract_x
 _atom_site_fract_y
 _atom_site_fract_z
 _atom_site_occupancy
  Sm  Sm0  1  0.32793800  0.67206200  0.25000000  1
  Sm  Sm1  1  0.67206200  0.32793800  0.75000000  1
  Fe  Fe2  1  0.00000000  0.00000000  0.50000000  1
  Fe  Fe3  1  0.00000000  0.00000000  0.00000000  1
  C  C4  1  0.76352400  0.86640800  0.41214400  1
  C  C5  1  0.86640800  0.76352400  0.58785600  1
  C  C6  1  0.76352400  0.86640800  0.08785600  1
  C  C7  1  0.86640800  0.76352400  0.91214400  1
  C  C8  1  0.23647600  0.13359200  0.58785600  1
  C  C9  1  0.13359200  0.23647600  0.41214400  1
  C  C10  1  0.23647600  0.13359200  0.91214400  1
  C  C11  1  0.13359200  0.23647600  0.08785600  1
  C  C12  1  0.12774700  0.87225300  0.43096400  1
  C  C13  1  0.87225300  0.12774700  0.56903600  1
  C  C14  1  0.12774700  0.87225300  0.06903600  1
  C  C15  1  0.87225300  0.12774700  0.93096400  1
  N  N16  1  0.62353600  0.79314500  0.35727600  1
  N  N17  1  0.79314500  0.62353600  0.64272400  1
  N  N18  1  0.62353600  0.79314500  0.14272400  1
  N  N19  1  0.79314500  0.62353600  0.85727600  1
  N  N20  1  0.37646400  0.20685500  0.64272400  1
  N  N21  1  0.20685500  0.37646400  0.35727600  1
  N  N22  1  0.37646400  0.20685500  0.85727600  1
  N  N23  1  0.20685500  0.37646400  0.14272400  1
  N  N24  1  0.20124600  0.79875400  0.38307200  1
  N  N25  1  0.79875400  0.20124600  0.61692800  1
  N  N26  1  0.20124600  0.79875400  0.11692800  1
  N  N27  1  0.79875400  0.20124600  0.88307200  1
  O  O28  1  0.56969900  0.15324900  0.25000000  1
  O  O29  1  0.15324900  0.56969900  0.75000000  1
  O  O30  1  0.43030100  0.84675100  0.75000000  1
  O  O31  1  0.84675100  0.43030100  0.25000000  1
  O  O32  1  0.68222100  0.31777900  0.32435200  1
  O  O33  1  0.31777900  0.68222100  0.67564800  1
  O  O34  1  0.68222100  0.31777900  0.17564800  1
  O  O35  1  0.31777900  0.68222100  0.82435200  1
