# generated using pymatgen
data_KYSiS4
_symmetry_space_group_name_H-M   'P 1'
_cell_length_a   6.61876530
_cell_length_b   6.40267970
_cell_length_c   8.59649188
_cell_angle_alpha   72.37302679
_cell_angle_beta   90.00000000
_cell_angle_gamma   90.00000000
_symmetry_Int_Tables_number   1
_chemical_formula_structural   KYSiS4
_chemical_formula_sum   'K2 Y2 Si2 S8'
_cell_volume   347.19613913
_cell_formula_units_Z   2
loop_
 _symmetry_equiv_pos_site_id
 _symmetry_equiv_pos_as_xyz
  1  'x, y, z'
loop_
 _atom_site_type_symbol
 _atom_site_label
 _atom_site_symmetry_multiplicity
 _atom_site_fract_x
 _atom_site_fract_y
 _atom_site_fract_z
 _atom_site_occupancy
  K  K0  1  0.97757442  0.73069656  0.06531327  1
  K  K1  1  0.47757442  0.26930344  0.93468673  1
  Y  Y2  1  0.49929354  0.23023411  0.44966434  1
  Y  Y3  1  0.99929354  0.76976589  0.55033566  1
  Si  Si4  1  0.46184529  0.77963363  0.32470892  1
  Si  Si5  1  0.96184529  0.22036637  0.67529108  1
  S  S6  1  0.46295312  0.58356050  0.16877588  1
  S  S7  1  0.22998422  0.01998356  0.27803721  1
  S  S8  1  0.72653820  0.97648704  0.29832463  1
  S  S9  1  0.90881221  0.42028290  0.43258610  1
  S  S10  1  0.40881221  0.57971710  0.56741390  1
  S  S11  1  0.22653820  0.02351296  0.70167537  1
  S  S12  1  0.72998422  0.98001644  0.72196279  1
  S  S13  1  0.96295312  0.41643950  0.83122412  1
