# generated using pymatgen
data_LiCr2O4
_symmetry_space_group_name_H-M   'P 1'
_cell_length_a   5.91855300
_cell_length_b   5.97475317
_cell_length_c   8.32037146
_cell_angle_alpha   89.64123823
_cell_angle_beta   89.72061180
_cell_angle_gamma   89.87090405
_symmetry_Int_Tables_number   1
_chemical_formula_structural   LiCr2O4
_chemical_formula_sum   'Li4 Cr8 O16'
_cell_volume   294.21409504
_cell_formula_units_Z   4
loop_
 _symmetry_equiv_pos_site_id
 _symmetry_equiv_pos_as_xyz
  1  'x, y, z'
loop_
 _atom_site_type_symbol
 _atom_site_label
 _atom_site_symmetry_multiplicity
 _atom_site_fract_x
 _atom_site_fract_y
 _atom_site_fract_z
 _atom_site_occupancy
  Li  Li0  1  0.99886000  0.00099900  0.99941100  1
  Li  Li1  1  0.99751500  0.49903100  0.75094600  1
  Li  Li2  1  0.49964600  0.00269100  0.25328300  1
  Li  Li3  1  0.50341700  0.49746700  0.49967300  1
  Cr  Cr4  1  0.00213600  0.24746300  0.37465000  1
  Cr  Cr5  1  0.24964700  0.50110700  0.12608400  1
  Cr  Cr6  1  0.75263700  0.00023600  0.62501600  1
  Cr  Cr7  1  0.49665700  0.75498100  0.87395900  1
  Cr  Cr8  1  0.99933400  0.75187600  0.37512200  1
  Cr  Cr9  1  0.75120700  0.50282800  0.12613300  1
  Cr  Cr10  1  0.24973500  0.99768100  0.62520800  1
  Cr  Cr11  1  0.50288900  0.25144100  0.87598000  1
  O  O12  1  0.99687000  0.22271800  0.61528200  1
  O  O13  1  0.77102100  0.00237500  0.39360100  1
  O  O14  1  0.49702000  0.72566600  0.11033000  1
  O  O15  1  0.00493800  0.28278100  0.13032600  1
  O  O16  1  0.27524200  0.50291400  0.89350500  1
  O  O17  1  0.22948200  0.50291700  0.35449800  1
  O  O18  1  0.50793400  0.76719800  0.64457500  1
  O  O19  1  0.72689100  0.99641500  0.85976100  1
  O  O20  1  0.77148400  0.49710400  0.35336300  1
  O  O21  1  0.99640000  0.71833900  0.13102400  1
  O  O22  1  0.28399900  0.99327400  0.87129500  1
  O  O23  1  0.22451000  0.99799200  0.38709900  1
  O  O24  1  0.50858500  0.21599200  0.63563500  1
  O  O25  1  0.99196500  0.77924200  0.61718100  1
  O  O26  1  0.72174500  0.51168300  0.89237800  1
  O  O27  1  0.50586400  0.28654200  0.11790400  1
