# generated using pymatgen
data_TmBr3
_symmetry_space_group_name_H-M   'P 1'
_cell_length_a   9.97632565
_cell_length_b   9.97643505
_cell_length_c   3.67143358
_cell_angle_alpha   90.00099807
_cell_angle_beta   89.99934127
_cell_angle_gamma   119.99919864
_symmetry_Int_Tables_number   1
_chemical_formula_structural   TmBr3
_chemical_formula_sum   'Tm2 Br6'
_cell_volume   316.45780447
_cell_formula_units_Z   2
loop_
 _symmetry_equiv_pos_site_id
 _symmetry_equiv_pos_as_xyz
  1  'x, y, z'
loop_
 _atom_site_type_symbol
 _atom_site_label
 _atom_site_symmetry_multiplicity
 _atom_site_fract_x
 _atom_site_fract_y
 _atom_site_fract_z
 _atom_site_occupancy
  Tm  Tm0  1  0.33333623  0.66666769  0.75000165  1
  Tm  Tm1  1  0.66666364  0.33332964  0.25000535  1
  Br  Br2  1  0.21302375  0.42569737  0.25002390  1
  Br  Br3  1  0.57430850  0.78732941  0.24999966  1
  Br  Br4  1  0.21267315  0.78697819  0.24998144  1
  Br  Br5  1  0.78732725  0.57430422  0.75000954  1
  Br  Br6  1  0.42569347  0.21302408  0.74998364  1
  Br  Br7  1  0.78697501  0.21267039  0.75000181  1
