# generated using pymatgen
data_VF4
_symmetry_space_group_name_H-M   'P 1'
_cell_length_a   5.35688470
_cell_length_b   4.91117602
_cell_length_c   9.65018008
_cell_angle_alpha   90.01093471
_cell_angle_beta   92.03027529
_cell_angle_gamma   90.00697031
_symmetry_Int_Tables_number   1
_chemical_formula_structural   VF4
_chemical_formula_sum   'V4 F16'
_cell_volume   253.72338066
_cell_formula_units_Z   4
loop_
 _symmetry_equiv_pos_site_id
 _symmetry_equiv_pos_as_xyz
  1  'x, y, z'
loop_
 _atom_site_type_symbol
 _atom_site_label
 _atom_site_symmetry_multiplicity
 _atom_site_fract_x
 _atom_site_fract_y
 _atom_site_fract_z
 _atom_site_occupancy
  V  V0  1  0.34652038  0.96102600  0.63129814  1
  V  V1  1  0.34666414  0.53896379  0.13143235  1
  V  V2  1  0.65336160  0.46103236  0.86856311  1
  V  V3  1  0.65346238  0.03897586  0.36871372  1
  F  F4  1  0.09993819  0.13918276  0.69533173  1
  F  F5  1  0.10014765  0.36084875  0.19562865  1
  F  F6  1  0.22132087  0.66650641  0.55756895  1
  F  F7  1  0.22143088  0.83348365  0.05776955  1
  F  F8  1  0.33050783  0.36804934  0.95084199  1
  F  F9  1  0.33050703  0.13207835  0.45083815  1
  F  F10  1  0.44021249  0.76346385  0.79327370  1
  F  F11  1  0.44024586  0.73648150  0.29348468  1
  F  F12  1  0.55976075  0.26354045  0.70651009  1
  F  F13  1  0.55980700  0.23654101  0.20673886  1
  F  F14  1  0.66946479  0.86790597  0.54915351  1
  F  F15  1  0.66951910  0.63193866  0.04915115  1
  F  F16  1  0.77860086  0.16652895  0.94220756  1
  F  F17  1  0.77862507  0.33346894  0.44244442  1
  F  F18  1  0.89985971  0.63914439  0.80436788  1
  F  F19  1  0.90004241  0.86084001  0.30468082  1
