# generated using pymatgen
data_Mg(AuF4)2
_symmetry_space_group_name_H-M   'P 1'
_cell_length_a   5.47591125
_cell_length_b   5.48345334
_cell_length_c   10.70933574
_cell_angle_alpha   70.69674810
_cell_angle_beta   90.00000000
_cell_angle_gamma   90.00000000
_symmetry_Int_Tables_number   1
_chemical_formula_structural   Mg(AuF4)2
_chemical_formula_sum   'Mg2 Au4 F16'
_cell_volume   303.49033539
_cell_formula_units_Z   2
loop_
 _symmetry_equiv_pos_site_id
 _symmetry_equiv_pos_as_xyz
  1  'x, y, z'
loop_
 _atom_site_type_symbol
 _atom_site_label
 _atom_site_symmetry_multiplicity
 _atom_site_fract_x
 _atom_site_fract_y
 _atom_site_fract_z
 _atom_site_occupancy
  Mg  Mg0  1  0.50000000  0.50000000  0.00000000  1
  Mg  Mg1  1  0.00000000  0.50000000  0.50000000  1
  Au  Au2  1  0.70698621  0.86805073  0.66487837  1
  Au  Au3  1  0.20698621  0.13194927  0.83512163  1
  Au  Au4  1  0.29301379  0.13194927  0.33512163  1
  Au  Au5  1  0.79301379  0.86805073  0.16487837  1
  F  F6  1  0.59988861  0.56849461  0.81112669  1
  F  F7  1  0.09988861  0.43150539  0.68887331  1
  F  F8  1  0.40011139  0.43150539  0.18887331  1
  F  F9  1  0.90011139  0.56849461  0.31112669  1
  F  F10  1  0.68598069  0.17301202  0.02218241  1
  F  F11  1  0.18598069  0.82698798  0.47781759  1
  F  F12  1  0.79459728  0.66433213  0.04457649  1
  F  F13  1  0.29459728  0.33566787  0.45542351  1
  F  F14  1  0.20540272  0.33566787  0.95542351  1
  F  F15  1  0.70540272  0.66433213  0.54457649  1
  F  F16  1  0.79569618  0.06691582  0.28191098  1
  F  F17  1  0.29569618  0.93308418  0.21808902  1
  F  F18  1  0.20430382  0.93308418  0.71808902  1
  F  F19  1  0.70430382  0.06691582  0.78191098  1
  F  F20  1  0.81401931  0.17301202  0.52218241  1
  F  F21  1  0.31401931  0.82698798  0.97781759  1
