# generated using pymatgen
data_V6O5F19
_symmetry_space_group_name_H-M   'P 1'
_cell_length_a   5.28795513
_cell_length_b   5.42812806
_cell_length_c   13.57875742
_cell_angle_alpha   100.59386638
_cell_angle_beta   89.44900639
_cell_angle_gamma   91.99897742
_symmetry_Int_Tables_number   1
_chemical_formula_structural   V6O5F19
_chemical_formula_sum   'V6 O5 F19'
_cell_volume   382.88191031
_cell_formula_units_Z   1
loop_
 _symmetry_equiv_pos_site_id
 _symmetry_equiv_pos_as_xyz
  1  'x, y, z'
loop_
 _atom_site_type_symbol
 _atom_site_label
 _atom_site_symmetry_multiplicity
 _atom_site_fract_x
 _atom_site_fract_y
 _atom_site_fract_z
 _atom_site_occupancy
  V  V0  1  0.92946365  0.98889673  0.00602701  1
  V  V1  1  0.55975561  0.78195404  0.67186068  1
  V  V2  1  0.96073396  0.72495697  0.33483201  1
  V  V3  1  0.42284031  0.52661522  0.99513872  1
  V  V4  1  0.05107909  0.27075329  0.66299769  1
  V  V5  1  0.48242855  0.19216091  0.33125578  1
  O  O6  1  0.77888922  0.96276280  0.35024537  1
  O  O7  1  0.69280358  0.80278461  0.02439643  1
  O  O8  1  0.78834950  0.61512870  0.69240301  1
  O  O9  1  0.19289739  0.70513471  0.97981498  1
  O  O10  1  0.22577200  0.03361006  0.64227342  1
  F  F11  1  0.26689281  0.88930080  0.30511376  1
  F  F12  1  0.93766142  0.94349407  0.87537428  1
  F  F13  1  0.58883309  0.78799778  0.54386052  1
  F  F14  1  0.93458644  0.60053332  0.20735453  1
  F  F15  1  0.42716945  0.88060300  0.79046158  1
  F  F16  1  0.07933537  0.72780379  0.45457798  1
  F  F17  1  0.43371330  0.54623037  0.12468212  1
  F  F18  1  0.70856907  0.48408711  0.35857090  1
  F  F19  1  0.78477007  0.28279172  0.02177678  1
  F  F20  1  0.30434955  0.52463103  0.64154236  1
  F  F21  1  0.21501800  0.37975944  0.31377502  1
  F  F22  1  0.58085761  0.46562222  0.87971750  1
  F  F23  1  0.93334615  0.28500521  0.54409360  1
  F  F24  1  0.58563197  0.13115416  0.20728392  1
  F  F25  1  0.09206793  0.38654210  0.79094401  1
  F  F26  1  0.43895767  0.20641860  0.45942268  1
  F  F27  1  0.08441514  0.04865260  0.12171763  1
  F  F28  1  0.74358481  0.10540660  0.69317991  1
  F  F29  1  0.27522827  0.21920704  0.97530182  1
