# generated using pymatgen
data_Mn9Zn6Si4(SbO14)2
_symmetry_space_group_name_H-M   'P 1'
_cell_length_a   5.53042802
_cell_length_b   9.11967278
_cell_length_c   11.68386804
_cell_angle_alpha   86.84642317
_cell_angle_beta   76.28323994
_cell_angle_gamma   78.82002922
_symmetry_Int_Tables_number   1
_chemical_formula_structural   Mn9Zn6Si4(SbO14)2
_chemical_formula_sum   'Mn9 Zn6 Si4 Sb2 O28'
_cell_volume   561.58833991
_cell_formula_units_Z   1
loop_
 _symmetry_equiv_pos_site_id
 _symmetry_equiv_pos_as_xyz
  1  'x, y, z'
loop_
 _atom_site_type_symbol
 _atom_site_label
 _atom_site_symmetry_multiplicity
 _atom_site_fract_x
 _atom_site_fract_y
 _atom_site_fract_z
 _atom_site_occupancy
  Mn  Mn0  1  0.63407142  0.65012057  0.29188299  1
  Mn  Mn1  1  -0.00000000  0.00000000  -0.00000000  1
  Mn  Mn2  1  0.92230650  0.64163228  0.71649344  1
  Mn  Mn3  1  0.27764217  0.00246330  0.42506387  1
  Mn  Mn4  1  0.42635727  0.00450462  0.14369914  1
  Mn  Mn5  1  0.57364273  0.99549538  0.85630086  1
  Mn  Mn6  1  0.72235783  0.99753670  0.57493613  1
  Mn  Mn7  1  0.07769350  0.35836772  0.28350656  1
  Mn  Mn8  1  0.36592858  0.34987943  0.70811701  1
  Zn  Zn9  1  0.65649960  0.34368554  0.13832351  1
  Zn  Zn10  1  0.05532475  0.66940898  0.42748263  1
  Zn  Zn11  1  0.20550171  0.65982289  0.13774381  1
  Zn  Zn12  1  0.79449829  0.34017711  0.86225619  1
  Zn  Zn13  1  0.94467525  0.33059102  0.57251737  1
  Zn  Zn14  1  0.34350040  0.65631446  0.86167649  1
  Si  Si15  1  0.75985404  0.68938615  0.00322614  1
  Si  Si16  1  0.51940316  0.31521070  0.42375287  1
  Si  Si17  1  0.48059684  0.68478930  0.57624713  1
  Si  Si18  1  0.24014596  0.31061385  0.99677386  1
  Sb  Sb19  1  0.13970476  0.99926439  0.71953831  1
  Sb  Sb20  1  0.86029524  0.00073561  0.28046169  1
  O  O21  1  0.58542504  0.88619970  0.29172678  1
  O  O22  1  0.40788892  0.87069061  0.58922265  1
  O  O23  1  0.69137678  0.87245333  0.00424968  1
  O  O24  1  0.66845063  0.39072039  0.30320444  1
  O  O25  1  0.39242472  0.64861648  0.45972700  1
  O  O26  1  0.72985203  0.11846453  0.15283463  1
  O  O27  1  0.58374035  0.62278909  0.12168849  1
  O  O28  1  0.93663340  0.35681207  0.00090551  1
  O  O29  1  0.21615268  0.36267648  0.43619742  1
  O  O30  1  0.88505081  0.87454139  0.71407043  1
  O  O31  1  0.98551613  0.40783903  0.71508380  1
  O  O32  1  0.11886056  0.88422277  0.15404598  1
  O  O33  1  0.30934842  0.37117478  0.11265173  1
  O  O34  1  0.97005952  0.89298367  0.41759735  1
  O  O35  1  0.02994048  0.10701633  0.58240265  1
  O  O36  1  0.69065158  0.62882522  0.88734827  1
  O  O37  1  0.88113944  0.11577723  0.84595402  1
  O  O38  1  0.01448387  0.59216097  0.28491620  1
  O  O39  1  0.11494919  0.12545861  0.28592957  1
  O  O40  1  0.78384732  0.63732352  0.56380258  1
  O  O41  1  0.06336660  0.64318793  0.99909449  1
  O  O42  1  0.41625965  0.37721091  0.87831151  1
  O  O43  1  0.27014797  0.88153547  0.84716537  1
  O  O44  1  0.60757528  0.35138352  0.54027300  1
  O  O45  1  0.33154937  0.60927961  0.69679556  1
  O  O46  1  0.30862322  0.12754667  0.99575032  1
  O  O47  1  0.59211108  0.12930939  0.41077735  1
  O  O48  1  0.41457496  0.11380030  0.70827322  1
