# generated using pymatgen
data_Cs2SnAs2
_symmetry_space_group_name_H-M   'P 1'
_cell_length_a   6.98560874
_cell_length_b   7.80642877
_cell_length_c   9.10733475
_cell_angle_alpha   115.37741887
_cell_angle_beta   112.55160950
_cell_angle_gamma   90.00001230
_symmetry_Int_Tables_number   1
_chemical_formula_structural   Cs2SnAs2
_chemical_formula_sum   'Cs4 Sn2 As4'
_cell_volume   406.29131282
_cell_formula_units_Z   2
loop_
 _symmetry_equiv_pos_site_id
 _symmetry_equiv_pos_as_xyz
  1  'x, y, z'
loop_
 _atom_site_type_symbol
 _atom_site_label
 _atom_site_symmetry_multiplicity
 _atom_site_fract_x
 _atom_site_fract_y
 _atom_site_fract_z
 _atom_site_occupancy
  Cs  Cs0  1  0.14693961  0.98389465  0.29388023  1
  Cs  Cs1  1  0.85306039  0.01610535  0.70611977  1
  Cs  Cs2  1  0.35306039  0.69001542  0.70611977  1
  Cs  Cs3  1  0.64693961  0.30998458  0.29388023  1
  Sn  Sn4  1  0.25000000  0.50000000  -0.00000000  1
  Sn  Sn5  1  0.75000000  0.50000000  -0.00000000  1
  As  As6  1  0.40261362  0.22818235  0.80522824  1
  As  As7  1  0.59738638  0.77181765  0.19477176  1
  As  As8  1  0.09738638  0.42295410  0.19477176  1
  As  As9  1  0.90261362  0.57704590  0.80522824  1
