# generated using pymatgen
data_Na3AsSe3
_symmetry_space_group_name_H-M   'P 1'
_cell_length_a   8.88473564
_cell_length_b   8.88473564
_cell_length_c   8.88473564
_cell_angle_alpha   90.00000000
_cell_angle_beta   90.00000000
_cell_angle_gamma   90.00000000
_symmetry_Int_Tables_number   1
_chemical_formula_structural   Na3AsSe3
_chemical_formula_sum   'Na12 As4 Se12'
_cell_volume   701.34794769
_cell_formula_units_Z   4
loop_
 _symmetry_equiv_pos_site_id
 _symmetry_equiv_pos_as_xyz
  1  'x, y, z'
loop_
 _atom_site_type_symbol
 _atom_site_label
 _atom_site_symmetry_multiplicity
 _atom_site_fract_x
 _atom_site_fract_y
 _atom_site_fract_z
 _atom_site_occupancy
  Na  Na0  1  0.82169073  0.17830927  0.67830927  1
  Na  Na1  1  0.67830927  0.82169073  0.17830927  1
  Na  Na2  1  0.17830927  0.67830927  0.82169073  1
  Na  Na3  1  0.32169073  0.32169073  0.32169073  1
  Na  Na4  1  0.18550575  0.31449425  0.68550575  1
  Na  Na5  1  0.31449425  0.68550575  0.18550575  1
  Na  Na6  1  0.68550575  0.18550575  0.31449425  1
  Na  Na7  1  0.81449425  0.81449425  0.81449425  1
  Na  Na8  1  0.41507675  0.08492325  0.91507675  1
  Na  Na9  1  0.08492325  0.91507675  0.41507675  1
  Na  Na10  1  0.91507675  0.41507675  0.08492325  1
  Na  Na11  1  0.58492325  0.58492325  0.58492325  1
  As  As12  1  0.02839625  0.02839625  0.02839625  1
  As  As13  1  0.47160375  0.97160375  0.52839625  1
  As  As14  1  0.97160375  0.52839625  0.47160375  1
  As  As15  1  0.52839625  0.47160375  0.97160375  1
  Se  Se16  1  0.27145050  0.39014846  0.99973317  1
  Se  Se17  1  0.77145050  0.10985154  0.00026683  1
  Se  Se18  1  0.72854950  0.89014846  0.50026683  1
  Se  Se19  1  0.10985154  0.00026683  0.77145050  1
  Se  Se20  1  0.50026683  0.72854950  0.89014846  1
  Se  Se21  1  0.00026683  0.77145050  0.10985154  1
  Se  Se22  1  0.39014846  0.99973317  0.27145050  1
  Se  Se23  1  0.99973317  0.27145050  0.39014846  1
  Se  Se24  1  0.89014846  0.50026683  0.72854950  1
  Se  Se25  1  0.60985154  0.49973317  0.22854950  1
  Se  Se26  1  0.49973317  0.22854950  0.60985154  1
  Se  Se27  1  0.22854950  0.60985154  0.49973317  1
