# generated using pymatgen
data_YW2O9
_symmetry_space_group_name_H-M   'P 1'
_cell_length_a   8.70787700
_cell_length_b   5.87927900
_cell_length_c   6.93399552
_cell_angle_alpha   77.08343802
_cell_angle_beta   90.00000000
_cell_angle_gamma   90.00000000
_symmetry_Int_Tables_number   1
_chemical_formula_structural   YW2O9
_chemical_formula_sum   'Y2 W4 O18'
_cell_volume   346.01057563
_cell_formula_units_Z   2
loop_
 _symmetry_equiv_pos_site_id
 _symmetry_equiv_pos_as_xyz
  1  'x, y, z'
loop_
 _atom_site_type_symbol
 _atom_site_label
 _atom_site_symmetry_multiplicity
 _atom_site_fract_x
 _atom_site_fract_y
 _atom_site_fract_z
 _atom_site_occupancy
  Y  Y0  1  0.75000000  0.27646400  0.27690200  1
  Y  Y1  1  0.25000000  0.72353600  0.72309800  1
  W  W2  1  0.56411100  0.19869200  0.81614000  1
  W  W3  1  0.06411100  0.80130800  0.18386000  1
  W  W4  1  0.43588900  0.80130800  0.18386000  1
  W  W5  1  0.93588900  0.19869200  0.81614000  1
  O  O6  1  0.25000000  0.03817900  0.18425100  1
  O  O7  1  0.75000000  0.96182100  0.81574900  1
  O  O8  1  0.75000000  0.37150500  0.87165800  1
  O  O9  1  0.25000000  0.62849500  0.12834200  1
  O  O10  1  0.58771000  0.22204400  0.55047400  1
  O  O11  1  0.08771000  0.77795600  0.44952600  1
  O  O12  1  0.41229000  0.77795600  0.44952600  1
  O  O13  1  0.91229000  0.22204400  0.55047400  1
  O  O14  1  0.57439700  0.07117200  0.12560000  1
  O  O15  1  0.07439700  0.92882800  0.87440000  1
  O  O16  1  0.42560300  0.92882800  0.87440000  1
  O  O17  1  0.92560300  0.07117200  0.12560000  1
  O  O18  1  0.42719100  0.43153200  0.81178000  1
  O  O19  1  0.92719100  0.56846800  0.18822000  1
  O  O20  1  0.57280900  0.56846800  0.18822000  1
  O  O21  1  0.07280900  0.43153200  0.81178000  1
  O  O22  1  0.75000000  0.86792600  0.45016500  1
  O  O23  1  0.25000000  0.13207400  0.54983500  1
