# generated using pymatgen
data_TlInS2
_symmetry_space_group_name_H-M   'P 1'
_cell_length_a   7.80407493
_cell_length_b   7.80407493
_cell_length_c   15.22713762
_cell_angle_alpha   82.54083603
_cell_angle_beta   82.54083603
_cell_angle_gamma   90.01302842
_symmetry_Int_Tables_number   1
_chemical_formula_structural   TlInS2
_chemical_formula_sum   'Tl8 In8 S16'
_cell_volume   911.62030819
_cell_formula_units_Z   8
loop_
 _symmetry_equiv_pos_site_id
 _symmetry_equiv_pos_as_xyz
  1  'x, y, z'
loop_
 _atom_site_type_symbol
 _atom_site_label
 _atom_site_symmetry_multiplicity
 _atom_site_fract_x
 _atom_site_fract_y
 _atom_site_fract_z
 _atom_site_occupancy
  Tl  Tl0  1  0.65641796  0.77328999  0.37886427  1
  Tl  Tl1  1  0.22671001  0.34358204  0.12113573  1
  Tl  Tl2  1  0.34358204  0.22671001  0.62113573  1
  Tl  Tl3  1  0.77328999  0.65641796  0.87886427  1
  Tl  Tl4  1  0.21750390  0.84387172  0.11799297  1
  Tl  Tl5  1  0.15612828  0.78249610  0.38200703  1
  Tl  Tl6  1  0.78249610  0.15612828  0.88200703  1
  Tl  Tl7  1  0.84387172  0.21750390  0.61799297  1
  In  In8  1  0.71180125  0.08858457  0.15391397  1
  In  In9  1  0.91141543  0.28819875  0.34608603  1
  In  In10  1  0.28819875  0.91141543  0.84608603  1
  In  In11  1  0.08858457  0.71180125  0.65391397  1
  In  In12  1  0.41469391  0.28800331  0.34639579  1
  In  In13  1  0.71199669  0.58530609  0.15360421  1
  In  In14  1  0.58530609  0.71199669  0.65360421  1
  In  In15  1  0.28800331  0.41469391  0.84639579  1
  S  S16  1  0.42848179  0.05309885  0.25037570  1
  S  S17  1  0.94690115  0.57151821  0.24962430  1
  S  S18  1  0.57151821  0.94690115  0.74962430  1
  S  S19  1  0.05309885  0.42848179  0.75037570  1
  S  S20  1  0.42825311  0.57174689  0.25000000  1
  S  S21  1  0.57174689  0.42825311  0.75000000  1
  S  S22  1  0.94626642  0.05373358  0.25000000  1
  S  S23  1  0.05373358  0.94626642  0.75000000  1
  S  S24  1  0.63777763  0.26832113  0.44679476  1
  S  S25  1  0.73167887  0.36222237  0.05320524  1
  S  S26  1  0.36222237  0.73167887  0.55320524  1
  S  S27  1  0.26832113  0.63777763  0.94679476  1
  S  S28  1  0.73915332  0.86221103  0.05499561  1
  S  S29  1  0.13778897  0.26084668  0.44500439  1
  S  S30  1  0.26084668  0.13778897  0.94500439  1
  S  S31  1  0.86221103  0.73915332  0.55499561  1
