# generated using pymatgen
data_V2Si4O11
_symmetry_space_group_name_H-M   'P 1'
_cell_length_a   8.61889200
_cell_length_b   7.36345651
_cell_length_c   6.99444941
_cell_angle_alpha   104.63618457
_cell_angle_beta   101.29035689
_cell_angle_gamma   99.46959705
_symmetry_Int_Tables_number   1
_chemical_formula_structural   V2Si4O11
_chemical_formula_sum   'V4 Si8 O22'
_cell_volume   410.33319650
_cell_formula_units_Z   2
loop_
 _symmetry_equiv_pos_site_id
 _symmetry_equiv_pos_as_xyz
  1  'x, y, z'
loop_
 _atom_site_type_symbol
 _atom_site_label
 _atom_site_symmetry_multiplicity
 _atom_site_fract_x
 _atom_site_fract_y
 _atom_site_fract_z
 _atom_site_occupancy
  V  V0  1  0.88398600  0.38634200  0.62261500  1
  V  V1  1  0.38727500  0.38555600  0.62492400  1
  V  V2  1  0.61272500  0.61444400  0.37507600  1
  V  V3  1  0.11601400  0.61365800  0.37738500  1
  Si  Si4  1  0.23060600  0.02280900  0.38062700  1
  Si  Si5  1  0.95761300  0.22402300  0.21852100  1
  Si  Si6  1  0.51962900  0.22114800  0.22081300  1
  Si  Si7  1  0.77128300  0.60356100  0.98209000  1
  Si  Si8  1  0.22871700  0.39643900  0.01791000  1
  Si  Si9  1  0.48037100  0.77885200  0.77918700  1
  Si  Si10  1  0.04238700  0.77597700  0.78147900  1
  Si  Si11  1  0.76939400  0.97719100  0.61937300  1
  O  O12  1  0.81102100  0.16076300  0.59309800  1
  O  O13  1  0.39648900  0.05662600  0.25857000  1
  O  O14  1  0.30589500  0.16035900  0.58185700  1
  O  O15  1  0.02338500  0.05839200  0.24646400  1
  O  O16  1  0.71420400  0.18490700  0.16318500  1
  O  O17  1  0.39307600  0.28473500  0.04161100  1
  O  O18  1  0.58681800  0.37384000  0.41855400  1
  O  O19  1  0.67957200  0.44525900  0.79618300  1
  O  O20  1  0.18112900  0.42901700  0.79973500  1
  O  O21  1  0.01591100  0.29665800  0.04241200  1
  O  O22  1  0.06828400  0.37348200  0.41834400  1
  O  O23  1  0.93171600  0.62651800  0.58165600  1
  O  O24  1  0.98408900  0.70334200  0.95758800  1
  O  O25  1  0.81887100  0.57098300  0.20026500  1
  O  O26  1  0.32042800  0.55474100  0.20381700  1
  O  O27  1  0.41318200  0.62616000  0.58144600  1
  O  O28  1  0.60692400  0.71526500  0.95838900  1
  O  O29  1  0.28579600  0.81509300  0.83681500  1
  O  O30  1  0.97661500  0.94160800  0.75353600  1
  O  O31  1  0.69410500  0.83964100  0.41814300  1
  O  O32  1  0.60351100  0.94337400  0.74143000  1
  O  O33  1  0.18897900  0.83923700  0.40690200  1
