# generated using pymatgen
data_LiAgF6
_symmetry_space_group_name_H-M   'P 1'
_cell_length_a   7.81788921
_cell_length_b   7.81788921
_cell_length_c   7.81788921
_cell_angle_alpha   109.47122063
_cell_angle_beta   109.47122063
_cell_angle_gamma   109.47122063
_symmetry_Int_Tables_number   1
_chemical_formula_structural   LiAgF6
_chemical_formula_sum   'Li4 Ag4 F24'
_cell_volume   367.82957393
_cell_formula_units_Z   4
loop_
 _symmetry_equiv_pos_site_id
 _symmetry_equiv_pos_as_xyz
  1  'x, y, z'
loop_
 _atom_site_type_symbol
 _atom_site_label
 _atom_site_symmetry_multiplicity
 _atom_site_fract_x
 _atom_site_fract_y
 _atom_site_fract_z
 _atom_site_occupancy
  Li  Li0  1  0.50000000  0.50000000  0.00000000  1
  Li  Li1  1  0.00000000  0.00000000  0.00000000  1
  Li  Li2  1  0.00000000  0.50000000  0.50000000  1
  Li  Li3  1  0.50000000  0.00000000  0.50000000  1
  Ag  Ag4  1  0.50000000  0.00000000  0.00000000  1
  Ag  Ag5  1  0.00000000  0.50000000  0.00000000  1
  Ag  Ag6  1  0.50000000  0.50000000  0.50000000  1
  Ag  Ag7  1  0.00000000  0.00000000  0.50000000  1
  F  F8  1  0.94405500  0.72472536  0.03448003  1
  F  F9  1  0.53448003  0.80975467  0.09042503  1
  F  F10  1  0.27527464  0.96551997  0.05594500  1
  F  F11  1  0.90957497  0.46551997  0.19024533  1
  F  F12  1  0.77527464  0.71932964  0.30975467  1
  F  F13  1  0.28067036  0.69024533  0.22472536  1
  F  F14  1  0.44405500  0.40957497  0.21932964  1
  F  F15  1  0.96551997  0.05594500  0.27527464  1
  F  F16  1  0.69024533  0.22472536  0.28067036  1
  F  F17  1  0.19024533  0.90957497  0.46551997  1
  F  F18  1  0.59042503  0.78067036  0.55594500  1
  F  F19  1  0.78067036  0.55594500  0.59042503  1
  F  F20  1  0.21932964  0.44405500  0.40957497  1
  F  F21  1  0.40957497  0.21932964  0.44405500  1
  F  F22  1  0.80975467  0.09042503  0.53448003  1
  F  F23  1  0.30975467  0.77527464  0.71932964  1
  F  F24  1  0.03448003  0.94405500  0.72472536  1
  F  F25  1  0.55594500  0.59042503  0.78067036  1
  F  F26  1  0.71932964  0.30975467  0.77527464  1
  F  F27  1  0.22472536  0.28067036  0.69024533  1
  F  F28  1  0.09042503  0.53448003  0.80975467  1
  F  F29  1  0.72472536  0.03448003  0.94405500  1
  F  F30  1  0.46551997  0.19024533  0.90957497  1
  F  F31  1  0.05594500  0.27527464  0.96551997  1
