# generated using pymatgen
data_Ca2PN3
_symmetry_space_group_name_H-M   'P 1'
_cell_length_a   5.77472997
_cell_length_b   5.77472997
_cell_length_c   11.27488282
_cell_angle_alpha   90.00000000
_cell_angle_beta   90.00000000
_cell_angle_gamma   126.65340592
_symmetry_Int_Tables_number   1
_chemical_formula_structural   Ca2PN3
_chemical_formula_sum   'Ca8 P4 N12'
_cell_volume   301.64163447
_cell_formula_units_Z   4
loop_
 _symmetry_equiv_pos_site_id
 _symmetry_equiv_pos_as_xyz
  1  'x, y, z'
loop_
 _atom_site_type_symbol
 _atom_site_label
 _atom_site_symmetry_multiplicity
 _atom_site_fract_x
 _atom_site_fract_y
 _atom_site_fract_z
 _atom_site_occupancy
  Ca  Ca0  1  0.36238648  0.63761352  0.07396678  1
  Ca  Ca1  1  0.86238648  0.13761352  0.42603322  1
  Ca  Ca2  1  0.13761352  0.86238648  0.57396678  1
  Ca  Ca3  1  0.63761352  0.36238648  0.92603322  1
  Ca  Ca4  1  0.44740171  0.55259829  0.64231613  1
  Ca  Ca5  1  0.55259829  0.44740171  0.35768387  1
  Ca  Ca6  1  0.05259829  0.94740171  0.14231613  1
  Ca  Ca7  1  0.94740171  0.05259829  0.85768387  1
  P  P8  1  0.75543605  0.24456395  0.66556405  1
  P  P9  1  0.74456395  0.25543605  0.16556405  1
  P  P10  1  0.24456395  0.75543605  0.33443595  1
  P  P11  1  0.25543605  0.74456395  0.83443595  1
  N  N12  1  0.96175036  0.53824964  0.75000000  1
  N  N13  1  0.53824964  0.96175036  0.25000000  1
  N  N14  1  0.03824964  0.46175036  0.25000000  1
  N  N15  1  0.46175036  0.03824964  0.75000000  1
  N  N16  1  0.41059161  0.58940839  0.85944607  1
  N  N17  1  0.58940839  0.41059161  0.14055393  1
  N  N18  1  0.08940839  0.91059161  0.35944607  1
  N  N19  1  0.66059676  0.33940324  0.55111953  1
  N  N20  1  0.16059676  0.83940324  0.94888047  1
  N  N21  1  0.83940324  0.16059676  0.05111953  1
  N  N22  1  0.33940324  0.66059676  0.44888047  1
  N  N23  1  0.91059161  0.08940839  0.64055393  1
