# generated using pymatgen
data_AlInSe3
_symmetry_space_group_name_H-M   'P 1'
_cell_length_a   7.07435842
_cell_length_b   7.06821192
_cell_length_c   18.84396187
_cell_angle_alpha   89.99924068
_cell_angle_beta   90.00046465
_cell_angle_gamma   120.05817094
_symmetry_Int_Tables_number   1
_chemical_formula_structural   AlInSe3
_chemical_formula_sum   'Al6 In6 Se18'
_cell_volume   815.53875027
_cell_formula_units_Z   6
loop_
 _symmetry_equiv_pos_site_id
 _symmetry_equiv_pos_as_xyz
  1  'x, y, z'
loop_
 _atom_site_type_symbol
 _atom_site_label
 _atom_site_symmetry_multiplicity
 _atom_site_fract_x
 _atom_site_fract_y
 _atom_site_fract_z
 _atom_site_occupancy
  Al  Al0  1  0.32951858  0.01724919  0.19218763  1
  Al  Al1  1  0.67048572  0.98277885  0.69218586  1
  Al  Al2  1  0.98269971  0.31209987  0.52557938  1
  Al  Al3  1  0.68734567  0.67044479  0.85891209  1
  Al  Al4  1  0.31265614  0.32954147  0.35891405  1
  Al  Al5  1  0.01731440  0.68792749  0.02558137  1
  In  In6  1  0.99408723  0.33101757  0.16278996  1
  In  In7  1  0.00590458  0.66899348  0.66278501  1
  In  In8  1  0.66883719  0.66285701  0.49611475  1
  In  In9  1  0.33694432  0.00592788  0.82938943  1
  In  In10  1  0.66303546  0.99403302  0.32937709  1
  In  In11  1  0.33114408  0.33713395  0.99610875  1
  Se  Se12  1  0.36992649  0.04206912  0.67814519  1
  Se  Se13  1  0.63006143  0.95792387  0.17814076  1
  Se  Se14  1  0.95860213  0.32778247  0.01150908  1
  Se  Se15  1  0.67283995  0.63063720  0.34483946  1
  Se  Se16  1  0.32713839  0.36933339  0.84485654  1
  Se  Se17  1  0.04138266  0.67219717  0.51150124  1
  Se  Se18  1  0.28361197  0.99053672  0.32002828  1
  Se  Se19  1  0.71637894  0.00945244  0.82002993  1
  Se  Se20  1  0.00969757  0.29305167  0.65340261  1
  Se  Se21  1  0.70765940  0.71681929  0.98666538  1
  Se  Se22  1  0.29237405  0.28322005  0.48666456  1
  Se  Se23  1  0.99032370  0.70699210  0.15340413  1
  Se  Se24  1  0.02387709  0.37151740  0.31280849  1
  Se  Se25  1  0.97613700  0.62845357  0.81281595  1
  Se  Se26  1  0.62894460  0.65175395  0.64618736  1
  Se  Se27  1  0.34848195  0.97685954  0.97944550  1
  Se  Se28  1  0.65152453  0.02314142  0.47944653  1
  Se  Se29  1  0.37106709  0.34825506  0.14618263  1
