# generated using pymatgen
data_CaTlF3
_symmetry_space_group_name_H-M   'P 1'
_cell_length_a   6.25654266
_cell_length_b   6.25654327
_cell_length_c   6.25654401
_cell_angle_alpha   60.44334883
_cell_angle_beta   60.44334560
_cell_angle_gamma   60.44335176
_symmetry_Int_Tables_number   1
_chemical_formula_structural   CaTlF3
_chemical_formula_sum   'Ca2 Tl2 F6'
_cell_volume   174.91206828
_cell_formula_units_Z   2
loop_
 _symmetry_equiv_pos_site_id
 _symmetry_equiv_pos_as_xyz
  1  'x, y, z'
loop_
 _atom_site_type_symbol
 _atom_site_label
 _atom_site_symmetry_multiplicity
 _atom_site_fract_x
 _atom_site_fract_y
 _atom_site_fract_z
 _atom_site_occupancy
  Ca  Ca0  1  0.00797988  0.00797988  0.00797988  1
  Ca  Ca1  1  0.50797988  0.50797988  0.50797988  1
  Tl  Tl2  1  0.26832290  0.26832290  0.26832290  1
  Tl  Tl3  1  0.76832290  0.76832290  0.76832290  1
  F  F4  1  0.23812711  0.81308493  0.70098318  1
  F  F5  1  0.81308493  0.70098318  0.23812711  1
  F  F6  1  0.70098318  0.23812711  0.81308493  1
  F  F7  1  0.20098318  0.31308493  0.73812711  1
  F  F8  1  0.73812711  0.20098318  0.31308493  1
  F  F9  1  0.31308493  0.73812711  0.20098318  1
