# generated using pymatgen
data_KAgO2
_symmetry_space_group_name_H-M   'P 1'
_cell_length_a   5.43467557
_cell_length_b   5.43467535
_cell_length_c   5.79469028
_cell_angle_alpha   101.76052328
_cell_angle_beta   101.76053468
_cell_angle_gamma   103.45001544
_symmetry_Int_Tables_number   1
_chemical_formula_structural   KAgO2
_chemical_formula_sum   'K2 Ag2 O4'
_cell_volume   157.18695702
_cell_formula_units_Z   2
loop_
 _symmetry_equiv_pos_site_id
 _symmetry_equiv_pos_as_xyz
  1  'x, y, z'
loop_
 _atom_site_type_symbol
 _atom_site_label
 _atom_site_symmetry_multiplicity
 _atom_site_fract_x
 _atom_site_fract_y
 _atom_site_fract_z
 _atom_site_occupancy
  K  K0  1  0.85871897  0.14128103  0.25000000  1
  K  K1  1  0.14128103  0.85871897  0.75000000  1
  Ag  Ag2  1  0.50000000  0.50000000  0.00000000  1
  Ag  Ag3  1  0.50000000  0.50000000  0.50000000  1
  O  O4  1  0.65482763  0.75807318  0.82887850  1
  O  O5  1  0.34517237  0.24192682  0.17112150  1
  O  O6  1  0.24192682  0.34517237  0.67112150  1
  O  O7  1  0.75807318  0.65482763  0.32887850  1
