# generated using pymatgen
data_SrTcN3
_symmetry_space_group_name_H-M   'P 1'
_cell_length_a   6.08821131
_cell_length_b   7.52532566
_cell_length_c   7.52532633
_cell_angle_alpha   92.20739880
_cell_angle_beta   101.00720616
_cell_angle_gamma   78.99280676
_symmetry_Int_Tables_number   1
_chemical_formula_structural   SrTcN3
_chemical_formula_sum   'Sr4 Tc4 N12'
_cell_volume   332.20892005
_cell_formula_units_Z   4
loop_
 _symmetry_equiv_pos_site_id
 _symmetry_equiv_pos_as_xyz
  1  'x, y, z'
loop_
 _atom_site_type_symbol
 _atom_site_label
 _atom_site_symmetry_multiplicity
 _atom_site_fract_x
 _atom_site_fract_y
 _atom_site_fract_z
 _atom_site_occupancy
  Sr  Sr0  1  0.75000000  0.32773109  0.32773109  1
  Sr  Sr1  1  0.25000000  0.09285912  0.09285912  1
  Sr  Sr2  1  0.25000000  0.67226891  0.67226891  1
  Sr  Sr3  1  0.75000000  0.90714088  0.90714088  1
  Tc  Tc4  1  0.74396143  0.79896811  0.37580875  1
  Tc  Tc5  1  0.75603857  0.37580875  0.79896811  1
  Tc  Tc6  1  0.24396143  0.62419125  0.20103189  1
  Tc  Tc7  1  0.25603857  0.20103189  0.62419125  1
  N  N8  1  0.00493598  0.36895472  0.67777857  1
  N  N9  1  0.66776250  0.98591945  0.23383673  1
  N  N10  1  0.33223750  0.01408055  0.76616327  1
  N  N11  1  0.66695677  0.59141661  0.86744077  1
  N  N12  1  0.83223750  0.23383673  0.98591945  1
  N  N13  1  0.50493598  0.32222143  0.63104528  1
  N  N14  1  0.16776250  0.76616327  0.01408055  1
  N  N15  1  0.99506402  0.63104528  0.32222143  1
  N  N16  1  0.49506402  0.67777857  0.36895472  1
  N  N17  1  0.83304323  0.86744077  0.59141661  1
  N  N18  1  0.33304323  0.40858339  0.13255923  1
  N  N19  1  0.16695677  0.13255923  0.40858339  1
