# generated using pymatgen
data_CaAlH5
_symmetry_space_group_name_H-M   'P 1'
_cell_length_a   6.90761657
_cell_length_b   8.31252154
_cell_length_c   12.35932690
_cell_angle_alpha   51.60455402
_cell_angle_beta   90.00000000
_cell_angle_gamma   90.00000000
_symmetry_Int_Tables_number   1
_chemical_formula_structural   CaAlH5
_chemical_formula_sum   'Ca8 Al8 H40'
_cell_volume   556.19797515
_cell_formula_units_Z   8
loop_
 _symmetry_equiv_pos_site_id
 _symmetry_equiv_pos_as_xyz
  1  'x, y, z'
loop_
 _atom_site_type_symbol
 _atom_site_label
 _atom_site_symmetry_multiplicity
 _atom_site_fract_x
 _atom_site_fract_y
 _atom_site_fract_z
 _atom_site_occupancy
  Ca  Ca0  1  0.26992337  0.21740376  0.54394283  1
  Ca  Ca1  1  0.76992337  0.78259624  0.95605717  1
  Ca  Ca2  1  0.73007663  0.78259624  0.45605717  1
  Ca  Ca3  1  0.23007663  0.21740376  0.04394283  1
  Ca  Ca4  1  0.22815856  0.65826196  0.65045601  1
  Ca  Ca5  1  0.72815856  0.34173804  0.84954399  1
  Ca  Ca6  1  0.77184144  0.34173804  0.34954399  1
  Ca  Ca7  1  0.27184144  0.65826196  0.15045601  1
  Al  Al8  1  0.28013139  0.78555641  0.84225946  1
  Al  Al9  1  0.78013139  0.21444359  0.65774054  1
  Al  Al10  1  0.71986861  0.21444359  0.15774054  1
  Al  Al11  1  0.21986861  0.78555641  0.34225946  1
  Al  Al12  1  0.19075084  0.19254635  0.81126559  1
  Al  Al13  1  0.69075084  0.80745365  0.68873441  1
  Al  Al14  1  0.80924916  0.80745365  0.18873441  1
  Al  Al15  1  0.30924916  0.19254635  0.31126559  1
  H  H16  1  0.19430593  0.00245080  0.98295644  1
  H  H17  1  0.69430593  -0.00245080  0.51704356  1
  H  H18  1  0.80569407  -0.00245080  0.01704356  1
  H  H19  1  0.30569407  0.00245080  0.48295644  1
  H  H20  1  0.21011769  0.38725255  0.64036475  1
  H  H21  1  0.71011769  0.61274745  0.85963525  1
  H  H22  1  0.78988231  0.61274745  0.35963525  1
  H  H23  1  0.28988231  0.38725255  0.14036475  1
  H  H24  1  0.11478373  0.30310731  0.33744976  1
  H  H25  1  0.61478373  0.69689269  0.16255024  1
  H  H26  1  0.88521627  0.69689269  0.66255024  1
  H  H27  1  0.38521627  0.30310731  0.83744976  1
  H  H28  1  0.14392097  0.88760308  0.69794647  1
  H  H29  1  0.64392097  0.11239692  0.80205353  1
  H  H30  1  0.85607903  0.11239692  0.30205353  1
  H  H31  1  0.35607903  0.88760308  0.19794647  1
  H  H32  1  0.46956016  0.88547258  0.71208188  1
  H  H33  1  0.96956016  0.11452742  0.78791812  1
  H  H34  1  0.53043984  0.11452742  0.28791812  1
  H  H35  1  0.03043984  0.88547258  0.21208188  1
  H  H36  1  0.09823814  0.72630437  0.95417908  1
  H  H37  1  0.59823814  0.27369563  0.54582092  1
  H  H38  1  0.90176186  0.27369563  0.04582092  1
  H  H39  1  0.40176186  0.72630437  0.45417908  1
  H  H40  1  0.44291636  0.73578694  0.96133871  1
  H  H41  1  0.94291636  0.26421306  0.53866129  1
  H  H42  1  0.55708364  0.26421306  0.03866129  1
  H  H43  1  0.05708364  0.73578694  0.46133871  1
  H  H44  1  0.06286311  0.34811466  0.83639347  1
  H  H45  1  0.56286311  0.65188534  0.66360653  1
  H  H46  1  0.93713689  0.65188534  0.16360653  1
  H  H47  1  0.43713689  0.34811466  0.33639347  1
  H  H48  1  0.28703832  0.56058446  0.86935854  1
  H  H49  1  0.78703832  0.43941554  0.63064146  1
  H  H50  1  0.71296168  0.43941554  0.13064146  1
  H  H51  1  0.21296168  0.56058446  0.36935854  1
  H  H52  1  0.30204701  0.04542218  0.77679467  1
  H  H53  1  0.80204701  0.95457782  0.72320533  1
  H  H54  1  0.69795299  0.95457782  0.22320533  1
  H  H55  1  0.19795299  0.04542218  0.27679467  1
