# generated using pymatgen
data_Rb2CoP4(HO2)8
_symmetry_space_group_name_H-M   'P 1'
_cell_length_a   7.28493826
_cell_length_b   8.44879881
_cell_length_c   11.98490067
_cell_angle_alpha   83.47629635
_cell_angle_beta   82.64741813
_cell_angle_gamma   84.74863111
_symmetry_Int_Tables_number   1
_chemical_formula_structural   Rb2CoP4(HO2)8
_chemical_formula_sum   'Rb4 Co2 P8 H16 O32'
_cell_volume   724.63395900
_cell_formula_units_Z   2
loop_
 _symmetry_equiv_pos_site_id
 _symmetry_equiv_pos_as_xyz
  1  'x, y, z'
loop_
 _atom_site_type_symbol
 _atom_site_label
 _atom_site_symmetry_multiplicity
 _atom_site_fract_x
 _atom_site_fract_y
 _atom_site_fract_z
 _atom_site_occupancy
  Rb  Rb0  1  0.71275869  0.10356664  0.69168512  1
  Rb  Rb1  1  0.71281337  0.60353454  0.19170616  1
  Rb  Rb2  1  0.28724135  0.89643687  0.30831368  1
  Rb  Rb3  1  0.28718636  0.39646492  0.80829419  1
  Co  Co4  1  0.50000100  0.99999962  0.99999934  1
  Co  Co5  1  0.50000171  0.49999944  0.49999920  1
  P  P6  1  0.26236652  0.93936168  0.79411571  1
  P  P7  1  0.26230808  0.43933691  0.29413005  1
  P  P8  1  0.73763329  0.06063843  0.20588392  1
  P  P9  1  0.73769121  0.56066360  0.70586996  1
  P  P10  1  0.20263703  0.23538006  0.50544140  1
  P  P11  1  0.20261721  0.73538352  0.00539384  1
  P  P12  1  0.79736400  0.76462017  0.49455915  1
  P  P13  1  0.79738274  0.26461671  0.99460605  1
  H  H14  1  0.02735629  0.09564553  0.85790882  1
  H  H15  1  0.02726723  0.59568740  0.35792949  1
  H  H16  1  0.97264406  0.90435530  0.14209117  1
  H  H17  1  0.97273260  0.40431239  0.64207188  1
  H  H18  1  0.69625035  0.27144220  0.38473862  1
  H  H19  1  0.69631537  0.77152339  0.88471032  1
  H  H20  1  0.30375230  0.72855589  0.61526158  1
  H  H21  1  0.30368567  0.22847616  0.11528925  1
  H  H22  1  0.26597192  0.99022005  0.58218224  1
  H  H23  1  0.26590218  0.49022366  0.08218984  1
  H  H24  1  0.73402969  0.00977983  0.41781771  1
  H  H25  1  0.73409556  0.50977615  0.91781079  1
  H  H26  1  0.83127073  0.34100244  0.45953309  1
  H  H27  1  0.83127394  0.84107523  0.95955601  1
  H  H28  1  0.16873208  0.65899513  0.54046733  1
  H  H29  1  0.16872799  0.15892338  0.04044376  1
  O  O30  1  0.71900226  0.36548660  0.42097582  1
  O  O31  1  0.71897026  0.86551801  0.92102654  1
  O  O32  1  0.28100110  0.63451120  0.57902410  1
  O  O33  1  0.28103156  0.13448065  0.07897356  1
  O  O34  1  0.06705569  0.03142636  0.78939884  1
  O  O35  1  0.06700401  0.53140317  0.28943498  1
  O  O36  1  0.93294428  0.96857476  0.21060104  1
  O  O37  1  0.93299505  0.46859723  0.71056611  1
  O  O38  1  0.33615496  0.89443906  0.67834051  1
  O  O39  1  0.33601597  0.39436304  0.17836435  1
  O  O40  1  0.66384418  0.10555991  0.32165930  1
  O  O41  1  0.66398233  0.60563686  0.82163566  1
  O  O42  1  0.38359531  0.03376408  0.84909433  1
  O  O43  1  0.38358341  0.53381593  0.34903657  1
  O  O44  1  0.61640648  0.96623523  0.15090454  1
  O  O45  1  0.61641698  0.46618426  0.65096293  1
  O  O46  1  0.23052842  0.27317070  0.36969453  1
  O  O47  1  0.23052135  0.77318363  0.86963780  1
  O  O48  1  0.76947147  0.72682986  0.63030580  1
  O  O49  1  0.76947720  0.22681630  0.13036183  1
  O  O50  1  0.01003119  0.30438486  0.54568749  1
  O  O51  1  0.01002504  0.80440347  0.04562709  1
  O  O52  1  0.98996952  0.69561449  0.45431352  1
  O  O53  1  0.98997491  0.19559733  0.95437322  1
  O  O54  1  0.21243271  0.05037892  0.51230093  1
  O  O55  1  0.21242695  0.55036170  0.01226946  1
  O  O56  1  0.78757060  0.94962106  0.48769813  1
  O  O57  1  0.78757167  0.44963828  0.98773027  1
  O  O58  1  0.35775199  0.29335544  0.55694271  1
  O  O59  1  0.35772527  0.79337539  0.05689000  1
  O  O60  1  0.64224973  0.70664534  0.44305767  1
  O  O61  1  0.64227664  0.20662465  0.94310871  1
