# generated using pymatgen
data_Si3H
_symmetry_space_group_name_H-M   'P 1'
_cell_length_a   3.84174599
_cell_length_b   3.84172535
_cell_length_c   11.63689781
_cell_angle_alpha   89.99983328
_cell_angle_beta   90.00000373
_cell_angle_gamma   120.00017754
_symmetry_Int_Tables_number   1
_chemical_formula_structural   Si3H
_chemical_formula_sum   'Si6 H2'
_cell_volume   148.73803343
_cell_formula_units_Z   2
loop_
 _symmetry_equiv_pos_site_id
 _symmetry_equiv_pos_as_xyz
  1  'x, y, z'
loop_
 _atom_site_type_symbol
 _atom_site_label
 _atom_site_symmetry_multiplicity
 _atom_site_fract_x
 _atom_site_fract_y
 _atom_site_fract_z
 _atom_site_occupancy
  Si  Si0  1  0.66666699  0.33333498  0.46582325  1
  Si  Si1  1  0.33333301  0.66666502  0.53417675  1
  Si  Si2  1  0.66665053  0.33330206  0.26225996  1
  Si  Si3  1  0.33334947  0.66669794  0.73774004  1
  Si  Si4  1  0.33331907  0.66664015  0.19657367  1
  Si  Si5  1  0.66668093  0.33335985  0.80342633  1
  H  H6  1  0.33333158  0.66666515  0.06828975  1
  H  H7  1  0.66666842  0.33333485  0.93171025  1
