# generated using pymatgen
data_SrGe4O9
_symmetry_space_group_name_H-M   'P 1'
_cell_length_a   11.38136906
_cell_length_b   11.38137122
_cell_length_c   4.77696274
_cell_angle_alpha   89.99985452
_cell_angle_beta   89.99894693
_cell_angle_gamma   119.99953134
_symmetry_Int_Tables_number   1
_chemical_formula_structural   SrGe4O9
_chemical_formula_sum   'Sr3 Ge12 O27'
_cell_volume   535.88750533
_cell_formula_units_Z   3
loop_
 _symmetry_equiv_pos_site_id
 _symmetry_equiv_pos_as_xyz
  1  'x, y, z'
loop_
 _atom_site_type_symbol
 _atom_site_label
 _atom_site_symmetry_multiplicity
 _atom_site_fract_x
 _atom_site_fract_y
 _atom_site_fract_z
 _atom_site_occupancy
  Sr  Sr0  1  0.67268223  0.67268288  0.00000552  1
  Sr  Sr1  1  -0.00000082  0.32731651  0.00000494  1
  Sr  Sr2  1  0.32731930  0.00000187  0.00000420  1
  Ge  Ge3  1  0.34089401  0.49101114  0.60063519  1
  Ge  Ge4  1  0.50899040  0.84988207  0.60063320  1
  Ge  Ge5  1  0.15012121  0.65911667  0.60062016  1
  Ge  Ge6  1  0.84989924  0.50899768  0.39936603  1
  Ge  Ge7  1  0.65908871  0.15009527  0.39935478  1
  Ge  Ge8  1  0.49100699  0.34090941  0.39935818  1
  Ge  Ge9  1  0.17941248  0.17941981  0.50001486  1
  Ge  Ge10  1  0.00000808  0.82059011  0.50000835  1
  Ge  Ge11  1  0.82057987  -0.00001095  0.50000822  1
  Ge  Ge12  1  0.66666376  0.33333239  0.89288862  1
  Ge  Ge13  1  0.33333473  0.66667001  0.10710079  1
  Ge  Ge14  1  0.00000107  -0.00000033  0.00001596  1
  O  O15  1  0.24966124  0.51034726  0.32779430  1
  O  O16  1  0.48964705  0.73931283  0.32780080  1
  O  O17  1  0.26067772  0.75032620  0.32780892  1
  O  O18  1  0.73933218  0.48964672  0.67217534  1
  O  O19  1  0.75032602  0.26067182  0.67219954  1
  O  O20  1  0.51035285  0.24967988  0.67218899  1
  O  O21  1  0.21482619  0.32503301  0.70617890  1
  O  O22  1  0.67497247  0.88979793  0.70617171  1
  O  O23  1  0.11019917  0.78516453  0.70617172  1
  O  O24  1  0.88982447  0.67497205  0.29383198  1
  O  O25  1  0.78515473  0.11017772  0.29383552  1
  O  O26  1  0.32502105  0.21484969  0.29383843  1
  O  O27  1  0.06045187  0.15449608  0.23706175  1
  O  O28  1  0.84550737  0.90596324  0.23706618  1
  O  O29  1  0.09403954  0.93954657  0.23706391  1
  O  O30  1  0.51092597  -0.00000216  0.49999052  1
  O  O31  1  0.00000955  0.51092047  0.49998349  1
  O  O32  1  0.48906836  0.48908369  0.49998803  1
  O  O33  1  0.60307298  0.42295418  0.12224806  1
  O  O34  1  0.57704813  0.18011929  0.12225232  1
  O  O35  1  0.81988379  0.39692320  0.12224197  1
  O  O36  1  0.18011835  0.57704037  0.87774780  1
  O  O37  1  0.39692462  0.81987887  0.87773660  1
  O  O38  1  0.42295180  0.60307351  0.87774051  1
  O  O39  1  0.15449514  0.06046943  0.76295232  1
  O  O40  1  0.93953500  0.09403335  0.76295720  1
  O  O41  1  0.90597112  0.84550572  0.76295218  1
