# generated using pymatgen
data_RbPbCl3
_symmetry_space_group_name_H-M   'P 1'
_cell_length_a   4.27608277
_cell_length_b   7.34058396
_cell_length_c   10.69394050
_cell_angle_alpha   90.00075316
_cell_angle_beta   89.99625657
_cell_angle_gamma   106.81022662
_symmetry_Int_Tables_number   1
_chemical_formula_structural   RbPbCl3
_chemical_formula_sum   'Rb2 Pb2 Cl6'
_cell_volume   321.32755459
_cell_formula_units_Z   2
loop_
 _symmetry_equiv_pos_site_id
 _symmetry_equiv_pos_as_xyz
  1  'x, y, z'
loop_
 _atom_site_type_symbol
 _atom_site_label
 _atom_site_symmetry_multiplicity
 _atom_site_fract_x
 _atom_site_fract_y
 _atom_site_fract_z
 _atom_site_occupancy
  Rb  Rb0  1  0.25235835  0.50383490  0.00981009  1
  Rb  Rb1  1  0.74756032  0.49615427  0.50978667  1
  Pb  Pb2  1  0.99940556  0.00008136  0.75924830  1
  Pb  Pb3  1  0.00078562  0.00000348  0.25924378  1
  Cl  Cl4  1  0.36371128  0.72824409  0.70458571  1
  Cl  Cl5  1  0.63617792  0.27171749  0.20455353  1
  Cl  Cl6  1  0.36465876  0.72844395  0.31469215  1
  Cl  Cl7  1  0.63536071  0.27157608  0.81470446  1
  Cl  Cl8  1  0.92769870  0.85453463  0.00937474  1
  Cl  Cl9  1  0.07228278  0.14541076  0.50939955  1
