# generated using pymatgen
data_TlGeF3
_symmetry_space_group_name_H-M   'P 1'
_cell_length_a   4.78159470
_cell_length_b   5.84325105
_cell_length_c   7.15626106
_cell_angle_alpha   90.00000000
_cell_angle_beta   105.43477297
_cell_angle_gamma   90.00000000
_symmetry_Int_Tables_number   1
_chemical_formula_structural   TlGeF3
_chemical_formula_sum   'Tl2 Ge2 F6'
_cell_volume   192.73509778
_cell_formula_units_Z   2
loop_
 _symmetry_equiv_pos_site_id
 _symmetry_equiv_pos_as_xyz
  1  'x, y, z'
loop_
 _atom_site_type_symbol
 _atom_site_label
 _atom_site_symmetry_multiplicity
 _atom_site_fract_x
 _atom_site_fract_y
 _atom_site_fract_z
 _atom_site_occupancy
  Tl  Tl0  1  0.83891652  0.25000100  0.19298396  1
  Tl  Tl1  1  0.16108348  0.75000000  0.80701334  1
  Ge  Ge2  1  0.56484025  0.25000100  0.64159236  1
  Ge  Ge3  1  0.43522783  0.75000000  0.35842595  1
  F  F4  1  0.68045229  0.02712063  0.83092060  1
  F  F5  1  0.31954263  0.52709682  0.16906366  1
  F  F6  1  0.80700473  0.75000000  0.32860346  1
  F  F7  1  0.19293036  0.25000100  0.67141443  1
  F  F8  1  0.31954263  0.97290218  0.16906366  1
  F  F9  1  0.68045229  0.47287937  0.83092060  1
