# generated using pymatgen
data_NaDySe2
_symmetry_space_group_name_H-M   'P 1'
_cell_length_a   4.11662840
_cell_length_b   4.11662783
_cell_length_c   7.31315022
_cell_angle_alpha   73.65300470
_cell_angle_beta   73.65301007
_cell_angle_gamma   59.99999643
_symmetry_Int_Tables_number   1
_chemical_formula_structural   NaDySe2
_chemical_formula_sum   'Na1 Dy1 Se2'
_cell_volume   101.50303209
_cell_formula_units_Z   1
loop_
 _symmetry_equiv_pos_site_id
 _symmetry_equiv_pos_as_xyz
  1  'x, y, z'
loop_
 _atom_site_type_symbol
 _atom_site_label
 _atom_site_symmetry_multiplicity
 _atom_site_fract_x
 _atom_site_fract_y
 _atom_site_fract_z
 _atom_site_occupancy
  Na  Na0  1  0.50000000  0.50000000  0.50000000  1
  Dy  Dy1  1  -0.00000000  0.00000000  0.00000000  1
  Se  Se2  1  0.74383546  0.74383546  0.76849262  1
  Se  Se3  1  0.25616454  0.25616454  0.23150738  1
