# generated using pymatgen
data_YWN3
_symmetry_space_group_name_H-M   'P 1'
_cell_length_a   3.64212024
_cell_length_b   5.71558202
_cell_length_c   7.93503627
_cell_angle_alpha   71.74001636
_cell_angle_beta   90.00000000
_cell_angle_gamma   90.00000000
_symmetry_Int_Tables_number   1
_chemical_formula_structural   YWN3
_chemical_formula_sum   'Y2 W2 N6'
_cell_volume   156.86452342
_cell_formula_units_Z   2
loop_
 _symmetry_equiv_pos_site_id
 _symmetry_equiv_pos_as_xyz
  1  'x, y, z'
loop_
 _atom_site_type_symbol
 _atom_site_label
 _atom_site_symmetry_multiplicity
 _atom_site_fract_x
 _atom_site_fract_y
 _atom_site_fract_z
 _atom_site_occupancy
  Y  Y0  1  0.25000000  0.29843287  0.39974897  1
  Y  Y1  1  0.75000000  0.70156713  0.60025103  1
  W  W2  1  0.25000000  0.11548140  0.81963832  1
  W  W3  1  0.75000000  0.88451860  0.18036168  1
  N  N4  1  0.75000000  0.06172308  0.33665499  1
  N  N5  1  0.75000000  0.57210136  0.34651959  1
  N  N6  1  0.25000000  0.93827692  0.66334501  1
  N  N7  1  0.25000000  0.42789864  0.65348041  1
  N  N8  1  0.25000000  0.86709874  0.09020649  1
  N  N9  1  0.75000000  0.13290126  0.90979351  1
