# generated using pymatgen
data_GaS
_symmetry_space_group_name_H-M   'P 1'
_cell_length_a   8.25577133
_cell_length_b   8.25577153
_cell_length_c   8.25577179
_cell_angle_alpha   25.21256885
_cell_angle_beta   25.21257035
_cell_angle_gamma   25.21256529
_symmetry_Int_Tables_number   1
_chemical_formula_structural   GaS
_chemical_formula_sum   'Ga2 S2'
_cell_volume   89.85134659
_cell_formula_units_Z   2
loop_
 _symmetry_equiv_pos_site_id
 _symmetry_equiv_pos_as_xyz
  1  'x, y, z'
loop_
 _atom_site_type_symbol
 _atom_site_label
 _atom_site_symmetry_multiplicity
 _atom_site_fract_x
 _atom_site_fract_y
 _atom_site_fract_z
 _atom_site_occupancy
  Ga  Ga0  1  0.94917581  0.94917581  0.94917581  1
  Ga  Ga1  1  0.05082419  0.05082419  0.05082419  1
  S  S2  1  0.23805187  0.23805187  0.23805187  1
  S  S3  1  0.76194813  0.76194813  0.76194813  1
