# generated using pymatgen
data_H2C3
_symmetry_space_group_name_H-M   'P 1'
_cell_length_a   7.15618480
_cell_length_b   7.15618480
_cell_length_c   3.84354944
_cell_angle_alpha   82.92134499
_cell_angle_beta   82.92134499
_cell_angle_gamma   106.46795646
_symmetry_Int_Tables_number   1
_chemical_formula_structural   H2C3
_chemical_formula_sum   'H8 C12'
_cell_volume   184.71370166
_cell_formula_units_Z   4
loop_
 _symmetry_equiv_pos_site_id
 _symmetry_equiv_pos_as_xyz
  1  'x, y, z'
loop_
 _atom_site_type_symbol
 _atom_site_label
 _atom_site_symmetry_multiplicity
 _atom_site_fract_x
 _atom_site_fract_y
 _atom_site_fract_z
 _atom_site_occupancy
  H  H0  1  0.55549112  0.69537308  0.77912497  1
  H  H1  1  0.30462692  0.44450888  0.72087503  1
  H  H2  1  0.44450888  0.30462692  0.22087503  1
  H  H3  1  0.69537308  0.55549112  0.27912497  1
  H  H4  1  0.83679249  0.97572399  0.49535201  1
  H  H5  1  0.02427601  0.16320751  0.00464799  1
  H  H6  1  0.16320751  0.02427601  0.50464799  1
  H  H7  1  0.97572399  0.83679249  0.99535201  1
  C  C8  1  0.33496427  0.83544089  0.66493574  1
  C  C9  1  0.16455911  0.66503573  0.83506426  1
  C  C10  1  0.66503573  0.16455911  0.33506426  1
  C  C11  1  0.83544089  0.33496427  0.16493574  1
  C  C12  1  0.52891485  0.82728833  0.65233036  1
  C  C13  1  0.17271167  0.47108515  0.84766964  1
  C  C14  1  0.47108515  0.17271167  0.34766964  1
  C  C15  1  0.82728833  0.52891485  0.15233036  1
  C  C16  1  0.68926983  0.98739318  0.49153487  1
  C  C17  1  0.01260682  0.31073017  0.00846513  1
  C  C18  1  0.31073017  0.01260682  0.50846513  1
  C  C19  1  0.98739318  0.68926983  0.99153487  1
