# generated using pymatgen
data_Sr(AuO2)2
_symmetry_space_group_name_H-M   'P 1'
_cell_length_a   6.21743169
_cell_length_b   6.21743081
_cell_length_c   6.73725229
_cell_angle_alpha   117.47890780
_cell_angle_beta   117.47890330
_cell_angle_gamma   89.99998936
_symmetry_Int_Tables_number   1
_chemical_formula_structural   Sr(AuO2)2
_chemical_formula_sum   'Sr2 Au4 O8'
_cell_volume   197.34614466
_cell_formula_units_Z   2
loop_
 _symmetry_equiv_pos_site_id
 _symmetry_equiv_pos_as_xyz
  1  'x, y, z'
loop_
 _atom_site_type_symbol
 _atom_site_label
 _atom_site_symmetry_multiplicity
 _atom_site_fract_x
 _atom_site_fract_y
 _atom_site_fract_z
 _atom_site_occupancy
  Sr  Sr0  1  0.12500000  0.37500000  0.25000000  1
  Sr  Sr1  1  0.87500000  0.62500000  0.75000000  1
  Au  Au2  1  0.50000000  0.00000000  0.50000000  1
  Au  Au3  1  0.50000000  0.50000000  0.00000000  1
  Au  Au4  1  -0.00000000  0.00000000  0.50000000  1
  Au  Au5  1  0.50000000  0.00000000  0.00000000  1
  O  O6  1  0.82453089  0.20431446  0.34598191  1
  O  O7  1  0.14166645  0.32453089  0.84598191  1
  O  O8  1  0.70431446  0.02145101  0.84598191  1
  O  O9  1  0.52145101  0.64166645  0.34598191  1
  O  O10  1  0.17546911  0.79568554  0.65401809  1
  O  O11  1  0.85833355  0.67546911  0.15401809  1
  O  O12  1  0.47854899  0.35833355  0.65401809  1
  O  O13  1  0.29568554  0.97854899  0.15401809  1
