# generated using pymatgen
data_Pr6IrCl11
_symmetry_space_group_name_H-M   'P 1'
_cell_length_a   7.40094734
_cell_length_b   8.27413390
_cell_length_c   8.27413390
_cell_angle_alpha   101.58612400
_cell_angle_beta   92.88254411
_cell_angle_gamma   92.88254411
_symmetry_Int_Tables_number   1
_chemical_formula_structural   Pr6IrCl11
_chemical_formula_sum   'Pr6 Ir1 Cl11'
_cell_volume   494.78108139
_cell_formula_units_Z   1
loop_
 _symmetry_equiv_pos_site_id
 _symmetry_equiv_pos_as_xyz
  1  'x, y, z'
loop_
 _atom_site_type_symbol
 _atom_site_label
 _atom_site_symmetry_multiplicity
 _atom_site_fract_x
 _atom_site_fract_y
 _atom_site_fract_z
 _atom_site_occupancy
  Pr  Pr0  1  0.22859354  0.70739343  0.01787190  1
  Pr  Pr1  1  0.23899166  0.19424838  0.19424838  1
  Pr  Pr2  1  0.77140646  0.98212810  0.29260557  1
  Pr  Pr3  1  0.22859354  0.01787190  0.70739343  1
  Pr  Pr4  1  0.76100834  0.80575162  0.80575162  1
  Pr  Pr5  1  0.77140646  0.29260557  0.98212810  1
  Ir  Ir6  1  0.00000000  0.00000000  -0.00000000  1
  Cl  Cl7  1  0.50000000  0.00000000  -0.00000000  1
  Cl  Cl8  1  0.63564173  0.65938099  0.09420048  1
  Cl  Cl9  1  0.05570283  0.49120960  0.20344808  1
  Cl  Cl10  1  0.63452023  0.30602229  0.30602229  1
  Cl  Cl11  1  0.36435827  0.90579952  0.34062001  1
  Cl  Cl12  1  0.05570283  0.20344808  0.49120960  1
  Cl  Cl13  1  0.94429817  0.79655192  0.50879040  1
  Cl  Cl14  1  0.63564173  0.09420048  0.65938099  1
  Cl  Cl15  1  0.36548077  0.69397771  0.69397771  1
  Cl  Cl16  1  0.94429817  0.50879040  0.79655192  1
  Cl  Cl17  1  0.36435827  0.34062001  0.90579952  1
