# generated using pymatgen
data_Li2UO4
_symmetry_space_group_name_H-M   'P 1'
_cell_length_a   5.09538494
_cell_length_b   6.04466583
_cell_length_c   10.49823805
_cell_angle_alpha   90.00000000
_cell_angle_beta   90.00000000
_cell_angle_gamma   90.00000000
_symmetry_Int_Tables_number   1
_chemical_formula_structural   Li2UO4
_chemical_formula_sum   'Li8 U4 O16'
_cell_volume   323.34467411
_cell_formula_units_Z   4
loop_
 _symmetry_equiv_pos_site_id
 _symmetry_equiv_pos_as_xyz
  1  'x, y, z'
loop_
 _atom_site_type_symbol
 _atom_site_label
 _atom_site_symmetry_multiplicity
 _atom_site_fract_x
 _atom_site_fract_y
 _atom_site_fract_z
 _atom_site_occupancy
  Li  Li0  1  0.54246345  0.75000000  0.92570613  1
  Li  Li1  1  0.04246345  0.25000000  0.57429387  1
  Li  Li2  1  0.45753655  0.25000000  0.07429387  1
  Li  Li3  1  0.95753655  0.75000000  0.42570613  1
  Li  Li4  1  0.50000000  -0.00000000  0.50000000  1
  Li  Li5  1  0.00000000  -0.00000000  0.00000000  1
  Li  Li6  1  0.50000000  0.50000000  0.50000000  1
  Li  Li7  1  0.00000000  0.50000000  0.00000000  1
  U  U8  1  0.98735265  0.75000000  0.73780480  1
  U  U9  1  0.48735265  0.25000000  0.76219520  1
  U  U10  1  0.01264735  0.25000000  0.26219520  1
  U  U11  1  0.51264735  0.75000000  0.23780480  1
  O  O12  1  0.17800793  0.75000000  0.89746206  1
  O  O13  1  0.22242320  0.25000000  0.41407880  1
  O  O14  1  0.27757680  0.25000000  0.91407880  1
  O  O15  1  0.72242320  0.75000000  0.08592120  1
  O  O16  1  0.26665966  0.01429585  0.16393938  1
  O  O17  1  0.76665966  0.98570415  0.33606062  1
  O  O18  1  0.73334034  0.51429585  0.83606062  1
  O  O19  1  0.23334034  0.48570415  0.66393938  1
  O  O20  1  0.73334034  0.98570415  0.83606062  1
  O  O21  1  0.23334034  0.01429585  0.66393938  1
  O  O22  1  0.26665966  0.48570415  0.16393938  1
  O  O23  1  0.76665966  0.51429585  0.33606062  1
  O  O24  1  0.82199207  0.25000000  0.10253794  1
  O  O25  1  0.32199207  0.75000000  0.39746206  1
  O  O26  1  0.77757680  0.75000000  0.58592120  1
  O  O27  1  0.67800793  0.25000000  0.60253794  1
