# generated using pymatgen
data_PW4Cl11
_symmetry_space_group_name_H-M   'P 1'
_cell_length_a   8.58400039
_cell_length_b   8.58400039
_cell_length_c   11.43802114
_cell_angle_alpha   90.00000000
_cell_angle_beta   90.00000000
_cell_angle_gamma   109.09021816
_symmetry_Int_Tables_number   1
_chemical_formula_structural   PW4Cl11
_chemical_formula_sum   'P2 W8 Cl22'
_cell_volume   796.46069771
_cell_formula_units_Z   2
loop_
 _symmetry_equiv_pos_site_id
 _symmetry_equiv_pos_as_xyz
  1  'x, y, z'
loop_
 _atom_site_type_symbol
 _atom_site_label
 _atom_site_symmetry_multiplicity
 _atom_site_fract_x
 _atom_site_fract_y
 _atom_site_fract_z
 _atom_site_occupancy
  P  P0  1  0.67482538  0.32517462  0.25000000  1
  P  P1  1  0.32517462  0.67482538  0.75000000  1
  W  W2  1  0.64614069  0.09444526  0.37208565  1
  W  W3  1  0.09444526  0.64614069  0.62791435  1
  W  W4  1  0.35385931  0.90555474  0.62791435  1
  W  W5  1  0.90555474  0.35385931  0.37208565  1
  W  W6  1  0.64614069  0.09444526  0.12791435  1
  W  W7  1  0.09444526  0.64614069  0.87208565  1
  W  W8  1  0.35385931  0.90555474  0.87208565  1
  W  W9  1  0.90555474  0.35385931  0.12791435  1
  Cl  Cl10  1  0.87247187  0.12752813  0.99526221  1
  Cl  Cl11  1  0.12752813  0.87247187  0.00473779  1
  Cl  Cl12  1  0.48043301  0.17993249  0.98606095  1
  Cl  Cl13  1  0.17993249  0.48043301  0.01393905  1
  Cl  Cl14  1  0.51956699  0.82006751  0.01393905  1
  Cl  Cl15  1  0.82006751  0.51956699  0.98606095  1
  Cl  Cl16  1  0.87247187  0.12752813  0.50473779  1
  Cl  Cl17  1  0.12752813  0.87247187  0.49526221  1
  Cl  Cl18  1  0.48043301  0.17993249  0.51393905  1
  Cl  Cl19  1  0.17993249  0.48043301  0.48606095  1
  Cl  Cl20  1  0.51956699  0.82006751  0.48606095  1
  Cl  Cl21  1  0.82006751  0.51956699  0.51393905  1
  Cl  Cl22  1  0.75644000  0.92670156  0.25000000  1
  Cl  Cl23  1  0.92670156  0.75644000  0.75000000  1
  Cl  Cl24  1  0.24356000  0.07329844  0.75000000  1
  Cl  Cl25  1  0.07329844  0.24356000  0.25000000  1
  Cl  Cl26  1  0.53042440  0.46957560  0.25000000  1
  Cl  Cl27  1  0.46957560  0.53042440  0.75000000  1
  Cl  Cl28  1  0.39275354  0.98639145  0.25000000  1
  Cl  Cl29  1  0.98639145  0.39275354  0.75000000  1
  Cl  Cl30  1  0.60724646  0.01360855  0.75000000  1
  Cl  Cl31  1  0.01360855  0.60724646  0.25000000  1
