# generated using pymatgen
data_TlHgF3
_symmetry_space_group_name_H-M   'P 1'
_cell_length_a   6.20059644
_cell_length_b   8.82826901
_cell_length_c   13.07913115
_cell_angle_alpha   90.00000000
_cell_angle_beta   90.00000000
_cell_angle_gamma   90.00000000
_symmetry_Int_Tables_number   1
_chemical_formula_structural   TlHgF3
_chemical_formula_sum   'Tl8 Hg8 F24'
_cell_volume   715.95861549
_cell_formula_units_Z   8
loop_
 _symmetry_equiv_pos_site_id
 _symmetry_equiv_pos_as_xyz
  1  'x, y, z'
loop_
 _atom_site_type_symbol
 _atom_site_label
 _atom_site_symmetry_multiplicity
 _atom_site_fract_x
 _atom_site_fract_y
 _atom_site_fract_z
 _atom_site_occupancy
  Tl  Tl0  1  0.26001290  0.00000000  0.88145539  1
  Tl  Tl1  1  0.76001290  0.00000000  0.61854461  1
  Tl  Tl2  1  0.73998710  0.00000000  0.11854461  1
  Tl  Tl3  1  0.23998710  0.00000000  0.38145539  1
  Tl  Tl4  1  0.25040072  0.50000000  0.87325395  1
  Tl  Tl5  1  0.75040072  0.50000000  0.62674605  1
  Tl  Tl6  1  0.74959928  0.50000000  0.12674605  1
  Tl  Tl7  1  0.24959928  0.50000000  0.37325395  1
  Hg  Hg8  1  0.74943804  0.25010384  0.87439559  1
  Hg  Hg9  1  0.24943804  0.74989616  0.62560441  1
  Hg  Hg10  1  0.25056196  0.25010384  0.12560441  1
  Hg  Hg11  1  0.75056196  0.74989616  0.37439559  1
  Hg  Hg12  1  0.25056196  0.74989616  0.12560441  1
  Hg  Hg13  1  0.75056196  0.25010384  0.37439559  1
  Hg  Hg14  1  0.74943804  0.74989616  0.87439559  1
  Hg  Hg15  1  0.24943804  0.25010384  0.62560441  1
  F  F16  1  0.71123559  0.00000000  0.82979066  1
  F  F17  1  0.21123559  0.00000000  0.67020934  1
  F  F18  1  0.28876441  0.00000000  0.17020934  1
  F  F19  1  0.78876441  0.00000000  0.32979066  1
  F  F20  1  0.69262225  0.50000000  0.91716091  1
  F  F21  1  0.19262225  0.50000000  0.58283909  1
  F  F22  1  0.30737775  0.50000000  0.08283909  1
  F  F23  1  0.80737775  0.50000000  0.41716091  1
  F  F24  1  0.96304222  0.30296701  0.73744144  1
  F  F25  1  0.46304222  0.69703299  0.76255856  1
  F  F26  1  0.03695778  0.30296701  0.26255856  1
  F  F27  1  0.53695778  0.69703299  0.23744144  1
  F  F28  1  0.03695778  0.69703299  0.26255856  1
  F  F29  1  0.53695778  0.30296701  0.23744144  1
  F  F30  1  0.96304222  0.69703299  0.73744144  1
  F  F31  1  0.46304222  0.30296701  0.76255856  1
  F  F32  1  0.00000000  0.18769132  0.50000000  1
  F  F33  1  0.50000000  0.81230868  0.00000000  1
  F  F34  1  -0.00000000  0.81230868  0.50000000  1
  F  F35  1  0.50000000  0.18769132  0.00000000  1
  F  F36  1  -0.00000000  0.20115790  0.00000000  1
  F  F37  1  0.50000000  0.79884210  0.50000000  1
  F  F38  1  -0.00000000  0.79884210  -0.00000000  1
  F  F39  1  0.50000000  0.20115790  0.50000000  1
