# generated using pymatgen
data_Ca3Tl2O6
_symmetry_space_group_name_H-M   'P 1'
_cell_length_a   3.34417582
_cell_length_b   11.28909034
_cell_length_c   16.54895805
_cell_angle_alpha   90.00000000
_cell_angle_beta   90.00000000
_cell_angle_gamma   90.00000000
_symmetry_Int_Tables_number   1
_chemical_formula_structural   Ca3Tl2O6
_chemical_formula_sum   'Ca12 Tl8 O24'
_cell_volume   624.76789731
_cell_formula_units_Z   4
loop_
 _symmetry_equiv_pos_site_id
 _symmetry_equiv_pos_as_xyz
  1  'x, y, z'
loop_
 _atom_site_type_symbol
 _atom_site_label
 _atom_site_symmetry_multiplicity
 _atom_site_fract_x
 _atom_site_fract_y
 _atom_site_fract_z
 _atom_site_occupancy
  Ca  Ca0  1  0.50000000  0.10381344  0.85423128  1
  Ca  Ca1  1  0.50000000  0.89618656  0.14576872  1
  Ca  Ca2  1  0.50000000  0.60381344  0.64576872  1
  Ca  Ca3  1  0.50000000  0.39618656  0.35423128  1
  Ca  Ca4  1  0.50000000  0.36605893  0.95981271  1
  Ca  Ca5  1  0.50000000  0.63394107  0.04018729  1
  Ca  Ca6  1  0.50000000  0.86605893  0.54018729  1
  Ca  Ca7  1  0.50000000  0.13394107  0.45981271  1
  Ca  Ca8  1  0.50000000  0.32839695  0.72547994  1
  Ca  Ca9  1  0.50000000  0.67160305  0.27452006  1
  Ca  Ca10  1  0.50000000  0.82839695  0.77452006  1
  Ca  Ca11  1  0.50000000  0.17160305  0.22547994  1
  Tl  Tl12  1  0.00000000  0.41483069  0.14819456  1
  Tl  Tl13  1  0.00000000  0.58516931  0.85180544  1
  Tl  Tl14  1  0.00000000  0.91483069  0.35180544  1
  Tl  Tl15  1  0.00000000  0.08516931  0.64819456  1
  Tl  Tl16  1  -0.00000000  0.36538151  0.54560023  1
  Tl  Tl17  1  0.00000000  0.63461849  0.45439977  1
  Tl  Tl18  1  -0.00000000  0.86538151  0.95439977  1
  Tl  Tl19  1  0.00000000  0.13461849  0.04560023  1
  O  O20  1  -0.00000000  0.19104464  0.76143283  1
  O  O21  1  -0.00000000  0.80895536  0.23856717  1
  O  O22  1  0.00000000  0.69104464  0.73856717  1
  O  O23  1  -0.00000000  0.30895536  0.26143283  1
  O  O24  1  0.50000000  0.45796167  0.83337204  1
  O  O25  1  0.50000000  0.54203833  0.16662796  1
  O  O26  1  0.50000000  0.95796167  0.66662796  1
  O  O27  1  0.50000000  0.04203833  0.33337204  1
  O  O28  1  0.50000000  0.21579731  0.59577827  1
  O  O29  1  0.50000000  0.78420269  0.40422173  1
  O  O30  1  0.50000000  0.71579731  0.90422173  1
  O  O31  1  0.50000000  0.28420269  0.09577827  1
  O  O32  1  0.50000000  0.50000000  0.50000000  1
  O  O33  1  0.50000000  -0.00000000  0.00000000  1
  O  O34  1  -0.00000000  0.21880569  0.93240340  1
  O  O35  1  0.00000000  0.78119431  0.06759660  1
  O  O36  1  0.00000000  0.71880569  0.56759660  1
  O  O37  1  0.00000000  0.28119431  0.43240340  1
  O  O38  1  0.00000000  -0.00000000  0.50000000  1
  O  O39  1  0.00000000  0.50000000  0.00000000  1
  O  O40  1  -0.00000000  0.05320367  0.15993627  1
  O  O41  1  -0.00000000  0.94679633  0.84006373  1
  O  O42  1  0.00000000  0.55320367  0.34006373  1
  O  O43  1  0.00000000  0.44679633  0.65993627  1
