# generated using pymatgen
data_K2Pd3S4
_symmetry_space_group_name_H-M   'P 1'
_cell_length_a   6.10849229
_cell_length_b   6.17696408
_cell_length_c   13.26812078
_cell_angle_alpha   83.46435532
_cell_angle_beta   76.69147723
_cell_angle_gamma   60.36601835
_symmetry_Int_Tables_number   1
_chemical_formula_structural   K2Pd3S4
_chemical_formula_sum   'K4 Pd6 S8'
_cell_volume   423.46404997
_cell_formula_units_Z   2
loop_
 _symmetry_equiv_pos_site_id
 _symmetry_equiv_pos_as_xyz
  1  'x, y, z'
loop_
 _atom_site_type_symbol
 _atom_site_label
 _atom_site_symmetry_multiplicity
 _atom_site_fract_x
 _atom_site_fract_y
 _atom_site_fract_z
 _atom_site_occupancy
  K  K0  1  0.54707191  0.75000000  0.90585617  1
  K  K1  1  0.29707191  0.25000000  0.40585617  1
  K  K2  1  0.45292809  0.25000000  0.09414383  1
  K  K3  1  0.70292809  0.75000000  0.59414383  1
  Pd  Pd4  1  0.37408468  0.75000000  0.25183064  1
  Pd  Pd5  1  0.12408468  0.25000000  0.75183064  1
  Pd  Pd6  1  0.62591532  0.25000000  0.74816936  1
  Pd  Pd7  1  0.12500000  0.75000000  0.75000000  1
  Pd  Pd8  1  0.87500000  0.25000000  0.25000000  1
  Pd  Pd9  1  0.87591532  0.75000000  0.24816936  1
  S  S10  1  0.89349480  0.08159500  0.86970860  1
  S  S11  1  0.76320241  0.58159500  0.13029140  1
  S  S12  1  0.97508880  0.91840500  0.36970860  1
  S  S13  1  0.65520260  0.58159500  0.36970860  1
  S  S14  1  0.34479740  0.41840500  0.63029140  1
  S  S15  1  0.02491120  0.08159500  0.63029140  1
  S  S16  1  0.23679759  0.41840500  0.86970860  1
  S  S17  1  0.10650520  0.91840500  0.13029140  1
