# generated using pymatgen
data_RbMgPO4
_symmetry_space_group_name_H-M   'P 1'
_cell_length_a   8.79702194
_cell_length_b   9.29490004
_cell_length_c   5.38619167
_cell_angle_alpha   90.00000000
_cell_angle_beta   90.00000000
_cell_angle_gamma   90.00000000
_symmetry_Int_Tables_number   1
_chemical_formula_structural   RbMgPO4
_chemical_formula_sum   'Rb4 Mg4 P4 O16'
_cell_volume   440.41510195
_cell_formula_units_Z   4
loop_
 _symmetry_equiv_pos_site_id
 _symmetry_equiv_pos_as_xyz
  1  'x, y, z'
loop_
 _atom_site_type_symbol
 _atom_site_label
 _atom_site_symmetry_multiplicity
 _atom_site_fract_x
 _atom_site_fract_y
 _atom_site_fract_z
 _atom_site_occupancy
  Rb  Rb0  1  0.49610134  0.21531754  0.22863548  1
  Rb  Rb1  1  0.99610034  0.28468346  0.22863548  1
  Rb  Rb2  1  0.00389966  0.71531754  0.72863548  1
  Rb  Rb3  1  0.50389966  0.78468246  0.72863548  1
  Mg  Mg4  1  0.31788677  0.58407559  0.24737308  1
  Mg  Mg5  1  0.81788777  0.91592441  0.24737308  1
  Mg  Mg6  1  0.18211223  0.08407559  0.74737308  1
  Mg  Mg7  1  0.68211223  0.41592441  0.74737308  1
  P  P8  1  0.70692326  0.58031212  0.24654750  1
  P  P9  1  0.20692226  0.91968788  0.24654750  1
  P  P10  1  0.79307674  0.08031212  0.74654750  1
  P  P11  1  0.29307774  0.41968788  0.74654750  1
  O  O12  1  0.76887427  0.55108369  0.98424908  1
  O  O13  1  0.26887427  0.94891631  0.98424908  1
  O  O14  1  0.53370772  0.58344194  0.23819372  1
  O  O15  1  0.03370772  0.91655906  0.23819372  1
  O  O16  1  0.76506520  0.72449762  0.34528159  1
  O  O17  1  0.26506420  0.77550238  0.34528159  1
  O  O18  1  0.26057229  0.03995423  0.42191955  1
  O  O19  1  0.76057329  0.46004577  0.42191955  1
  O  O20  1  0.73112573  0.05108369  0.48424908  1
  O  O21  1  0.23112673  0.44891631  0.48424908  1
  O  O22  1  0.96629228  0.08344094  0.73819472  1
  O  O23  1  0.46629328  0.41655806  0.73819472  1
  O  O24  1  0.73493480  0.22449662  0.84528159  1
  O  O25  1  0.23493480  0.27550338  0.84528159  1
  O  O26  1  0.23942771  0.53995423  0.92191955  1
  O  O27  1  0.73942671  0.96004577  0.92191955  1
