# generated using pymatgen
data_Tl(IO3)3
_symmetry_space_group_name_H-M   'P 1'
_cell_length_a   7.45597567
_cell_length_b   7.45597578
_cell_length_c   7.45597532
_cell_angle_alpha   82.89951636
_cell_angle_beta   82.89951243
_cell_angle_gamma   82.89950555
_symmetry_Int_Tables_number   1
_chemical_formula_structural   Tl(IO3)3
_chemical_formula_sum   'Tl2 I6 O18'
_cell_volume   405.67887047
_cell_formula_units_Z   2
loop_
 _symmetry_equiv_pos_site_id
 _symmetry_equiv_pos_as_xyz
  1  'x, y, z'
loop_
 _atom_site_type_symbol
 _atom_site_label
 _atom_site_symmetry_multiplicity
 _atom_site_fract_x
 _atom_site_fract_y
 _atom_site_fract_z
 _atom_site_occupancy
  Tl  Tl0  1  0.17725427  0.17725427  0.17725427  1
  Tl  Tl1  1  0.82274573  0.82274573  0.82274573  1
  I  I2  1  0.71348267  0.12692045  0.41485372  1
  I  I3  1  0.41485372  0.71348267  0.12692045  1
  I  I4  1  0.12692045  0.41485372  0.71348267  1
  I  I5  1  0.28651733  0.87307955  0.58514628  1
  I  I6  1  0.58514628  0.28651733  0.87307955  1
  I  I7  1  0.87307955  0.58514628  0.28651733  1
  O  O8  1  0.78345671  0.26015136  0.57662625  1
  O  O9  1  0.57662625  0.78345671  0.26015136  1
  O  O10  1  0.26015136  0.57662625  0.78345671  1
  O  O11  1  0.21654329  0.73984864  0.42337375  1
  O  O12  1  0.42337375  0.21654329  0.73984864  1
  O  O13  1  0.73984864  0.42337375  0.21654329  1
  O  O14  1  0.68680449  0.91666261  0.56751461  1
  O  O15  1  0.56751461  0.68680449  0.91666261  1
  O  O16  1  0.91666261  0.56751461  0.68680449  1
  O  O17  1  0.31319551  0.08333739  0.43248539  1
  O  O18  1  0.43248539  0.31319551  0.08333739  1
  O  O19  1  0.08333739  0.43248539  0.31319551  1
  O  O20  1  0.93105614  0.04345657  0.29961191  1
  O  O21  1  0.29961191  0.93105614  0.04345657  1
  O  O22  1  0.04345657  0.29961191  0.93105614  1
  O  O23  1  0.06894386  0.95654343  0.70038809  1
  O  O24  1  0.70038809  0.06894386  0.95654343  1
  O  O25  1  0.95654343  0.70038809  0.06894386  1
