# generated using pymatgen
data_LaWN3
_symmetry_space_group_name_H-M   'P 1'
_cell_length_a   7.43398581
_cell_length_b   7.43384676
_cell_length_c   6.34875792
_cell_angle_alpha   76.73959110
_cell_angle_beta   76.73688854
_cell_angle_gamma   85.96467674
_symmetry_Int_Tables_number   1
_chemical_formula_structural   LaWN3
_chemical_formula_sum   'La4 W4 N12'
_cell_volume   332.33039368
_cell_formula_units_Z   4
loop_
 _symmetry_equiv_pos_site_id
 _symmetry_equiv_pos_as_xyz
  1  'x, y, z'
loop_
 _atom_site_type_symbol
 _atom_site_label
 _atom_site_symmetry_multiplicity
 _atom_site_fract_x
 _atom_site_fract_y
 _atom_site_fract_z
 _atom_site_occupancy
  La  La0  1  0.09390467  0.90609676  0.24999965  1
  La  La1  1  0.30934251  0.69065581  0.74999360  1
  La  La2  1  0.69065782  0.30934131  0.25001401  1
  La  La3  1  0.90608557  0.09389199  0.74999751  1
  W  W4  1  0.62032000  0.79763269  0.24928157  1
  W  W5  1  0.20232804  0.37974161  0.25071326  1
  W  W6  1  0.37966622  0.20237774  0.75069905  1
  W  W7  1  0.79767651  0.62024653  0.74928301  1
  N  N8  1  0.32845644  0.36800135  0.49172693  1
  N  N9  1  0.39015358  0.87458920  0.35485710  1
  N  N10  1  0.00326885  0.22552045  0.34515688  1
  N  N11  1  0.87464297  0.39010299  0.85487939  1
  N  N12  1  0.60981911  0.12546163  0.64513927  1
  N  N13  1  0.77449362  0.99671964  0.15483171  1
  N  N14  1  0.22546327  0.00329532  0.84516972  1
  N  N15  1  0.63207777  0.67146691  0.00829850  1
  N  N16  1  0.36795466  0.32852117  0.99171368  1
  N  N17  1  0.67152738  0.63203559  0.50827321  1
  N  N18  1  0.12541733  0.60986308  0.14512768  1
  N  N19  1  0.99674570  0.77443723  0.65484228  1
