# generated using pymatgen
data_RbCaI3
_symmetry_space_group_name_H-M   'P 1'
_cell_length_a   4.69371084
_cell_length_b   10.46897138
_cell_length_c   17.37418299
_cell_angle_alpha   90.00000000
_cell_angle_beta   90.00000000
_cell_angle_gamma   90.00000000
_symmetry_Int_Tables_number   1
_chemical_formula_structural   RbCaI3
_chemical_formula_sum   'Rb4 Ca4 I12'
_cell_volume   853.73824082
_cell_formula_units_Z   4
loop_
 _symmetry_equiv_pos_site_id
 _symmetry_equiv_pos_as_xyz
  1  'x, y, z'
loop_
 _atom_site_type_symbol
 _atom_site_label
 _atom_site_symmetry_multiplicity
 _atom_site_fract_x
 _atom_site_fract_y
 _atom_site_fract_z
 _atom_site_occupancy
  Rb  Rb0  1  0.75000000  0.57348980  0.17542549  1
  Rb  Rb1  1  0.25000000  0.42651020  0.82457451  1
  Rb  Rb2  1  0.75000000  0.07348980  0.32457451  1
  Rb  Rb3  1  0.25000000  0.92651020  0.67542549  1
  Ca  Ca4  1  0.25000000  0.66533580  0.44289543  1
  Ca  Ca5  1  0.75000000  0.33466420  0.55710457  1
  Ca  Ca6  1  0.25000000  0.16533580  0.05710457  1
  Ca  Ca7  1  0.75000000  0.83466420  0.94289543  1
  I  I8  1  0.75000000  0.83433227  0.50755559  1
  I  I9  1  0.25000000  0.16566773  0.49244441  1
  I  I10  1  0.75000000  0.33433227  0.99244441  1
  I  I11  1  0.25000000  0.66566773  0.00755559  1
  I  I12  1  0.25000000  0.52493734  0.60534049  1
  I  I13  1  0.75000000  0.47506266  0.39465951  1
  I  I14  1  0.25000000  0.02493734  0.89465951  1
  I  I15  1  0.75000000  0.97506266  0.10534049  1
  I  I16  1  0.25000000  0.79432324  0.28510149  1
  I  I17  1  0.75000000  0.20567676  0.71489851  1
  I  I18  1  0.25000000  0.29432324  0.21489851  1
  I  I19  1  0.75000000  0.70567676  0.78510149  1
