# generated using pymatgen
data_HfTlCuS3
_symmetry_space_group_name_H-M   'P 1'
_cell_length_a   7.36960525
_cell_length_b   7.36960525
_cell_length_c   9.73773589
_cell_angle_alpha   90.00000000
_cell_angle_beta   90.00000000
_cell_angle_gamma   150.92680049
_symmetry_Int_Tables_number   1
_chemical_formula_structural   HfTlCuS3
_chemical_formula_sum   'Hf2 Tl2 Cu2 S6'
_cell_volume   256.99053528
_cell_formula_units_Z   2
loop_
 _symmetry_equiv_pos_site_id
 _symmetry_equiv_pos_as_xyz
  1  'x, y, z'
loop_
 _atom_site_type_symbol
 _atom_site_label
 _atom_site_symmetry_multiplicity
 _atom_site_fract_x
 _atom_site_fract_y
 _atom_site_fract_z
 _atom_site_occupancy
  Hf  Hf0  1  -0.00000000  0.00000000  0.50000000  1
  Hf  Hf1  1  -0.00000000  0.00000000  -0.00000000  1
  Tl  Tl2  1  0.74384421  0.25615579  0.25000000  1
  Tl  Tl3  1  0.25615579  0.74384421  0.75000000  1
  Cu  Cu4  1  0.53861921  0.46138079  0.75000000  1
  Cu  Cu5  1  0.46138079  0.53861921  0.25000000  1
  S  S6  1  0.61991574  0.38008426  0.54862211  1
  S  S7  1  0.38008426  0.61991574  0.45137789  1
  S  S8  1  0.38008426  0.61991574  0.04862211  1
  S  S9  1  0.94058968  0.05941032  0.75000000  1
  S  S10  1  0.05941032  0.94058968  0.25000000  1
  S  S11  1  0.61991574  0.38008426  0.95137789  1
