# generated using pymatgen
data_CsCaI3
_symmetry_space_group_name_H-M   'P 1'
_cell_length_a   4.72814982
_cell_length_b   10.71713597
_cell_length_c   17.79891735
_cell_angle_alpha   90.00000000
_cell_angle_beta   90.00000000
_cell_angle_gamma   90.00000000
_symmetry_Int_Tables_number   1
_chemical_formula_structural   CsCaI3
_chemical_formula_sum   'Cs4 Ca4 I12'
_cell_volume   901.91073595
_cell_formula_units_Z   4
loop_
 _symmetry_equiv_pos_site_id
 _symmetry_equiv_pos_as_xyz
  1  'x, y, z'
loop_
 _atom_site_type_symbol
 _atom_site_label
 _atom_site_symmetry_multiplicity
 _atom_site_fract_x
 _atom_site_fract_y
 _atom_site_fract_z
 _atom_site_occupancy
  Cs  Cs0  1  0.75000000  0.07090758  0.67382045  1
  Cs  Cs1  1  0.25000000  0.92909142  0.32617955  1
  Cs  Cs2  1  0.75000000  0.57090758  0.82617955  1
  Cs  Cs3  1  0.25000000  0.42909242  0.17382045  1
  Ca  Ca4  1  0.25000000  0.16187897  0.94307819  1
  Ca  Ca5  1  0.75000000  0.83812203  0.05692281  1
  Ca  Ca6  1  0.25000000  0.66187897  0.55692281  1
  Ca  Ca7  1  0.75000000  0.33812203  0.44307719  1
  I  I8  1  0.75000000  0.33014263  0.00347319  1
  I  I9  1  0.25000000  0.66985637  0.99652681  1
  I  I10  1  0.75000000  0.83014263  0.49652681  1
  I  I11  1  0.25000000  0.16985637  0.50347319  1
  I  I12  1  0.25000000  0.02632617  0.10274214  1
  I  I13  1  0.75000000  0.97367383  0.89725686  1
  I  I14  1  0.25000000  0.52632617  0.39725686  1
  I  I15  1  0.75000000  0.47367383  0.60274314  1
  I  I16  1  0.25000000  0.28717430  0.78881895  1
  I  I17  1  0.75000000  0.71282570  0.21118105  1
  I  I18  1  0.25000000  0.78717530  0.71118105  1
  I  I19  1  0.75000000  0.21282570  0.28881795  1
