# generated using pymatgen
data_TbTlS2
_symmetry_space_group_name_H-M   'P 1'
_cell_length_a   4.03173826
_cell_length_b   4.03173881
_cell_length_c   7.84591885
_cell_angle_alpha   75.11189499
_cell_angle_beta   75.11189437
_cell_angle_gamma   60.00000406
_symmetry_Int_Tables_number   1
_chemical_formula_structural   TbTlS2
_chemical_formula_sum   'Tb1 Tl1 S2'
_cell_volume   105.47562561
_cell_formula_units_Z   1
loop_
 _symmetry_equiv_pos_site_id
 _symmetry_equiv_pos_as_xyz
  1  'x, y, z'
loop_
 _atom_site_type_symbol
 _atom_site_label
 _atom_site_symmetry_multiplicity
 _atom_site_fract_x
 _atom_site_fract_y
 _atom_site_fract_z
 _atom_site_occupancy
  Tb  Tb0  1  0.00000000  -0.00000000  -0.00000000  1
  Tl  Tl1  1  0.50000000  0.50000000  0.50000000  1
  S  S2  1  0.73305137  0.73305137  0.80084588  1
  S  S3  1  0.26694863  0.26694863  0.19915412  1
