# generated using pymatgen
data_Sr(DyS2)2
_symmetry_space_group_name_H-M   'P 1'
_cell_length_a   3.98829332
_cell_length_b   12.01085718
_cell_length_c   14.32411544
_cell_angle_alpha   90.00000000
_cell_angle_beta   90.00000000
_cell_angle_gamma   90.00000000
_symmetry_Int_Tables_number   1
_chemical_formula_structural   Sr(DyS2)2
_chemical_formula_sum   'Sr4 Dy8 S16'
_cell_volume   686.16554447
_cell_formula_units_Z   4
loop_
 _symmetry_equiv_pos_site_id
 _symmetry_equiv_pos_as_xyz
  1  'x, y, z'
loop_
 _atom_site_type_symbol
 _atom_site_label
 _atom_site_symmetry_multiplicity
 _atom_site_fract_x
 _atom_site_fract_y
 _atom_site_fract_z
 _atom_site_occupancy
  Sr  Sr0  1  0.25000000  0.75673750  0.16108379  1
  Sr  Sr1  1  0.75000000  0.74326250  0.66108379  1
  Sr  Sr2  1  0.25000000  0.25673750  0.33891621  1
  Sr  Sr3  1  0.75000000  0.24326250  0.83891621  1
  Dy  Dy4  1  0.25000000  0.43073905  0.11006312  1
  Dy  Dy5  1  0.75000000  0.06926095  0.61006312  1
  Dy  Dy6  1  0.25000000  0.93073905  0.38993688  1
  Dy  Dy7  1  0.75000000  0.56926095  0.88993688  1
  Dy  Dy8  1  0.25000000  0.42028844  0.60135572  1
  Dy  Dy9  1  0.75000000  0.07971156  0.10135572  1
  Dy  Dy10  1  0.25000000  0.92028844  0.89864428  1
  Dy  Dy11  1  0.75000000  0.57971156  0.39864428  1
  S  S12  1  0.25000000  0.02096424  0.21606828  1
  S  S13  1  0.75000000  0.47903576  0.71606828  1
  S  S14  1  0.25000000  0.52096424  0.28393172  1
  S  S15  1  0.75000000  0.97903576  0.78393172  1
  S  S16  1  0.25000000  0.13024931  0.97392811  1
  S  S17  1  0.75000000  0.36975069  0.47392811  1
  S  S18  1  0.25000000  0.63024931  0.52607189  1
  S  S19  1  0.75000000  0.86975069  0.02607189  1
  S  S20  1  0.25000000  0.20864547  0.67426856  1
  S  S21  1  0.75000000  0.29135453  0.17426856  1
  S  S22  1  0.25000000  0.70864547  0.82573144  1
  S  S23  1  0.75000000  0.79135453  0.32573144  1
  S  S24  1  0.25000000  0.41525688  0.92139468  1
  S  S25  1  0.75000000  0.08474312  0.42139468  1
  S  S26  1  0.25000000  0.91525688  0.57860532  1
  S  S27  1  0.75000000  0.58474312  0.07860532  1
