# generated using pymatgen
data_Rb2GeSe3
_symmetry_space_group_name_H-M   'P 1'
_cell_length_a   7.20477811
_cell_length_b   7.86801064
_cell_length_c   9.15984822
_cell_angle_alpha   72.06155268
_cell_angle_beta   66.84123170
_cell_angle_gamma   62.75137927
_symmetry_Int_Tables_number   1
_chemical_formula_structural   Rb2GeSe3
_chemical_formula_sum   'Rb4 Ge2 Se6'
_cell_volume   419.19606373
_cell_formula_units_Z   2
loop_
 _symmetry_equiv_pos_site_id
 _symmetry_equiv_pos_as_xyz
  1  'x, y, z'
loop_
 _atom_site_type_symbol
 _atom_site_label
 _atom_site_symmetry_multiplicity
 _atom_site_fract_x
 _atom_site_fract_y
 _atom_site_fract_z
 _atom_site_occupancy
  Rb  Rb0  1  0.81116553  0.55861867  0.81905027  1
  Rb  Rb1  1  0.18883447  0.44138133  0.18094973  1
  Rb  Rb2  1  0.58755306  0.19573581  0.62915907  1
  Rb  Rb3  1  0.41244694  0.80426419  0.37084093  1
  Ge  Ge4  1  0.88043832  0.05422146  0.18490290  1
  Ge  Ge5  1  0.11956168  0.94577854  0.81509710  1
  Se  Se6  1  0.29889192  0.62695733  0.77525883  1
  Se  Se7  1  0.70110808  0.37304267  0.22474117  1
  Se  Se8  1  0.24824097  -0.00000000  -0.00000000  1
  Se  Se9  1  0.75175903  0.00000000  0.00000000  1
  Se  Se10  1  0.88761166  0.81712876  0.40764792  1
  Se  Se11  1  0.11238834  0.18287124  0.59235208  1
