# generated using pymatgen
data_Na6P4W
_symmetry_space_group_name_H-M   'P 1'
_cell_length_a   9.10023576
_cell_length_b   9.10023700
_cell_length_c   7.13122511
_cell_angle_alpha   89.99997814
_cell_angle_beta   90.00001304
_cell_angle_gamma   120.00389430
_symmetry_Int_Tables_number   1
_chemical_formula_structural   Na6P4W
_chemical_formula_sum   'Na12 P8 W2'
_cell_volume   511.42632646
_cell_formula_units_Z   2
loop_
 _symmetry_equiv_pos_site_id
 _symmetry_equiv_pos_as_xyz
  1  'x, y, z'
loop_
 _atom_site_type_symbol
 _atom_site_label
 _atom_site_symmetry_multiplicity
 _atom_site_fract_x
 _atom_site_fract_y
 _atom_site_fract_z
 _atom_site_occupancy
  Na  Na0  1  0.14772215  0.29544390  0.28522505  1
  Na  Na1  1  0.85228219  0.14771763  0.78523602  1
  Na  Na2  1  0.53267344  0.46732596  0.10792620  1
  Na  Na3  1  0.06532593  0.53265119  0.60793567  1
  Na  Na4  1  0.46734836  0.93467456  0.60793537  1
  Na  Na5  1  0.53265110  0.06532544  0.10793589  1
  Na  Na6  1  0.93467451  0.46734920  0.10793522  1
  Na  Na7  1  0.46732618  0.53267412  0.60792664  1
  Na  Na8  1  0.14771815  0.85228232  0.28523549  1
  Na  Na9  1  0.70455613  0.85227736  0.28522495  1
  Na  Na10  1  0.85227805  0.70455616  0.78522527  1
  Na  Na11  1  0.29544342  0.14772149  0.78522487  1
  P  P12  1  0.80558172  0.61116169  0.39370607  1
  P  P13  1  0.38883785  0.19441809  0.39370566  1
  P  P14  1  0.33333365  0.66666691  0.31840181  1
  P  P15  1  0.66666645  0.33333329  0.81840232  1
  P  P16  1  0.80557799  0.19442215  0.39370894  1
  P  P17  1  0.19442177  0.80557746  0.89370813  1
  P  P18  1  0.19441915  0.38883858  0.89370669  1
  P  P19  1  0.61116216  0.80558248  0.89370561  1
  W  W20  1  0.66666822  0.33333131  0.49589458  1
  W  W21  1  0.33333142  0.66666871  0.99589456  1
