# generated using pymatgen
data_RbSbF6
_symmetry_space_group_name_H-M   'P 1'
_cell_length_a   5.04621453
_cell_length_b   5.04621476
_cell_length_c   5.04621546
_cell_angle_alpha   96.83467720
_cell_angle_beta   96.83466614
_cell_angle_gamma   96.83466395
_symmetry_Int_Tables_number   1
_chemical_formula_structural   RbSbF6
_chemical_formula_sum   'Rb1 Sb1 F6'
_cell_volume   125.51739941
_cell_formula_units_Z   1
loop_
 _symmetry_equiv_pos_site_id
 _symmetry_equiv_pos_as_xyz
  1  'x, y, z'
loop_
 _atom_site_type_symbol
 _atom_site_label
 _atom_site_symmetry_multiplicity
 _atom_site_fract_x
 _atom_site_fract_y
 _atom_site_fract_z
 _atom_site_occupancy
  Rb  Rb0  1  0.50000000  0.50000000  0.50000000  1
  Sb  Sb1  1  0.00000000  -0.00000000  -0.00000000  1
  F  F2  1  0.20261545  0.31607388  0.92236736  1
  F  F3  1  0.31607388  0.92236736  0.20261545  1
  F  F4  1  0.07763264  0.79738455  0.68392612  1
  F  F5  1  0.68392612  0.07763264  0.79738455  1
  F  F6  1  0.79738455  0.68392612  0.07763264  1
  F  F7  1  0.92236736  0.20261545  0.31607388  1
