# generated using pymatgen
data_TiFeTe
_symmetry_space_group_name_H-M   'P 1'
_cell_length_a   4.13505529
_cell_length_b   4.13505525
_cell_length_c   4.13505516
_cell_angle_alpha   60.00000068
_cell_angle_beta   60.00000101
_cell_angle_gamma   60.00005531
_symmetry_Int_Tables_number   1
_chemical_formula_structural   TiFeTe
_chemical_formula_sum   'Ti1 Fe1 Te1'
_cell_volume   49.99529476
_cell_formula_units_Z   1
loop_
 _symmetry_equiv_pos_site_id
 _symmetry_equiv_pos_as_xyz
  1  'x, y, z'
loop_
 _atom_site_type_symbol
 _atom_site_label
 _atom_site_symmetry_multiplicity
 _atom_site_fract_x
 _atom_site_fract_y
 _atom_site_fract_z
 _atom_site_occupancy
  Ti  Ti0  1  0.50000000  0.50000000  0.50000000  1
  Fe  Fe1  1  0.25000000  0.25000000  0.25000000  1
  Te  Te2  1  0.00000000  -0.00000000  -0.00000000  1
