# generated using pymatgen
data_Sr2LiTaN3F
_symmetry_space_group_name_H-M   'P 1'
_cell_length_a   5.61215783
_cell_length_b   10.77981948
_cell_length_c   15.87938463
_cell_angle_alpha   90.00000000
_cell_angle_beta   90.00000000
_cell_angle_gamma   90.00000000
_symmetry_Int_Tables_number   1
_chemical_formula_structural   Sr2LiTaN3F
_chemical_formula_sum   'Sr16 Li8 Ta8 N24 F8'
_cell_volume   960.67177833
_cell_formula_units_Z   8
loop_
 _symmetry_equiv_pos_site_id
 _symmetry_equiv_pos_as_xyz
  1  'x, y, z'
loop_
 _atom_site_type_symbol
 _atom_site_label
 _atom_site_symmetry_multiplicity
 _atom_site_fract_x
 _atom_site_fract_y
 _atom_site_fract_z
 _atom_site_occupancy
  Sr  Sr0  1  0.78175042  0.86896182  0.71496064  1
  Sr  Sr1  1  0.21824958  0.63103818  0.21496064  1
  Sr  Sr2  1  0.71824958  0.36896182  0.28503936  1
  Sr  Sr3  1  0.28175042  0.13103818  0.78503936  1
  Sr  Sr4  1  0.21824958  0.13103818  0.28503936  1
  Sr  Sr5  1  0.78175042  0.36896182  0.78503936  1
  Sr  Sr6  1  0.28175042  0.63103818  0.71496064  1
  Sr  Sr7  1  0.71824958  0.86896182  0.21496064  1
  Sr  Sr8  1  0.70731812  0.05081051  0.41480101  1
  Sr  Sr9  1  0.29268188  0.44918949  0.91480101  1
  Sr  Sr10  1  0.79268188  0.55081051  0.58519899  1
  Sr  Sr11  1  0.20731812  0.94918949  0.08519899  1
  Sr  Sr12  1  0.29268188  0.94918949  0.58519899  1
  Sr  Sr13  1  0.70731812  0.55081051  0.08519899  1
  Sr  Sr14  1  0.20731812  0.44918949  0.41480101  1
  Sr  Sr15  1  0.79268188  0.05081051  0.91480101  1
  Li  Li16  1  0.21069454  0.16600595  0.47861345  1
  Li  Li17  1  0.78930546  0.33399405  0.97861345  1
  Li  Li18  1  0.28930546  0.66600595  0.52138655  1
  Li  Li19  1  0.71069454  0.83399405  0.02138655  1
  Li  Li20  1  0.78930546  0.83399405  0.52138655  1
  Li  Li21  1  0.21069454  0.66600595  0.02138655  1
  Li  Li22  1  0.71069454  0.33399405  0.47861345  1
  Li  Li23  1  0.28930546  0.16600595  0.97861345  1
  Ta  Ta24  1  0.83417211  0.15511090  0.63403633  1
  Ta  Ta25  1  0.16582789  0.34488910  0.13403633  1
  Ta  Ta26  1  0.66582789  0.65511090  0.36596367  1
  Ta  Ta27  1  0.33417211  0.84488910  0.86596367  1
  Ta  Ta28  1  0.16582789  0.84488910  0.36596367  1
  Ta  Ta29  1  0.83417211  0.65511090  0.86596367  1
  Ta  Ta30  1  0.33417211  0.34488910  0.63403633  1
  Ta  Ta31  1  0.66582789  0.15511090  0.13403633  1
  N  N32  1  0.80625855  0.11814386  0.75135939  1
  N  N33  1  0.19374145  0.38185614  0.25135939  1
  N  N34  1  0.69374145  0.61814386  0.24864061  1
  N  N35  1  0.30625855  0.88185614  0.74864061  1
  N  N36  1  0.19374145  0.88185614  0.24864061  1
  N  N37  1  0.80625855  0.61814386  0.74864061  1
  N  N38  1  0.30625855  0.38185614  0.75135939  1
  N  N39  1  0.69374145  0.11814386  0.25135939  1
  N  N40  1  0.74892308  0.00554542  0.57543943  1
  N  N41  1  0.25107692  0.49445458  0.07543943  1
  N  N42  1  0.75107692  0.50554542  0.42456057  1
  N  N43  1  0.24892308  0.99445458  0.92456057  1
  N  N44  1  0.25107692  0.99445458  0.42456057  1
  N  N45  1  0.74892308  0.50554542  0.92456057  1
  N  N46  1  0.24892308  0.49445458  0.57543943  1
  N  N47  1  0.75107692  0.00554542  0.07543943  1
  N  N48  1  0.17766816  0.18017128  0.61136766  1
  N  N49  1  0.82233184  0.31982872  0.11136766  1
  N  N50  1  0.32233184  0.68017128  0.38863234  1
  N  N51  1  0.67766816  0.81982872  0.88863234  1
  N  N52  1  0.82233184  0.81982872  0.38863234  1
  N  N53  1  0.17766816  0.68017128  0.88863234  1
  N  N54  1  0.67766816  0.31982872  0.61136766  1
  N  N55  1  0.32233184  0.18017128  0.11136766  1
  F  F56  1  0.96005554  0.24517768  0.41864980  1
  F  F57  1  0.03994446  0.25482232  0.91864980  1
  F  F58  1  0.53994446  0.74517768  0.58135020  1
  F  F59  1  0.46005554  0.75482232  0.08135020  1
  F  F60  1  0.03994446  0.75482232  0.58135020  1
  F  F61  1  0.96005554  0.74517768  0.08135020  1
  F  F62  1  0.46005554  0.25482232  0.41864980  1
  F  F63  1  0.53994446  0.24517768  0.91864980  1
