# generated using pymatgen
data_AlTlS2
_symmetry_space_group_name_H-M   'P 1'
_cell_length_a   7.29505613
_cell_length_b   7.29505613
_cell_length_c   15.26231157
_cell_angle_alpha   83.12363145
_cell_angle_beta   83.12363145
_cell_angle_gamma   89.95337545
_symmetry_Int_Tables_number   1
_chemical_formula_structural   AlTlS2
_chemical_formula_sum   'Al8 Tl8 S16'
_cell_volume   800.50900030
_cell_formula_units_Z   8
loop_
 _symmetry_equiv_pos_site_id
 _symmetry_equiv_pos_as_xyz
  1  'x, y, z'
loop_
 _atom_site_type_symbol
 _atom_site_label
 _atom_site_symmetry_multiplicity
 _atom_site_fract_x
 _atom_site_fract_y
 _atom_site_fract_z
 _atom_site_occupancy
  Al  Al0  1  0.41831438  0.29214982  0.33720656  1
  Al  Al1  1  0.70785018  0.58168562  0.16279344  1
  Al  Al2  1  0.58168562  0.70785018  0.66279344  1
  Al  Al3  1  0.29214982  0.41831438  0.83720656  1
  Al  Al4  1  0.70782095  0.08803922  0.16397913  1
  Al  Al5  1  0.91196078  0.29217905  0.33602087  1
  Al  Al6  1  0.29217905  0.91196078  0.83602087  1
  Al  Al7  1  0.08803922  0.70782095  0.66397913  1
  Tl  Tl8  1  0.65248352  0.78158705  0.38590682  1
  Tl  Tl9  1  0.21841295  0.34751648  0.11409318  1
  Tl  Tl10  1  0.34751648  0.21841295  0.61409318  1
  Tl  Tl11  1  0.78158705  0.65248352  0.88590682  1
  Tl  Tl12  1  0.22733788  0.85039862  0.11144130  1
  Tl  Tl13  1  0.14960138  0.77266212  0.38855870  1
  Tl  Tl14  1  0.77266212  0.14960138  0.88855870  1
  Tl  Tl15  1  0.85039862  0.22733788  0.61144130  1
  S  S16  1  0.43425528  0.06054854  0.25119827  1
  S  S17  1  0.93945146  0.56574472  0.24880173  1
  S  S18  1  0.56574472  0.93945146  0.74880173  1
  S  S19  1  0.06054854  0.43425528  0.75119827  1
  S  S20  1  0.43437148  0.56562852  0.25000000  1
  S  S21  1  0.56562852  0.43437148  0.75000000  1
  S  S22  1  0.93958208  0.06041792  0.25000000  1
  S  S23  1  0.06041792  0.93958208  0.75000000  1
  S  S24  1  0.72657664  0.85727376  0.07722492  1
  S  S25  1  0.14272624  0.27342336  0.42277508  1
  S  S26  1  0.27342336  0.14272624  0.92277508  1
  S  S27  1  0.85727376  0.72657664  0.57722492  1
  S  S28  1  0.64360815  0.26991346  0.42681759  1
  S  S29  1  0.73008654  0.35639185  0.07318241  1
  S  S30  1  0.35639185  0.73008654  0.57318241  1
  S  S31  1  0.26991346  0.64360815  0.92681759  1
