# generated using pymatgen
data_SmTlS2
_symmetry_space_group_name_H-M   'P 1'
_cell_length_a   4.11338595
_cell_length_b   4.11338546
_cell_length_c   7.84983425
_cell_angle_alpha   74.81095831
_cell_angle_beta   74.81095769
_cell_angle_gamma   60.00000394
_symmetry_Int_Tables_number   1
_chemical_formula_structural   SmTlS2
_chemical_formula_sum   'Sm1 Tl1 S2'
_cell_volume   109.63409705
_cell_formula_units_Z   1
loop_
 _symmetry_equiv_pos_site_id
 _symmetry_equiv_pos_as_xyz
  1  'x, y, z'
loop_
 _atom_site_type_symbol
 _atom_site_label
 _atom_site_symmetry_multiplicity
 _atom_site_fract_x
 _atom_site_fract_y
 _atom_site_fract_z
 _atom_site_occupancy
  Sm  Sm0  1  0.00000000  0.00000000  -0.00000000  1
  Tl  Tl1  1  0.50000000  0.50000000  0.50000000  1
  S  S2  1  0.73420375  0.73420375  0.79739174  1
  S  S3  1  0.26579625  0.26579625  0.20260826  1
