# generated using pymatgen
data_Sr(AsO3)2
_symmetry_space_group_name_H-M   'P 1'
_cell_length_a   4.87429897
_cell_length_b   4.87429854
_cell_length_c   10.90272324
_cell_angle_alpha   90.00000000
_cell_angle_beta   90.00000000
_cell_angle_gamma   120.00001140
_symmetry_Int_Tables_number   1
_chemical_formula_structural   Sr(AsO3)2
_chemical_formula_sum   'Sr2 As4 O12'
_cell_volume   224.33129265
_cell_formula_units_Z   2
loop_
 _symmetry_equiv_pos_site_id
 _symmetry_equiv_pos_as_xyz
  1  'x, y, z'
loop_
 _atom_site_type_symbol
 _atom_site_label
 _atom_site_symmetry_multiplicity
 _atom_site_fract_x
 _atom_site_fract_y
 _atom_site_fract_z
 _atom_site_occupancy
  Sr  Sr0  1  0.00000007  0.00000007  0.24999984  1
  Sr  Sr1  1  -0.00000007  -0.00000007  0.74999984  1
  As  As2  1  0.66667751  0.33334510  -0.00000025  1
  As  As3  1  0.33334710  0.66667951  -0.00000025  1
  As  As4  1  0.66665490  0.33332249  0.49999975  1
  As  As5  1  0.33332049  0.66665490  0.49999975  1
  O  O6  1  0.61672955  0.61672955  0.09529436  1
  O  O7  1  0.38328461  0.00000728  0.09529470  1
  O  O8  1  0.00000728  0.38328661  0.09529470  1
  O  O9  1  0.61671438  0.61671338  0.40470475  1
  O  O10  1  0.38326925  0.99998993  0.40470507  1
  O  O11  1  0.99999293  0.38327225  0.40470507  1
  O  O12  1  0.61671339  0.99999072  0.59529470  1
  O  O13  1  0.38327045  0.38327045  0.59529536  1
  O  O14  1  0.99999272  0.61671539  0.59529470  1
  O  O15  1  0.38328562  0.38328662  0.90470475  1
  O  O16  1  0.61672975  0.00000707  0.90470407  1
  O  O17  1  0.00000707  0.61672975  0.90470407  1
