# generated using pymatgen
data_RbGaH2
_symmetry_space_group_name_H-M   'P 1'
_cell_length_a   7.41206702
_cell_length_b   4.48399241
_cell_length_c   9.44913496
_cell_angle_alpha   90.00000000
_cell_angle_beta   90.00000000
_cell_angle_gamma   90.00000000
_symmetry_Int_Tables_number   1
_chemical_formula_structural   RbGaH2
_chemical_formula_sum   'Rb4 Ga4 H8'
_cell_volume   314.04816369
_cell_formula_units_Z   4
loop_
 _symmetry_equiv_pos_site_id
 _symmetry_equiv_pos_as_xyz
  1  'x, y, z'
loop_
 _atom_site_type_symbol
 _atom_site_label
 _atom_site_symmetry_multiplicity
 _atom_site_fract_x
 _atom_site_fract_y
 _atom_site_fract_z
 _atom_site_occupancy
  Rb  Rb0  1  0.38026538  0.24999900  0.17373440  1
  Rb  Rb1  1  0.88026538  0.24999900  0.32626460  1
  Rb  Rb2  1  0.11973462  0.74999900  0.67373540  1
  Rb  Rb3  1  0.61973462  0.74999900  0.82626460  1
  Ga  Ga4  1  0.06371579  0.74999900  0.03413796  1
  Ga  Ga5  1  0.56371579  0.74999900  0.46586104  1
  Ga  Ga6  1  0.43628421  0.24999900  0.53413896  1
  Ga  Ga7  1  0.93628421  0.24999900  0.96586104  1
  H  H8  1  0.72199817  0.24999900  0.01831457  1
  H  H9  1  0.10331245  0.74999900  0.20584957  1
  H  H10  1  0.60331245  0.74999900  0.29415043  1
  H  H11  1  0.22199817  0.24999900  0.48168543  1
  H  H12  1  0.77800283  0.74999900  0.51831457  1
  H  H13  1  0.39668755  0.24999900  0.70584957  1
  H  H14  1  0.89668855  0.24999900  0.79415043  1
  H  H15  1  0.27800283  0.74999900  0.98168643  1
