# generated using pymatgen
data_K2AsAuS4
_symmetry_space_group_name_H-M   'P 1'
_cell_length_a   6.93280871
_cell_length_b   6.61767417
_cell_length_c   9.58799398
_cell_angle_alpha   87.05264167
_cell_angle_beta   90.00000000
_cell_angle_gamma   90.00000000
_symmetry_Int_Tables_number   1
_chemical_formula_structural   K2AsAuS4
_chemical_formula_sum   'K4 As2 Au2 S8'
_cell_volume   439.30635330
_cell_formula_units_Z   2
loop_
 _symmetry_equiv_pos_site_id
 _symmetry_equiv_pos_as_xyz
  1  'x, y, z'
loop_
 _atom_site_type_symbol
 _atom_site_label
 _atom_site_symmetry_multiplicity
 _atom_site_fract_x
 _atom_site_fract_y
 _atom_site_fract_z
 _atom_site_occupancy
  K  K0  1  0.25000000  0.79964334  0.53478438  1
  K  K1  1  0.75000000  0.52900715  0.83877135  1
  K  K2  1  0.75000000  0.20035666  0.46521562  1
  K  K3  1  0.25000000  0.47099285  0.16122865  1
  As  As4  1  0.75000000  0.72630654  0.28094415  1
  As  As5  1  0.25000000  0.27369346  0.71905585  1
  Au  Au6  1  -0.00000000  -0.00000000  -0.00000000  1
  Au  Au7  1  0.50000000  -0.00000000  -0.00000000  1
  S  S8  1  0.25000000  0.30610651  0.49601354  1
  S  S9  1  0.75000000  0.69389349  0.50398646  1
  S  S10  1  0.25000000  0.54806405  0.82720398  1
  S  S11  1  0.75000000  0.45193595  0.17279602  1
  S  S12  1  0.51209812  0.09274518  0.76607926  1
  S  S13  1  0.98790188  0.09274518  0.76607926  1
  S  S14  1  0.48790188  0.90725482  0.23392074  1
  S  S15  1  0.01209812  0.90725482  0.23392074  1
