# generated using pymatgen
data_CsNdS2
_symmetry_space_group_name_H-M   'P 1'
_cell_length_a   8.47414155
_cell_length_b   8.47414158
_cell_length_c   8.47414186
_cell_angle_alpha   28.92025127
_cell_angle_beta   28.92024987
_cell_angle_gamma   28.92024997
_symmetry_Int_Tables_number   1
_chemical_formula_structural   CsNdS2
_chemical_formula_sum   'Cs1 Nd1 S2'
_cell_volume   125.86019524
_cell_formula_units_Z   1
loop_
 _symmetry_equiv_pos_site_id
 _symmetry_equiv_pos_as_xyz
  1  'x, y, z'
loop_
 _atom_site_type_symbol
 _atom_site_label
 _atom_site_symmetry_multiplicity
 _atom_site_fract_x
 _atom_site_fract_y
 _atom_site_fract_z
 _atom_site_occupancy
  Cs  Cs0  1  0.00000000  0.00000000  -0.00000000  1
  Nd  Nd1  1  0.50000000  0.50000000  0.50000000  1
  S  S2  1  0.77102832  0.77102832  0.77102832  1
  S  S3  1  0.22897068  0.22897068  0.22897068  1
