# generated using pymatgen
data_TiO2
_symmetry_space_group_name_H-M   'P 1'
_cell_length_a   2.96623767
_cell_length_b   4.88060049
_cell_length_c   9.45962772
_cell_angle_alpha   90.00000000
_cell_angle_beta   90.00000000
_cell_angle_gamma   90.00000000
_symmetry_Int_Tables_number   1
_chemical_formula_structural   TiO2
_chemical_formula_sum   'Ti4 O8'
_cell_volume   136.94722940
_cell_formula_units_Z   4
loop_
 _symmetry_equiv_pos_site_id
 _symmetry_equiv_pos_as_xyz
  1  'x, y, z'
loop_
 _atom_site_type_symbol
 _atom_site_label
 _atom_site_symmetry_multiplicity
 _atom_site_fract_x
 _atom_site_fract_y
 _atom_site_fract_z
 _atom_site_occupancy
  Ti  Ti0  1  0.25000000  0.57140664  0.63679105  1
  Ti  Ti1  1  0.75000000  0.42859336  0.36320895  1
  Ti  Ti2  1  0.75000000  0.07140664  0.86320895  1
  Ti  Ti3  1  0.25000000  0.92859336  0.13679105  1
  O  O4  1  0.25000000  0.29436994  0.47104498  1
  O  O5  1  0.75000000  0.70563006  0.52895502  1
  O  O6  1  0.75000000  0.79436994  0.02895502  1
  O  O7  1  0.25000000  0.20563006  0.97104498  1
  O  O8  1  0.25000000  0.63662486  0.26775868  1
  O  O9  1  0.75000000  0.36337514  0.73224132  1
  O  O10  1  0.75000000  0.13662486  0.23224132  1
  O  O11  1  0.25000000  0.86337514  0.76775868  1
