# generated using pymatgen
data_Sr2Si5N8
_symmetry_space_group_name_H-M   'P 1'
_cell_length_a   5.70778879
_cell_length_b   6.83934074
_cell_length_c   9.33061690
_cell_angle_alpha   90.00000000
_cell_angle_beta   90.00000000
_cell_angle_gamma   90.00000000
_symmetry_Int_Tables_number   1
_chemical_formula_structural   Sr2Si5N8
_chemical_formula_sum   'Sr4 Si10 N16'
_cell_volume   364.24407300
_cell_formula_units_Z   2
loop_
 _symmetry_equiv_pos_site_id
 _symmetry_equiv_pos_as_xyz
  1  'x, y, z'
loop_
 _atom_site_type_symbol
 _atom_site_label
 _atom_site_symmetry_multiplicity
 _atom_site_fract_x
 _atom_site_fract_y
 _atom_site_fract_z
 _atom_site_occupancy
  Sr  Sr0  1  0.50000000  0.11747304  0.86813549  1
  Sr  Sr1  1  0.00000000  0.88252696  0.36813549  1
  Sr  Sr2  1  0.50000000  0.12880134  0.49983514  1
  Sr  Sr3  1  0.00000000  0.87119866  0.99983514  1
  Si  Si4  1  0.50000000  0.59811487  0.40189835  1
  Si  Si5  1  0.00000000  0.40188513  0.90189835  1
  Si  Si6  1  0.50000000  0.58008637  0.96115495  1
  Si  Si7  1  0.00000000  0.41991363  0.46115495  1
  Si  Si8  1  0.50000000  0.94526150  0.17747353  1
  Si  Si9  1  0.00000000  0.05473850  0.67747353  1
  Si  Si10  1  0.75172925  0.33278664  0.18295082  1
  Si  Si11  1  0.74827075  0.66721336  0.68295082  1
  Si  Si12  1  0.24827075  0.33278664  0.18295082  1
  Si  Si13  1  0.25172925  0.66721336  0.68295082  1
  N  N14  1  0.50000000  0.57472054  0.77174627  1
  N  N15  1  0.00000000  0.42527946  0.27174627  1
  N  N16  1  0.50000000  0.82508155  0.33800356  1
  N  N17  1  0.00000000  0.17491845  0.83800356  1
  N  N18  1  0.50000000  0.41405770  0.27320201  1
  N  N19  1  0.00000000  0.58594230  0.77320201  1
  N  N20  1  0.74936208  0.55590683  0.51102279  1
  N  N21  1  0.75063792  0.44409317  0.01102279  1
  N  N22  1  0.25063792  0.55590683  0.51102279  1
  N  N23  1  0.24936208  0.44409317  0.01102279  1
  N  N24  1  0.74704907  0.08733754  0.17186938  1
  N  N25  1  0.75295093  0.91266246  0.67186938  1
  N  N26  1  0.25295093  0.08733754  0.17186938  1
  N  N27  1  0.24704907  0.91266246  0.67186938  1
  N  N28  1  0.00000000  0.19092380  0.52221572  1
  N  N29  1  0.50000000  0.80907620  0.02221572  1
