# generated using pymatgen
data_Tm2S3
_symmetry_space_group_name_H-M   'P 1'
_cell_length_a   3.79536446
_cell_length_b   10.38286421
_cell_length_c   10.46119607
_cell_angle_alpha   90.00000000
_cell_angle_beta   90.00000000
_cell_angle_gamma   90.00000000
_symmetry_Int_Tables_number   1
_chemical_formula_structural   Tm2S3
_chemical_formula_sum   'Tm8 S12'
_cell_volume   412.24177815
_cell_formula_units_Z   4
loop_
 _symmetry_equiv_pos_site_id
 _symmetry_equiv_pos_as_xyz
  1  'x, y, z'
loop_
 _atom_site_type_symbol
 _atom_site_label
 _atom_site_symmetry_multiplicity
 _atom_site_fract_x
 _atom_site_fract_y
 _atom_site_fract_z
 _atom_site_occupancy
  Tm  Tm0  1  0.25000000  0.99586714  0.80831344  1
  Tm  Tm1  1  0.75000000  0.68702618  0.01042151  1
  Tm  Tm2  1  0.25000000  0.31297382  0.98957849  1
  Tm  Tm3  1  0.75000000  0.81297382  0.51042151  1
  Tm  Tm4  1  0.75000000  0.49586714  0.69168656  1
  Tm  Tm5  1  0.75000000  0.00413286  0.19168656  1
  Tm  Tm6  1  0.25000000  0.18702618  0.48957849  1
  Tm  Tm7  1  0.25000000  0.50413286  0.30831344  1
  S  S8  1  0.75000000  0.44426906  0.11841614  1
  S  S9  1  0.25000000  0.94426906  0.38158386  1
  S  S10  1  0.75000000  0.05573094  0.61841614  1
  S  S11  1  0.25000000  0.55573094  0.88158386  1
  S  S12  1  0.75000000  0.80646982  0.77340984  1
  S  S13  1  0.75000000  0.37298838  0.45379602  1
  S  S14  1  0.25000000  0.62701162  0.54620398  1
  S  S15  1  0.25000000  0.19353018  0.22659016  1
  S  S16  1  0.25000000  0.30646982  0.72659016  1
  S  S17  1  0.25000000  0.87298838  0.04620398  1
  S  S18  1  0.75000000  0.69353018  0.27340984  1
  S  S19  1  0.75000000  0.12701162  0.95379602  1
