# generated using pymatgen
data_Re2S2O13
_symmetry_space_group_name_H-M   'P 1'
_cell_length_a   6.01135661
_cell_length_b   8.41402598
_cell_length_c   9.63763270
_cell_angle_alpha   90.00000000
_cell_angle_beta   90.00000000
_cell_angle_gamma   90.00000000
_symmetry_Int_Tables_number   1
_chemical_formula_structural   Re2S2O13
_chemical_formula_sum   'Re4 S4 O26'
_cell_volume   487.46867372
_cell_formula_units_Z   2
loop_
 _symmetry_equiv_pos_site_id
 _symmetry_equiv_pos_as_xyz
  1  'x, y, z'
loop_
 _atom_site_type_symbol
 _atom_site_label
 _atom_site_symmetry_multiplicity
 _atom_site_fract_x
 _atom_site_fract_y
 _atom_site_fract_z
 _atom_site_occupancy
  Re  Re0  1  0.96314323  0.18074056  0.60569657  1
  Re  Re1  1  0.96314323  0.81925944  0.39430343  1
  Re  Re2  1  0.96314323  0.68074056  0.89430343  1
  Re  Re3  1  0.96314323  0.31925944  0.10569657  1
  S  S4  1  0.29064206  0.36697164  0.82151253  1
  S  S5  1  0.29064206  0.63302836  0.17848747  1
  S  S6  1  0.29064206  0.86697164  0.67848747  1
  S  S7  1  0.29064206  0.13302836  0.32151253  1
  O  O8  1  0.15548457  0.34250924  0.68506848  1
  O  O9  1  0.15548457  0.65749076  0.31493152  1
  O  O10  1  0.15548457  0.84250924  0.81493152  1
  O  O11  1  0.15548457  0.15749076  0.18506848  1
  O  O12  1  0.17329271  0.27083203  0.92727107  1
  O  O13  1  0.17329271  0.72916797  0.07272893  1
  O  O14  1  0.17329271  0.77083203  0.57272893  1
  O  O15  1  0.17329271  0.22916797  0.42727107  1
  O  O16  1  0.26189249  0.53780208  0.85058831  1
  O  O17  1  0.26189249  0.46219792  0.14941169  1
  O  O18  1  0.26189249  0.03780208  0.64941169  1
  O  O19  1  0.26189249  0.96219792  0.35058831  1
  O  O20  1  0.51445902  0.32380654  0.80102787  1
  O  O21  1  0.51445902  0.67619346  0.19897213  1
  O  O22  1  0.51445902  0.82380654  0.69897213  1
  O  O23  1  0.51445902  0.17619346  0.30102787  1
  O  O24  1  0.88674117  -0.00000000  0.50000000  1
  O  O25  1  0.88674117  0.50000000  -0.00000000  1
  O  O26  1  0.85559492  0.11537947  0.75776112  1
  O  O27  1  0.85559492  0.88462053  0.24223888  1
  O  O28  1  0.85559492  0.61537947  0.74223888  1
  O  O29  1  0.85559492  0.38462053  0.25776112  1
  O  O30  1  0.76722092  0.30755409  0.54511845  1
  O  O31  1  0.76722092  0.69244591  0.45488155  1
  O  O32  1  0.76722092  0.80755409  0.95488155  1
  O  O33  1  0.76722092  0.19244591  0.04511845  1
