# generated using pymatgen
data_Sr(BO2)2
_symmetry_space_group_name_H-M   'P 1'
_cell_length_a   4.34803074
_cell_length_b   6.56867503
_cell_length_c   12.05384592
_cell_angle_alpha   90.00000000
_cell_angle_beta   90.00000000
_cell_angle_gamma   90.00000000
_symmetry_Int_Tables_number   1
_chemical_formula_structural   Sr(BO2)2
_chemical_formula_sum   'Sr4 B8 O16'
_cell_volume   344.26749402
_cell_formula_units_Z   4
loop_
 _symmetry_equiv_pos_site_id
 _symmetry_equiv_pos_as_xyz
  1  'x, y, z'
loop_
 _atom_site_type_symbol
 _atom_site_label
 _atom_site_symmetry_multiplicity
 _atom_site_fract_x
 _atom_site_fract_y
 _atom_site_fract_z
 _atom_site_occupancy
  Sr  Sr0  1  0.23851325  0.25000000  0.00000000  1
  Sr  Sr1  1  0.26148675  0.75000000  0.50000000  1
  Sr  Sr2  1  0.76148675  0.75000000  0.00000000  1
  Sr  Sr3  1  0.73851325  0.25000000  0.50000000  1
  B  B4  1  0.67059666  0.37426607  0.80580380  1
  B  B5  1  0.67059666  0.12573393  0.19419620  1
  B  B6  1  0.82940334  0.87426607  0.69419620  1
  B  B7  1  0.82940334  0.62573393  0.30580380  1
  B  B8  1  0.17059666  0.12573393  0.30580380  1
  B  B9  1  0.17059666  0.37426607  0.69419620  1
  B  B10  1  0.32940334  0.62573393  0.19419620  1
  B  B11  1  0.32940334  0.87426607  0.80580380  1
  O  O12  1  0.23556340  0.59422198  0.09088697  1
  O  O13  1  0.73556340  0.90577802  0.59088697  1
  O  O14  1  0.76443660  0.09422198  0.09088697  1
  O  O15  1  0.73556340  0.59422198  0.40911303  1
  O  O16  1  0.85157844  0.35348043  0.71135255  1
  O  O17  1  0.85157844  0.14651957  0.28864745  1
  O  O18  1  0.64842156  0.85348043  0.78864745  1
  O  O19  1  0.64842156  0.64651957  0.21135255  1
  O  O20  1  0.14842156  0.64651957  0.28864745  1
  O  O21  1  0.14842156  0.85348043  0.71135255  1
  O  O22  1  0.35157844  0.14651957  0.21135255  1
  O  O23  1  0.35157844  0.35348043  0.78864745  1
  O  O24  1  0.26443660  0.09422198  0.40911303  1
  O  O25  1  0.26443660  0.40577802  0.59088697  1
  O  O26  1  0.76443660  0.40577802  0.90911303  1
  O  O27  1  0.23556340  0.90577802  0.90911303  1
