# generated using pymatgen
data_K3SbS4
_symmetry_space_group_name_H-M   'P 1'
_cell_length_a   7.73264606
_cell_length_b   7.82517503
_cell_length_c   7.82517451
_cell_angle_alpha   93.77463461
_cell_angle_beta   90.00000000
_cell_angle_gamma   90.00000000
_symmetry_Int_Tables_number   1
_chemical_formula_structural   K3SbS4
_chemical_formula_sum   'K6 Sb2 S8'
_cell_volume   472.46875155
_cell_formula_units_Z   2
loop_
 _symmetry_equiv_pos_site_id
 _symmetry_equiv_pos_as_xyz
  1  'x, y, z'
loop_
 _atom_site_type_symbol
 _atom_site_label
 _atom_site_symmetry_multiplicity
 _atom_site_fract_x
 _atom_site_fract_y
 _atom_site_fract_z
 _atom_site_occupancy
  K  K0  1  0.01989948  0.30268227  0.69731773  1
  K  K1  1  0.51989948  0.69731773  0.30268227  1
  K  K2  1  0.51309234  0.18544714  0.25547730  1
  K  K3  1  0.01309234  0.81455286  0.74452270  1
  K  K4  1  0.51309234  0.74452270  0.81455286  1
  K  K5  1  0.01309234  0.25547730  0.18544714  1
  Sb  Sb6  1  0.51846435  0.24277593  0.75722407  1
  Sb  Sb7  1  0.01846435  0.75722407  0.24277593  1
  S  S8  1  0.15732822  0.57367665  0.42632335  1
  S  S9  1  0.65732822  0.42632335  0.57367665  1
  S  S10  1  0.22662306  0.90774945  0.09225055  1
  S  S11  1  0.72662306  0.09225055  0.90774945  1
  S  S12  1  0.84464960  0.95330723  0.40520936  1
  S  S13  1  0.34464860  0.04669277  0.59479064  1
  S  S14  1  0.84464960  0.59479064  0.04669277  1
  S  S15  1  0.34464860  0.40520936  0.95330723  1
