# generated using pymatgen
data_Li3AsO4
_symmetry_space_group_name_H-M   'P 1'
_cell_length_a   4.93826455
_cell_length_b   5.36614120
_cell_length_c   6.23230298
_cell_angle_alpha   90.00000000
_cell_angle_beta   90.00000000
_cell_angle_gamma   90.00000000
_symmetry_Int_Tables_number   1
_chemical_formula_structural   Li3AsO4
_chemical_formula_sum   'Li6 As2 O8'
_cell_volume   165.15244451
_cell_formula_units_Z   2
loop_
 _symmetry_equiv_pos_site_id
 _symmetry_equiv_pos_as_xyz
  1  'x, y, z'
loop_
 _atom_site_type_symbol
 _atom_site_label
 _atom_site_symmetry_multiplicity
 _atom_site_fract_x
 _atom_site_fract_y
 _atom_site_fract_z
 _atom_site_occupancy
  Li  Li0  1  0.00466892  0.16485011  0.50000000  1
  Li  Li1  1  0.50466892  0.83514989  -0.00000000  1
  Li  Li2  1  0.00413277  0.66908760  0.75231801  1
  Li  Li3  1  0.50413277  0.33091240  0.74768199  1
  Li  Li4  1  0.50413277  0.33091240  0.25231801  1
  Li  Li5  1  0.00413277  0.66908760  0.24768199  1
  As  As6  1  0.49746878  0.82979660  0.50000000  1
  As  As7  1  0.99746878  0.17020340  -0.00000000  1
  O  O8  1  0.65298771  0.17530454  -0.00000000  1
  O  O9  1  0.15298771  0.82469546  0.50000000  1
  O  O10  1  0.11075361  0.32005785  0.77653933  1
  O  O11  1  0.61075361  0.67994215  0.72346067  1
  O  O12  1  0.61075361  0.67994215  0.27653933  1
  O  O13  1  0.11075361  0.32005785  0.22346067  1
  O  O14  1  0.10830283  0.86993720  -0.00000000  1
  O  O15  1  0.60830283  0.13006280  0.50000000  1
