# generated using pymatgen
data_Ba2Mg(BO3)2
_symmetry_space_group_name_H-M   'P 1'
_cell_length_a   6.33632278
_cell_length_b   6.33632278
_cell_length_c   6.33632308
_cell_angle_alpha   50.16731695
_cell_angle_beta   50.16731695
_cell_angle_gamma   50.16731681
_symmetry_Int_Tables_number   1
_chemical_formula_structural   Ba2Mg(BO3)2
_chemical_formula_sum   'Ba2 Mg1 B2 O6'
_cell_volume   138.10987776
_cell_formula_units_Z   1
loop_
 _symmetry_equiv_pos_site_id
 _symmetry_equiv_pos_as_xyz
  1  'x, y, z'
loop_
 _atom_site_type_symbol
 _atom_site_label
 _atom_site_symmetry_multiplicity
 _atom_site_fract_x
 _atom_site_fract_y
 _atom_site_fract_z
 _atom_site_occupancy
  Ba  Ba0  1  0.77644098  0.77644098  0.77644098  1
  Ba  Ba1  1  0.22355902  0.22355902  0.22355902  1
  Mg  Mg2  1  -0.00000000  0.00000000  0.00000000  1
  B  B3  1  0.41000980  0.41000980  0.41000980  1
  B  B4  1  0.58999020  0.58999020  0.58999020  1
  O  O5  1  0.74015700  0.29242818  0.74015700  1
  O  O6  1  0.74015700  0.74015700  0.29242818  1
  O  O7  1  0.29242818  0.74015700  0.74015700  1
  O  O8  1  0.70757182  0.25984300  0.25984300  1
  O  O9  1  0.25984300  0.25984300  0.70757182  1
  O  O10  1  0.25984300  0.70757182  0.25984300  1
