# generated using pymatgen
data_ZnAgF3
_symmetry_space_group_name_H-M   'P 1'
_cell_length_a   6.26751240
_cell_length_b   6.26751240
_cell_length_c   6.26751243
_cell_angle_alpha   51.09539145
_cell_angle_beta   51.09539134
_cell_angle_gamma   51.09540754
_symmetry_Int_Tables_number   1
_chemical_formula_structural   ZnAgF3
_chemical_formula_sum   'Zn2 Ag2 F6'
_cell_volume   137.55397762
_cell_formula_units_Z   2
loop_
 _symmetry_equiv_pos_site_id
 _symmetry_equiv_pos_as_xyz
  1  'x, y, z'
loop_
 _atom_site_type_symbol
 _atom_site_label
 _atom_site_symmetry_multiplicity
 _atom_site_fract_x
 _atom_site_fract_y
 _atom_site_fract_z
 _atom_site_occupancy
  Zn  Zn0  1  0.65941733  0.65941733  0.65941733  1
  Zn  Zn1  1  0.34058267  0.34058267  0.34058267  1
  Ag  Ag2  1  0.85689178  0.85689178  0.85689178  1
  Ag  Ag3  1  0.14310822  0.14310822  0.14310822  1
  F  F4  1  0.69213330  0.05967982  0.45798783  1
  F  F5  1  0.45798783  0.69213330  0.05967982  1
  F  F6  1  0.05967982  0.45798783  0.69213330  1
  F  F7  1  0.30786670  0.94032018  0.54201217  1
  F  F8  1  0.94032018  0.54201217  0.30786670  1
  F  F9  1  0.54201217  0.30786670  0.94032018  1
