# generated using pymatgen
data_KSe
_symmetry_space_group_name_H-M   'P 1'
_cell_length_a   8.93686956
_cell_length_b   8.93686980
_cell_length_c   6.05421182
_cell_angle_alpha   89.99999633
_cell_angle_beta   89.99998336
_cell_angle_gamma   120.00048007
_symmetry_Int_Tables_number   1
_chemical_formula_structural   KSe
_chemical_formula_sum   'K6 Se6'
_cell_volume   418.75209474
_cell_formula_units_Z   6
loop_
 _symmetry_equiv_pos_site_id
 _symmetry_equiv_pos_as_xyz
  1  'x, y, z'
loop_
 _atom_site_type_symbol
 _atom_site_label
 _atom_site_symmetry_multiplicity
 _atom_site_fract_x
 _atom_site_fract_y
 _atom_site_fract_z
 _atom_site_occupancy
  K  K0  1  0.64947010  0.00000000  -0.00000000  1
  K  K1  1  0.35052790  0.35052790  0.00000000  1
  K  K2  1  0.00000000  0.64947010  -0.00000000  1
  K  K3  1  0.31523676  0.00000100  0.50000000  1
  K  K4  1  0.68476424  0.68476424  0.50000000  1
  K  K5  1  0.00000100  0.31523676  0.50000000  1
  Se  Se6  1  0.00000000  0.00000000  0.19896903  1
  Se  Se7  1  -0.00000000  -0.00000000  0.80103097  1
  Se  Se8  1  0.33333300  0.66666700  0.30002218  1
  Se  Se9  1  0.33333300  0.66666700  0.69997782  1
  Se  Se10  1  0.66666700  0.33333300  0.69997782  1
  Se  Se11  1  0.66666700  0.33333300  0.30002218  1
