# generated using pymatgen
data_CaWN3
_symmetry_space_group_name_H-M   'P 1'
_cell_length_a   3.62999114
_cell_length_b   5.79694625
_cell_length_c   7.44986265
_cell_angle_alpha   105.76503973
_cell_angle_beta   104.10076840
_cell_angle_gamma   90.00000299
_symmetry_Int_Tables_number   1
_chemical_formula_structural   CaWN3
_chemical_formula_sum   'Ca2 W2 N6'
_cell_volume   145.95522033
_cell_formula_units_Z   2
loop_
 _symmetry_equiv_pos_site_id
 _symmetry_equiv_pos_as_xyz
  1  'x, y, z'
loop_
 _atom_site_type_symbol
 _atom_site_label
 _atom_site_symmetry_multiplicity
 _atom_site_fract_x
 _atom_site_fract_y
 _atom_site_fract_z
 _atom_site_occupancy
  Ca  Ca0  1  0.58976187  0.29086894  0.17952473  1
  Ca  Ca1  1  0.41023813  0.70913106  0.82047527  1
  W  W2  1  0.15691627  0.87458843  0.31383254  1
  W  W3  1  0.84308373  0.12541157  0.68616746  1
  N  N4  1  0.12984482  0.55555767  0.25968964  1
  N  N5  1  0.87015518  0.44444233  0.74031036  1
  N  N6  1  0.96551638  0.05603333  0.93103376  1
  N  N7  1  0.30819026  0.97917216  0.61637951  1
  N  N8  1  0.03448362  0.94396667  0.06896624  1
  N  N9  1  0.69180974  0.02082784  0.38362049  1
