# generated using pymatgen
data_Tl2Cr3O12
_symmetry_space_group_name_H-M   'P 1'
_cell_length_a   8.78576166
_cell_length_b   8.71654015
_cell_length_c   12.92627704
_cell_angle_alpha   90.00000000
_cell_angle_beta   90.00000000
_cell_angle_gamma   90.00000000
_symmetry_Int_Tables_number   1
_chemical_formula_structural   Tl2Cr3O12
_chemical_formula_sum   'Tl8 Cr12 O48'
_cell_volume   989.91296460
_cell_formula_units_Z   4
loop_
 _symmetry_equiv_pos_site_id
 _symmetry_equiv_pos_as_xyz
  1  'x, y, z'
loop_
 _atom_site_type_symbol
 _atom_site_label
 _atom_site_symmetry_multiplicity
 _atom_site_fract_x
 _atom_site_fract_y
 _atom_site_fract_z
 _atom_site_occupancy
  Tl  Tl0  1  0.60310952  0.74785948  0.40665069  1
  Tl  Tl1  1  0.10310952  0.75214052  0.09334931  1
  Tl  Tl2  1  0.89689048  0.74785948  0.59334931  1
  Tl  Tl3  1  0.39689048  0.75214052  0.90665069  1
  Tl  Tl4  1  0.39689048  0.25214052  0.59334931  1
  Tl  Tl5  1  0.89689048  0.24785948  0.90665069  1
  Tl  Tl6  1  0.10310952  0.25214052  0.40665069  1
  Tl  Tl7  1  0.60310952  0.24785948  0.09334931  1
  Cr  Cr8  1  0.75000000  0.10919521  0.50000000  1
  Cr  Cr9  1  0.25000000  0.39080479  -0.00000000  1
  Cr  Cr10  1  0.25000000  0.89080479  0.50000000  1
  Cr  Cr11  1  0.75000000  0.60919521  -0.00000000  1
  Cr  Cr12  1  0.97026595  0.11689820  0.16770214  1
  Cr  Cr13  1  0.47026595  0.38310180  0.33229786  1
  Cr  Cr14  1  0.52973405  0.11689820  0.83229786  1
  Cr  Cr15  1  0.02973405  0.38310180  0.66770214  1
  Cr  Cr16  1  0.02973405  0.88310180  0.83229786  1
  Cr  Cr17  1  0.52973405  0.61689820  0.66770214  1
  Cr  Cr18  1  0.47026595  0.88310180  0.16770214  1
  Cr  Cr19  1  0.97026595  0.61689820  0.33229786  1
  O  O20  1  0.64115435  0.50125456  0.07311504  1
  O  O21  1  0.14115435  -0.00125456  0.42688496  1
  O  O22  1  0.85884565  0.50125456  0.92688496  1
  O  O23  1  0.35884565  -0.00125456  0.57311504  1
  O  O24  1  0.35884565  0.49874544  0.92688496  1
  O  O25  1  0.85884565  0.00125456  0.57311504  1
  O  O26  1  0.14115435  0.49874544  0.07311504  1
  O  O27  1  0.64115435  0.00125456  0.42688496  1
  O  O28  1  0.41597317  0.00580717  0.90114866  1
  O  O29  1  0.91597317  0.49419283  0.59885134  1
  O  O30  1  0.08402683  0.00580717  0.09885134  1
  O  O31  1  0.58402683  0.49419283  0.40114866  1
  O  O32  1  0.58402683  0.99419283  0.09885134  1
  O  O33  1  0.08402683  0.50580717  0.40114866  1
  O  O34  1  0.91597317  0.99419283  0.90114866  1
  O  O35  1  0.41597317  0.50580717  0.59885134  1
  O  O36  1  0.64319006  0.72134375  0.92666198  1
  O  O37  1  0.35680994  0.27865625  0.07333802  1
  O  O38  1  0.14319006  0.27865625  0.92666198  1
  O  O39  1  0.64319006  0.22134375  0.57333802  1
  O  O40  1  0.64184408  0.72233116  0.58335346  1
  O  O41  1  0.14184408  0.77766884  0.91664654  1
  O  O42  1  0.85815592  0.72233116  0.41664654  1
  O  O43  1  0.35815592  0.77766884  0.08335346  1
  O  O44  1  0.35815592  0.27766884  0.41664654  1
  O  O45  1  0.85815592  0.22233116  0.08335346  1
  O  O46  1  0.14184408  0.27766884  0.58335346  1
  O  O47  1  0.64184408  0.22233116  0.91664654  1
  O  O48  1  0.63522167  0.01655846  0.76037995  1
  O  O49  1  0.13522167  0.48344154  0.73962005  1
  O  O50  1  0.86477833  0.01655846  0.23962005  1
  O  O51  1  0.36477833  0.48344154  0.26037995  1
  O  O52  1  0.36477833  0.98344154  0.23962005  1
  O  O53  1  0.86477833  0.51655846  0.26037995  1
  O  O54  1  0.13522167  0.98344154  0.76037995  1
  O  O55  1  0.63522167  0.51655846  0.73962005  1
  O  O56  1  0.42270718  0.73379079  0.73827154  1
  O  O57  1  0.92270718  0.76620921  0.76172846  1
  O  O58  1  0.07729282  0.73379079  0.26172846  1
  O  O59  1  0.57729282  0.76620921  0.23827154  1
  O  O60  1  0.57729282  0.26620921  0.26172846  1
  O  O61  1  0.07729282  0.23379079  0.23827154  1
  O  O62  1  0.92270718  0.26620921  0.73827154  1
  O  O63  1  0.42270718  0.23379079  0.76172846  1
  O  O64  1  0.35680994  0.77865625  0.42666198  1
  O  O65  1  0.85680994  0.72134375  0.07333802  1
  O  O66  1  0.14319006  0.77865625  0.57333802  1
  O  O67  1  0.85680994  0.22134375  0.42666198  1
