# generated using pymatgen
data_CaReN3
_symmetry_space_group_name_H-M   'P 1'
_cell_length_a   7.34344026
_cell_length_b   7.34344026
_cell_length_c   6.21403025
_cell_angle_alpha   75.07436504
_cell_angle_beta   75.07436504
_cell_angle_gamma   83.70051548
_symmetry_Int_Tables_number   1
_chemical_formula_structural   CaReN3
_chemical_formula_sum   'Ca4 Re4 N12'
_cell_volume   312.53017025
_cell_formula_units_Z   4
loop_
 _symmetry_equiv_pos_site_id
 _symmetry_equiv_pos_as_xyz
  1  'x, y, z'
loop_
 _atom_site_type_symbol
 _atom_site_label
 _atom_site_symmetry_multiplicity
 _atom_site_fract_x
 _atom_site_fract_y
 _atom_site_fract_z
 _atom_site_occupancy
  Ca  Ca0  1  0.91335173  0.08664827  0.75000000  1
  Ca  Ca1  1  0.30096835  0.69903165  0.75000000  1
  Ca  Ca2  1  0.08664827  0.91335173  0.25000000  1
  Ca  Ca3  1  0.69903165  0.30096835  0.25000000  1
  Re  Re4  1  0.62057999  0.79864632  0.26542673  1
  Re  Re5  1  0.20135368  0.37942001  0.23457327  1
  Re  Re6  1  0.37942001  0.20135368  0.73457327  1
  Re  Re7  1  0.79864632  0.62057999  0.76542673  1
  N  N8  1  0.35576536  0.34675369  0.95410781  1
  N  N9  1  0.01030951  0.22731338  0.33945631  1
  N  N10  1  0.77268662  0.98969049  0.16054369  1
  N  N11  1  0.22731338  0.01030951  0.83945631  1
  N  N12  1  0.64423464  0.65324631  0.04589219  1
  N  N13  1  0.88474604  0.38794916  0.83498645  1
  N  N14  1  0.11525396  0.61205084  0.16501355  1
  N  N15  1  0.98969049  0.77268662  0.66054369  1
  N  N16  1  0.38794916  0.88474604  0.33498645  1
  N  N17  1  0.65324631  0.64423464  0.54589219  1
  N  N18  1  0.61205084  0.11525396  0.66501355  1
  N  N19  1  0.34675369  0.35576536  0.45410781  1
