# generated using pymatgen
data_RbLuS2
_symmetry_space_group_name_H-M   'P 1'
_cell_length_a   7.96630398
_cell_length_b   7.96630398
_cell_length_c   7.96630369
_cell_angle_alpha   28.83582765
_cell_angle_beta   28.83582765
_cell_angle_gamma   28.83582131
_symmetry_Int_Tables_number   1
_chemical_formula_structural   RbLuS2
_chemical_formula_sum   'Rb1 Lu1 S2'
_cell_volume   103.99173983
_cell_formula_units_Z   1
loop_
 _symmetry_equiv_pos_site_id
 _symmetry_equiv_pos_as_xyz
  1  'x, y, z'
loop_
 _atom_site_type_symbol
 _atom_site_label
 _atom_site_symmetry_multiplicity
 _atom_site_fract_x
 _atom_site_fract_y
 _atom_site_fract_z
 _atom_site_occupancy
  Rb  Rb0  1  -0.00000000  -0.00000000  0.00000000  1
  Lu  Lu1  1  0.50000000  0.50000000  0.50000000  1
  S  S2  1  0.77044166  0.77044166  0.77044166  1
  S  S3  1  0.22955834  0.22955834  0.22955834  1
