# generated using pymatgen
data_WSCl4
_symmetry_space_group_name_H-M   'P 1'
_cell_length_a   6.69172390
_cell_length_b   7.57798481
_cell_length_c   7.68460799
_cell_angle_alpha   77.32543757
_cell_angle_beta   82.86619644
_cell_angle_gamma   78.03013864
_symmetry_Int_Tables_number   1
_chemical_formula_structural   WSCl4
_chemical_formula_sum   'W2 S2 Cl8'
_cell_volume   370.65648414
_cell_formula_units_Z   2
loop_
 _symmetry_equiv_pos_site_id
 _symmetry_equiv_pos_as_xyz
  1  'x, y, z'
loop_
 _atom_site_type_symbol
 _atom_site_label
 _atom_site_symmetry_multiplicity
 _atom_site_fract_x
 _atom_site_fract_y
 _atom_site_fract_z
 _atom_site_occupancy
  W  W0  1  0.85221396  0.75300757  0.80788086  1
  W  W1  1  0.14778604  0.24699243  0.19211914  1
  S  S2  1  0.64063584  0.00022176  0.77398156  1
  S  S3  1  0.35936416  -0.00022176  0.22601844  1
  Cl  Cl4  1  0.14564721  0.83994745  0.85584580  1
  Cl  Cl5  1  -0.00548679  0.73644026  0.52479893  1
  Cl  Cl6  1  0.81550549  0.64766664  0.11574875  1
  Cl  Cl7  1  0.66248693  0.54264027  0.78437575  1
  Cl  Cl8  1  0.33751307  0.45735973  0.21562425  1
  Cl  Cl9  1  0.18449451  0.35233336  0.88425125  1
  Cl  Cl10  1  0.00548679  0.26355974  0.47520107  1
  Cl  Cl11  1  0.85435279  0.16005255  0.14415420  1
