# generated using pymatgen
data_SbPO5
_symmetry_space_group_name_H-M   'P 1'
_cell_length_a   5.26815699
_cell_length_b   5.26815790
_cell_length_c   7.05433983
_cell_angle_alpha   106.36092716
_cell_angle_beta   106.36092179
_cell_angle_gamma   99.94077481
_symmetry_Int_Tables_number   1
_chemical_formula_structural   SbPO5
_chemical_formula_sum   'Sb2 P2 O10'
_cell_volume   173.36515074
_cell_formula_units_Z   2
loop_
 _symmetry_equiv_pos_site_id
 _symmetry_equiv_pos_as_xyz
  1  'x, y, z'
loop_
 _atom_site_type_symbol
 _atom_site_label
 _atom_site_symmetry_multiplicity
 _atom_site_fract_x
 _atom_site_fract_y
 _atom_site_fract_z
 _atom_site_occupancy
  Sb  Sb0  1  0.00000000  -0.00000000  0.50000000  1
  Sb  Sb1  1  0.00000000  -0.00000000  -0.00000000  1
  P  P2  1  0.33235582  0.66764418  0.25000000  1
  P  P3  1  0.66764418  0.33235582  0.75000000  1
  O  O4  1  0.25882073  0.37415758  0.09630269  1
  O  O5  1  0.62584242  0.74117927  0.40369731  1
  O  O6  1  0.74117927  0.62584242  0.90369731  1
  O  O7  1  0.37415758  0.25882073  0.59630269  1
  O  O8  1  0.09165938  0.90834062  0.75000000  1
  O  O9  1  0.90834062  0.09165938  0.25000000  1
  O  O10  1  0.13217188  0.68562287  0.37185213  1
  O  O11  1  0.31437713  0.86782812  0.12814787  1
  O  O12  1  0.86782812  0.31437713  0.62814787  1
  O  O13  1  0.68562287  0.13217188  0.87185213  1
