# generated using pymatgen
data_Ag8GeS6
_symmetry_space_group_name_H-M   'P 1'
_cell_length_a   7.49334839
_cell_length_b   10.62364144
_cell_length_c   15.16898778
_cell_angle_alpha   90.00000000
_cell_angle_beta   90.00000000
_cell_angle_gamma   90.00000000
_symmetry_Int_Tables_number   1
_chemical_formula_structural   Ag8GeS6
_chemical_formula_sum   'Ag32 Ge4 S24'
_cell_volume   1207.55224767
_cell_formula_units_Z   4
loop_
 _symmetry_equiv_pos_site_id
 _symmetry_equiv_pos_as_xyz
  1  'x, y, z'
loop_
 _atom_site_type_symbol
 _atom_site_label
 _atom_site_symmetry_multiplicity
 _atom_site_fract_x
 _atom_site_fract_y
 _atom_site_fract_z
 _atom_site_occupancy
  Ag  Ag0  1  0.99228678  0.08812309  0.77480053  1
  Ag  Ag1  1  0.86440986  0.40820352  0.74039741  1
  Ag  Ag2  1  0.13559014  0.90820352  0.25960259  1
  Ag  Ag3  1  0.63559014  0.40820352  0.24039741  1
  Ag  Ag4  1  0.51787175  0.11260354  0.48495788  1
  Ag  Ag5  1  0.48212825  0.61260354  0.51504212  1
  Ag  Ag6  1  0.98212825  0.11260354  0.98495788  1
  Ag  Ag7  1  0.01787175  0.61260354  0.01504212  1
  Ag  Ag8  1  0.87698632  0.19080617  0.23026564  1
  Ag  Ag9  1  0.12301368  0.69080617  0.76973436  1
  Ag  Ag10  1  0.62301368  0.19080617  0.73026564  1
  Ag  Ag11  1  0.37698632  0.69080617  0.26973436  1
  Ag  Ag12  1  0.60929511  0.19407914  0.08952458  1
  Ag  Ag13  1  0.39070489  0.69407914  0.91047542  1
  Ag  Ag14  1  0.89070489  0.19407914  0.58952458  1
  Ag  Ag15  1  0.10929511  0.69407914  0.41047542  1
  Ag  Ag16  1  0.00771322  0.58812309  0.22519947  1
  Ag  Ag17  1  0.36440986  0.90820352  0.75960259  1
  Ag  Ag18  1  0.49228678  0.58812309  0.72519947  1
  Ag  Ag19  1  0.50771322  0.08812309  0.27480053  1
  Ag  Ag20  1  0.57217301  0.51796945  0.06819955  1
  Ag  Ag21  1  0.42782699  0.01796945  0.93180045  1
  Ag  Ag22  1  0.92782699  0.51796945  0.56819955  1
  Ag  Ag23  1  0.07217301  0.01796945  0.43180045  1
  Ag  Ag24  1  0.73417451  0.33619221  0.43956951  1
  Ag  Ag25  1  0.26582549  0.83619221  0.56043049  1
  Ag  Ag26  1  0.76582549  0.33619221  0.93956951  1
  Ag  Ag27  1  0.23417451  0.83619221  0.06043049  1
  Ag  Ag28  1  0.76894544  0.87113946  0.36835679  1
  Ag  Ag29  1  0.23105456  0.37113946  0.63164321  1
  Ag  Ag30  1  0.73105456  0.87113946  0.86835679  1
  Ag  Ag31  1  0.26894544  0.37113946  0.13164321  1
  Ge  Ge32  1  0.73319791  0.85013809  0.12359940  1
  Ge  Ge33  1  0.26680209  0.35013809  0.87640060  1
  Ge  Ge34  1  0.76680209  0.85013809  0.62359940  1
  Ge  Ge35  1  0.23319791  0.35013809  0.37640060  1
  S  S36  1  0.77131848  0.10700546  0.37868607  1
  S  S37  1  0.22868152  0.60700546  0.62131393  1
  S  S38  1  0.72868152  0.10700546  0.87868607  1
  S  S39  1  0.27131848  0.60700546  0.12131393  1
  S  S40  1  0.82467007  0.36809734  0.11316102  1
  S  S41  1  0.17532993  0.86809734  0.88683898  1
  S  S42  1  0.67532993  0.36809734  0.61316102  1
  S  S43  1  0.32467007  0.86809734  0.38683898  1
  S  S44  1  0.72854018  0.72588515  0.24080635  1
  S  S45  1  0.27145982  0.22588515  0.75919365  1
  S  S46  1  0.77145982  0.72588515  0.74080635  1
  S  S47  1  0.22854018  0.22588515  0.25919365  1
  S  S48  1  0.97360389  0.97448893  0.12758679  1
  S  S49  1  0.02639611  0.47448893  0.87241321  1
  S  S50  1  0.52639611  0.97448893  0.62758679  1
  S  S51  1  0.47360389  0.47448893  0.37241321  1
  S  S52  1  0.77143910  0.72912762  0.50431611  1
  S  S53  1  0.22856090  0.22912762  0.49568389  1
  S  S54  1  0.72856090  0.72912762  0.00431611  1
  S  S55  1  0.27143910  0.22912762  0.99568389  1
  S  S56  1  0.99558640  0.47604182  0.37872896  1
  S  S57  1  0.00441360  0.97604182  0.62127104  1
  S  S58  1  0.50441360  0.47604182  0.87872896  1
  S  S59  1  0.49558640  0.97604182  0.12127104  1
