# generated using pymatgen
data_CsSnF3
_symmetry_space_group_name_H-M   'P 1'
_cell_length_a   6.63918769
_cell_length_b   6.63918769
_cell_length_c   6.63918676
_cell_angle_alpha   64.60244617
_cell_angle_beta   64.60244617
_cell_angle_gamma   64.60245488
_symmetry_Int_Tables_number   1
_chemical_formula_structural   CsSnF3
_chemical_formula_sum   'Cs2 Sn2 F6'
_cell_volume   227.80237626
_cell_formula_units_Z   2
loop_
 _symmetry_equiv_pos_site_id
 _symmetry_equiv_pos_as_xyz
  1  'x, y, z'
loop_
 _atom_site_type_symbol
 _atom_site_label
 _atom_site_symmetry_multiplicity
 _atom_site_fract_x
 _atom_site_fract_y
 _atom_site_fract_z
 _atom_site_occupancy
  Cs  Cs0  1  0.25372100  0.25372100  0.25372100  1
  Cs  Cs1  1  0.75372100  0.75372100  0.75372100  1
  Sn  Sn2  1  0.00490838  0.00490838  0.00490838  1
  Sn  Sn3  1  0.50490838  0.50490838  0.50490838  1
  F  F4  1  0.87441414  0.17490881  0.72054766  1
  F  F5  1  0.72054766  0.87441414  0.17490881  1
  F  F6  1  0.17490881  0.72054766  0.87441414  1
  F  F7  1  0.37441414  0.22054766  0.67490881  1
  F  F8  1  0.22054766  0.67490881  0.37441414  1
  F  F9  1  0.67490881  0.37441414  0.22054766  1
