# generated using pymatgen
data_Ge3Ir2Se3
_symmetry_space_group_name_H-M   'P 1'
_cell_length_a   8.61372417
_cell_length_b   8.61372417
_cell_length_c   8.61372448
_cell_angle_alpha   89.79701575
_cell_angle_beta   89.79701571
_cell_angle_gamma   89.79701631
_symmetry_Int_Tables_number   1
_chemical_formula_structural   Ge3Ir2Se3
_chemical_formula_sum   'Ge12 Ir8 Se12'
_cell_volume   639.09399974
_cell_formula_units_Z   4
loop_
 _symmetry_equiv_pos_site_id
 _symmetry_equiv_pos_as_xyz
  1  'x, y, z'
loop_
 _atom_site_type_symbol
 _atom_site_label
 _atom_site_symmetry_multiplicity
 _atom_site_fract_x
 _atom_site_fract_y
 _atom_site_fract_z
 _atom_site_occupancy
  Ge  Ge0  1  0.50207428  0.16816877  0.65020535  1
  Ge  Ge1  1  0.65020535  0.50207428  0.16816877  1
  Ge  Ge2  1  0.16816877  0.65020535  0.50207428  1
  Ge  Ge3  1  0.49792572  0.83183123  0.34979465  1
  Ge  Ge4  1  0.34979465  0.49792572  0.83183123  1
  Ge  Ge5  1  0.83183123  0.34979465  0.49792572  1
  Ge  Ge6  1  0.00211711  0.66844399  0.85043030  1
  Ge  Ge7  1  0.85043030  0.00211711  0.66844399  1
  Ge  Ge8  1  0.66844399  0.85043030  0.00211711  1
  Ge  Ge9  1  0.99788289  0.33155601  0.14956970  1
  Ge  Ge10  1  0.14956970  0.99788289  0.33155601  1
  Ge  Ge11  1  0.33155601  0.14956970  0.99788289  1
  Ir  Ir12  1  0.75321631  0.75321631  0.75321631  1
  Ir  Ir13  1  0.24678369  0.24678369  0.24678369  1
  Ir  Ir14  1  0.74969854  0.25446187  0.24841119  1
  Ir  Ir15  1  0.24841119  0.74969854  0.25446187  1
  Ir  Ir16  1  0.25446187  0.24841119  0.74969854  1
  Ir  Ir17  1  0.25030146  0.74553813  0.75158881  1
  Ir  Ir18  1  0.75158881  0.25030146  0.74553813  1
  Ir  Ir19  1  0.74553813  0.75158881  0.25030146  1
  Se  Se20  1  0.49706815  0.14719740  0.35872336  1
  Se  Se21  1  0.35872336  0.49706815  0.14719740  1
  Se  Se22  1  0.14719740  0.35872336  0.49706815  1
  Se  Se23  1  0.50293185  0.85280260  0.64127664  1
  Se  Se24  1  0.64127664  0.50293185  0.85280260  1
  Se  Se25  1  0.85280260  0.64127664  0.50293185  1
  Se  Se26  1  0.00020940  0.64728241  0.14214020  1
  Se  Se27  1  0.14214020  0.00020940  0.64728241  1
  Se  Se28  1  0.64728241  0.14214020  0.00020940  1
  Se  Se29  1  -0.00020940  0.35271759  0.85785980  1
  Se  Se30  1  0.85785980  -0.00020940  0.35271759  1
  Se  Se31  1  0.35271759  0.85785980  -0.00020940  1
