# generated using pymatgen
data_S
_symmetry_space_group_name_H-M   'P 1'
_cell_length_a   8.42924878
_cell_length_b   8.60133426
_cell_length_c   13.38060855
_cell_angle_alpha   90.00000000
_cell_angle_beta   90.00000000
_cell_angle_gamma   112.04503443
_symmetry_Int_Tables_number   1
_chemical_formula_structural   S
_chemical_formula_sum   S32
_cell_volume   899.20424903
_cell_formula_units_Z   32
loop_
 _symmetry_equiv_pos_site_id
 _symmetry_equiv_pos_as_xyz
  1  'x, y, z'
loop_
 _atom_site_type_symbol
 _atom_site_label
 _atom_site_symmetry_multiplicity
 _atom_site_fract_x
 _atom_site_fract_y
 _atom_site_fract_z
 _atom_site_occupancy
  S  S0  1  0.32520657  0.67961975  0.64861809  1
  S  S1  1  0.17479343  0.82038025  0.64861809  1
  S  S2  1  0.67479343  0.32038025  0.35138191  1
  S  S3  1  0.82520657  0.17961975  0.35138191  1
  S  S4  1  0.46904338  0.66317683  0.41877986  1
  S  S5  1  0.03095662  0.83682317  0.41877986  1
  S  S6  1  0.53095662  0.33682417  0.58122014  1
  S  S7  1  0.96904338  0.16317583  0.58122014  1
  S  S8  1  0.52665091  0.78633221  0.55281535  1
  S  S9  1  0.97334909  0.71366779  0.55281535  1
  S  S10  1  0.47334909  0.21366779  0.44718465  1
  S  S11  1  0.02665091  0.28633221  0.44718465  1
  S  S12  1  0.38083960  0.79815531  0.32223966  1
  S  S13  1  0.11915940  0.70184469  0.32223966  1
  S  S14  1  0.61916040  0.20184469  0.67776034  1
  S  S15  1  0.88083960  0.29815531  0.67776034  1
  S  S16  1  0.20145672  0.12138459  0.20249713  1
  S  S17  1  0.29854328  0.37861541  0.20249713  1
  S  S18  1  0.79854328  0.87861541  0.79750287  1
  S  S19  1  0.70145672  0.62138459  0.79750287  1
  S  S20  1  0.22120960  0.98045490  0.97205249  1
  S  S21  1  0.27879040  0.51954510  0.97205249  1
  S  S22  1  0.77879040  0.01954510  0.02794751  1
  S  S23  1  0.72120960  0.48045490  0.02794751  1
  S  S24  1  0.34433447  0.04006873  0.10684649  1
  S  S25  1  0.15566553  0.45993127  0.10684649  1
  S  S26  1  0.65566553  0.95993127  0.89315351  1
  S  S27  1  0.84433447  0.54006873  0.89315351  1
  S  S28  1  0.32505678  0.17963095  0.87678974  1
  S  S29  1  0.17494322  0.32036905  0.87678974  1
  S  S30  1  0.67494322  0.82036905  0.12321026  1
  S  S31  1  0.82505678  0.67963095  0.12321026  1
