# generated using pymatgen
data_YMoN3
_symmetry_space_group_name_H-M   'P 1'
_cell_length_a   6.21099448
_cell_length_b   7.21722645
_cell_length_c   7.21722541
_cell_angle_alpha   98.60305958
_cell_angle_beta   105.71737084
_cell_angle_gamma   74.28262270
_symmetry_Int_Tables_number   1
_chemical_formula_structural   YMoN3
_chemical_formula_sum   'Y4 Mo4 N12'
_cell_volume   298.76416090
_cell_formula_units_Z   4
loop_
 _symmetry_equiv_pos_site_id
 _symmetry_equiv_pos_as_xyz
  1  'x, y, z'
loop_
 _atom_site_type_symbol
 _atom_site_label
 _atom_site_symmetry_multiplicity
 _atom_site_fract_x
 _atom_site_fract_y
 _atom_site_fract_z
 _atom_site_occupancy
  Y  Y0  1  0.75000000  0.91250153  0.91250153  1
  Y  Y1  1  0.25000000  0.69976114  0.69976114  1
  Y  Y2  1  0.25000000  0.08749847  0.08749847  1
  Y  Y3  1  0.75000000  0.30023886  0.30023886  1
  Mo  Mo4  1  0.76585159  0.80136640  0.38227819  1
  Mo  Mo5  1  0.23414841  0.19863360  0.61772181  1
  Mo  Mo6  1  0.26585159  0.61772181  0.19863360  1
  Mo  Mo7  1  0.73414841  0.38227819  0.80136640  1
  N  N8  1  0.84728268  0.22178756  0.00007832  1
  N  N9  1  0.44926402  0.35580648  0.63942818  1
  N  N10  1  0.55073598  0.64419352  0.36057182  1
  N  N11  1  0.65326606  0.62385623  0.89242293  1
  N  N12  1  0.65271732  0.00007832  0.22178756  1
  N  N13  1  0.15271732  0.77821244  -0.00007832  1
  N  N14  1  0.15326606  0.10757707  0.37614377  1
  N  N15  1  0.84673394  0.89242293  0.62385623  1
  N  N16  1  0.34728268  -0.00007832  0.77821244  1
  N  N17  1  0.94926402  0.36057182  0.64419352  1
  N  N18  1  0.05073598  0.63942818  0.35580648  1
  N  N19  1  0.34673394  0.37614377  0.10757707  1
