# generated using pymatgen
data_Na3AlTe3
_symmetry_space_group_name_H-M   'P 1'
_cell_length_a   7.75460932
_cell_length_b   8.04410420
_cell_length_c   16.14198993
_cell_angle_alpha   60.52556437
_cell_angle_beta   90.00000000
_cell_angle_gamma   90.00000000
_symmetry_Int_Tables_number   1
_chemical_formula_structural   Na3AlTe3
_chemical_formula_sum   'Na12 Al4 Te12'
_cell_volume   876.59912707
_cell_formula_units_Z   4
loop_
 _symmetry_equiv_pos_site_id
 _symmetry_equiv_pos_as_xyz
  1  'x, y, z'
loop_
 _atom_site_type_symbol
 _atom_site_label
 _atom_site_symmetry_multiplicity
 _atom_site_fract_x
 _atom_site_fract_y
 _atom_site_fract_z
 _atom_site_occupancy
  Na  Na0  1  0.02024819  0.94708119  0.27816637  1
  Na  Na1  1  0.52024819  0.05291881  0.22183363  1
  Na  Na2  1  0.97975181  0.05291881  0.72183363  1
  Na  Na3  1  0.47975181  0.94708119  0.77816637  1
  Na  Na4  1  0.00252952  0.72317001  0.10401876  1
  Na  Na5  1  0.50252952  0.27682999  0.39598124  1
  Na  Na6  1  0.99747048  0.27682999  0.89598124  1
  Na  Na7  1  0.49747048  0.72317001  0.60401876  1
  Na  Na8  1  0.00084610  0.31757127  0.39863312  1
  Na  Na9  1  0.50084610  0.68242873  0.10136688  1
  Na  Na10  1  0.99915390  0.68242873  0.60136688  1
  Na  Na11  1  0.49915390  0.31757127  0.89863312  1
  Al  Al12  1  0.64160031  0.66501588  0.41793734  1
  Al  Al13  1  0.14160031  0.33498412  0.08206266  1
  Al  Al14  1  0.35839969  0.33498412  0.58206266  1
  Al  Al15  1  0.85839969  0.66501588  0.91793734  1
  Te  Te16  1  0.79643175  0.34251921  0.07507378  1
  Te  Te17  1  0.29643175  0.65748079  0.42492622  1
  Te  Te18  1  0.20356825  0.65748079  0.92492622  1
  Te  Te19  1  0.70356825  0.34251921  0.57507378  1
  Te  Te20  1  0.24400475  0.34397993  0.23194229  1
  Te  Te21  1  0.74400475  0.65602007  0.26805771  1
  Te  Te22  1  0.75599525  0.65602007  0.76805771  1
  Te  Te23  1  0.25599525  0.34397993  0.73194229  1
  Te  Te24  1  0.75904575  0.95672418  0.42591576  1
  Te  Te25  1  0.25904575  0.04327582  0.07408424  1
  Te  Te26  1  0.24095425  0.04327582  0.57408424  1
  Te  Te27  1  0.74095425  0.95672418  0.92591576  1
