# generated using pymatgen
data_RbTcO4
_symmetry_space_group_name_H-M   'P 1'
_cell_length_a   7.78830037
_cell_length_b   5.79146926
_cell_length_c   5.79146926
_cell_angle_alpha   90.00000000
_cell_angle_beta   111.82702784
_cell_angle_gamma   111.82702784
_symmetry_Int_Tables_number   1
_chemical_formula_structural   RbTcO4
_chemical_formula_sum   'Rb2 Tc2 O8'
_cell_volume   222.20086716
_cell_formula_units_Z   2
loop_
 _symmetry_equiv_pos_site_id
 _symmetry_equiv_pos_as_xyz
  1  'x, y, z'
loop_
 _atom_site_type_symbol
 _atom_site_label
 _atom_site_symmetry_multiplicity
 _atom_site_fract_x
 _atom_site_fract_y
 _atom_site_fract_z
 _atom_site_occupancy
  Rb  Rb0  1  0.25000100  0.62500000  0.37500000  1
  Rb  Rb1  1  0.75000000  0.37500000  0.62500000  1
  Tc  Tc2  1  0.75000000  0.87500000  0.12500000  1
  Tc  Tc3  1  0.25000100  0.12500000  0.87500100  1
  O  O4  1  0.89769392  0.73203308  0.09068496  1
  O  O5  1  0.39769292  0.09068396  0.16565984  1
  O  O6  1  0.60230708  0.69299204  0.26796692  1
  O  O7  1  0.89769392  0.16566084  0.30700796  1
  O  O8  1  0.10230708  0.83434016  0.69299204  1
  O  O9  1  0.39769292  0.30700796  0.73203308  1
  O  O10  1  0.60230708  0.90931604  0.83434016  1
  O  O11  1  0.10230708  0.26796692  0.90931604  1
