# generated using pymatgen
data_K2O
_symmetry_space_group_name_H-M   'P 1'
_cell_length_a   6.96582103
_cell_length_b   8.12694434
_cell_length_c   8.11949872
_cell_angle_alpha   95.86375396
_cell_angle_beta   64.60085557
_cell_angle_gamma   148.99868331
_symmetry_Int_Tables_number   1
_chemical_formula_structural   K2O
_chemical_formula_sum   'K6 O3'
_cell_volume   175.62937368
_cell_formula_units_Z   3
loop_
 _symmetry_equiv_pos_site_id
 _symmetry_equiv_pos_as_xyz
  1  'x, y, z'
loop_
 _atom_site_type_symbol
 _atom_site_label
 _atom_site_symmetry_multiplicity
 _atom_site_fract_x
 _atom_site_fract_y
 _atom_site_fract_z
 _atom_site_occupancy
  K  K0  1  0.11003221  0.85133324  0.07532373  1
  K  K1  1  0.16741644  0.76182267  0.66697816  1
  K  K2  1  0.16438900  0.49871494  0.93032642  1
  K  K3  1  0.33755123  0.66845209  0.25849139  1
  K  K4  1  0.95091494  0.02211076  0.40666299  1
  K  K5  1  0.33366113  0.25924793  0.66886427  1
  O  O6  1  0.45580143  0.12259673  0.33452680  1
  O  O7  1  0.92662520  0.26010809  0.66820569  1
  O  O8  1  0.43975944  0.43981055  0.00126954  1
