# generated using pymatgen
data_MgCN2
_symmetry_space_group_name_H-M   'P 1'
_cell_length_a   5.07743298
_cell_length_b   5.07743341
_cell_length_c   5.07743343
_cell_angle_alpha   37.45131886
_cell_angle_beta   37.45131010
_cell_angle_gamma   37.45131022
_symmetry_Int_Tables_number   1
_chemical_formula_structural   MgCN2
_chemical_formula_sum   'Mg1 C1 N2'
_cell_volume   43.40437661
_cell_formula_units_Z   1
loop_
 _symmetry_equiv_pos_site_id
 _symmetry_equiv_pos_as_xyz
  1  'x, y, z'
loop_
 _atom_site_type_symbol
 _atom_site_label
 _atom_site_symmetry_multiplicity
 _atom_site_fract_x
 _atom_site_fract_y
 _atom_site_fract_z
 _atom_site_occupancy
  Mg  Mg0  1  0.00000000  -0.00000000  0.00000000  1
  C  C1  1  0.50000000  0.50000000  0.50000000  1
  N  N2  1  0.41340268  0.41340268  0.41340268  1
  N  N3  1  0.58659732  0.58659732  0.58659732  1
