# generated using pymatgen
data_Th(FeP3)4
_symmetry_space_group_name_H-M   'P 1'
_cell_length_a   6.73149237
_cell_length_b   6.73149087
_cell_length_c   6.73149244
_cell_angle_alpha   109.47121618
_cell_angle_beta   109.47121161
_cell_angle_gamma   109.47122107
_symmetry_Int_Tables_number   1
_chemical_formula_structural   Th(FeP3)4
_chemical_formula_sum   'Th1 Fe4 P12'
_cell_volume   234.80760597
_cell_formula_units_Z   1
loop_
 _symmetry_equiv_pos_site_id
 _symmetry_equiv_pos_as_xyz
  1  'x, y, z'
loop_
 _atom_site_type_symbol
 _atom_site_label
 _atom_site_symmetry_multiplicity
 _atom_site_fract_x
 _atom_site_fract_y
 _atom_site_fract_z
 _atom_site_occupancy
  Th  Th0  1  0.00000000  -0.00000000  0.00000000  1
  Fe  Fe1  1  0.50000000  -0.00000000  0.00000000  1
  Fe  Fe2  1  0.00000000  -0.00000000  0.50000000  1
  Fe  Fe3  1  0.00000000  0.50000000  0.00000000  1
  Fe  Fe4  1  0.50000000  0.50000000  0.50000000  1
  P  P5  1  0.49658110  0.84845208  0.64812802  1
  P  P6  1  0.20032506  0.84845208  0.35187198  1
  P  P7  1  0.79967494  0.15154792  0.64812802  1
  P  P8  1  0.15154792  0.35187198  0.50341890  1
  P  P9  1  0.35187198  0.50341890  0.15154792  1
  P  P10  1  0.50341890  0.15154792  0.35187198  1
  P  P11  1  0.15154792  0.64812802  0.79967494  1
  P  P12  1  0.35187198  0.20032506  0.84845208  1
  P  P13  1  0.84845208  0.64812802  0.49658110  1
  P  P14  1  0.64812802  0.79967494  0.15154792  1
  P  P15  1  0.84845208  0.35187198  0.20032506  1
  P  P16  1  0.64812802  0.49658110  0.84845208  1
