# generated using pymatgen
data_RbPrS2
_symmetry_space_group_name_H-M   'P 1'
_cell_length_a   8.06805522
_cell_length_b   8.06805522
_cell_length_c   8.06805458
_cell_angle_alpha   30.54151737
_cell_angle_beta   30.54151737
_cell_angle_gamma   30.54151608
_symmetry_Int_Tables_number   1
_chemical_formula_structural   RbPrS2
_chemical_formula_sum   'Rb1 Pr1 S2'
_cell_volume   120.22376104
_cell_formula_units_Z   1
loop_
 _symmetry_equiv_pos_site_id
 _symmetry_equiv_pos_as_xyz
  1  'x, y, z'
loop_
 _atom_site_type_symbol
 _atom_site_label
 _atom_site_symmetry_multiplicity
 _atom_site_fract_x
 _atom_site_fract_y
 _atom_site_fract_z
 _atom_site_occupancy
  Rb  Rb0  1  -0.00000000  -0.00000000  0.00000000  1
  Pr  Pr1  1  0.50000000  0.50000000  0.50000000  1
  S  S2  1  0.76683009  0.76683009  0.76683009  1
  S  S3  1  0.23316991  0.23316991  0.23316991  1
