# generated using pymatgen
data_Y3SbO7
_symmetry_space_group_name_H-M   'P 1'
_cell_length_a   6.42730101
_cell_length_b   6.42730101
_cell_length_c   7.45748889
_cell_angle_alpha   90.00000000
_cell_angle_beta   90.00000000
_cell_angle_gamma   109.49288467
_symmetry_Int_Tables_number   1
_chemical_formula_structural   Y3SbO7
_chemical_formula_sum   'Y6 Sb2 O14'
_cell_volume   290.41265770
_cell_formula_units_Z   2
loop_
 _symmetry_equiv_pos_site_id
 _symmetry_equiv_pos_as_xyz
  1  'x, y, z'
loop_
 _atom_site_type_symbol
 _atom_site_label
 _atom_site_symmetry_multiplicity
 _atom_site_fract_x
 _atom_site_fract_y
 _atom_site_fract_z
 _atom_site_occupancy
  Y  Y0  1  0.50000000  0.50000000  0.00000000  1
  Y  Y1  1  0.50000000  0.50000000  0.50000000  1
  Y  Y2  1  -0.00014086  0.46879844  0.75000000  1
  Y  Y3  1  0.00014086  0.53120156  0.25000000  1
  Y  Y4  1  0.53120156  0.00014086  0.75000000  1
  Y  Y5  1  0.46879844  -0.00014086  0.25000000  1
  Sb  Sb6  1  -0.00000000  0.00000000  0.00000000  1
  Sb  Sb7  1  -0.00000000  0.00000000  0.50000000  1
  O  O8  1  0.63738982  0.36261018  0.75000000  1
  O  O9  1  0.36261018  0.63738982  0.25000000  1
  O  O10  1  0.36997432  0.63002568  0.75000000  1
  O  O11  1  0.63002568  0.36997432  0.25000000  1
  O  O12  1  0.93196880  0.06803120  0.75000000  1
  O  O13  1  0.06803120  0.93196880  0.25000000  1
  O  O14  1  0.07173334  0.32062691  0.03000645  1
  O  O15  1  0.92826666  0.67937309  0.53000645  1
  O  O16  1  0.67937309  0.92826666  0.46999355  1
  O  O17  1  0.32062691  0.07173334  0.96999355  1
  O  O18  1  0.92826666  0.67937309  0.96999355  1
  O  O19  1  0.07173334  0.32062691  0.46999355  1
  O  O20  1  0.32062691  0.07173334  0.53000645  1
  O  O21  1  0.67937309  0.92826666  0.03000645  1
