# generated using pymatgen
data_TiPN3
_symmetry_space_group_name_H-M   'P 1'
_cell_length_a   6.36905516
_cell_length_b   6.36905516
_cell_length_c   4.96098461
_cell_angle_alpha   81.45446686
_cell_angle_beta   81.45446686
_cell_angle_gamma   85.57015415
_symmetry_Int_Tables_number   1
_chemical_formula_structural   TiPN3
_chemical_formula_sum   'Ti4 P4 N12'
_cell_volume   196.48484372
_cell_formula_units_Z   4
loop_
 _symmetry_equiv_pos_site_id
 _symmetry_equiv_pos_as_xyz
  1  'x, y, z'
loop_
 _atom_site_type_symbol
 _atom_site_label
 _atom_site_symmetry_multiplicity
 _atom_site_fract_x
 _atom_site_fract_y
 _atom_site_fract_z
 _atom_site_occupancy
  Ti  Ti0  1  0.71539234  0.28460766  0.75000000  1
  Ti  Ti1  1  0.89640398  0.10359602  0.25000000  1
  Ti  Ti2  1  0.28460766  0.71539234  0.25000000  1
  Ti  Ti3  1  0.10359602  0.89640398  0.75000000  1
  P  P4  1  0.21274549  0.38646501  0.79357806  1
  P  P5  1  0.38646501  0.21274549  0.29357806  1
  P  P6  1  0.78725451  0.61353499  0.20642194  1
  P  P7  1  0.61353499  0.78725451  0.70642194  1
  N  N8  1  0.28988203  0.41823199  0.09105142  1
  N  N9  1  0.02514009  0.21547814  0.86073910  1
  N  N10  1  0.97485991  0.78452186  0.13926090  1
  N  N11  1  0.41823199  0.28988203  0.59105142  1
  N  N12  1  0.61381292  0.14606957  0.13140263  1
  N  N13  1  0.38618708  0.85393043  0.86859737  1
  N  N14  1  0.85393043  0.38618708  0.36859737  1
  N  N15  1  0.71011797  0.58176801  0.90894858  1
  N  N16  1  0.78452186  0.97485991  0.63926090  1
  N  N17  1  0.14606957  0.61381292  0.63140263  1
  N  N18  1  0.21547814  0.02514009  0.36073910  1
  N  N19  1  0.58176801  0.71011797  0.40894858  1
