# generated using pymatgen
data_K2GeSe3
_symmetry_space_group_name_H-M   'P 1'
_cell_length_a   6.87887554
_cell_length_b   7.43230237
_cell_length_c   8.64446959
_cell_angle_alpha   75.33779143
_cell_angle_beta   73.24272819
_cell_angle_gamma   66.82527192
_symmetry_Int_Tables_number   1
_chemical_formula_structural   K2GeSe3
_chemical_formula_sum   'K4 Ge2 Se6'
_cell_volume   384.11353583
_cell_formula_units_Z   2
loop_
 _symmetry_equiv_pos_site_id
 _symmetry_equiv_pos_as_xyz
  1  'x, y, z'
loop_
 _atom_site_type_symbol
 _atom_site_label
 _atom_site_symmetry_multiplicity
 _atom_site_fract_x
 _atom_site_fract_y
 _atom_site_fract_z
 _atom_site_occupancy
  K  K0  1  0.38857922  0.79753531  0.89029504  1
  K  K1  1  0.61142078  0.20246469  0.10970496  1
  K  K2  1  0.15260934  0.46280122  0.68033393  1
  K  K3  1  0.84739066  0.53719878  0.31966607  1
  Ge  Ge4  1  0.86018785  0.05847009  0.68371379  1
  Ge  Ge5  1  0.13981115  0.94152991  0.31628621  1
  Se  Se6  1  0.66450015  0.38443361  0.71572011  1
  Se  Se7  1  0.33549985  0.61556639  0.28427989  1
  Se  Se8  1  0.86629817  0.81558844  0.91128991  1
  Se  Se9  1  0.13370183  0.18441156  0.08871009  1
  Se  Se10  1  0.22378926  0.03619283  0.53492123  1
  Se  Se11  1  0.77621074  0.96380717  0.46507877  1
