# generated using pymatgen
data_SmOF
_symmetry_space_group_name_H-M   'P 1'
_cell_length_a   6.85072779
_cell_length_b   6.85072779
_cell_length_c   6.85072778
_cell_angle_alpha   33.06805663
_cell_angle_beta   33.06805663
_cell_angle_gamma   33.06804543
_symmetry_Int_Tables_number   1
_chemical_formula_structural   SmOF
_chemical_formula_sum   'Sm2 O2 F2'
_cell_volume   85.19420665
_cell_formula_units_Z   2
loop_
 _symmetry_equiv_pos_site_id
 _symmetry_equiv_pos_as_xyz
  1  'x, y, z'
loop_
 _atom_site_type_symbol
 _atom_site_label
 _atom_site_symmetry_multiplicity
 _atom_site_fract_x
 _atom_site_fract_y
 _atom_site_fract_z
 _atom_site_occupancy
  Sm  Sm0  1  0.75821910  0.75821910  0.75821910  1
  Sm  Sm1  1  0.24178090  0.24178090  0.24178090  1
  O  O2  1  0.87832229  0.87832229  0.87832229  1
  O  O3  1  0.12167771  0.12167771  0.12167771  1
  F  F4  1  0.36989293  0.36989293  0.36989293  1
  F  F5  1  0.63010707  0.63010707  0.63010707  1
