# generated using pymatgen
data_SiC
_symmetry_space_group_name_H-M   'P 1'
_cell_length_a   17.70033064
_cell_length_b   17.70033064
_cell_length_c   17.70033138
_cell_angle_alpha   9.97288938
_cell_angle_beta   9.97288938
_cell_angle_gamma   9.97289194
_symmetry_Int_Tables_number   1
_chemical_formula_structural   SiC
_chemical_formula_sum   'Si7 C7'
_cell_volume   144.40303730
_cell_formula_units_Z   7
loop_
 _symmetry_equiv_pos_site_id
 _symmetry_equiv_pos_as_xyz
  1  'x, y, z'
loop_
 _atom_site_type_symbol
 _atom_site_label
 _atom_site_symmetry_multiplicity
 _atom_site_fract_x
 _atom_site_fract_y
 _atom_site_fract_z
 _atom_site_occupancy
  Si  Si0  1  0.80953000  0.80953000  0.80953000  1
  Si  Si1  1  0.71422985  0.71422985  0.71422985  1
  Si  Si2  1  0.57142720  0.57142720  0.57142720  1
  Si  Si3  1  0.42855255  0.42855255  0.42855255  1
  Si  Si4  1  0.28573816  0.28573816  0.28573816  1
  Si  Si5  1  0.19043752  0.19043752  0.19043752  1
  Si  Si6  1  0.99998494  0.99998494  0.99998494  1
  C  C7  1  0.84524169  0.84524169  0.84524169  1
  C  C8  1  0.74993787  0.74993787  0.74993787  1
  C  C9  1  0.60724316  0.60724316  0.60724316  1
  C  C10  1  0.46436822  0.46436822  0.46436822  1
  C  C11  1  0.32145026  0.32145026  0.32145026  1
  C  C12  1  0.22614445  0.22614445  0.22614445  1
  C  C13  1  0.03570913  0.03570913  0.03570913  1
