# generated using pymatgen
data_Tl2(IO3)3
_symmetry_space_group_name_H-M   'P 1'
_cell_length_a   7.09745367
_cell_length_b   7.12020340
_cell_length_c   10.61475028
_cell_angle_alpha   87.49384543
_cell_angle_beta   107.42459009
_cell_angle_gamma   107.97969476
_symmetry_Int_Tables_number   1
_chemical_formula_structural   Tl2(IO3)3
_chemical_formula_sum   'Tl4 I6 O18'
_cell_volume   486.10932056
_cell_formula_units_Z   2
loop_
 _symmetry_equiv_pos_site_id
 _symmetry_equiv_pos_as_xyz
  1  'x, y, z'
loop_
 _atom_site_type_symbol
 _atom_site_label
 _atom_site_symmetry_multiplicity
 _atom_site_fract_x
 _atom_site_fract_y
 _atom_site_fract_z
 _atom_site_occupancy
  Tl  Tl0  1  -0.00000000  0.50000000  0.00000000  1
  Tl  Tl1  1  0.16341593  0.46288840  0.40215035  1
  Tl  Tl2  1  0.83658407  0.53711160  0.59784965  1
  Tl  Tl3  1  0.50000000  0.00000000  0.00000000  1
  I  I4  1  0.41041041  0.05086336  0.63009599  1
  I  I5  1  0.58958959  0.94913664  0.36990401  1
  I  I6  1  0.44661462  0.53312986  0.80809021  1
  I  I7  1  0.55338538  0.46687014  0.19190979  1
  I  I8  1  0.03684645  0.97548921  0.19002701  1
  I  I9  1  0.96315355  0.02451079  0.80997299  1
  O  O10  1  0.33904908  0.94015027  0.39100140  1
  O  O11  1  0.66095092  0.05984973  0.60899860  1
  O  O12  1  0.58560060  0.69899423  0.41186396  1
  O  O13  1  0.41439940  0.30100577  0.58813604  1
  O  O14  1  0.91985698  0.71025366  0.18359398  1
  O  O15  1  0.08014302  0.28974634  0.81640602  1
  O  O16  1  0.95816754  0.04861767  0.32197888  1
  O  O17  1  0.04183246  0.95138233  0.67802112  1
  O  O18  1  0.28474635  0.35358539  0.18808039  1
  O  O19  1  0.71525365  0.64641461  0.81191961  1
  O  O20  1  0.67775088  0.33756232  0.32471444  1
  O  O21  1  0.32224912  0.66243768  0.67528556  1
  O  O22  1  0.56529343  0.32883223  0.05238468  1
  O  O23  1  0.43470657  0.67116777  0.94761532  1
  O  O24  1  0.84396741  0.04597819  0.04974883  1
  O  O25  1  0.15603259  0.95402181  0.95025117  1
  O  O26  1  0.46618091  0.88107106  0.19127941  1
  O  O27  1  0.53381909  0.11892894  0.80872059  1
