# generated using pymatgen
data_CoAuO2
_symmetry_space_group_name_H-M   'P 1'
_cell_length_a   2.88451961
_cell_length_b   2.88452028
_cell_length_c   6.31120163
_cell_angle_alpha   76.78982209
_cell_angle_beta   76.78980989
_cell_angle_gamma   59.99999851
_symmetry_Int_Tables_number   1
_chemical_formula_structural   CoAuO2
_chemical_formula_sum   'Co1 Au1 O2'
_cell_volume   43.86492693
_cell_formula_units_Z   1
loop_
 _symmetry_equiv_pos_site_id
 _symmetry_equiv_pos_as_xyz
  1  'x, y, z'
loop_
 _atom_site_type_symbol
 _atom_site_label
 _atom_site_symmetry_multiplicity
 _atom_site_fract_x
 _atom_site_fract_y
 _atom_site_fract_z
 _atom_site_occupancy
  Co  Co0  1  0.50000000  0.50000000  0.50000000  1
  Au  Au1  1  0.00000000  -0.00000000  -0.00000000  1
  O  O2  1  0.88540030  0.88540030  0.34379709  1
  O  O3  1  0.11459970  0.11459970  0.65620291  1
