# generated using pymatgen
data_SrReN3
_symmetry_space_group_name_H-M   'P 1'
_cell_length_a   7.57834134
_cell_length_b   7.57834134
_cell_length_c   6.18835992
_cell_angle_alpha   78.22025713
_cell_angle_beta   78.22025713
_cell_angle_gamma   86.98708660
_symmetry_Int_Tables_number   1
_chemical_formula_structural   SrReN3
_chemical_formula_sum   'Sr4 Re4 N12'
_cell_volume   340.57102630
_cell_formula_units_Z   4
loop_
 _symmetry_equiv_pos_site_id
 _symmetry_equiv_pos_as_xyz
  1  'x, y, z'
loop_
 _atom_site_type_symbol
 _atom_site_label
 _atom_site_symmetry_multiplicity
 _atom_site_fract_x
 _atom_site_fract_y
 _atom_site_fract_z
 _atom_site_occupancy
  Sr  Sr0  1  0.31798316  0.68201684  0.25000000  1
  Sr  Sr1  1  0.90789741  0.09210259  0.25000000  1
  Sr  Sr2  1  0.09210259  0.90789741  0.75000000  1
  Sr  Sr3  1  0.68201684  0.31798316  0.75000000  1
  Re  Re4  1  0.79712102  0.62411969  0.24729176  1
  Re  Re5  1  0.37588031  0.20287898  0.25270824  1
  Re  Re6  1  0.62411969  0.79712102  0.74729176  1
  Re  Re7  1  0.20287898  0.37588031  0.75270824  1
  N  N8  1  0.76789008  0.98528955  0.66585936  1
  N  N9  1  0.12927923  0.59526509  0.66547169  1
  N  N10  1  0.32530106  0.36616868  0.99633066  1
  N  N11  1  0.59526509  0.12927923  0.16547169  1
  N  N12  1  0.87072077  0.40473491  0.33452831  1
  N  N13  1  0.23210992  0.01471045  0.33414064  1
  N  N14  1  0.98528955  0.76789008  0.16585936  1
  N  N15  1  0.36616868  0.32530106  0.49633066  1
  N  N16  1  0.63383132  0.67469894  0.50366934  1
  N  N17  1  0.01471045  0.23210992  0.83414064  1
  N  N18  1  0.40473491  0.87072077  0.83452831  1
  N  N19  1  0.67469894  0.63383132  0.00366934  1
