# generated using pymatgen
data_Ba4Sb2O
_symmetry_space_group_name_H-M   'P 1'
_cell_length_a   5.31331121
_cell_length_b   5.31331101
_cell_length_c   9.93871091
_cell_angle_alpha   105.50388200
_cell_angle_beta   105.50388320
_cell_angle_gamma   90.00000336
_symmetry_Int_Tables_number   1
_chemical_formula_structural   Ba4Sb2O
_chemical_formula_sum   'Ba4 Sb2 O1'
_cell_volume   259.76202421
_cell_formula_units_Z   1
loop_
 _symmetry_equiv_pos_site_id
 _symmetry_equiv_pos_as_xyz
  1  'x, y, z'
loop_
 _atom_site_type_symbol
 _atom_site_label
 _atom_site_symmetry_multiplicity
 _atom_site_fract_x
 _atom_site_fract_y
 _atom_site_fract_z
 _atom_site_occupancy
  Ba  Ba0  1  0.67066324  0.67066324  0.34132848  1
  Ba  Ba1  1  0.32933676  0.32933676  0.65867152  1
  Ba  Ba2  1  0.00000000  0.50000000  -0.00000000  1
  Ba  Ba3  1  0.50000000  0.00000000  -0.00000000  1
  Sb  Sb4  1  0.86250429  0.86250429  0.72500759  1
  Sb  Sb5  1  0.13749571  0.13749571  0.27499241  1
  O  O6  1  0.50000000  0.50000000  -0.00000000  1
