# generated using pymatgen
data_LuH2ClO2
_symmetry_space_group_name_H-M   'P 1'
_cell_length_a   12.59399841
_cell_length_b   3.45252811
_cell_length_c   6.11996123
_cell_angle_alpha   90.00000000
_cell_angle_beta   90.00000000
_cell_angle_gamma   90.00000000
_symmetry_Int_Tables_number   1
_chemical_formula_structural   LuH2ClO2
_chemical_formula_sum   'Lu4 H8 Cl4 O8'
_cell_volume   266.10285143
_cell_formula_units_Z   4
loop_
 _symmetry_equiv_pos_site_id
 _symmetry_equiv_pos_as_xyz
  1  'x, y, z'
loop_
 _atom_site_type_symbol
 _atom_site_label
 _atom_site_symmetry_multiplicity
 _atom_site_fract_x
 _atom_site_fract_y
 _atom_site_fract_z
 _atom_site_occupancy
  Lu  Lu0  1  0.05063897  0.75000000  0.24978262  1
  Lu  Lu1  1  0.55063997  0.75000000  0.25021738  1
  Lu  Lu2  1  0.44936103  0.24999900  0.74978262  1
  Lu  Lu3  1  0.94936003  0.24999900  0.75021738  1
  H  H4  1  0.84668200  0.75000000  0.04321988  1
  H  H5  1  0.38088316  0.24999900  0.18698254  1
  H  H6  1  0.88088416  0.24999900  0.31301746  1
  H  H7  1  0.34668200  0.75000000  0.45678012  1
  H  H8  1  0.65331700  0.24999900  0.54321988  1
  H  H9  1  0.11911684  0.75000000  0.68698254  1
  H  H10  1  0.61911584  0.75000000  0.81301746  1
  H  H11  1  0.15331700  0.24999900  0.95677912  1
  Cl  Cl12  1  0.71079254  0.24999900  0.11774984  1
  Cl  Cl13  1  0.21079254  0.24999900  0.38225016  1
  Cl  Cl14  1  0.78920646  0.75000000  0.61774984  1
  Cl  Cl15  1  0.28920746  0.75000000  0.88224916  1
  O  O16  1  0.07929641  0.24999900  0.00127813  1
  O  O17  1  0.45291272  0.24999900  0.12959229  1
  O  O18  1  0.95291272  0.24999900  0.37040771  1
  O  O19  1  0.57929741  0.24999900  0.49872187  1
  O  O20  1  0.42070359  0.75000000  0.50127813  1
  O  O21  1  0.04708828  0.75000000  0.62959229  1
  O  O22  1  0.54708728  0.75000000  0.87040771  1
  O  O23  1  0.92070259  0.75000000  0.99872187  1
