# generated using pymatgen
data_SmTlTe2
_symmetry_space_group_name_H-M   'P 1'
_cell_length_a   4.52886089
_cell_length_b   4.52885996
_cell_length_c   8.53798887
_cell_angle_alpha   74.62007432
_cell_angle_beta   74.62007144
_cell_angle_gamma   59.99999105
_symmetry_Int_Tables_number   1
_chemical_formula_structural   SmTlTe2
_chemical_formula_sum   'Sm1 Tl1 Te2'
_cell_volume   144.37068915
_cell_formula_units_Z   1
loop_
 _symmetry_equiv_pos_site_id
 _symmetry_equiv_pos_as_xyz
  1  'x, y, z'
loop_
 _atom_site_type_symbol
 _atom_site_label
 _atom_site_symmetry_multiplicity
 _atom_site_fract_x
 _atom_site_fract_y
 _atom_site_fract_z
 _atom_site_occupancy
  Sm  Sm0  1  -0.00000000  0.00000000  0.00000000  1
  Tl  Tl1  1  0.50000000  0.50000000  0.50000000  1
  Te  Te2  1  0.73928740  0.73928740  0.78213880  1
  Te  Te3  1  0.26071260  0.26071260  0.21786120  1
