# generated using pymatgen
data_NaLuS2
_symmetry_space_group_name_H-M   'P 1'
_cell_length_a   3.87546020
_cell_length_b   3.87546020
_cell_length_c   6.96622142
_cell_angle_alpha   73.84953568
_cell_angle_beta   73.84953568
_cell_angle_gamma   60.00002999
_symmetry_Int_Tables_number   1
_chemical_formula_structural   NaLuS2
_chemical_formula_sum   'Na1 Lu1 S2'
_cell_volume   85.80863150
_cell_formula_units_Z   1
loop_
 _symmetry_equiv_pos_site_id
 _symmetry_equiv_pos_as_xyz
  1  'x, y, z'
loop_
 _atom_site_type_symbol
 _atom_site_label
 _atom_site_symmetry_multiplicity
 _atom_site_fract_x
 _atom_site_fract_y
 _atom_site_fract_z
 _atom_site_occupancy
  Na  Na0  1  0.00000000  0.00000000  -0.00000000  1
  Lu  Lu1  1  0.50000000  0.50000000  0.50000000  1
  S  S2  1  0.24128447  0.24128447  0.27614858  1
  S  S3  1  0.75871553  0.75871553  0.72385142  1
