# generated using pymatgen
data_K2PtC2
_symmetry_space_group_name_H-M   'P 1'
_cell_length_a   5.13836879
_cell_length_b   5.13830985
_cell_length_c   5.19454330
_cell_angle_alpha   90.00006215
_cell_angle_beta   90.00030520
_cell_angle_gamma   120.00039560
_symmetry_Int_Tables_number   1
_chemical_formula_structural   K2PtC2
_chemical_formula_sum   'K2 Pt1 C2'
_cell_volume   118.77412289
_cell_formula_units_Z   1
loop_
 _symmetry_equiv_pos_site_id
 _symmetry_equiv_pos_as_xyz
  1  'x, y, z'
loop_
 _atom_site_type_symbol
 _atom_site_label
 _atom_site_symmetry_multiplicity
 _atom_site_fract_x
 _atom_site_fract_y
 _atom_site_fract_z
 _atom_site_occupancy
  K  K0  1  0.33330263  0.66666419  0.27823630  1
  K  K1  1  0.66663630  0.33333248  0.72176522  1
  Pt  Pt2  1  0.99998925  0.00000063  -0.00000143  1
  C  C3  1  0.99998704  0.00000158  0.37788510  1
  C  C4  1  0.99998578  -0.00000088  0.62211381  1
