# generated using pymatgen
data_RbSeBr3
_symmetry_space_group_name_H-M   'P 1'
_cell_length_a   5.37446123
_cell_length_b   7.61916167
_cell_length_c   8.72161199
_cell_angle_alpha   90.00000000
_cell_angle_beta   90.00000000
_cell_angle_gamma   97.06039085
_symmetry_Int_Tables_number   1
_chemical_formula_structural   RbSeBr3
_chemical_formula_sum   'Rb2 Se2 Br6'
_cell_volume   354.43217929
_cell_formula_units_Z   2
loop_
 _symmetry_equiv_pos_site_id
 _symmetry_equiv_pos_as_xyz
  1  'x, y, z'
loop_
 _atom_site_type_symbol
 _atom_site_label
 _atom_site_symmetry_multiplicity
 _atom_site_fract_x
 _atom_site_fract_y
 _atom_site_fract_z
 _atom_site_occupancy
  Rb  Rb0  1  0.79757866  0.35508723  -0.00010984  1
  Rb  Rb1  1  0.20242134  0.64491277  0.49989016  1
  Se  Se2  1  0.00023484  -0.00032650  0.75001072  1
  Se  Se3  1  -0.00023484  0.00032650  0.25001072  1
  Br  Br4  1  0.71080430  0.70008831  0.74879868  1
  Br  Br5  1  0.28919570  0.29991169  0.24879868  1
  Br  Br6  1  0.71035994  0.70008389  0.25113187  1
  Br  Br7  1  0.28964006  0.29991611  0.75113187  1
  Br  Br8  1  0.21830411  0.90547318  0.00010556  1
  Br  Br9  1  0.78169589  0.09452582  0.50010556  1
