# generated using pymatgen
data_SrCeN2
_symmetry_space_group_name_H-M   'P 1'
_cell_length_a   6.34408753
_cell_length_b   6.34408753
_cell_length_c   5.21310578
_cell_angle_alpha   65.85485960
_cell_angle_beta   65.85485960
_cell_angle_gamma   48.58134917
_symmetry_Int_Tables_number   1
_chemical_formula_structural   SrCeN2
_chemical_formula_sum   'Sr2 Ce2 N4'
_cell_volume   140.60459101
_cell_formula_units_Z   2
loop_
 _symmetry_equiv_pos_site_id
 _symmetry_equiv_pos_as_xyz
  1  'x, y, z'
loop_
 _atom_site_type_symbol
 _atom_site_label
 _atom_site_symmetry_multiplicity
 _atom_site_fract_x
 _atom_site_fract_y
 _atom_site_fract_z
 _atom_site_occupancy
  Sr  Sr0  1  0.00116700  0.24795900  0.62582100  1
  Sr  Sr1  1  0.75204100  0.99883300  0.37417900  1
  Ce  Ce2  1  0.25116000  0.49747500  0.87844400  1
  Ce  Ce3  1  0.50252500  0.74884000  0.12155600  1
  N  N4  1  0.71435600  0.97395600  0.90483800  1
  N  N5  1  0.46808400  0.71944900  0.66664200  1
  N  N6  1  0.28055100  0.53191600  0.33335800  1
  N  N7  1  0.02604400  0.28564400  0.09516200  1
