# generated using pymatgen
data_CsPb2Cl5
_symmetry_space_group_name_H-M   'P 1'
_cell_length_a   8.15590451
_cell_length_b   8.15590451
_cell_length_c   9.45902180
_cell_angle_alpha   115.53851324
_cell_angle_beta   115.53851324
_cell_angle_gamma   90.00000000
_symmetry_Int_Tables_number   1
_chemical_formula_structural   CsPb2Cl5
_chemical_formula_sum   'Cs2 Pb4 Cl10'
_cell_volume   498.72989231
_cell_formula_units_Z   2
loop_
 _symmetry_equiv_pos_site_id
 _symmetry_equiv_pos_as_xyz
  1  'x, y, z'
loop_
 _atom_site_type_symbol
 _atom_site_label
 _atom_site_symmetry_multiplicity
 _atom_site_fract_x
 _atom_site_fract_y
 _atom_site_fract_z
 _atom_site_occupancy
  Cs  Cs0  1  0.25000000  0.25000000  0.50000000  1
  Cs  Cs1  1  0.75000000  0.75000000  0.50000000  1
  Pb  Pb2  1  0.66654455  0.16654455  0.00000000  1
  Pb  Pb3  1  0.16654455  0.33345645  -0.00000000  1
  Pb  Pb4  1  0.83345645  0.66654455  -0.00000000  1
  Pb  Pb5  1  0.33345645  0.83345645  -0.00000000  1
  Cl  Cl6  1  -0.00000000  -0.00000000  -0.00000000  1
  Cl  Cl7  1  0.50000000  0.50000000  -0.00000000  1
  Cl  Cl8  1  0.46918635  0.27799667  0.24718401  1
  Cl  Cl9  1  0.96918635  0.46918635  0.24718401  1
  Cl  Cl10  1  0.27799667  0.77799667  0.24718401  1
  Cl  Cl11  1  0.77799667  0.96918635  0.24718401  1
  Cl  Cl12  1  0.22200333  0.03081365  0.75281599  1
  Cl  Cl13  1  0.72200333  0.22200333  0.75281599  1
  Cl  Cl14  1  0.03081365  0.53081365  0.75281599  1
  Cl  Cl15  1  0.53081365  0.72200333  0.75281599  1
