# generated using pymatgen
data_Nd2O5
_symmetry_space_group_name_H-M   'P 1'
_cell_length_a   5.61044308
_cell_length_b   6.00724369
_cell_length_c   7.36842419
_cell_angle_alpha   118.07308369
_cell_angle_beta   112.37758724
_cell_angle_gamma   89.99999328
_symmetry_Int_Tables_number   1
_chemical_formula_structural   Nd2O5
_chemical_formula_sum   'Nd4 O10'
_cell_volume   197.67614918
_cell_formula_units_Z   2
loop_
 _symmetry_equiv_pos_site_id
 _symmetry_equiv_pos_as_xyz
  1  'x, y, z'
loop_
 _atom_site_type_symbol
 _atom_site_label
 _atom_site_symmetry_multiplicity
 _atom_site_fract_x
 _atom_site_fract_y
 _atom_site_fract_z
 _atom_site_occupancy
  Nd  Nd0  1  0.67990387  0.83888308  0.78098022  1
  Nd  Nd1  1  0.89892465  0.66111692  0.21901978  1
  Nd  Nd2  1  0.32009613  0.16111692  0.21901978  1
  Nd  Nd3  1  0.10107535  0.33888308  0.78098022  1
  O  O4  1  0.38274673  0.65253199  0.37720294  1
  O  O5  1  0.00554279  0.84746801  0.62279706  1
  O  O6  1  0.61725327  0.34746801  0.62279706  1
  O  O7  1  0.99445721  0.15253199  0.37720294  1
  O  O8  1  0.94385885  0.25000000  0.00000000  1
  O  O9  1  0.05614115  0.75000000  -0.00000000  1
  O  O10  1  0.47503741  0.51857484  0.19623061  1
  O  O11  1  0.27880580  0.98142516  0.80376939  1
  O  O12  1  0.52496259  0.48142516  0.80376939  1
  O  O13  1  0.72119420  0.01857484  0.19623061  1
