# generated using pymatgen
data_RbYS2
_symmetry_space_group_name_H-M   'P 1'
_cell_length_a   4.06860869
_cell_length_b   4.06860962
_cell_length_c   8.00157439
_cell_angle_alpha   75.27156203
_cell_angle_beta   75.27156408
_cell_angle_gamma   60.00000088
_symmetry_Int_Tables_number   1
_chemical_formula_structural   RbYS2
_chemical_formula_sum   'Rb1 Y1 S2'
_cell_volume   109.65482276
_cell_formula_units_Z   1
loop_
 _symmetry_equiv_pos_site_id
 _symmetry_equiv_pos_as_xyz
  1  'x, y, z'
loop_
 _atom_site_type_symbol
 _atom_site_label
 _atom_site_symmetry_multiplicity
 _atom_site_fract_x
 _atom_site_fract_y
 _atom_site_fract_z
 _atom_site_occupancy
  Rb  Rb0  1  -0.00000000  0.00000000  -0.00000000  1
  Y  Y1  1  0.50000000  0.50000000  0.50000000  1
  S  S2  1  0.76915173  0.76915173  0.69254682  1
  S  S3  1  0.23084827  0.23084827  0.30745318  1
