# generated using pymatgen
data_V2Se2O11
_symmetry_space_group_name_H-M   'P 1'
_cell_length_a   8.20297183
_cell_length_b   8.20297183
_cell_length_c   9.73636876
_cell_angle_alpha   69.39895328
_cell_angle_beta   69.39895328
_cell_angle_gamma   39.61487392
_symmetry_Int_Tables_number   1
_chemical_formula_structural   V2Se2O11
_chemical_formula_sum   'V4 Se4 O22'
_cell_volume   387.42486545
_cell_formula_units_Z   2
loop_
 _symmetry_equiv_pos_site_id
 _symmetry_equiv_pos_as_xyz
  1  'x, y, z'
loop_
 _atom_site_type_symbol
 _atom_site_label
 _atom_site_symmetry_multiplicity
 _atom_site_fract_x
 _atom_site_fract_y
 _atom_site_fract_z
 _atom_site_occupancy
  V  V0  1  0.20767424  0.03545613  0.70790403  1
  V  V1  1  0.96454387  0.79232576  0.79209597  1
  V  V2  1  0.79232576  0.96454387  0.29209597  1
  V  V3  1  0.03545613  0.20767424  0.20790403  1
  Se  Se4  1  0.77558171  0.51713995  0.90107457  1
  Se  Se5  1  0.48286005  0.22441829  0.59892543  1
  Se  Se6  1  0.22441829  0.48286005  0.09892543  1
  Se  Se7  1  0.51713995  0.77558171  0.40107457  1
  O  O8  1  0.89137404  0.10862596  0.25000000  1
  O  O9  1  0.10862596  0.89137404  0.75000000  1
  O  O10  1  0.04049361  0.26846959  0.58329811  1
  O  O11  1  0.73153041  0.95950639  0.91670189  1
  O  O12  1  0.95950639  0.73153041  0.41670189  1
  O  O13  1  0.26846959  0.04049361  0.08329811  1
  O  O14  1  0.77811369  0.51540156  0.07215498  1
  O  O15  1  0.48459844  0.22188631  0.42784502  1
  O  O16  1  0.22188631  0.48459844  0.92784502  1
  O  O17  1  0.51540156  0.77811369  0.57215498  1
  O  O18  1  0.97699511  0.21059956  0.88258422  1
  O  O19  1  0.78940044  0.02300489  0.61741578  1
  O  O20  1  0.02300489  0.78940044  0.11741578  1
  O  O21  1  0.21059956  0.97699511  0.38258422  1
  O  O22  1  0.90334555  0.60776670  0.77794235  1
  O  O23  1  0.39223330  0.09665445  0.72205765  1
  O  O24  1  0.09665445  0.39223330  0.22205765  1
  O  O25  1  0.60776670  0.90334555  0.27794235  1
  O  O26  1  0.48738307  0.69337433  0.87639490  1
  O  O27  1  0.30662567  0.51261693  0.62360510  1
  O  O28  1  0.51261693  0.30662567  0.12360510  1
  O  O29  1  0.69337433  0.48738307  0.37639490  1
