# generated using pymatgen
data_Tl3AsS3
_symmetry_space_group_name_H-M   'P 1'
_cell_length_a   6.09142110
_cell_length_b   6.09142164
_cell_length_c   6.09142095
_cell_angle_alpha   105.89081810
_cell_angle_beta   105.89082662
_cell_angle_gamma   105.89081351
_symmetry_Int_Tables_number   1
_chemical_formula_structural   Tl3AsS3
_chemical_formula_sum   'Tl3 As1 S3'
_cell_volume   193.64900726
_cell_formula_units_Z   1
loop_
 _symmetry_equiv_pos_site_id
 _symmetry_equiv_pos_as_xyz
  1  'x, y, z'
loop_
 _atom_site_type_symbol
 _atom_site_label
 _atom_site_symmetry_multiplicity
 _atom_site_fract_x
 _atom_site_fract_y
 _atom_site_fract_z
 _atom_site_occupancy
  Tl  Tl0  1  0.61262100  0.00475561  0.00475561  1
  Tl  Tl1  1  0.00475561  0.00475561  0.61262100  1
  Tl  Tl2  1  0.00475561  0.61262100  0.00475561  1
  As  As3  1  0.44189851  0.44189851  0.44189851  1
  S  S4  1  0.06204097  0.42446265  0.42446265  1
  S  S5  1  0.42446265  0.42446265  0.06204097  1
  S  S6  1  0.42446265  0.06204097  0.42446265  1
