# generated using pymatgen
data_RbCaCl3
_symmetry_space_group_name_H-M   'P 1'
_cell_length_a   5.37769766
_cell_length_b   5.37749118
_cell_length_c   5.37721141
_cell_angle_alpha   90.01122959
_cell_angle_beta   90.04305037
_cell_angle_gamma   90.00225986
_symmetry_Int_Tables_number   1
_chemical_formula_structural   RbCaCl3
_chemical_formula_sum   'Rb1 Ca1 Cl3'
_cell_volume   155.50095814
_cell_formula_units_Z   1
loop_
 _symmetry_equiv_pos_site_id
 _symmetry_equiv_pos_as_xyz
  1  'x, y, z'
loop_
 _atom_site_type_symbol
 _atom_site_label
 _atom_site_symmetry_multiplicity
 _atom_site_fract_x
 _atom_site_fract_y
 _atom_site_fract_z
 _atom_site_occupancy
  Rb  Rb0  1  0.99557131  0.99789525  0.99618279  1
  Ca  Ca1  1  0.48738880  0.50030540  0.49853092  1
  Cl  Cl2  1  0.48355777  0.00034563  0.49414809  1
  Cl  Cl3  1  0.98700579  0.50370678  0.50276754  1
  Cl  Cl4  1  0.48647932  0.49774894  0.99836965  1
