# generated using pymatgen
data_CaTlCl3
_symmetry_space_group_name_H-M   'P 1'
_cell_length_a   4.07088862
_cell_length_b   7.07598544
_cell_length_c   10.33872924
_cell_angle_alpha   90.00000000
_cell_angle_beta   90.00000000
_cell_angle_gamma   106.79705445
_symmetry_Int_Tables_number   1
_chemical_formula_structural   CaTlCl3
_chemical_formula_sum   'Ca2 Tl2 Cl6'
_cell_volume   285.10639359
_cell_formula_units_Z   2
loop_
 _symmetry_equiv_pos_site_id
 _symmetry_equiv_pos_as_xyz
  1  'x, y, z'
loop_
 _atom_site_type_symbol
 _atom_site_label
 _atom_site_symmetry_multiplicity
 _atom_site_fract_x
 _atom_site_fract_y
 _atom_site_fract_z
 _atom_site_occupancy
  Ca  Ca0  1  0.00000153  0.00000294  0.25001047  1
  Ca  Ca1  1  -0.00000153  0.99999706  0.75001047  1
  Tl  Tl2  1  0.25689746  0.51672830  -0.00000092  1
  Tl  Tl3  1  0.74310154  0.48327170  0.49999908  1
  Cl  Cl4  1  0.36731328  0.73524255  0.29719793  1
  Cl  Cl5  1  0.63268772  0.26475645  0.79719693  1
  Cl  Cl6  1  0.36731260  0.73524418  0.70280185  1
  Cl  Cl7  1  0.63268540  0.26475482  0.20280185  1
  Cl  Cl8  1  0.93620616  0.87203487  0.00000668  1
  Cl  Cl9  1  0.06379284  0.12796413  0.50000668  1
