# generated using pymatgen
data_SnBr2
_symmetry_space_group_name_H-M   'P 1'
_cell_length_a   7.04698238
_cell_length_b   7.04698238
_cell_length_c   4.42591703
_cell_angle_alpha   90.00000000
_cell_angle_beta   90.00000000
_cell_angle_gamma   90.00000000
_symmetry_Int_Tables_number   1
_chemical_formula_structural   SnBr2
_chemical_formula_sum   'Sn2 Br4'
_cell_volume   219.79086561
_cell_formula_units_Z   2
loop_
 _symmetry_equiv_pos_site_id
 _symmetry_equiv_pos_as_xyz
  1  'x, y, z'
loop_
 _atom_site_type_symbol
 _atom_site_label
 _atom_site_symmetry_multiplicity
 _atom_site_fract_x
 _atom_site_fract_y
 _atom_site_fract_z
 _atom_site_occupancy
  Sn  Sn0  1  0.00000000  -0.00000000  0.00000000  1
  Sn  Sn1  1  0.50000000  0.50000000  0.50000100  1
  Br  Br2  1  0.29865519  0.29865519  -0.00000000  1
  Br  Br3  1  0.70134581  0.70134581  0.00000000  1
  Br  Br4  1  0.79865419  0.20134481  0.50000100  1
  Br  Br5  1  0.20134481  0.79865419  0.50000100  1
