# generated using pymatgen
data_MgTa2O6
_symmetry_space_group_name_H-M   'P 1'
_cell_length_a   4.72661878
_cell_length_b   4.72661878
_cell_length_c   9.20750332
_cell_angle_alpha   90.00000000
_cell_angle_beta   90.00000000
_cell_angle_gamma   90.00000000
_symmetry_Int_Tables_number   1
_chemical_formula_structural   MgTa2O6
_chemical_formula_sum   'Mg2 Ta4 O12'
_cell_volume   205.70414195
_cell_formula_units_Z   2
loop_
 _symmetry_equiv_pos_site_id
 _symmetry_equiv_pos_as_xyz
  1  'x, y, z'
loop_
 _atom_site_type_symbol
 _atom_site_label
 _atom_site_symmetry_multiplicity
 _atom_site_fract_x
 _atom_site_fract_y
 _atom_site_fract_z
 _atom_site_occupancy
  Mg  Mg0  1  -0.00000000  -0.00000000  0.00000000  1
  Mg  Mg1  1  0.50000000  0.50000000  0.50000000  1
  Ta  Ta2  1  0.50000000  0.50000000  0.83219910  1
  Ta  Ta3  1  -0.00000000  -0.00000000  0.33219910  1
  Ta  Ta4  1  0.50000000  0.50000000  0.16780090  1
  Ta  Ta5  1  -0.00000000  -0.00000000  0.66780090  1
  O  O6  1  0.70222613  0.70222613  0.67553841  1
  O  O7  1  0.29777387  0.29777387  0.67553841  1
  O  O8  1  0.70222613  0.70222613  0.32446159  1
  O  O9  1  0.20222613  0.79777387  0.17553841  1
  O  O10  1  0.79777387  0.20222613  0.17553841  1
  O  O11  1  0.79777387  0.20222613  0.82446159  1
  O  O12  1  0.31028972  0.31028972  0.00000000  1
  O  O13  1  0.18971028  0.81028972  0.50000000  1
  O  O14  1  0.81028972  0.18971028  0.50000000  1
  O  O15  1  0.68971028  0.68971028  0.00000000  1
  O  O16  1  0.29777387  0.29777387  0.32446159  1
  O  O17  1  0.20222613  0.79777387  0.82446159  1
