# generated using pymatgen
data_KCdF3
_symmetry_space_group_name_H-M   'P 1'
_cell_length_a   6.18108562
_cell_length_b   6.08209058
_cell_length_c   8.64136873
_cell_angle_alpha   90.00001605
_cell_angle_beta   90.00000000
_cell_angle_gamma   90.00000000
_symmetry_Int_Tables_number   1
_chemical_formula_structural   KCdF3
_chemical_formula_sum   'K4 Cd4 F12'
_cell_volume   324.86294740
_cell_formula_units_Z   4
loop_
 _symmetry_equiv_pos_site_id
 _symmetry_equiv_pos_as_xyz
  1  'x, y, z'
loop_
 _atom_site_type_symbol
 _atom_site_label
 _atom_site_symmetry_multiplicity
 _atom_site_fract_x
 _atom_site_fract_y
 _atom_site_fract_z
 _atom_site_occupancy
  K  K0  1  0.95645683  0.01000009  0.75000000  1
  K  K1  1  0.45645783  0.48999991  0.75000000  1
  K  K2  1  0.54354217  0.51000009  0.25000000  1
  K  K3  1  0.04354317  0.98999991  0.25000000  1
  Cd  Cd4  1  -0.00000000  0.50000000  0.00000000  1
  Cd  Cd5  1  0.50000000  0.00000000  0.50000000  1
  Cd  Cd6  1  0.50000000  -0.00000000  0.00000000  1
  Cd  Cd7  1  -0.00000000  0.50000000  0.50000000  1
  F  F8  1  0.70706834  0.29462519  0.54280801  1
  F  F9  1  0.20706834  0.20537481  0.95719199  1
  F  F10  1  0.79293166  0.79462619  0.45719199  1
  F  F11  1  0.29293166  0.70537481  0.04280801  1
  F  F12  1  0.29293166  0.70537481  0.45719199  1
  F  F13  1  0.79293166  0.79462519  0.04280801  1
  F  F14  1  0.20706834  0.20537381  0.54280801  1
  F  F15  1  0.70706834  0.29462519  0.95719199  1
  F  F16  1  0.52680765  0.91844157  0.75000000  1
  F  F17  1  0.02680765  0.58155843  0.75000000  1
  F  F18  1  0.97319235  0.41844157  0.25000000  1
  F  F19  1  0.47319235  0.08155843  0.25000000  1
