# generated using pymatgen
data_Na6TeP6(H3O5)6
_symmetry_space_group_name_H-M   'P 1'
_cell_length_a   11.77312963
_cell_length_b   11.77312963
_cell_length_c   12.17457274
_cell_angle_alpha   90.00000000
_cell_angle_beta   90.00000000
_cell_angle_gamma   119.99999768
_symmetry_Int_Tables_number   1
_chemical_formula_structural   Na6TeP6(H3O5)6
_chemical_formula_sum   'Na12 Te2 P12 H36 O60'
_cell_volume   1461.39703641
_cell_formula_units_Z   2
loop_
 _symmetry_equiv_pos_site_id
 _symmetry_equiv_pos_as_xyz
  1  'x, y, z'
loop_
 _atom_site_type_symbol
 _atom_site_label
 _atom_site_symmetry_multiplicity
 _atom_site_fract_x
 _atom_site_fract_y
 _atom_site_fract_z
 _atom_site_occupancy
  Na  Na0  1  0.71789530  0.84728489  0.75000000  1
  Na  Na1  1  0.28210470  0.15271511  0.25000000  1
  Na  Na2  1  0.12938959  0.28210470  0.75000000  1
  Na  Na3  1  0.87061041  0.71789530  0.25000000  1
  Na  Na4  1  0.15271511  0.87061041  0.75000000  1
  Na  Na5  1  0.84728489  0.12938959  0.25000000  1
  Na  Na6  1  0.42942521  0.55881464  0.75000000  1
  Na  Na7  1  0.57057479  0.44118536  0.25000000  1
  Na  Na8  1  0.12938943  0.57057479  0.75000000  1
  Na  Na9  1  0.87061057  0.42942521  0.25000000  1
  Na  Na10  1  0.44118536  0.87061057  0.75000000  1
  Na  Na11  1  0.55881464  0.12938943  0.25000000  1
  Te  Te12  1  -0.00000000  0.00000000  0.00000000  1
  Te  Te13  1  -0.00000000  0.00000000  0.50000000  1
  P  P14  1  0.49753272  0.74740478  0.99314654  1
  P  P15  1  0.50246728  0.25259522  0.00685346  1
  P  P16  1  0.24987206  0.50246728  0.99314654  1
  P  P17  1  0.50246728  0.25259522  0.49314654  1
  P  P18  1  0.75012794  0.49753272  0.00685346  1
  P  P19  1  0.49753272  0.74740478  0.50685346  1
  P  P20  1  0.25259522  0.75012794  0.99314654  1
  P  P21  1  0.75012794  0.49753272  0.49314654  1
  P  P22  1  0.74740478  0.24987206  0.00685346  1
  P  P23  1  0.24987206  0.50246728  0.50685346  1
  P  P24  1  0.74740478  0.24987206  0.49314654  1
  P  P25  1  0.25259522  0.75012794  0.50685346  1
  H  H26  1  0.92967554  0.15112973  0.92759169  1
  H  H27  1  0.07032446  0.84887027  0.07240831  1
  H  H28  1  0.22145419  0.07032446  0.92759169  1
  H  H29  1  0.07032446  0.84887027  0.42759169  1
  H  H30  1  0.77854581  0.92967554  0.07240831  1
  H  H31  1  0.92967554  0.15112973  0.57240831  1
  H  H32  1  0.84887027  0.77854581  0.92759169  1
  H  H33  1  0.77854581  0.92967554  0.42759169  1
  H  H34  1  0.15112973  0.22145419  0.07240831  1
  H  H35  1  0.22145419  0.07032446  0.57240831  1
  H  H36  1  0.15112973  0.22145419  0.42759169  1
  H  H37  1  0.84887027  0.77854581  0.57240831  1
  H  H38  1  0.71204261  0.08355109  0.81455460  1
  H  H39  1  0.28795739  0.91644891  0.18544540  1
  H  H40  1  0.37150847  0.28795739  0.81455460  1
  H  H41  1  0.28795739  0.91644891  0.31455460  1
  H  H42  1  0.62849153  0.71204261  0.18544540  1
  H  H43  1  0.71204261  0.08355109  0.68544540  1
  H  H44  1  0.91644891  0.62849153  0.81455460  1
  H  H45  1  0.62849153  0.71204261  0.31455460  1
  H  H46  1  0.08355109  0.37150847  0.18544540  1
  H  H47  1  0.37150847  0.28795739  0.68544540  1
  H  H48  1  0.08355109  0.37150847  0.31455460  1
  H  H49  1  0.91644891  0.62849153  0.68544540  1
  H  H50  1  0.90524969  0.30438778  0.81434808  1
  H  H51  1  0.09475031  0.69561222  0.18565192  1
  H  H52  1  0.39913809  0.09475031  0.81434808  1
  H  H53  1  0.09475031  0.69561222  0.31434808  1
  H  H54  1  0.60086191  0.90524969  0.18565192  1
  H  H55  1  0.90524969  0.30438778  0.68565192  1
  H  H56  1  0.69561222  0.60086191  0.81434808  1
  H  H57  1  0.60086191  0.90524969  0.31434808  1
  H  H58  1  0.30438778  0.39913809  0.18565192  1
  H  H59  1  0.39913809  0.09475031  0.68565192  1
  H  H60  1  0.30438778  0.39913809  0.31434808  1
  H  H61  1  0.69561222  0.60086191  0.68565192  1
  O  O62  1  0.80438840  0.19352325  0.92766937  1
  O  O63  1  0.19561160  0.80647675  0.07233063  1
  O  O64  1  0.38913486  0.19561160  0.92766937  1
  O  O65  1  0.19561160  0.80647675  0.42766937  1
  O  O66  1  0.61086514  0.80438840  0.07233063  1
  O  O67  1  0.80438840  0.19352325  0.57233063  1
  O  O68  1  0.80647675  0.61086514  0.92766937  1
  O  O69  1  0.61086514  0.80438840  0.42766937  1
  O  O70  1  0.19352325  0.38913486  0.07233063  1
  O  O71  1  0.38913486  0.19561160  0.57233063  1
  O  O72  1  0.19352325  0.38913486  0.42766937  1
  O  O73  1  0.80647675  0.61086514  0.57233063  1
  O  O74  1  0.67523553  0.02562019  0.75000000  1
  O  O75  1  0.32476447  0.97437981  0.25000000  1
  O  O76  1  0.35038466  0.32476447  0.75000000  1
  O  O77  1  0.64961534  0.67523553  0.25000000  1
  O  O78  1  0.97437981  0.64961534  0.75000000  1
  O  O79  1  0.02562019  0.35038466  0.25000000  1
  O  O80  1  0.80977310  0.40388764  0.97240516  1
  O  O81  1  0.19022690  0.59611236  0.02759484  1
  O  O82  1  0.59411455  0.19022690  0.97240516  1
  O  O83  1  0.19022690  0.59611236  0.47240516  1
  O  O84  1  0.40588545  0.80977310  0.02759484  1
  O  O85  1  0.80977310  0.40388764  0.52759484  1
  O  O86  1  0.59611236  0.40588545  0.97240516  1
  O  O87  1  0.40588545  0.80977310  0.47240516  1
  O  O88  1  0.40388764  0.59411455  0.02759484  1
  O  O89  1  0.59411455  0.19022690  0.52759484  1
  O  O90  1  0.40388764  0.59411455  0.47240516  1
  O  O91  1  0.59611236  0.40588545  0.52759484  1
  O  O92  1  0.00225178  0.13541603  0.90564940  1
  O  O93  1  0.99774822  0.86458397  0.09435060  1
  O  O94  1  0.13316425  0.99774822  0.90564940  1
  O  O95  1  0.99774822  0.86458397  0.40564940  1
  O  O96  1  0.86683575  0.00225178  0.09435060  1
  O  O97  1  0.00225178  0.13541603  0.59435060  1
  O  O98  1  0.86458397  0.86683575  0.90564940  1
  O  O99  1  0.86683575  0.00225178  0.40564940  1
  O  O100  1  0.13541603  0.13316425  0.09435060  1
  O  O101  1  0.13316425  0.99774822  0.59435060  1
  O  O102  1  0.13541603  0.13316425  0.40564940  1
  O  O103  1  0.86458397  0.86683575  0.59435060  1
  O  O104  1  0.96225915  0.34535751  0.75000000  1
  O  O105  1  0.03774085  0.65464249  0.25000000  1
  O  O106  1  0.38309836  0.03774085  0.75000000  1
  O  O107  1  0.61690164  0.96225915  0.25000000  1
  O  O108  1  0.65464249  0.61690164  0.75000000  1
  O  O109  1  0.34535751  0.38309836  0.25000000  1
  O  O110  1  0.52034916  0.75798138  0.87179834  1
  O  O111  1  0.47965084  0.24201862  0.12820166  1
  O  O112  1  0.23763222  0.47965084  0.87179834  1
  O  O113  1  0.47965084  0.24201862  0.37179834  1
  O  O114  1  0.76236778  0.52034916  0.12820166  1
  O  O115  1  0.52034916  0.75798138  0.62820166  1
  O  O116  1  0.24201862  0.76236778  0.87179834  1
  O  O117  1  0.76236778  0.52034916  0.37179834  1
  O  O118  1  0.75798138  0.23763222  0.12820166  1
  O  O119  1  0.23763222  0.47965084  0.62820166  1
  O  O120  1  0.75798138  0.23763222  0.37179834  1
  O  O121  1  0.24201862  0.76236778  0.62820166  1
