# generated using pymatgen
data_Er2ZnS4
_symmetry_space_group_name_H-M   'P 1'
_cell_length_a   6.26875028
_cell_length_b   7.78416264
_cell_length_c   13.36269376
_cell_angle_alpha   90.00000000
_cell_angle_beta   90.00000000
_cell_angle_gamma   90.00000000
_symmetry_Int_Tables_number   1
_chemical_formula_structural   Er2ZnS4
_chemical_formula_sum   'Er8 Zn4 S16'
_cell_volume   652.05898963
_cell_formula_units_Z   4
loop_
 _symmetry_equiv_pos_site_id
 _symmetry_equiv_pos_as_xyz
  1  'x, y, z'
loop_
 _atom_site_type_symbol
 _atom_site_label
 _atom_site_symmetry_multiplicity
 _atom_site_fract_x
 _atom_site_fract_y
 _atom_site_fract_z
 _atom_site_occupancy
  Er  Er0  1  0.49554392  0.75000000  0.23431602  1
  Er  Er1  1  0.00445608  0.75000000  0.73431602  1
  Er  Er2  1  0.50445608  0.25000000  0.76568398  1
  Er  Er3  1  0.99554392  0.25000000  0.26568398  1
  Er  Er4  1  0.00000000  0.50000000  -0.00000000  1
  Er  Er5  1  0.50000000  -0.00000000  0.50000000  1
  Er  Er6  1  0.00000000  -0.00000000  -0.00000000  1
  Er  Er7  1  0.50000000  0.50000000  0.50000000  1
  Zn  Zn8  1  0.91131401  0.75000000  0.40833910  1
  Zn  Zn9  1  0.58868599  0.75000000  0.90833910  1
  Zn  Zn10  1  0.08868599  0.25000000  0.59166090  1
  Zn  Zn11  1  0.41131401  0.25000000  0.09166090  1
  S  S12  1  0.27522140  0.75000000  0.40995260  1
  S  S13  1  0.22477860  0.75000000  0.90995260  1
  S  S14  1  0.72477860  0.25000000  0.59004740  1
  S  S15  1  0.77522140  0.25000000  0.09004740  1
  S  S16  1  0.75673419  0.75000000  0.57027722  1
  S  S17  1  0.74326581  0.75000000  0.07027722  1
  S  S18  1  0.24326581  0.25000000  0.42972278  1
  S  S19  1  0.25673419  0.25000000  0.92972278  1
  S  S20  1  0.74406950  0.51293676  0.33188213  1
  S  S21  1  0.75593050  0.98706324  0.83188213  1
  S  S22  1  0.25593050  0.01293676  0.66811787  1
  S  S23  1  0.24406950  0.48706324  0.16811787  1
  S  S24  1  0.25593050  0.48706324  0.66811787  1
  S  S25  1  0.24406950  0.01293676  0.16811787  1
  S  S26  1  0.74406950  0.98706324  0.33188213  1
  S  S27  1  0.75593050  0.51293676  0.83188213  1
