# generated using pymatgen
data_AgAuF4
_symmetry_space_group_name_H-M   'P 1'
_cell_length_a   5.71447185
_cell_length_b   5.71447149
_cell_length_c   6.71450963
_cell_angle_alpha   115.18432159
_cell_angle_beta   115.18431692
_cell_angle_gamma   89.99999814
_symmetry_Int_Tables_number   1
_chemical_formula_structural   AgAuF4
_chemical_formula_sum   'Ag2 Au2 F8'
_cell_volume   175.11537154
_cell_formula_units_Z   2
loop_
 _symmetry_equiv_pos_site_id
 _symmetry_equiv_pos_as_xyz
  1  'x, y, z'
loop_
 _atom_site_type_symbol
 _atom_site_label
 _atom_site_symmetry_multiplicity
 _atom_site_fract_x
 _atom_site_fract_y
 _atom_site_fract_z
 _atom_site_occupancy
  Ag  Ag0  1  0.25000000  0.25000000  0.50000000  1
  Ag  Ag1  1  0.75000000  0.75000000  0.50000000  1
  Au  Au2  1  0.00000000  0.50000000  -0.00000000  1
  Au  Au3  1  0.50000000  0.00000000  -0.00000000  1
  F  F4  1  0.69913651  0.19913651  0.74259667  1
  F  F5  1  0.95653984  0.45653984  0.25740333  1
  F  F6  1  0.30086349  0.80086349  0.25740333  1
  F  F7  1  0.45653984  0.30086349  0.25740333  1
  F  F8  1  0.04346016  0.54346016  0.74259667  1
  F  F9  1  0.19913651  0.04346016  0.74259667  1
  F  F10  1  0.54346016  0.69913651  0.74259667  1
  F  F11  1  0.80086349  0.95653984  0.25740333  1
