# generated using pymatgen
data_KGaTe2
_symmetry_space_group_name_H-M   'P 1'
_cell_length_a   8.40193713
_cell_length_b   8.40193713
_cell_length_c   16.64965775
_cell_angle_alpha   82.78783661
_cell_angle_beta   82.78783661
_cell_angle_gamma   90.06843633
_symmetry_Int_Tables_number   1
_chemical_formula_structural   KGaTe2
_chemical_formula_sum   'K8 Ga8 Te16'
_cell_volume   1156.64521972
_cell_formula_units_Z   8
loop_
 _symmetry_equiv_pos_site_id
 _symmetry_equiv_pos_as_xyz
  1  'x, y, z'
loop_
 _atom_site_type_symbol
 _atom_site_label
 _atom_site_symmetry_multiplicity
 _atom_site_fract_x
 _atom_site_fract_y
 _atom_site_fract_z
 _atom_site_occupancy
  K  K0  1  0.34550037  0.22030724  0.61758431  1
  K  K1  1  0.77969276  0.65449963  0.88241569  1
  K  K2  1  0.65449963  0.77969276  0.38241569  1
  K  K3  1  0.22030724  0.34550037  0.11758431  1
  K  K4  1  0.77878439  0.15149622  0.89234917  1
  K  K5  1  0.84850378  0.22121561  0.60765083  1
  K  K6  1  0.22121561  0.84850378  0.10765083  1
  K  K7  1  0.15149622  0.77878439  0.39234917  1
  Ga  Ga8  1  0.58185871  0.70942565  0.66329973  1
  Ga  Ga9  1  0.29057435  0.41814129  0.83670027  1
  Ga  Ga10  1  0.41814129  0.29057435  0.33670027  1
  Ga  Ga11  1  0.70942565  0.58185871  0.16329973  1
  Ga  Ga12  1  0.29084933  0.91303419  0.83741326  1
  Ga  Ga13  1  0.08696581  0.70915067  0.66258674  1
  Ga  Ga14  1  0.70915067  0.08696581  0.16258674  1
  Ga  Ga15  1  0.91303419  0.29084933  0.33741326  1
  Te  Te16  1  0.35983740  0.73375352  0.56438152  1
  Te  Te17  1  0.26624648  0.64016260  0.93561848  1
  Te  Te18  1  0.64016260  0.26624648  0.43561848  1
  Te  Te19  1  0.73375352  0.35983740  0.06438152  1
  Te  Te20  1  0.57322089  0.94851112  0.75016739  1
  Te  Te21  1  0.05148888  0.42677911  0.74983261  1
  Te  Te22  1  0.42677911  0.05148888  0.24983261  1
  Te  Te23  1  0.94851112  0.57322089  0.25016739  1
  Te  Te24  1  0.26662861  0.14255288  0.93341547  1
  Te  Te25  1  0.85744712  0.73337139  0.56658453  1
  Te  Te26  1  0.73337139  0.85744712  0.06658453  1
  Te  Te27  1  0.14255288  0.26662861  0.43341547  1
  Te  Te28  1  0.05232994  0.94767006  0.75000000  1
  Te  Te29  1  0.94767006  0.05232994  0.25000000  1
  Te  Te30  1  0.57299207  0.42700793  0.75000000  1
  Te  Te31  1  0.42700793  0.57299207  0.25000000  1
