# generated using pymatgen
data_CaTb4(PO4)4
_symmetry_space_group_name_H-M   'P 1'
_cell_length_a   6.53092063
_cell_length_b   6.64050985
_cell_length_c   8.47095597
_cell_angle_alpha   96.87506931
_cell_angle_beta   104.62317719
_cell_angle_gamma   99.46373950
_symmetry_Int_Tables_number   1
_chemical_formula_structural   CaTb4(PO4)4
_chemical_formula_sum   'Ca1 Tb4 P4 O16'
_cell_volume   345.59733077
_cell_formula_units_Z   1
loop_
 _symmetry_equiv_pos_site_id
 _symmetry_equiv_pos_as_xyz
  1  'x, y, z'
loop_
 _atom_site_type_symbol
 _atom_site_label
 _atom_site_symmetry_multiplicity
 _atom_site_fract_x
 _atom_site_fract_y
 _atom_site_fract_z
 _atom_site_occupancy
  Ca  Ca0  1  0.99275800  0.47851100  0.54668700  1
  Tb  Tb1  1  0.38942200  0.16121800  0.61409500  1
  Tb  Tb2  1  0.80033000  0.66582700  0.90327200  1
  Tb  Tb3  1  0.67856300  0.85371900  0.31687400  1
  Tb  Tb4  1  0.07995500  0.24506200  0.16554500  1
  P  P5  1  0.89682800  0.13648300  0.72590200  1
  P  P6  1  0.35596100  0.73728600  0.85482400  1
  P  P7  1  0.15417100  0.79875300  0.30138800  1
  P  P8  1  0.62802700  0.34202400  0.18036700  1
  O  O9  1  0.16874100  0.27668100  0.43428700  1
  O  O10  1  0.51827500  0.76478300  0.02945900  1
  O  O11  1  0.06182900  0.80042200  0.45322600  1
  O  O12  1  0.38987000  0.26750100  0.09183200  1
  O  O13  1  0.89743300  0.04624400  0.89194600  1
  O  O14  1  0.43619900  0.57101000  0.74750600  1
  O  O15  1  0.97692200  0.86847300  0.16663700  1
  O  O16  1  0.66855600  0.51401300  0.33398000  1
  O  O17  1  0.72130500  0.96312400  0.58751700  1
  O  O18  1  0.11663100  0.64862000  0.84421300  1
  O  O19  1  0.36719700  0.96471400  0.34901600  1
  O  O20  1  0.76694800  0.42186400  0.06562800  1
  O  O21  1  0.75418000  0.32836400  0.71683300  1
  O  O22  1  0.37085700  0.94004200  0.78700400  1
  O  O23  1  0.20176100  0.59477800  0.23437500  1
  O  O24  1  0.74269900  0.17048500  0.25017900  1
