# generated using pymatgen
data_Li3Dy(NO3)6
_symmetry_space_group_name_H-M   'P 1'
_cell_length_a   7.63522544
_cell_length_b   7.88697989
_cell_length_c   24.24398150
_cell_angle_alpha   91.32960558
_cell_angle_beta   90.00000000
_cell_angle_gamma   90.00000000
_symmetry_Int_Tables_number   1
_chemical_formula_structural   Li3Dy(NO3)6
_chemical_formula_sum   'Li12 Dy4 N24 O72'
_cell_volume   1459.55207231
_cell_formula_units_Z   4
loop_
 _symmetry_equiv_pos_site_id
 _symmetry_equiv_pos_as_xyz
  1  'x, y, z'
loop_
 _atom_site_type_symbol
 _atom_site_label
 _atom_site_symmetry_multiplicity
 _atom_site_fract_x
 _atom_site_fract_y
 _atom_site_fract_z
 _atom_site_occupancy
  Li  Li0  1  0.81586467  0.70684325  0.63417206  1
  Li  Li1  1  0.18413533  0.29315675  0.36582794  1
  Li  Li2  1  0.31586467  0.79315675  0.86582794  1
  Li  Li3  1  0.68413533  0.20684325  0.13417206  1
  Li  Li4  1  0.55757510  0.99947648  0.74534214  1
  Li  Li5  1  0.44242490  0.00052352  0.25465786  1
  Li  Li6  1  0.05757510  0.50052352  0.75465786  1
  Li  Li7  1  0.94242490  0.49947648  0.24534214  1
  Li  Li8  1  0.28977704  0.74226375  0.52585483  1
  Li  Li9  1  0.71022296  0.25773625  0.47414517  1
  Li  Li10  1  0.78977704  0.75773625  0.97414517  1
  Li  Li11  1  0.21022296  0.24226375  0.02585483  1
  Dy  Dy12  1  0.30576001  0.24279975  0.60963064  1
  Dy  Dy13  1  0.69423999  0.75720025  0.39036936  1
  Dy  Dy14  1  0.80576001  0.25720025  0.89036936  1
  Dy  Dy15  1  0.19423999  0.74279975  0.10963064  1
  N  N16  1  0.79829351  0.73540449  0.73522450  1
  N  N17  1  0.20170649  0.26459551  0.26477550  1
  N  N18  1  0.29829351  0.76459551  0.76477550  1
  N  N19  1  0.70170649  0.23540449  0.23522450  1
  N  N20  1  0.30206761  0.26096652  0.73029974  1
  N  N21  1  0.69793239  0.73903348  0.26970026  1
  N  N22  1  0.80206761  0.23903348  0.76970026  1
  N  N23  1  0.19793239  0.76096652  0.23029974  1
  N  N24  1  0.49193448  0.14515397  0.94612388  1
  N  N25  1  0.50806552  0.85484603  0.05387612  1
  N  N26  1  0.99193448  0.35484603  0.55387612  1
  N  N27  1  0.00806552  0.64515397  0.44612388  1
  N  N28  1  0.12910706  0.40093934  0.93616423  1
  N  N29  1  0.87089294  0.59906066  0.06383577  1
  N  N30  1  0.62910706  0.09906066  0.56383577  1
  N  N31  1  0.37089294  0.90093934  0.43616423  1
  N  N32  1  0.11389638  0.92425758  0.60651367  1
  N  N33  1  0.88610362  0.07574242  0.39348633  1
  N  N34  1  0.61389638  0.57574242  0.89348633  1
  N  N35  1  0.38610362  0.42425758  0.10651367  1
  N  N36  1  0.00792396  0.94503583  0.90263629  1
  N  N37  1  0.99207604  0.05496417  0.09736371  1
  N  N38  1  0.50792396  0.55496417  0.59736371  1
  N  N39  1  0.49207604  0.44503583  0.40263629  1
  O  O40  1  0.39715783  0.15436267  0.70215553  1
  O  O41  1  0.60284217  0.84563733  0.29784447  1
  O  O42  1  0.89715783  0.34563733  0.79784447  1
  O  O43  1  0.10284217  0.65436267  0.20215553  1
  O  O44  1  0.52332617  0.09166108  0.89708847  1
  O  O45  1  0.47667383  0.90833892  0.10291153  1
  O  O46  1  0.02332617  0.40833892  0.60291153  1
  O  O47  1  0.97667383  0.59166108  0.39708847  1
  O  O48  1  0.60536748  0.24550182  0.96834981  1
  O  O49  1  0.39463252  0.75449818  0.03165019  1
  O  O50  1  0.10536748  0.25449818  0.53165019  1
  O  O51  1  0.89463252  0.74550182  0.46834981  1
  O  O52  1  0.30030529  0.26879554  0.78059644  1
  O  O53  1  0.69969471  0.73120446  0.21940356  1
  O  O54  1  0.80030529  0.23120446  0.71940356  1
  O  O55  1  0.19969471  0.76879554  0.28059644  1
  O  O56  1  0.26414842  0.45732658  0.95757206  1
  O  O57  1  0.73585158  0.54267342  0.04242794  1
  O  O58  1  0.76414842  0.04267342  0.54242794  1
  O  O59  1  0.23585158  0.95732658  0.45757206  1
  O  O60  1  0.04960860  0.05523941  0.86749367  1
  O  O61  1  0.95039140  0.94476059  0.13250633  1
  O  O62  1  0.54960860  0.44476059  0.63250633  1
  O  O63  1  0.45039140  0.55523941  0.36749367  1
  O  O64  1  0.35705886  0.10161571  0.97111004  1
  O  O65  1  0.64294114  0.89838429  0.02888996  1
  O  O66  1  0.85705886  0.39838429  0.52888996  1
  O  O67  1  0.14294114  0.60161571  0.47111004  1
  O  O68  1  0.29638324  0.75462365  0.71371838  1
  O  O69  1  0.70361676  0.24537635  0.28628162  1
  O  O70  1  0.79638324  0.74537635  0.78628162  1
  O  O71  1  0.20361676  0.25462365  0.21371838  1
  O  O72  1  0.63649306  0.47069653  0.42933271  1
  O  O73  1  0.36350694  0.52930347  0.57066729  1
  O  O74  1  0.13649306  0.02930347  0.07066729  1
  O  O75  1  0.86350694  0.97069653  0.92933271  1
  O  O76  1  0.03242618  0.78959183  0.59921599  1
  O  O77  1  0.96757382  0.21040817  0.40078401  1
  O  O78  1  0.53242618  0.71040817  0.90078401  1
  O  O79  1  0.46757382  0.28959183  0.09921599  1
  O  O80  1  0.02350602  0.30460225  0.96475045  1
  O  O81  1  0.97649398  0.69539775  0.03524955  1
  O  O82  1  0.52350602  0.19539775  0.53524955  1
  O  O83  1  0.47649398  0.80460225  0.46475045  1
  O  O84  1  0.08304803  0.42772582  0.88711181  1
  O  O85  1  0.91695197  0.57227418  0.11288819  1
  O  O86  1  0.58304803  0.07227418  0.61288819  1
  O  O87  1  0.41695197  0.92772582  0.38711181  1
  O  O88  1  0.20808913  0.35996000  0.70025490  1
  O  O89  1  0.79191087  0.64004000  0.29974510  1
  O  O90  1  0.70808913  0.14004000  0.79974510  1
  O  O91  1  0.29191087  0.85996000  0.20025490  1
  O  O92  1  0.59915721  0.68125584  0.58803111  1
  O  O93  1  0.40084279  0.31874416  0.41196889  1
  O  O94  1  0.09915721  0.81874416  0.91196889  1
  O  O95  1  0.90084279  0.18125584  0.08803111  1
  O  O96  1  0.06313659  0.04573952  0.63758040  1
  O  O97  1  0.93686341  0.95426048  0.36241960  1
  O  O98  1  0.56313659  0.45426048  0.86241960  1
  O  O99  1  0.43686341  0.54573952  0.13758040  1
  O  O100  1  0.26045955  0.94544860  0.58070989  1
  O  O101  1  0.73954045  0.05455140  0.41929011  1
  O  O102  1  0.76045955  0.55455140  0.91929011  1
  O  O103  1  0.23954045  0.44544860  0.08070989  1
  O  O104  1  0.39129043  0.87574089  0.79113190  1
  O  O105  1  0.60870957  0.12425911  0.20886810  1
  O  O106  1  0.89129043  0.62425911  0.70886810  1
  O  O107  1  0.10870957  0.37574089  0.29113190  1
  O  O108  1  0.70859213  0.83450997  0.70496185  1
  O  O109  1  0.29140787  0.16549003  0.29503815  1
  O  O110  1  0.20859213  0.66549003  0.79503815  1
  O  O111  1  0.79140787  0.33450997  0.20496185  1
