# generated using pymatgen
data_LaCoO3
_symmetry_space_group_name_H-M   'P 1'
_cell_length_a   5.51691684
_cell_length_b   5.51691684
_cell_length_c   5.46019130
_cell_angle_alpha   60.77948044
_cell_angle_beta   60.77948044
_cell_angle_gamma   60.58956079
_symmetry_Int_Tables_number   1
_chemical_formula_structural   LaCoO3
_chemical_formula_sum   'La2 Co2 O6'
_cell_volume   119.41139253
_cell_formula_units_Z   2
loop_
 _symmetry_equiv_pos_site_id
 _symmetry_equiv_pos_as_xyz
  1  'x, y, z'
loop_
 _atom_site_type_symbol
 _atom_site_label
 _atom_site_symmetry_multiplicity
 _atom_site_fract_x
 _atom_site_fract_y
 _atom_site_fract_z
 _atom_site_occupancy
  La  La0  1  0.25557700  0.74442300  0.25000000  1
  La  La1  1  0.74442300  0.25557700  0.75000000  1
  Co  Co2  1  0.00000000  0.50000000  0.00000000  1
  Co  Co3  1  0.50000000  0.00000000  0.50000000  1
  O  O4  1  0.29537800  0.29219700  0.69874300  1
  O  O5  1  0.70462200  0.70780300  0.30125700  1
  O  O6  1  0.70780300  0.70462200  0.80125700  1
  O  O7  1  0.29219700  0.29537800  0.19874300  1
  O  O8  1  0.82912100  0.17087900  0.25000000  1
  O  O9  1  0.17087900  0.82912100  0.75000000  1
