# generated using pymatgen
data_Na2PtSe2
_symmetry_space_group_name_H-M   'P 1'
_cell_length_a   3.70726898
_cell_length_b   5.66997668
_cell_length_c   11.29234677
_cell_angle_alpha   90.00000000
_cell_angle_beta   90.00000000
_cell_angle_gamma   109.08200472
_symmetry_Int_Tables_number   1
_chemical_formula_structural   Na2PtSe2
_chemical_formula_sum   'Na4 Pt2 Se4'
_cell_volume   224.32367677
_cell_formula_units_Z   2
loop_
 _symmetry_equiv_pos_site_id
 _symmetry_equiv_pos_as_xyz
  1  'x, y, z'
loop_
 _atom_site_type_symbol
 _atom_site_label
 _atom_site_symmetry_multiplicity
 _atom_site_fract_x
 _atom_site_fract_y
 _atom_site_fract_z
 _atom_site_occupancy
  Na  Na0  1  0.43698504  0.87397108  0.86809466  1
  Na  Na1  1  0.56301496  0.12602892  0.36809466  1
  Na  Na2  1  0.82547292  0.65094484  0.59927022  1
  Na  Na3  1  0.17452708  0.34905516  0.09927022  1
  Pt  Pt4  1  0.13618371  0.27236541  0.75169544  1
  Pt  Pt5  1  0.86381629  0.72763459  0.25169544  1
  Se  Se6  1  0.55123764  0.10247529  0.62964209  1
  Se  Se7  1  0.44876236  0.89752471  0.12964209  1
  Se  Se8  1  0.72135637  0.44271373  0.87359659  1
  Se  Se9  1  0.27864363  0.55728627  0.37359659  1
