# generated using pymatgen
data_K11Cd2Sb5
_symmetry_space_group_name_H-M   'P 1'
_cell_length_a   9.97080387
_cell_length_b   12.05796640
_cell_length_c   12.89075024
_cell_angle_alpha   103.55682867
_cell_angle_beta   97.17783036
_cell_angle_gamma   107.59861972
_symmetry_Int_Tables_number   1
_chemical_formula_structural   K11Cd2Sb5
_chemical_formula_sum   'K22 Cd4 Sb10'
_cell_volume   1403.69504294
_cell_formula_units_Z   2
loop_
 _symmetry_equiv_pos_site_id
 _symmetry_equiv_pos_as_xyz
  1  'x, y, z'
loop_
 _atom_site_type_symbol
 _atom_site_label
 _atom_site_symmetry_multiplicity
 _atom_site_fract_x
 _atom_site_fract_y
 _atom_site_fract_z
 _atom_site_occupancy
  K  K0  1  0.85799474  0.57421418  0.96293305  1
  K  K1  1  0.14200526  0.42578582  0.03706695  1
  K  K2  1  0.30475060  0.89403834  0.77625819  1
  K  K3  1  0.69524940  0.10596166  0.22374181  1
  K  K4  1  0.63338060  0.16621091  0.53081908  1
  K  K5  1  0.36661940  0.83378909  0.46918092  1
  K  K6  1  0.63487440  0.67389923  0.56040920  1
  K  K7  1  0.36512560  0.32610077  0.43959080  1
  K  K8  1  0.20335082  0.55772072  0.57109034  1
  K  K9  1  0.79664918  0.44227928  0.42890966  1
  K  K10  1  0.05020346  0.70623778  0.26937347  1
  K  K11  1  0.94979654  0.29376222  0.73062653  1
  K  K12  1  0.20270088  0.07887547  0.57038242  1
  K  K13  1  0.79729912  0.92112453  0.42961758  1
  K  K14  1  0.87623243  0.09500495  0.98310986  1
  K  K15  1  0.12376757  0.90499505  0.01689014  1
  K  K16  1  0.58653990  0.22715132  0.86400977  1
  K  K17  1  0.41346010  0.77284868  0.13599023  1
  K  K18  1  0.39264155  0.24756037  0.14066684  1
  K  K19  1  0.60735845  0.75243963  0.85933316  1
  K  K20  1  0.34986550  0.41198250  0.79028335  1
  K  K21  1  0.65013450  0.58801750  0.20971665  1
  Cd  Cd22  1  0.94631696  0.95860914  0.71855486  1
  Cd  Cd23  1  0.05368304  0.04139086  0.28144514  1
  Cd  Cd24  1  0.94616529  0.62429838  0.71500817  1
  Cd  Cd25  1  0.05383471  0.37570162  0.28499183  1
  Sb  Sb26  1  0.00139282  0.76517874  0.55514749  1
  Sb  Sb27  1  0.99860718  0.23482126  0.44485251  1
  Sb  Sb28  1  0.66116529  0.45615837  0.69204814  1
  Sb  Sb29  1  0.33883471  0.54384163  0.30795186  1
  Sb  Sb30  1  0.66322061  0.97327176  0.69984581  1
  Sb  Sb31  1  0.33677939  0.02672824  0.30015419  1
  Sb  Sb32  1  0.19197558  0.14763542  0.86554442  1
  Sb  Sb33  1  0.80802442  0.85236458  0.13445558  1
  Sb  Sb34  1  0.18962155  0.63119714  0.86511162  1
  Sb  Sb35  1  0.81037845  0.36880286  0.13488838  1
