# generated using pymatgen
data_Ca(FeO2)2
_symmetry_space_group_name_H-M   'P 1'
_cell_length_a   5.14021735
_cell_length_b   5.95977201
_cell_length_c   11.08419331
_cell_angle_alpha   89.99982359
_cell_angle_beta   90.00028630
_cell_angle_gamma   90.00014638
_symmetry_Int_Tables_number   1
_chemical_formula_structural   Ca(FeO2)2
_chemical_formula_sum   'Ca4 Fe8 O16'
_cell_volume   339.55898013
_cell_formula_units_Z   4
loop_
 _symmetry_equiv_pos_site_id
 _symmetry_equiv_pos_as_xyz
  1  'x, y, z'
loop_
 _atom_site_type_symbol
 _atom_site_label
 _atom_site_symmetry_multiplicity
 _atom_site_fract_x
 _atom_site_fract_y
 _atom_site_fract_z
 _atom_site_occupancy
  Ca  Ca0  1  0.85625702  0.24768376  0.74999964  1
  Ca  Ca1  1  0.14374109  0.74774019  0.25000101  1
  Ca  Ca2  1  0.53018122  0.24854759  0.25000012  1
  Ca  Ca3  1  0.46981248  0.74846678  0.75000015  1
  Fe  Fe4  1  0.49705269  0.25557503  0.51769458  1
  Fe  Fe5  1  0.49705391  0.25559981  0.98230267  1
  Fe  Fe6  1  0.99916676  0.50199308  0.49947862  1
  Fe  Fe7  1  0.99917077  0.50200813  0.00051691  1
  Fe  Fe8  1  0.50295582  0.75559919  0.48226152  1
  Fe  Fe9  1  0.50295579  0.75562508  0.01773835  1
  Fe  Fe10  1  0.00083555  0.00201291  0.99950911  1
  Fe  Fe11  1  0.00083615  0.00199335  0.50049373  1
  O  O12  1  0.83919379  0.74688155  0.40297035  1
  O  O13  1  0.83919548  0.74689219  0.09703002  1
  O  O14  1  0.16078538  0.24688191  0.59704795  1
  O  O15  1  0.16078689  0.24689789  0.90295421  1
  O  O16  1  0.18055368  0.74887182  0.58822978  1
  O  O17  1  0.18055528  0.74888988  0.91177101  1
  O  O18  1  0.81945074  0.24886586  0.41178398  1
  O  O19  1  0.81945256  0.24888051  0.08821650  1
  O  O20  1  0.66715801  0.50095214  0.60591600  1
  O  O21  1  0.66468580  0.99754077  0.89717201  1
  O  O22  1  0.33285137  0.00096489  0.39409614  1
  O  O23  1  0.33530571  0.49758742  0.10281674  1
  O  O24  1  0.33529952  0.49757589  0.39718164  1
  O  O25  1  0.33285248  0.00097581  0.10590847  1
  O  O26  1  0.66469059  0.99752963  0.60283068  1
  O  O27  1  0.66716145  0.50096394  0.89407813  1
