# generated using pymatgen
data_Pr2ZrS5
_symmetry_space_group_name_H-M   'P 1'
_cell_length_a   7.41847605
_cell_length_b   8.07290621
_cell_length_c   11.68070471
_cell_angle_alpha   90.00000000
_cell_angle_beta   90.00000000
_cell_angle_gamma   90.00000000
_symmetry_Int_Tables_number   1
_chemical_formula_structural   Pr2ZrS5
_chemical_formula_sum   'Pr8 Zr4 S20'
_cell_volume   699.54176897
_cell_formula_units_Z   4
loop_
 _symmetry_equiv_pos_site_id
 _symmetry_equiv_pos_as_xyz
  1  'x, y, z'
loop_
 _atom_site_type_symbol
 _atom_site_label
 _atom_site_symmetry_multiplicity
 _atom_site_fract_x
 _atom_site_fract_y
 _atom_site_fract_z
 _atom_site_occupancy
  Pr  Pr0  1  0.53969127  0.49947328  0.32489078  1
  Pr  Pr1  1  0.96030873  0.00052672  0.82489078  1
  Pr  Pr2  1  0.46030873  0.99947328  0.67510922  1
  Pr  Pr3  1  0.03969127  0.50052672  0.17510922  1
  Pr  Pr4  1  0.46030873  0.50052672  0.67510922  1
  Pr  Pr5  1  0.03969127  0.99947328  0.17510922  1
  Pr  Pr6  1  0.53969127  0.00052672  0.32489078  1
  Pr  Pr7  1  0.96030873  0.49947328  0.82489078  1
  Zr  Zr8  1  0.07400987  0.75000000  0.49188788  1
  Zr  Zr9  1  0.42599013  0.75000000  0.99188788  1
  Zr  Zr10  1  0.92599013  0.25000000  0.50811212  1
  Zr  Zr11  1  0.57400987  0.25000000  0.00811212  1
  S  S12  1  0.83324276  0.96545399  0.58355961  1
  S  S13  1  0.66675724  0.53454601  0.08355961  1
  S  S14  1  0.16675724  0.46545399  0.41644039  1
  S  S15  1  0.33324276  0.03454601  0.91644039  1
  S  S16  1  0.16675724  0.03454601  0.41644039  1
  S  S17  1  0.33324276  0.46545399  0.91644039  1
  S  S18  1  0.83324276  0.53454601  0.58355961  1
  S  S19  1  0.66675724  0.96545399  0.08355961  1
  S  S20  1  0.84585614  0.75000000  0.31491817  1
  S  S21  1  0.65414386  0.75000000  0.81491817  1
  S  S22  1  0.15414386  0.25000000  0.68508183  1
  S  S23  1  0.34585614  0.25000000  0.18508183  1
  S  S24  1  0.44256323  0.75000000  0.49572019  1
  S  S25  1  0.05743677  0.75000000  0.99572019  1
  S  S26  1  0.55743677  0.25000000  0.50427981  1
  S  S27  1  0.94256323  0.25000000  0.00427981  1
  S  S28  1  0.17404473  0.75000000  0.70618595  1
  S  S29  1  0.32595527  0.75000000  0.20618595  1
  S  S30  1  0.82595527  0.25000000  0.29381405  1
  S  S31  1  0.67404473  0.25000000  0.79381405  1
