# generated using pymatgen
data_MnZn4O5
_symmetry_space_group_name_H-M   'P 1'
_cell_length_a   6.19276957
_cell_length_b   6.48449830
_cell_length_c   12.50591153
_cell_angle_alpha   89.93611351
_cell_angle_beta   86.82028837
_cell_angle_gamma   105.03122559
_symmetry_Int_Tables_number   1
_chemical_formula_structural   MnZn4O5
_chemical_formula_sum   'Mn4 Zn16 O20'
_cell_volume   484.20771235
_cell_formula_units_Z   4
loop_
 _symmetry_equiv_pos_site_id
 _symmetry_equiv_pos_as_xyz
  1  'x, y, z'
loop_
 _atom_site_type_symbol
 _atom_site_label
 _atom_site_symmetry_multiplicity
 _atom_site_fract_x
 _atom_site_fract_y
 _atom_site_fract_z
 _atom_site_occupancy
  Mn  Mn0  1  0.27012174  0.56884743  0.76857713  1
  Mn  Mn1  1  0.87068396  0.96430417  0.36509507  1
  Mn  Mn2  1  0.27011785  0.06885147  0.76857213  1
  Mn  Mn3  1  0.87066643  0.46432137  0.36508336  1
  Zn  Zn4  1  0.13910804  0.03405684  0.13151001  1
  Zn  Zn5  1  0.13911766  0.53406578  0.13150741  1
  Zn  Zn6  1  0.53225727  0.13123952  0.53399542  1
  Zn  Zn7  1  0.53223997  0.63122448  0.53400241  1
  Zn  Zn8  1  0.93100129  0.23255065  0.93550166  1
  Zn  Zn9  1  0.93098612  0.73254605  0.93550161  1
  Zn  Zn10  1  0.66864984  0.16708083  0.16473434  1
  Zn  Zn11  1  0.66865146  0.66708060  0.16473350  1
  Zn  Zn12  1  0.33913811  0.33438849  0.33211029  1
  Zn  Zn13  1  0.33917203  0.83439291  0.33211230  1
  Zn  Zn14  1  0.74002145  0.43475106  0.73230005  1
  Zn  Zn15  1  0.74001825  0.93474854  0.73229749  1
  Zn  Zn16  1  0.47097514  0.36758181  0.96732661  1
  Zn  Zn17  1  0.47096590  0.86757963  0.96732064  1
  Zn  Zn18  1  0.06729957  0.26559965  0.56603407  1
  Zn  Zn19  1  0.06730268  0.76559523  0.56603287  1
  O  O20  1  0.44098299  0.11006262  0.05670967  1
  O  O21  1  0.44098848  0.61006816  0.05670891  1
  O  O22  1  0.03800485  0.00799482  0.65530502  1
  O  O23  1  0.03800964  0.50799541  0.65530824  1
  O  O24  1  0.83485945  0.20566606  0.46122246  1
  O  O25  1  0.83484394  0.70563543  0.46122694  1
  O  O26  1  0.97230300  0.24297638  0.09114988  1
  O  O27  1  0.97229939  0.74297007  0.09114775  1
  O  O28  1  0.57937366  0.14502906  0.68913773  1
  O  O29  1  0.57936947  0.64502238  0.68914086  1
  O  O30  1  0.18110702  0.04527828  0.28733282  1
  O  O31  1  0.18109140  0.54528609  0.28733383  1
  O  O32  1  0.63570885  0.40847809  0.25364745  1
  O  O33  1  0.63572159  0.90847855  0.25364446  1
  O  O34  1  0.23492717  0.30983734  0.86436096  1
  O  O35  1  0.23491472  0.80983390  0.86435540  1
  O  O36  1  0.36969003  0.34103848  0.48953618  1
  O  O37  1  0.36969887  0.84104578  0.48953966  1
  O  O38  1  0.77088442  0.44311599  0.88964703  1
  O  O39  1  0.77088530  0.94312059  0.88964539  1
