# generated using pymatgen
data_Mn2Nb4Zn3O16
_symmetry_space_group_name_H-M   'P 1'
_cell_length_a   5.19240043
_cell_length_b   5.94566510
_cell_length_c   19.52166044
_cell_angle_alpha   94.81206470
_cell_angle_beta   90.46486666
_cell_angle_gamma   88.60485172
_symmetry_Int_Tables_number   1
_chemical_formula_structural   Mn2Nb4Zn3O16
_chemical_formula_sum   'Mn4 Nb8 Zn6 O32'
_cell_volume   600.36456100
_cell_formula_units_Z   2
loop_
 _symmetry_equiv_pos_site_id
 _symmetry_equiv_pos_as_xyz
  1  'x, y, z'
loop_
 _atom_site_type_symbol
 _atom_site_label
 _atom_site_symmetry_multiplicity
 _atom_site_fract_x
 _atom_site_fract_y
 _atom_site_fract_z
 _atom_site_occupancy
  Mn  Mn0  1  0.75363700  0.14195000  0.50294900  1
  Mn  Mn1  1  0.24234500  0.34751100  0.00156200  1
  Mn  Mn2  1  0.75373500  0.64172800  0.00293600  1
  Mn  Mn3  1  0.24229100  0.84754800  0.50158500  1
  Nb  Nb4  1  0.74813500  0.16504600  0.11134400  1
  Nb  Nb5  1  0.74805900  0.66511400  0.61135400  1
  Nb  Nb6  1  0.75847300  0.66302000  0.37399700  1
  Nb  Nb7  1  0.75859300  0.16295100  0.87395700  1
  Nb  Nb8  1  0.26594000  0.33760500  0.39052400  1
  Nb  Nb9  1  0.26597500  0.83749100  0.89051500  1
  Nb  Nb10  1  0.24245100  0.82993800  0.12639900  1
  Nb  Nb11  1  0.24238200  0.33003000  0.62641900  1
  Zn  Zn12  1  0.76524600  0.14322600  0.26765400  1
  Zn  Zn13  1  0.76526700  0.64315800  0.76763500  1
  Zn  Zn14  1  0.22730500  0.35113900  0.22223500  1
  Zn  Zn15  1  0.22727800  0.85119800  0.72225200  1
  Zn  Zn16  1  0.27660600  0.83749800  0.28221500  1
  Zn  Zn17  1  0.27663800  0.33748500  0.78221700  1
  O  O18  1  0.07177900  0.10586600  0.06607200  1
  O  O19  1  0.07176100  0.60589400  0.56608700  1
  O  O20  1  0.42236300  0.63006700  0.43421400  1
  O  O21  1  0.42238300  0.12996600  0.93420500  1
  O  O22  1  0.93866400  0.38974200  0.43140300  1
  O  O23  1  0.93869300  0.88972000  0.93140300  1
  O  O24  1  0.58550600  0.86555700  0.06730000  1
  O  O25  1  0.58556800  0.36568700  0.56731600  1
  O  O26  1  0.55423600  0.36958500  0.05723300  1
  O  O27  1  0.55421600  0.86952000  0.55726500  1
  O  O28  1  0.91957400  0.87946500  0.44778300  1
  O  O29  1  0.91984500  0.37941100  0.94772500  1
  O  O30  1  0.43928100  0.13343000  0.44482300  1
  O  O31  1  0.43928800  0.63337700  0.94485200  1
  O  O32  1  0.07815900  0.61114700  0.05561600  1
  O  O33  1  0.07815400  0.11120700  0.55562100  1
  O  O34  1  0.43735200  0.09796300  0.17739600  1
  O  O35  1  0.43758600  0.59803400  0.67744000  1
  O  O36  1  0.08042800  0.60576100  0.32578800  1
  O  O37  1  0.08062700  0.10555600  0.82572700  1
  O  O38  1  0.35115200  0.63926900  0.19496000  1
  O  O39  1  0.35114300  0.13929500  0.69495400  1
  O  O40  1  0.14178500  0.14789100  0.30613200  1
  O  O41  1  0.14184500  0.64782200  0.80614900  1
  O  O42  1  0.63571100  0.88420500  0.31692200  1
  O  O43  1  0.63572500  0.38409600  0.81685800  1
  O  O44  1  0.86271300  0.34708500  0.19082800  1
  O  O45  1  0.86265100  0.84717200  0.69083400  1
  O  O46  1  0.93917700  0.91282600  0.17524600  1
  O  O47  1  0.93908200  0.41283600  0.67527300  1
  O  O48  1  0.57705400  0.40012400  0.32523800  1
  O  O49  1  0.57701100  0.90016100  0.82522700  1
