# generated using pymatgen
data_KNbCl6
_symmetry_space_group_name_H-M   'P 1'
_cell_length_a   7.02968961
_cell_length_b   7.02968961
_cell_length_c   7.02968977
_cell_angle_alpha   60.12394404
_cell_angle_beta   60.12394404
_cell_angle_gamma   60.12393862
_symmetry_Int_Tables_number   1
_chemical_formula_structural   KNbCl6
_chemical_formula_sum   'K1 Nb1 Cl6'
_cell_volume   246.32653479
_cell_formula_units_Z   1
loop_
 _symmetry_equiv_pos_site_id
 _symmetry_equiv_pos_as_xyz
  1  'x, y, z'
loop_
 _atom_site_type_symbol
 _atom_site_label
 _atom_site_symmetry_multiplicity
 _atom_site_fract_x
 _atom_site_fract_y
 _atom_site_fract_z
 _atom_site_occupancy
  K  K0  1  0.73998415  0.73998415  0.73998415  1
  Nb  Nb1  1  0.99355958  0.99355958  0.99355958  1
  Cl  Cl2  1  0.23131558  0.75474388  0.75474388  1
  Cl  Cl3  1  0.75474388  0.75474388  0.23131558  1
  Cl  Cl4  1  0.75474388  0.23131558  0.75474388  1
  Cl  Cl5  1  0.75527131  0.23230431  0.23230431  1
  Cl  Cl6  1  0.23230431  0.23230431  0.75527131  1
  Cl  Cl7  1  0.23230431  0.75527131  0.23230431  1
