# generated using pymatgen
data_C3F2
_symmetry_space_group_name_H-M   'P 1'
_cell_length_a   11.91223720
_cell_length_b   11.25371604
_cell_length_c   8.55654285
_cell_angle_alpha   72.48518626
_cell_angle_beta   64.27939169
_cell_angle_gamma   43.23542205
_symmetry_Int_Tables_number   1
_chemical_formula_structural   C3F2
_chemical_formula_sum   'C36 F24'
_cell_volume   707.67068920
_cell_formula_units_Z   12
loop_
 _symmetry_equiv_pos_site_id
 _symmetry_equiv_pos_as_xyz
  1  'x, y, z'
loop_
 _atom_site_type_symbol
 _atom_site_label
 _atom_site_symmetry_multiplicity
 _atom_site_fract_x
 _atom_site_fract_y
 _atom_site_fract_z
 _atom_site_occupancy
  C  C0  1  0.83513839  0.22132621  0.23187192  1
  C  C1  1  0.71166347  0.23187192  0.22132621  1
  C  C2  1  0.02867379  0.41486161  0.53833653  1
  C  C3  1  0.01812808  0.53833653  0.41486161  1
  C  C4  1  0.25750596  0.26965844  0.01888043  1
  C  C5  1  0.45395517  0.01888043  0.26965844  1
  C  C6  1  0.98034156  0.99249404  0.79604483  1
  C  C7  1  0.23111957  0.79604483  0.99249404  1
  C  C8  1  0.14475711  -0.00386160  0.22265261  1
  C  C9  1  0.63645188  0.22265261  -0.00386160  1
  C  C10  1  0.25386160  0.10524289  0.61354812  1
  C  C11  1  0.02734739  0.61354812  0.10524289  1
  C  C12  1  0.60354485  0.45873598  0.44438583  1
  C  C13  1  0.49333435  0.44438583  0.45873598  1
  C  C14  1  0.79126402  0.64645515  0.75666565  1
  C  C15  1  0.80561417  0.75666565  0.64645515  1
  C  C16  1  0.31170316  0.83448643  0.16971457  1
  C  C17  1  0.68409584  0.16971457  0.83448643  1
  C  C18  1  0.41551357  0.93829684  0.56590416  1
  C  C19  1  0.08028543  0.56590416  0.93829684  1
  C  C20  1  0.06602655  0.96360806  0.03367284  1
  C  C21  1  0.93669155  0.03367284  0.96360806  1
  C  C22  1  0.28639194  0.18397345  0.31330845  1
  C  C23  1  0.21632716  0.31330845  0.18397345  1
  C  C24  1  0.01820712  0.06704319  0.15596105  1
  C  C25  1  0.75878864  0.15596105  0.06704319  1
  C  C26  1  0.18295681  0.23179288  0.49121136  1
  C  C27  1  0.09403895  0.49121136  0.23179288  1
  C  C28  1  0.19523490  0.39322947  0.89433735  1
  C  C29  1  0.51719829  0.89433735  0.39322947  1
  C  C30  1  0.85677053  0.05476510  0.73280171  1
  C  C31  1  0.35566265  0.73280171  0.05476510  1
  C  C32  1  0.77215679  0.34870187  0.33138960  1
  C  C33  1  0.54775175  0.33138960  0.34870187  1
  C  C34  1  0.90129813  0.47784321  0.70224825  1
  C  C35  1  0.91861040  0.70224825  0.47784321  1
  F  F36  1  0.54767468  0.57564082  0.54297147  1
  F  F37  1  0.33371303  0.54297147  0.57564082  1
  F  F38  1  0.67435918  0.70232532  0.91628697  1
  F  F39  1  0.70702853  0.91628697  0.70232532  1
  F  F40  1  0.42746556  0.77198342  0.23932688  1
  F  F41  1  0.56122514  0.23932688  0.77198342  1
  F  F42  1  0.47801658  0.82253444  0.68877486  1
  F  F43  1  0.01067312  0.68877486  0.82253444  1
  F  F44  1  0.86993901  0.37448842  0.31814048  1
  F  F45  1  0.43743308  0.31814048  0.37448842  1
  F  F46  1  0.87551158  0.38006099  0.81256692  1
  F  F47  1  0.93185952  0.81256692  0.38006099  1
  F  F48  1  0.67661789  0.73498359  0.34748865  1
  F  F49  1  0.24090988  0.34748865  0.73498359  1
  F  F50  1  0.51501641  0.57338211  0.00909012  1
  F  F51  1  0.90251135  0.00909012  0.57338211  1
  F  F52  1  0.10954570  0.07298642  0.35261883  1
  F  F53  1  0.46485005  0.35261883  0.07298642  1
  F  F54  1  0.17701358  0.14045430  0.78514995  1
  F  F55  1  0.89738117  0.78514995  0.14045430  1
  F  F56  1  0.35187969  0.10665977  0.97571903  1
  F  F57  1  0.56574151  0.97571903  0.10665977  1
  F  F58  1  0.14334023  0.89812031  0.68425849  1
  F  F59  1  0.27428097  0.68425849  0.89812031  1
