# generated using pymatgen
data_K4Rb2Co2O5
_symmetry_space_group_name_H-M   'P 1'
_cell_length_a   6.70191984
_cell_length_b   6.70191984
_cell_length_c   11.67543876
_cell_angle_alpha   90.00000000
_cell_angle_beta   90.00000000
_cell_angle_gamma   90.00017047
_symmetry_Int_Tables_number   1
_chemical_formula_structural   K4Rb2Co2O5
_chemical_formula_sum   'K8 Rb4 Co4 O10'
_cell_volume   524.41084962
_cell_formula_units_Z   2
loop_
 _symmetry_equiv_pos_site_id
 _symmetry_equiv_pos_as_xyz
  1  'x, y, z'
loop_
 _atom_site_type_symbol
 _atom_site_label
 _atom_site_symmetry_multiplicity
 _atom_site_fract_x
 _atom_site_fract_y
 _atom_site_fract_z
 _atom_site_occupancy
  K  K0  1  0.50000000  -0.00000000  0.24999127  1
  K  K1  1  0.50000000  -0.00000000  0.75000873  1
  K  K2  1  0.00000000  -0.00000000  0.77927100  1
  K  K3  1  0.50000000  0.50000000  0.27923136  1
  K  K4  1  0.50000000  0.50000000  0.72076864  1
  K  K5  1  0.00000000  -0.00000000  0.22072900  1
  K  K6  1  0.00000000  0.50000000  0.24999127  1
  K  K7  1  0.00000000  0.50000000  0.75000873  1
  Rb  Rb8  1  0.31199484  0.31199484  -0.00000000  1
  Rb  Rb9  1  0.18802654  0.81197346  0.50000000  1
  Rb  Rb10  1  0.81197346  0.18802654  0.50000000  1
  Rb  Rb11  1  0.68800516  0.68800516  -0.00000000  1
  Co  Co12  1  0.20573410  0.79426590  -0.00000000  1
  Co  Co13  1  0.70583385  0.70583385  0.50000000  1
  Co  Co14  1  0.29416615  0.29416615  0.50000000  1
  Co  Co15  1  0.79426590  0.20573410  -0.00000000  1
  O  O16  1  0.50000000  0.50000000  0.50000000  1
  O  O17  1  0.00000000  -0.00000000  -0.00000000  1
  O  O18  1  0.78167989  0.78167989  0.35880044  1
  O  O19  1  0.21832011  0.21832011  0.35880044  1
  O  O20  1  0.78167989  0.78167989  0.64119956  1
  O  O21  1  0.28170224  0.71829776  0.85877635  1
  O  O22  1  0.71829776  0.28170224  0.85877635  1
  O  O23  1  0.71829776  0.28170224  0.14122365  1
  O  O24  1  0.21832011  0.21832011  0.64119956  1
  O  O25  1  0.28170224  0.71829776  0.14122365  1
