# generated using pymatgen
data_Ca2NbN3
_symmetry_space_group_name_H-M   'P 1'
_cell_length_a   6.28399176
_cell_length_b   6.28399176
_cell_length_c   11.63418690
_cell_angle_alpha   90.00000000
_cell_angle_beta   90.00000000
_cell_angle_gamma   124.80987092
_symmetry_Int_Tables_number   1
_chemical_formula_structural   Ca2NbN3
_chemical_formula_sum   'Ca8 Nb4 N12'
_cell_volume   377.20489299
_cell_formula_units_Z   4
loop_
 _symmetry_equiv_pos_site_id
 _symmetry_equiv_pos_as_xyz
  1  'x, y, z'
loop_
 _atom_site_type_symbol
 _atom_site_label
 _atom_site_symmetry_multiplicity
 _atom_site_fract_x
 _atom_site_fract_y
 _atom_site_fract_z
 _atom_site_occupancy
  Ca  Ca0  1  0.53484049  0.46515951  0.64905196  1
  Ca  Ca1  1  0.46515951  0.53484049  0.35094804  1
  Ca  Ca2  1  0.96515951  0.03484049  0.14905196  1
  Ca  Ca3  1  0.03484049  0.96515951  0.85094804  1
  Ca  Ca4  1  0.87287836  0.12712164  0.57940021  1
  Ca  Ca5  1  0.12712164  0.87287836  0.42059979  1
  Ca  Ca6  1  0.62712164  0.37287836  0.07940021  1
  Ca  Ca7  1  0.37287836  0.62712164  0.92059979  1
  Nb  Nb8  1  0.75358478  0.24641522  0.84179097  1
  Nb  Nb9  1  0.24641522  0.75358478  0.15820903  1
  Nb  Nb10  1  0.74641522  0.25358478  0.34179097  1
  Nb  Nb11  1  0.25358478  0.74641522  0.65820903  1
  N  N12  1  0.84128409  0.15871591  0.98210517  1
  N  N13  1  0.15871591  0.84128409  0.01789483  1
  N  N14  1  0.65871591  0.34128409  0.48210517  1
  N  N15  1  0.34128409  0.65871591  0.51789483  1
  N  N16  1  0.58004405  0.41995595  0.86271648  1
  N  N17  1  0.41995595  0.58004405  0.13728352  1
  N  N18  1  0.91995595  0.08004405  0.36271648  1
  N  N19  1  0.08004405  0.91995595  0.63728352  1
  N  N20  1  0.57669978  0.92330022  0.75000000  1
  N  N21  1  0.92330022  0.57669978  0.25000000  1
  N  N22  1  0.42330022  0.07669978  0.25000000  1
  N  N23  1  0.07669978  0.42330022  0.75000000  1
