# generated using pymatgen
data_CaTeO3
_symmetry_space_group_name_H-M   'P 1'
_cell_length_a   12.11414408
_cell_length_b   12.11414408
_cell_length_c   11.07393812
_cell_angle_alpha   90.00000000
_cell_angle_beta   90.00000000
_cell_angle_gamma   90.00000000
_symmetry_Int_Tables_number   1
_chemical_formula_structural   CaTeO3
_chemical_formula_sum   'Ca20 Te20 O60'
_cell_volume   1625.12795768
_cell_formula_units_Z   20
loop_
 _symmetry_equiv_pos_site_id
 _symmetry_equiv_pos_as_xyz
  1  'x, y, z'
loop_
 _atom_site_type_symbol
 _atom_site_label
 _atom_site_symmetry_multiplicity
 _atom_site_fract_x
 _atom_site_fract_y
 _atom_site_fract_z
 _atom_site_occupancy
  Ca  Ca0  1  0.22702786  0.24401647  0.27442774  1
  Ca  Ca1  1  0.03790521  0.34479473  0.01323514  1
  Ca  Ca2  1  0.74075577  0.26692191  0.03913608  1
  Ca  Ca3  1  0.75598353  0.22702786  0.52442774  1
  Ca  Ca4  1  0.43331578  0.16271108  0.51699282  1
  Ca  Ca5  1  0.34479473  0.96209479  0.76323514  1
  Ca  Ca6  1  0.16271108  0.56668422  0.26699282  1
  Ca  Ca7  1  0.86416296  0.46173592  0.26717659  1
  Ca  Ca8  1  0.96209479  0.65520527  0.51323514  1
  Ca  Ca9  1  0.46173592  0.13583704  0.01717659  1
  Ca  Ca10  1  0.65520527  0.03790521  0.26323514  1
  Ca  Ca11  1  0.77297214  0.75598353  0.77442774  1
  Ca  Ca12  1  0.13583704  0.53826408  0.76717659  1
  Ca  Ca13  1  0.26692191  0.25924423  0.78913608  1
  Ca  Ca14  1  0.83728892  0.43331578  0.76699282  1
  Ca  Ca15  1  0.25924423  0.73307809  0.53913608  1
  Ca  Ca16  1  0.24401647  0.77297214  0.02442774  1
  Ca  Ca17  1  0.73307809  0.74075577  0.28913608  1
  Ca  Ca18  1  0.56668422  0.83728892  0.01699282  1
  Ca  Ca19  1  0.53826408  0.86416296  0.51717659  1
  Te  Te20  1  0.00788500  0.38323790  0.50924651  1
  Te  Te21  1  0.55444421  0.31267138  0.26652111  1
  Te  Te22  1  0.61676210  0.00788500  0.75924651  1
  Te  Te23  1  0.15628035  0.05774065  0.99543430  1
  Te  Te24  1  0.55857465  0.34238550  0.79261968  1
  Te  Te25  1  0.93659495  0.16804973  0.79161638  1
  Te  Te26  1  0.05774065  0.84371965  0.74543430  1
  Te  Te27  1  0.44555579  0.68732862  0.76652111  1
  Te  Te28  1  0.68732862  0.55444421  0.51652111  1
  Te  Te29  1  0.99211500  0.61676210  0.00924651  1
  Te  Te30  1  0.16804973  0.06340505  0.54161638  1
  Te  Te31  1  0.06340505  0.83195027  0.29161638  1
  Te  Te32  1  0.44142535  0.65761450  0.29261968  1
  Te  Te33  1  0.34238550  0.44142535  0.54261968  1
  Te  Te34  1  0.84371965  0.94225935  0.49543430  1
  Te  Te35  1  0.83195027  0.93659495  0.04161638  1
  Te  Te36  1  0.31267138  0.44555579  0.01652111  1
  Te  Te37  1  0.94225935  0.15628035  0.24543430  1
  Te  Te38  1  0.38323790  0.99211500  0.25924651  1
  Te  Te39  1  0.65761450  0.55857465  0.04261968  1
  O  O40  1  0.24367924  0.41007242  0.16274768  1
  O  O41  1  0.50525642  0.02853334  0.64055946  1
  O  O42  1  0.02853334  0.49474358  0.39055946  1
  O  O43  1  0.50961616  0.98433123  0.88227826  1
  O  O44  1  0.81645788  0.13480779  0.34372790  1
  O  O45  1  0.44816045  0.27223907  0.70075201  1
  O  O46  1  0.41007242  0.75632076  0.91274768  1
  O  O47  1  0.80172022  0.59719802  0.41229989  1
  O  O48  1  0.09690655  0.71231293  0.66496904  1
  O  O49  1  0.01566877  0.50961616  0.13227826  1
  O  O50  1  0.19827978  0.40280198  0.91229989  1
  O  O51  1  0.58992758  0.24367924  0.41274768  1
  O  O52  1  0.88233464  0.27380435  0.89892930  1
  O  O53  1  0.13480779  0.18354212  0.09372790  1
  O  O54  1  0.90309345  0.28768707  0.16496904  1
  O  O55  1  0.77860431  0.04351571  0.60089588  1
  O  O56  1  0.98433123  0.49038384  0.63227826  1
  O  O57  1  0.14058678  0.62909624  0.96011729  1
  O  O58  1  0.33322202  0.32115524  0.43653065  1
  O  O59  1  0.25441286  0.09087091  0.40705922  1
  O  O60  1  0.60523435  0.68071868  0.48200966  1
  O  O61  1  0.09087091  0.74558714  0.15705922  1
  O  O62  1  0.39476565  0.31928132  0.98200966  1
  O  O63  1  0.90912909  0.25441286  0.65705922  1
  O  O64  1  0.85941322  0.37090376  0.46011729  1
  O  O65  1  0.22629426  0.40074882  0.64421147  1
  O  O66  1  0.67884476  0.33322202  0.68653065  1
  O  O67  1  0.77370574  0.59925118  0.14421147  1
  O  O68  1  0.49038384  0.01566877  0.38227826  1
  O  O69  1  0.40280198  0.80172022  0.66229989  1
  O  O70  1  0.59719802  0.19827978  0.16229989  1
  O  O71  1  0.27223907  0.55183955  0.45075201  1
  O  O72  1  0.49474358  0.97146666  0.14055946  1
  O  O73  1  0.18354212  0.86519221  0.84372790  1
  O  O74  1  0.75632076  0.58992758  0.66274768  1
  O  O75  1  0.91705939  0.79383004  0.32092896  1
  O  O76  1  0.97146666  0.50525642  0.89055946  1
  O  O77  1  0.20616996  0.91705939  0.57092896  1
  O  O78  1  0.86519221  0.81645788  0.59372790  1
  O  O79  1  0.59925118  0.22629426  0.89421147  1
  O  O80  1  0.71231293  0.90309345  0.41496904  1
  O  O81  1  0.27380435  0.11766536  0.64892930  1
  O  O82  1  0.66677798  0.67884476  0.93653065  1
  O  O83  1  0.79383004  0.08294061  0.07092896  1
  O  O84  1  0.28768707  0.09690655  0.91496904  1
  O  O85  1  0.55183955  0.72776093  0.20075201  1
  O  O86  1  0.22139569  0.95648429  0.10089588  1
  O  O87  1  0.74558714  0.90912909  0.90705922  1
  O  O88  1  0.04351571  0.22139569  0.35089588  1
  O  O89  1  0.95648429  0.77860431  0.85089588  1
  O  O90  1  0.31928132  0.60523435  0.73200966  1
  O  O91  1  0.11766536  0.72619565  0.39892930  1
  O  O92  1  0.32115524  0.66677798  0.18653065  1
  O  O93  1  0.40074882  0.77370574  0.39421147  1
  O  O94  1  0.68071868  0.39476565  0.23200966  1
  O  O95  1  0.08294061  0.20616996  0.82092896  1
  O  O96  1  0.62909624  0.85941322  0.71011729  1
  O  O97  1  0.72619565  0.88233464  0.14892930  1
  O  O98  1  0.72776093  0.44816045  0.95075201  1
  O  O99  1  0.37090376  0.14058678  0.21011729  1
