# generated using pymatgen
data_Nd2Ge(BO4)2
_symmetry_space_group_name_H-M   'P 1'
_cell_length_a   4.48456326
_cell_length_b   9.49397587
_cell_length_c   13.75131830
_cell_angle_alpha   90.00000000
_cell_angle_beta   90.00000000
_cell_angle_gamma   90.00000000
_symmetry_Int_Tables_number   1
_chemical_formula_structural   Nd2Ge(BO4)2
_chemical_formula_sum   'Nd8 Ge4 B8 O32'
_cell_volume   585.48073983
_cell_formula_units_Z   4
loop_
 _symmetry_equiv_pos_site_id
 _symmetry_equiv_pos_as_xyz
  1  'x, y, z'
loop_
 _atom_site_type_symbol
 _atom_site_label
 _atom_site_symmetry_multiplicity
 _atom_site_fract_x
 _atom_site_fract_y
 _atom_site_fract_z
 _atom_site_occupancy
  Nd  Nd0  1  0.45788999  0.52602902  0.64051216  1
  Nd  Nd1  1  0.04211001  0.02602902  0.85948784  1
  Nd  Nd2  1  0.04211001  0.47397098  0.14051216  1
  Nd  Nd3  1  0.45788999  0.97397098  0.35948784  1
  Nd  Nd4  1  0.54211001  0.47397098  0.35948784  1
  Nd  Nd5  1  0.95788999  0.97397098  0.14051216  1
  Nd  Nd6  1  0.95788999  0.52602902  0.85948784  1
  Nd  Nd7  1  0.54211001  0.02602902  0.64051216  1
  Ge  Ge8  1  0.92449551  0.75000000  0.50000000  1
  Ge  Ge9  1  0.57550449  0.25000000  0.00000000  1
  Ge  Ge10  1  0.07550449  0.25000000  0.50000000  1
  Ge  Ge11  1  0.42449551  0.75000000  0.00000000  1
  B  B12  1  0.53265255  0.70462262  0.20022031  1
  B  B13  1  0.96734745  0.20462262  0.29977969  1
  B  B14  1  0.96734745  0.29537738  0.70022031  1
  B  B15  1  0.53265255  0.79537738  0.79977969  1
  B  B16  1  0.46734745  0.29537738  0.79977969  1
  B  B17  1  0.03265255  0.79537738  0.70022031  1
  B  B18  1  0.03265255  0.70462262  0.29977969  1
  B  B19  1  0.46734745  0.20462262  0.20022031  1
  O  O20  1  0.53821751  0.55377075  0.19229470  1
  O  O21  1  0.96178249  0.05377075  0.30770530  1
  O  O22  1  0.96178249  0.44622925  0.69229470  1
  O  O23  1  0.53821751  0.94622925  0.80770530  1
  O  O24  1  0.46178249  0.44622925  0.80770530  1
  O  O25  1  0.03821751  0.94622925  0.69229470  1
  O  O26  1  0.03821751  0.55377075  0.30770530  1
  O  O27  1  0.46178249  0.05377075  0.19229470  1
  O  O28  1  0.65057721  0.76677432  0.10623656  1
  O  O29  1  0.84942279  0.26677432  0.39376344  1
  O  O30  1  0.84942279  0.23322568  0.60623656  1
  O  O31  1  0.65057721  0.73322568  0.89376344  1
  O  O32  1  0.34942279  0.23322568  0.89376344  1
  O  O33  1  0.15057721  0.73322568  0.60623656  1
  O  O34  1  0.15057721  0.76677432  0.39376344  1
  O  O35  1  0.34942279  0.26677432  0.10623656  1
  O  O36  1  0.22591300  0.76057827  0.21911985  1
  O  O37  1  0.27408700  0.26057827  0.28088015  1
  O  O38  1  0.27408700  0.23942173  0.71911985  1
  O  O39  1  0.22591300  0.73942173  0.78088015  1
  O  O40  1  0.77408700  0.23942173  0.78088015  1
  O  O41  1  0.72591300  0.73942173  0.71911985  1
  O  O42  1  0.72591300  0.76057827  0.28088015  1
  O  O43  1  0.77408700  0.26057827  0.21911985  1
  O  O44  1  0.70561723  0.60032881  0.49530996  1
  O  O45  1  0.79438277  0.10032881  0.00469004  1
  O  O46  1  0.79438277  0.39967119  0.99530996  1
  O  O47  1  0.70561723  0.89967119  0.50469004  1
  O  O48  1  0.29438277  0.39967119  0.50469004  1
  O  O49  1  0.20561723  0.89967119  0.99530996  1
  O  O50  1  0.20561723  0.60032881  0.00469004  1
  O  O51  1  0.29438277  0.10032881  0.49530996  1
