# generated using pymatgen
data_Ba2MgMo4(Se2O11)2
_symmetry_space_group_name_H-M   'P 1'
_cell_length_a   7.85542206
_cell_length_b   8.77653827
_cell_length_c   8.97901539
_cell_angle_alpha   119.25680398
_cell_angle_beta   91.05478966
_cell_angle_gamma   87.84136997
_symmetry_Int_Tables_number   1
_chemical_formula_structural   Ba2MgMo4(Se2O11)2
_chemical_formula_sum   'Ba2 Mg1 Mo4 Se4 O22'
_cell_volume   539.69420659
_cell_formula_units_Z   1
loop_
 _symmetry_equiv_pos_site_id
 _symmetry_equiv_pos_as_xyz
  1  'x, y, z'
loop_
 _atom_site_type_symbol
 _atom_site_label
 _atom_site_symmetry_multiplicity
 _atom_site_fract_x
 _atom_site_fract_y
 _atom_site_fract_z
 _atom_site_occupancy
  Ba  Ba0  1  0.67300000  0.30208500  0.00000000  1
  Ba  Ba1  1  0.16308600  0.67242600  0.00000000  1
  Mg  Mg2  1  0.41269600  0.00311500  0.00000000  1
  Mo  Mo3  1  0.65975300  0.86189800  0.22474100  1
  Mo  Mo4  1  0.16567800  0.12846400  0.77408900  1
  Mo  Mo5  1  0.65975300  0.63715600  0.77525900  1
  Mo  Mo6  1  0.16567800  0.35437400  0.22591100  1
  Se  Se7  1  0.81635200  0.31250300  0.42381100  1
  Se  Se8  1  0.29923800  0.13000100  0.41305700  1
  Se  Se9  1  0.81635200  0.88869100  0.57618900  1
  Se  Se10  1  0.29923800  0.71694300  0.58694300  1
  O  O11  1  0.13974000  0.54336800  0.20224800  1
  O  O12  1  0.62224800  0.85415700  0.00000000  1
  O  O13  1  0.38570500  0.95463400  0.21890500  1
  O  O14  1  0.69468500  0.85696400  0.71303600  1
  O  O15  1  0.38570500  0.73572900  0.78109500  1
  O  O16  1  0.87802800  0.81156900  0.19559400  1
  O  O17  1  0.38924400  0.26200400  0.17484800  1
  O  O18  1  0.88465300  0.38618800  0.29056500  1
  O  O19  1  0.21767500  0.01303700  0.49987800  1
  O  O20  1  0.88465300  0.09562300  0.70943500  1
  O  O21  1  0.57859600  0.48669900  0.82982200  1
  O  O22  1  0.64971200  0.48765200  0.52734900  1
  O  O23  1  0.69468500  0.14392800  0.28696400  1
  O  O24  1  0.57859600  0.65687600  0.17017800  1
  O  O25  1  0.38924400  0.08715600  0.82515200  1
  O  O26  1  0.08164900  0.17903600  0.00000000  1
  O  O27  1  0.12033500  0.16587600  0.31677000  1
  O  O28  1  0.12033500  0.84910600  0.68323000  1
  O  O29  1  0.64971200  0.96030200  0.47265100  1
  O  O30  1  0.87802800  0.61597500  0.80440600  1
  O  O31  1  0.21767500  0.51315900  0.50012200  1
  O  O32  1  0.13974000  0.34112100  0.79775200  1
