# generated using pymatgen
data_Ca(GaSe2)2
_symmetry_space_group_name_H-M   'P 1'
_cell_length_a   14.96894473
_cell_length_b   12.37879461
_cell_length_c   12.32867918
_cell_angle_alpha   74.61450274
_cell_angle_beta   52.87269812
_cell_angle_gamma   52.55779402
_symmetry_Int_Tables_number   1
_chemical_formula_structural   Ca(GaSe2)2
_chemical_formula_sum   'Ca8 Ga16 Se32'
_cell_volume   1427.36875975
_cell_formula_units_Z   8
loop_
 _symmetry_equiv_pos_site_id
 _symmetry_equiv_pos_as_xyz
  1  'x, y, z'
loop_
 _atom_site_type_symbol
 _atom_site_label
 _atom_site_symmetry_multiplicity
 _atom_site_fract_x
 _atom_site_fract_y
 _atom_site_fract_z
 _atom_site_occupancy
  Ca  Ca0  1  0.50001237  0.49996888  0.49998556  1
  Ca  Ca1  1  0.75002609  0.75004253  0.75000416  1
  Ca  Ca2  1  -0.00001855  0.00005888  0.99999797  1
  Ca  Ca3  1  0.25005301  0.24996916  0.24998485  1
  Ca  Ca4  1  0.24790645  0.24791949  0.75213376  1
  Ca  Ca5  1  0.75207871  0.75210773  0.24793896  1
  Ca  Ca6  1  0.00215051  0.00212003  0.49788965  1
  Ca  Ca7  1  0.49785840  0.49795067  0.00213772  1
  Ga  Ga8  1  0.09539304  0.65509558  0.26388974  1
  Ga  Ga9  1  0.98570067  0.26373434  0.65492009  1
  Ga  Ga10  1  0.26364765  0.98576128  0.09549951  1
  Ga  Ga11  1  0.65500864  0.09544170  0.98579811  1
  Ga  Ga12  1  0.15431268  0.59506081  0.98637314  1
  Ga  Ga13  1  0.26416407  0.98625130  0.59509239  1
  Ga  Ga14  1  0.98609051  0.26457610  0.15453485  1
  Ga  Ga15  1  0.59498579  0.15438414  0.26439781  1
  Ga  Ga16  1  0.73871743  0.01269201  0.48956962  1
  Ga  Ga17  1  0.75917725  0.48960355  0.01257288  1
  Ga  Ga18  1  0.48984182  0.75880897  0.73850275  1
  Ga  Ga19  1  0.01277421  0.73854978  0.75902760  1
  Ga  Ga20  1  0.51153192  0.23711744  0.76037062  1
  Ga  Ga21  1  0.49104974  0.76036504  0.23722670  1
  Ga  Ga22  1  0.76049347  0.49097034  0.51142879  1
  Ga  Ga23  1  0.23714782  0.51159163  0.49101674  1
  Se  Se24  1  0.54055455  0.53664960  0.70963608  1
  Se  Se25  1  0.21271833  0.71017732  0.53683496  1
  Se  Se26  1  0.71005178  0.21275523  0.54049123  1
  Se  Se27  1  0.53693302  0.54035864  0.21263773  1
  Se  Se28  1  0.70982049  0.71309229  0.54004714  1
  Se  Se29  1  0.03707788  0.54014849  0.71299940  1
  Se  Se30  1  0.54012594  0.03708186  0.70946274  1
  Se  Se31  1  0.71319020  0.70970469  0.03707284  1
  Se  Se32  1  0.03945211  0.03658663  0.71004049  1
  Se  Se33  1  0.21364304  0.71013835  0.03664151  1
  Se  Se34  1  0.70994161  0.21380044  0.03984519  1
  Se  Se35  1  0.03631894  0.03990813  0.21382924  1
  Se  Se36  1  0.21035119  0.21339138  0.54009803  1
  Se  Se37  1  0.03610489  0.54003445  0.21347361  1
  Se  Se38  1  0.53991224  0.03613854  0.21034787  1
  Se  Se39  1  0.21337506  0.21042343  0.03609609  1
  Se  Se40  1  0.46436484  0.28286194  0.97159395  1
  Se  Se41  1  0.28130071  0.97169912  0.28272400  1
  Se  Se42  1  0.97174830  0.28111366  0.46412035  1
  Se  Se43  1  0.28280530  0.46421321  0.28133334  1
  Se  Se44  1  0.78593727  0.96677920  0.27829344  1
  Se  Se45  1  0.96901658  0.27828433  0.96681859  1
  Se  Se46  1  0.27848724  0.96865121  0.78568451  1
  Se  Se47  1  0.96696526  0.78564381  0.96899353  1
  Se  Se48  1  0.80878342  0.94371427  0.77478737  1
  Se  Se49  1  0.47274225  0.77463802  0.94386880  1
  Se  Se50  1  0.77451027  0.47262525  0.80880490  1
  Se  Se51  1  0.94395243  0.80906301  0.47270099  1
  Se  Se52  1  0.44104865  0.30611576  0.47549739  1
  Se  Se53  1  0.77720487  0.47572447  0.30618509  1
  Se  Se54  1  0.47525646  0.77715058  0.44140118  1
  Se  Se55  1  0.30620219  0.44119229  0.77734144  1
