# generated using pymatgen
data_Nd9Al5Se21
_symmetry_space_group_name_H-M   'P 1'
_cell_length_a   12.20028865
_cell_length_b   12.20028858
_cell_length_c   12.20028995
_cell_angle_alpha   94.57933791
_cell_angle_beta   94.57933243
_cell_angle_gamma   94.57933429
_symmetry_Int_Tables_number   1
_chemical_formula_structural   Nd9Al5Se21
_chemical_formula_sum   'Nd18 Al10 Se42'
_cell_volume   1797.59640207
_cell_formula_units_Z   2
loop_
 _symmetry_equiv_pos_site_id
 _symmetry_equiv_pos_as_xyz
  1  'x, y, z'
loop_
 _atom_site_type_symbol
 _atom_site_label
 _atom_site_symmetry_multiplicity
 _atom_site_fract_x
 _atom_site_fract_y
 _atom_site_fract_z
 _atom_site_occupancy
  Nd  Nd0  1  0.26159126  0.11688794  0.88680624  1
  Nd  Nd1  1  0.92824496  0.77281187  0.54604266  1
  Nd  Nd2  1  0.60524752  0.44543151  0.23439969  1
  Nd  Nd3  1  0.44543151  0.23439969  0.60524752  1
  Nd  Nd4  1  0.11688794  0.88680624  0.26159126  1
  Nd  Nd5  1  0.77281187  0.54604266  0.92824496  1
  Nd  Nd6  1  0.54604266  0.92824496  0.77281187  1
  Nd  Nd7  1  0.23439969  0.60524752  0.44543151  1
  Nd  Nd8  1  0.88680624  0.26159126  0.11688794  1
  Nd  Nd9  1  0.41525939  0.56845013  0.79051204  1
  Nd  Nd10  1  0.06794520  0.22505539  0.44949770  1
  Nd  Nd11  1  0.75312326  0.90207382  0.12464757  1
  Nd  Nd12  1  0.22505539  0.44949770  0.06794520  1
  Nd  Nd13  1  0.90207382  0.12464757  0.75312326  1
  Nd  Nd14  1  0.56845013  0.79051204  0.41525939  1
  Nd  Nd15  1  0.12464757  0.75312326  0.90207382  1
  Nd  Nd16  1  0.79051204  0.41525939  0.56845013  1
  Nd  Nd17  1  0.44949770  0.06794520  0.22505539  1
  Al  Al18  1  0.95412312  0.61333256  0.27996084  1
  Al  Al19  1  0.61333256  0.27996084  0.95412312  1
  Al  Al20  1  0.27996084  0.95412312  0.61333256  1
  Al  Al21  1  0.45292091  0.77573127  0.11864096  1
  Al  Al22  1  0.11864096  0.45292091  0.77573127  1
  Al  Al23  1  0.77573127  0.11864096  0.45292091  1
  Al  Al24  1  0.14363820  0.14363820  0.14363820  1
  Al  Al25  1  0.82976790  0.82976790  0.82976790  1
  Al  Al26  1  0.32845550  0.32845550  0.32845550  1
  Al  Al27  1  0.64557941  0.64557941  0.64557941  1
  Se  Se28  1  0.82976344  0.49214804  0.16014672  1
  Se  Se29  1  0.49214804  0.16014672  0.82976344  1
  Se  Se30  1  0.16014672  0.82976344  0.49214804  1
  Se  Se31  1  0.65977630  0.99398780  0.32838563  1
  Se  Se32  1  0.32838563  0.65977630  0.99398780  1
  Se  Se33  1  0.99398780  0.32838563  0.65977630  1
  Se  Se34  1  0.99205482  0.55017742  0.45725715  1
  Se  Se35  1  0.64550701  0.21348685  0.12975922  1
  Se  Se36  1  0.30717387  0.89161126  0.79338817  1
  Se  Se37  1  0.89161126  0.79338817  0.30717387  1
  Se  Se38  1  0.55017742  0.45725715  0.99205482  1
  Se  Se39  1  0.21348685  0.12975922  0.64550701  1
  Se  Se40  1  0.12975922  0.64550701  0.21348685  1
  Se  Se41  1  0.79338817  0.30717387  0.89161126  1
  Se  Se42  1  0.45725715  0.99205482  0.55017742  1
  Se  Se43  1  0.52036928  0.93429703  0.03545516  1
  Se  Se44  1  0.18531288  0.61581948  0.70054584  1
  Se  Se45  1  0.83704829  0.28112236  0.36968317  1
  Se  Se46  1  0.61581948  0.70054584  0.18531288  1
  Se  Se47  1  0.28112236  0.36968317  0.83704829  1
  Se  Se48  1  0.93429703  0.03545516  0.52036928  1
  Se  Se49  1  0.36968317  0.83704829  0.28112236  1
  Se  Se50  1  0.03545516  0.52036928  0.93429703  1
  Se  Se51  1  0.70054584  0.18531288  0.61581948  1
  Se  Se52  1  0.69264781  0.59168311  0.44788822  1
  Se  Se53  1  0.33566318  0.24023461  0.10892123  1
  Se  Se54  1  0.00315737  0.90232371  0.76412332  1
  Se  Se55  1  0.90232371  0.76412332  0.00315737  1
  Se  Se56  1  0.59168311  0.44788822  0.69264781  1
  Se  Se57  1  0.24023461  0.10892123  0.33566318  1
  Se  Se58  1  0.10892123  0.33566318  0.24023461  1
  Se  Se59  1  0.76412332  0.00315737  0.90232371  1
  Se  Se60  1  0.44788822  0.69264781  0.59168311  1
  Se  Se61  1  0.62360007  0.71754115  0.85001536  1
  Se  Se62  1  0.27336931  0.37997585  0.51275849  1
  Se  Se63  1  0.96170051  0.05907842  0.20699329  1
  Se  Se64  1  0.37997585  0.51275849  0.27336931  1
  Se  Se65  1  0.05907842  0.20699329  0.96170051  1
  Se  Se66  1  0.71754115  0.85001536  0.62360007  1
  Se  Se67  1  0.20699329  0.96170051  0.05907842  1
  Se  Se68  1  0.85001536  0.62360007  0.71754115  1
  Se  Se69  1  0.51275849  0.27336931  0.37997585  1
