# generated using pymatgen
data_MgAl4(HO)12
_symmetry_space_group_name_H-M   'P 1'
_cell_length_a   7.92308737
_cell_length_b   7.36420550
_cell_length_c   7.53058404
_cell_angle_alpha   106.76598958
_cell_angle_beta   141.97996665
_cell_angle_gamma   82.82135734
_symmetry_Int_Tables_number   1
_chemical_formula_structural   MgAl4(HO)12
_chemical_formula_sum   'Mg1 Al4 H12 O12'
_cell_volume   255.20405923
_cell_formula_units_Z   1
loop_
 _symmetry_equiv_pos_site_id
 _symmetry_equiv_pos_as_xyz
  1  'x, y, z'
loop_
 _atom_site_type_symbol
 _atom_site_label
 _atom_site_symmetry_multiplicity
 _atom_site_fract_x
 _atom_site_fract_y
 _atom_site_fract_z
 _atom_site_occupancy
  Mg  Mg0  1  0.56818603  0.43177841  0.52767805  1
  Al  Al1  1  0.47555526  0.85042810  0.29204584  1
  Al  Al2  1  0.51823992  0.13308150  0.69881184  1
  Al  Al3  1  -0.00878300  0.67928791  0.63189176  1
  Al  Al4  1  0.00653096  0.30961026  0.35619250  1
  H  H5  1  0.91138440  0.99453658  0.52355636  1
  H  H6  1  0.03763156  0.95650873  0.28421007  1
  H  H7  1  0.50385734  0.48901664  0.82906370  1
  H  H8  1  0.47569347  0.51394271  0.13620453  1
  H  H9  1  -0.03813737  0.61265578  0.24423638  1
  H  H10  1  0.01931155  0.37539877  0.73118944  1
  H  H11  1  0.21539123  0.11781543  0.17166717  1
  H  H12  1  0.75122657  0.85526597  0.78555018  1
  H  H13  1  0.44189243  0.87747543  0.93244161  1
  H  H14  1  0.50324439  0.21126399  0.03301913  1
  H  H15  1  0.93821855  0.33263489  0.97154824  1
  H  H16  1  0.04074491  0.63536460  0.98564693  1
  O  O17  1  0.84880362  0.90855089  0.54574115  1
  O  O18  1  0.14648622  0.07563062  0.45299029  1
  O  O19  1  0.40240071  0.38850865  0.63916932  1
  O  O20  1  0.59019456  0.58863091  0.34475692  1
  O  O21  1  0.91934923  0.56093471  0.31469998  1
  O  O22  1  0.08588089  0.42407433  0.67921087  1
  O  O23  1  0.41892619  0.11627659  0.34677762  1
  O  O24  1  0.55884041  0.87886829  0.61922393  1
  O  O25  1  0.36302691  0.79708248  0.94302898  1
  O  O26  1  0.63636476  0.17368328  0.04962693  1
  O  O27  1  0.90217119  0.22827058  0.01113590  1
  O  O28  1  0.09105106  0.75186997  0.97729237  1
