# generated using pymatgen
data_Cs3ScCl6
_symmetry_space_group_name_H-M   'P 1'
_cell_length_a   13.88258535
_cell_length_b   13.88258535
_cell_length_c   12.91178739
_cell_angle_alpha   80.36047903
_cell_angle_beta   80.36047903
_cell_angle_gamma   33.95330527
_symmetry_Int_Tables_number   1
_chemical_formula_structural   Cs3ScCl6
_chemical_formula_sum   'Cs12 Sc4 Cl24'
_cell_volume   1368.36926100
_cell_formula_units_Z   4
loop_
 _symmetry_equiv_pos_site_id
 _symmetry_equiv_pos_as_xyz
  1  'x, y, z'
loop_
 _atom_site_type_symbol
 _atom_site_label
 _atom_site_symmetry_multiplicity
 _atom_site_fract_x
 _atom_site_fract_y
 _atom_site_fract_z
 _atom_site_occupancy
  Cs  Cs0  1  0.02720810  0.64588232  0.80183573  1
  Cs  Cs1  1  0.35411768  0.97279190  0.69816427  1
  Cs  Cs2  1  0.97279190  0.35411768  0.19816427  1
  Cs  Cs3  1  0.64588232  0.02720810  0.30183573  1
  Cs  Cs4  1  0.83830116  0.46805648  0.85527905  1
  Cs  Cs5  1  0.53194352  0.16169884  0.64472095  1
  Cs  Cs6  1  0.16169884  0.53194352  0.14472095  1
  Cs  Cs7  1  0.46805648  0.83830116  0.35527905  1
  Cs  Cs8  1  0.80685007  0.29536168  0.56464300  1
  Cs  Cs9  1  0.70463832  0.19314993  0.93535700  1
  Cs  Cs10  1  0.19314993  0.70463832  0.43535700  1
  Cs  Cs11  1  0.29536168  0.80685007  0.06464300  1
  Sc  Sc12  1  0.22076808  0.77923192  0.75000000  1
  Sc  Sc13  1  0.77923192  0.22076808  0.25000000  1
  Sc  Sc14  1  -0.00000000  0.50000000  0.50000000  1
  Sc  Sc15  1  0.50000000  0.00000000  -0.00000000  1
  Cl  Cl16  1  0.95038543  0.94104508  0.19036815  1
  Cl  Cl17  1  0.05895492  0.04961457  0.30963185  1
  Cl  Cl18  1  0.04961457  0.05895492  0.80963185  1
  Cl  Cl19  1  0.94104508  0.95038543  0.69036815  1
  Cl  Cl20  1  0.38474950  0.50657594  0.68652785  1
  Cl  Cl21  1  0.49342406  0.61525050  0.81347215  1
  Cl  Cl22  1  0.61525050  0.49342406  0.31347215  1
  Cl  Cl23  1  0.50657594  0.38474950  0.18652785  1
  Cl  Cl24  1  0.16643915  0.72184417  0.92629599  1
  Cl  Cl25  1  0.27815583  0.83356085  0.57370401  1
  Cl  Cl26  1  0.83356085  0.27815583  0.07370401  1
  Cl  Cl27  1  0.72184417  0.16643915  0.42629599  1
  Cl  Cl28  1  0.86273846  0.76879963  0.53660895  1
  Cl  Cl29  1  0.23120037  0.13726154  0.96339105  1
  Cl  Cl30  1  0.13726154  0.23120037  0.46339105  1
  Cl  Cl31  1  0.76879963  0.86273846  0.03660895  1
  Cl  Cl32  1  0.13018064  0.36954539  0.67602686  1
  Cl  Cl33  1  0.63045461  0.86981936  0.82397314  1
  Cl  Cl34  1  0.86981936  0.63045461  0.32397314  1
  Cl  Cl35  1  0.36954539  0.13018064  0.17602686  1
  Cl  Cl36  1  0.74319922  0.60960853  0.57741203  1
  Cl  Cl37  1  0.39039147  0.25680078  0.92258797  1
  Cl  Cl38  1  0.25680078  0.39039147  0.42258797  1
  Cl  Cl39  1  0.60960853  0.74319922  0.07741203  1
