# generated using pymatgen
data_MgS2
_symmetry_space_group_name_H-M   'P 1'
_cell_length_a   3.93902060
_cell_length_b   3.93902060
_cell_length_c   9.14776306
_cell_angle_alpha   90.00000000
_cell_angle_beta   90.00000000
_cell_angle_gamma   119.96419533
_symmetry_Int_Tables_number   1
_chemical_formula_structural   MgS2
_chemical_formula_sum   'Mg2 S4'
_cell_volume   122.96418077
_cell_formula_units_Z   2
loop_
 _symmetry_equiv_pos_site_id
 _symmetry_equiv_pos_as_xyz
  1  'x, y, z'
loop_
 _atom_site_type_symbol
 _atom_site_label
 _atom_site_symmetry_multiplicity
 _atom_site_fract_x
 _atom_site_fract_y
 _atom_site_fract_z
 _atom_site_occupancy
  Mg  Mg0  1  0.51360476  0.48639524  0.27747487  1
  Mg  Mg1  1  0.48639524  0.51360476  0.77747487  1
  S  S2  1  0.84461427  0.15538573  0.14151507  1
  S  S3  1  0.17702094  0.82297906  0.41426707  1
  S  S4  1  0.15538573  0.84461427  0.64151507  1
  S  S5  1  0.82297906  0.17702094  0.91426707  1
