# generated using pymatgen
data_CsH5N2
_symmetry_space_group_name_H-M   'P 1'
_cell_length_a   5.32332472
_cell_length_b   7.17536412
_cell_length_c   9.92804533
_cell_angle_alpha   90.00000000
_cell_angle_beta   90.00000000
_cell_angle_gamma   90.00000000
_symmetry_Int_Tables_number   1
_chemical_formula_structural   CsH5N2
_chemical_formula_sum   'Cs4 H20 N8'
_cell_volume   379.21949430
_cell_formula_units_Z   4
loop_
 _symmetry_equiv_pos_site_id
 _symmetry_equiv_pos_as_xyz
  1  'x, y, z'
loop_
 _atom_site_type_symbol
 _atom_site_label
 _atom_site_symmetry_multiplicity
 _atom_site_fract_x
 _atom_site_fract_y
 _atom_site_fract_z
 _atom_site_occupancy
  Cs  Cs0  1  0.75000000  0.22022102  0.57123582  1
  Cs  Cs1  1  0.75000000  0.72022102  0.92876418  1
  Cs  Cs2  1  0.25000000  0.77977898  0.42876418  1
  Cs  Cs3  1  0.25000000  0.27977898  0.07123582  1
  H  H4  1  0.75000000  0.28663612  0.86850817  1
  H  H5  1  0.75000000  0.78663612  0.63149183  1
  H  H6  1  0.25000000  0.71336388  0.13149183  1
  H  H7  1  0.25000000  0.21336388  0.36850817  1
  H  H8  1  0.75000000  0.12539384  0.97929164  1
  H  H9  1  0.75000000  0.62539384  0.52070836  1
  H  H10  1  0.25000000  0.87460616  0.02070836  1
  H  H11  1  0.25000000  0.37460616  0.47929164  1
  H  H12  1  0.75000000  0.13440212  0.25578008  1
  H  H13  1  0.75000000  0.63440212  0.24421992  1
  H  H14  1  0.25000000  0.86559788  0.74421992  1
  H  H15  1  0.25000000  0.36559788  0.75578008  1
  H  H16  1  0.59245997  0.94931935  0.20628174  1
  H  H17  1  0.90754003  0.44931935  0.29371826  1
  H  H18  1  0.09245997  0.05068065  0.79371826  1
  H  H19  1  0.40754003  0.55068065  0.70628174  1
  H  H20  1  0.40754003  0.05068065  0.79371826  1
  H  H21  1  0.09245997  0.55068065  0.70628174  1
  H  H22  1  0.90754003  0.94931935  0.20628174  1
  H  H23  1  0.59245997  0.44931935  0.29371826  1
  N  N24  1  0.75000000  0.14399036  0.87688869  1
  N  N25  1  0.75000000  0.64399036  0.62311131  1
  N  N26  1  0.25000000  0.85600964  0.12311131  1
  N  N27  1  0.25000000  0.35600964  0.37688869  1
  N  N28  1  0.75000000  0.49251389  0.24090516  1
  N  N29  1  0.75000000  0.99251389  0.25909484  1
  N  N30  1  0.25000000  0.50748611  0.75909484  1
  N  N31  1  0.25000000  0.00748611  0.74090516  1
