# generated using pymatgen
data_Nb9AsO25
_symmetry_space_group_name_H-M   'P 1'
_cell_length_a   11.38343704
_cell_length_b   11.38343579
_cell_length_c   15.86475435
_cell_angle_alpha   45.82529549
_cell_angle_beta   45.82527339
_cell_angle_gamma   19.54657775
_symmetry_Int_Tables_number   1
_chemical_formula_structural   Nb9AsO25
_chemical_formula_sum   'Nb9 As1 O25'
_cell_volume   486.35521930
_cell_formula_units_Z   1
loop_
 _symmetry_equiv_pos_site_id
 _symmetry_equiv_pos_as_xyz
  1  'x, y, z'
loop_
 _atom_site_type_symbol
 _atom_site_label
 _atom_site_symmetry_multiplicity
 _atom_site_fract_x
 _atom_site_fract_y
 _atom_site_fract_z
 _atom_site_occupancy
  Nb  Nb0  1  0.78381232  0.77931951  0.32572161  1
  Nb  Nb1  1  0.22068055  0.21618944  0.67427767  1
  Nb  Nb2  1  0.10650880  0.10793073  0.11126561  1
  Nb  Nb3  1  0.89207762  0.89348751  0.88873245  1
  Nb  Nb4  1  0.96011373  0.03988715  -0.00000050  1
  Nb  Nb5  1  0.68114367  0.66481362  0.21188937  1
  Nb  Nb6  1  0.33519230  0.31885267  0.78810955  1
  Nb  Nb7  1  0.87742560  0.89231663  0.44220895  1
  Nb  Nb8  1  0.10768158  0.12257292  0.55779302  1
  As  As9  1  0.25001790  0.74998202  0.50000041  1
  O  O10  1  0.53670535  0.56431120  0.37515912  1
  O  O11  1  0.43568871  0.46329547  0.62484050  1
  O  O12  1  0.93949687  0.91182384  0.52386191  1
  O  O13  1  0.08817473  0.06050365  0.47613894  1
  O  O14  1  0.88000992  0.88722846  0.16738803  1
  O  O15  1  0.11277131  0.11999077  0.83261160  1
  O  O16  1  0.04884555  0.05312198  0.06539228  1
  O  O17  1  0.94688087  0.95115251  0.93460782  1
  O  O18  1  0.48780955  0.51218970  0.00000038  1
  O  O19  1  0.83632352  0.81300257  0.39362282  1
  O  O20  1  0.18699754  0.16367504  0.60637762  1
  O  O21  1  0.20749036  0.22902058  0.95713220  1
  O  O22  1  0.77097918  0.79250896  0.04286898  1
  O  O23  1  0.72626059  0.71110891  0.27054290  1
  O  O24  1  0.28889112  0.27373873  0.72945743  1
  O  O25  1  0.98252922  0.99590664  0.29214010  1
  O  O26  1  0.00409494  0.01747031  0.70785883  1
  O  O27  1  0.65057156  0.64267683  0.51046568  1
  O  O28  1  0.35732246  0.34942827  0.48953461  1
  O  O29  1  0.15376178  0.16044999  0.19627808  1
  O  O30  1  0.83955273  0.84623530  0.80372196  1
  O  O31  1  0.25280099  0.24420896  0.36420474  1
  O  O32  1  0.75579035  0.74719944  0.63579531  1
  O  O33  1  0.60920370  0.61610578  0.13887498  1
  O  O34  1  0.38389703  0.39079390  0.86112502  1
