# generated using pymatgen
data_Co2Te3O8
_symmetry_space_group_name_H-M   'P 1'
_cell_length_a   6.85375326
_cell_length_b   6.85375326
_cell_length_c   11.55253596
_cell_angle_alpha   81.73413333
_cell_angle_beta   81.73413333
_cell_angle_gamma   44.28018704
_symmetry_Int_Tables_number   1
_chemical_formula_structural   Co2Te3O8
_chemical_formula_sum   'Co4 Te6 O16'
_cell_volume   374.28189612
_cell_formula_units_Z   2
loop_
 _symmetry_equiv_pos_site_id
 _symmetry_equiv_pos_as_xyz
  1  'x, y, z'
loop_
 _atom_site_type_symbol
 _atom_site_label
 _atom_site_symmetry_multiplicity
 _atom_site_fract_x
 _atom_site_fract_y
 _atom_site_fract_z
 _atom_site_occupancy
  Co  Co0  1  0.02767519  0.43057073  0.14882433  1
  Co  Co1  1  0.56942927  0.97232481  0.35117567  1
  Co  Co2  1  0.97232481  0.56942927  0.85117567  1
  Co  Co3  1  0.43057073  0.02767519  0.64882433  1
  Te  Te4  1  0.84255966  0.15744034  0.75000000  1
  Te  Te5  1  0.15744034  0.84255966  0.25000000  1
  Te  Te6  1  0.93803328  0.33128436  0.44590201  1
  Te  Te7  1  0.66871564  0.06196672  0.05409799  1
  Te  Te8  1  0.06196672  0.66871564  0.55409799  1
  Te  Te9  1  0.33128436  0.93803328  0.94590201  1
  O  O10  1  0.27158090  0.25122759  0.97086125  1
  O  O11  1  0.74877241  0.72841910  0.52913875  1
  O  O12  1  0.72841910  0.74877241  0.02913875  1
  O  O13  1  0.25122759  0.27158090  0.47086125  1
  O  O14  1  0.56793448  0.82665782  0.80852626  1
  O  O15  1  0.17334218  0.43206552  0.69147374  1
  O  O16  1  0.43206552  0.17334218  0.19147374  1
  O  O17  1  0.82665782  0.56793448  0.30852626  1
  O  O18  1  0.99076483  0.23545938  0.86199554  1
  O  O19  1  0.76454062  0.00923517  0.63800446  1
  O  O20  1  0.01016396  0.15116941  0.14388839  1
  O  O21  1  0.84883059  0.98983604  0.35611161  1
  O  O22  1  0.98983604  0.84883059  0.85611161  1
  O  O23  1  0.15116941  0.01016396  0.64388839  1
  O  O24  1  0.23545938  0.99076483  0.36199554  1
  O  O25  1  0.00923517  0.76454062  0.13800446  1
