# generated using pymatgen
data_Ba6MgSc2C2(O3F7)2
_symmetry_space_group_name_H-M   'P 1'
_cell_length_a   6.13890189
_cell_length_b   8.95776530
_cell_length_c   8.95776581
_cell_angle_alpha   96.61009864
_cell_angle_beta   89.89642956
_cell_angle_gamma   90.10357048
_symmetry_Int_Tables_number   1
_chemical_formula_structural   Ba6MgSc2C2(O3F7)2
_chemical_formula_sum   'Ba6 Mg1 Sc2 C2 O6 F14'
_cell_volume   489.31912352
_cell_formula_units_Z   1
loop_
 _symmetry_equiv_pos_site_id
 _symmetry_equiv_pos_as_xyz
  1  'x, y, z'
loop_
 _atom_site_type_symbol
 _atom_site_label
 _atom_site_symmetry_multiplicity
 _atom_site_fract_x
 _atom_site_fract_y
 _atom_site_fract_z
 _atom_site_occupancy
  Ba  Ba0  1  0.30929661  0.87956836  0.60245664  1
  Ba  Ba1  1  0.69070339  0.60245664  0.87956836  1
  Ba  Ba2  1  0.26246471  0.40264726  0.18069454  1
  Ba  Ba3  1  0.76228364  0.10699362  0.91380524  1
  Ba  Ba4  1  0.23771636  0.91380524  0.10699362  1
  Ba  Ba5  1  0.73753529  0.18069454  0.40264726  1
  Mg  Mg6  1  1.00000000  0.59046062  0.59046062  1
  Sc  Sc7  1  0.26716270  0.28771595  0.71639768  1
  Sc  Sc8  1  0.73283730  0.71639768  0.28771595  1
  C  C9  1  0.37600996  0.49296076  0.52623088  1
  C  C10  1  0.62399003  0.52623088  0.49296076  1
  O  O11  1  0.24327856  0.58412598  0.44632968  1
  O  O12  1  0.68472890  0.68155443  0.52095877  1
  O  O13  1  0.31527110  0.52095877  0.68155443  1
  O  O14  1  0.33464589  0.33858475  0.48657775  1
  O  O15  1  0.75672144  0.44632968  0.58412598  1
  O  O16  1  0.66535411  0.48657775  0.33858475  1
  F  F17  1  0.50000000  0.15114595  0.15114595  1
  F  F18  1  0.19593593  0.09353574  0.86420359  1
  F  F19  1  0.80406407  0.86420359  0.09353574  1
  F  F20  1  0.50000000  0.85967975  0.85967975  1
  F  F21  1  0.52748224  0.13249910  0.66077535  1
  F  F22  1  0.47251776  0.66077535  0.13249910  1
  F  F23  1  0.01224505  0.37159146  0.85348467  1
  F  F24  1  0.47812175  0.34634901  0.90319611  1
  F  F25  1  0.05342077  0.13770429  0.60063748  1
  F  F26  1  0.98775495  0.85348467  0.37159146  1
  F  F27  1  0.00000000  0.75443154  0.75443154  1
  F  F28  1  0.00000000  0.16984605  0.16984605  1
  F  F29  1  0.94657923  0.60063748  0.13770429  1
  F  F30  1  0.52187825  0.90319611  0.34634901  1
