# generated using pymatgen
data_MgCo6(OF5)2
_symmetry_space_group_name_H-M   'P 1'
_cell_length_a   5.20676922
_cell_length_b   5.20369253
_cell_length_c   9.24190681
_cell_angle_alpha   89.57896289
_cell_angle_beta   90.10114559
_cell_angle_gamma   99.40809487
_symmetry_Int_Tables_number   1
_chemical_formula_structural   MgCo6(OF5)2
_chemical_formula_sum   'Mg1 Co6 O2 F10'
_cell_volume   247.02928339
_cell_formula_units_Z   1
loop_
 _symmetry_equiv_pos_site_id
 _symmetry_equiv_pos_as_xyz
  1  'x, y, z'
loop_
 _atom_site_type_symbol
 _atom_site_label
 _atom_site_symmetry_multiplicity
 _atom_site_fract_x
 _atom_site_fract_y
 _atom_site_fract_z
 _atom_site_occupancy
  Mg  Mg0  1  0.45749300  0.96346000  0.99853600  1
  Co  Co1  1  0.95475400  0.96772900  0.99456200  1
  Co  Co2  1  0.05597400  0.03838500  0.33702800  1
  Co  Co3  1  0.01252200  0.99664400  0.66008300  1
  Co  Co4  1  0.56427300  0.48054300  0.18090600  1
  Co  Co5  1  0.55081800  0.47443400  0.82524500  1
  Co  Co6  1  0.44757600  0.55137400  0.48567000  1
  O  O7  1  0.31741700  0.34484100  0.32335400  1
  O  O8  1  0.65848100  0.67624600  0.99759400  1
  F  F9  1  0.19138500  0.85453900  0.14943800  1
  F  F10  1  0.18686300  0.83884300  0.83876300  1
  F  F11  1  0.22791700  0.84057700  0.50703600  1
  F  F12  1  0.28087300  0.26906100  0.98308700  1
  F  F13  1  0.29388700  0.32756700  0.67284800  1
  F  F14  1  0.71146800  0.68652700  0.65569100  1
  F  F15  1  0.74864400  0.72443700  0.33520300  1
  F  F16  1  0.73824400  0.15548500  0.13380800  1
  F  F17  1  0.73239800  0.14193100  0.83999600  1
  F  F18  1  0.85512400  0.16737700  0.50258300  1
