# generated using pymatgen
data_BNF8
_symmetry_space_group_name_H-M   'P 1'
_cell_length_a   5.05219763
_cell_length_b   9.55045961
_cell_length_c   9.81547250
_cell_angle_alpha   90.00000000
_cell_angle_beta   90.00000000
_cell_angle_gamma   90.00000000
_symmetry_Int_Tables_number   1
_chemical_formula_structural   BNF8
_chemical_formula_sum   'B4 N4 F32'
_cell_volume   473.60449284
_cell_formula_units_Z   4
loop_
 _symmetry_equiv_pos_site_id
 _symmetry_equiv_pos_as_xyz
  1  'x, y, z'
loop_
 _atom_site_type_symbol
 _atom_site_label
 _atom_site_symmetry_multiplicity
 _atom_site_fract_x
 _atom_site_fract_y
 _atom_site_fract_z
 _atom_site_occupancy
  B  B0  1  0.89980152  0.25000000  0.01137792  1
  B  B1  1  0.10019848  0.75000000  0.98862208  1
  B  B2  1  0.89980152  0.75000000  0.48862208  1
  B  B3  1  0.10019848  0.25000000  0.51137792  1
  N  N4  1  0.47392323  -0.00000000  0.75000000  1
  N  N5  1  0.52607677  0.50000000  0.25000000  1
  N  N6  1  0.52607677  -0.00000000  0.25000000  1
  N  N7  1  0.47392323  0.50000000  0.75000000  1
  F  F8  1  0.32185935  0.06250335  0.84196829  1
  F  F9  1  0.67814065  0.56250335  0.15803171  1
  F  F10  1  0.32185935  0.93749665  0.65803171  1
  F  F11  1  0.67814065  0.43749665  0.34196829  1
  F  F12  1  0.67814065  0.93749665  0.15803171  1
  F  F13  1  0.32185935  0.43749665  0.84196829  1
  F  F14  1  0.67814065  0.06250335  0.34196829  1
  F  F15  1  0.32185935  0.56250335  0.65803171  1
  F  F16  1  0.62569506  0.90587009  0.81199890  1
  F  F17  1  0.37430494  0.40587009  0.18800110  1
  F  F18  1  0.62569506  0.09412991  0.68800110  1
  F  F19  1  0.37430494  0.59412991  0.31199890  1
  F  F20  1  0.37430494  0.09412991  0.18800110  1
  F  F21  1  0.62569506  0.59412991  0.81199890  1
  F  F22  1  0.37430494  0.90587009  0.31199890  1
  F  F23  1  0.62569506  0.40587009  0.68800110  1
  F  F24  1  0.80252206  0.37048478  0.94649962  1
  F  F25  1  0.19747794  0.87048478  0.05350038  1
  F  F26  1  0.80252206  0.62951522  0.55350038  1
  F  F27  1  0.19747794  0.12951522  0.44649962  1
  F  F28  1  0.19747794  0.62951522  0.05350038  1
  F  F29  1  0.80252206  0.12951522  0.94649962  1
  F  F30  1  0.19747794  0.37048478  0.44649962  1
  F  F31  1  0.80252206  0.87048478  0.55350038  1
  F  F32  1  0.81919428  0.25000000  0.14913709  1
  F  F33  1  0.18080572  0.75000000  0.85086291  1
  F  F34  1  0.81919428  0.75000000  0.35086291  1
  F  F35  1  0.18080572  0.25000000  0.64913709  1
  F  F36  1  0.17825952  0.25000000  0.00705506  1
  F  F37  1  0.82174048  0.75000000  0.99294494  1
  F  F38  1  0.17825952  0.75000000  0.49294494  1
  F  F39  1  0.82174048  0.25000000  0.50705506  1
