# generated using pymatgen
data_NaCl3
_symmetry_space_group_name_H-M   'P 1'
_cell_length_a   5.63130285
_cell_length_b   8.00036699
_cell_length_c   8.41578308
_cell_angle_alpha   90.00000000
_cell_angle_beta   90.00000000
_cell_angle_gamma   90.00000000
_symmetry_Int_Tables_number   1
_chemical_formula_structural   NaCl3
_chemical_formula_sum   'Na4 Cl12'
_cell_volume   379.15197827
_cell_formula_units_Z   4
loop_
 _symmetry_equiv_pos_site_id
 _symmetry_equiv_pos_as_xyz
  1  'x, y, z'
loop_
 _atom_site_type_symbol
 _atom_site_label
 _atom_site_symmetry_multiplicity
 _atom_site_fract_x
 _atom_site_fract_y
 _atom_site_fract_z
 _atom_site_occupancy
  Na  Na0  1  0.25000000  0.05084515  0.82062723  1
  Na  Na1  1  0.25000000  0.44915485  0.32062723  1
  Na  Na2  1  0.75000000  0.94915485  0.17937277  1
  Na  Na3  1  0.75000000  0.55084515  0.67937277  1
  Cl  Cl4  1  0.25000000  0.35775917  0.64248710  1
  Cl  Cl5  1  0.25000000  0.14224083  0.14248710  1
  Cl  Cl6  1  0.75000000  0.64224083  0.35751290  1
  Cl  Cl7  1  0.75000000  0.85775917  0.85751290  1
  Cl  Cl8  1  0.25000000  0.78840453  0.58103751  1
  Cl  Cl9  1  0.25000000  0.71159547  0.08103751  1
  Cl  Cl10  1  0.75000000  0.21159547  0.41896249  1
  Cl  Cl11  1  0.75000000  0.28840453  0.91896249  1
  Cl  Cl12  1  0.25000000  0.55114007  0.87982486  1
  Cl  Cl13  1  0.25000000  0.94885993  0.37982486  1
  Cl  Cl14  1  0.75000000  0.44885993  0.12017514  1
  Cl  Cl15  1  0.75000000  0.05114007  0.62017514  1
