# generated using pymatgen
data_Na3NbS4
_symmetry_space_group_name_H-M   'P 1'
_cell_length_a   8.03283441
_cell_length_b   14.33120546
_cell_length_c   14.90185002
_cell_angle_alpha   85.66797235
_cell_angle_beta   74.36401209
_cell_angle_gamma   73.72447046
_symmetry_Int_Tables_number   1
_chemical_formula_structural   Na3NbS4
_chemical_formula_sum   'Na24 Nb8 S32'
_cell_volume   1585.81456189
_cell_formula_units_Z   8
loop_
 _symmetry_equiv_pos_site_id
 _symmetry_equiv_pos_as_xyz
  1  'x, y, z'
loop_
 _atom_site_type_symbol
 _atom_site_label
 _atom_site_symmetry_multiplicity
 _atom_site_fract_x
 _atom_site_fract_y
 _atom_site_fract_z
 _atom_site_occupancy
  Na  Na0  1  0.56048038  0.80870857  0.27588085  1
  Na  Na1  1  0.64506980  0.19129143  0.72411915  1
  Na  Na2  1  0.11918895  0.69129143  0.77588085  1
  Na  Na3  1  0.58636122  0.30870857  0.22411915  1
  Na  Na4  1  0.12193637  0.72459485  0.18586991  1
  Na  Na5  1  0.03240113  0.27540515  0.81413009  1
  Na  Na6  1  0.59653122  0.77540515  0.68586991  1
  Na  Na7  1  0.05780628  0.22459485  0.31413009  1
  Na  Na8  1  0.92967574  0.74037381  0.44460900  1
  Na  Na9  1  0.11465855  0.25962619  0.55539100  1
  Na  Na10  1  0.42004955  0.75962619  0.94460900  1
  Na  Na11  1  0.12428474  0.24037381  0.05539100  1
  Na  Na12  1  0.73698381  0.99657406  0.49275673  1
  Na  Na13  1  0.22631460  0.00342594  0.50724327  1
  Na  Na14  1  0.48355787  0.50342594  0.99275673  1
  Na  Na15  1  0.97974054  0.49657406  0.00724327  1
  Na  Na16  1  0.61558225  0.54881521  0.25400750  1
  Na  Na17  1  0.41840495  0.45118479  0.74599250  1
  Na  Na18  1  0.91439745  0.95118479  0.75400750  1
  Na  Na19  1  0.61958974  0.04881521  0.24599250  1
  Na  Na20  1  0.75047896  0.50000000  0.50000000  1
  Na  Na21  1  0.00047896  -0.00000000  0.00000000  1
  Na  Na22  1  0.26307211  0.50000000  0.50000000  1
  Na  Na23  1  0.51307211  0.00000000  0.00000000  1
  Nb  Nb24  1  0.09299417  0.98007375  0.23058728  1
  Nb  Nb25  1  0.30365520  0.01992625  0.76941272  1
  Nb  Nb26  1  0.82306793  0.51992625  0.73058728  1
  Nb  Nb27  1  0.07358145  0.48007375  0.26941272  1
  Nb  Nb28  1  0.81934216  0.75472351  0.01241172  1
  Nb  Nb29  1  0.58647739  0.24527649  0.98758828  1
  Nb  Nb30  1  0.32406567  0.74527649  0.51241172  1
  Nb  Nb31  1  0.58175388  0.25472351  0.48758828  1
  S  S32  1  0.34483052  0.50162736  0.18814787  1
  S  S33  1  0.03460576  0.49837264  0.81185213  1
  S  S34  1  0.59645789  0.99837264  0.68814787  1
  S  S35  1  0.28297839  0.00162736  0.31185213  1
  S  S36  1  0.86729688  0.62762092  0.31218791  1
  S  S37  1  0.80710570  0.37237908  0.68781209  1
  S  S38  1  0.24491780  0.87237908  0.81218791  1
  S  S39  1  0.92948478  0.12762092  0.18781209  1
  S  S40  1  0.53228572  0.83160366  0.49546095  1
  S  S41  1  0.85935033  0.16839634  0.50453905  1
  S  S42  1  0.11388938  0.66839634  0.99546095  1
  S  S43  1  0.77774666  0.33160366  0.00453905  1
  S  S44  1  0.32319769  0.68992414  0.37189116  1
  S  S45  1  0.38501298  0.31007586  0.62810884  1
  S  S46  1  0.76312182  0.81007586  0.87189116  1
  S  S47  1  0.44508884  0.18992414  0.12810884  1
  S  S48  1  0.25869212  0.89107567  0.09993130  1
  S  S49  1  0.24969909  0.10892433  0.90006870  1
  S  S50  1  0.89976779  0.60892433  0.59993130  1
  S  S51  1  0.10862342  0.39107567  0.40006870  1
  S  S52  1  0.89429265  0.90017511  0.31824882  1
  S  S53  1  0.11271659  0.09982489  0.68175118  1
  S  S54  1  0.54446777  0.59982489  0.81824882  1
  S  S55  1  0.96254147  0.40017511  0.18175118  1
  S  S56  1  0.63978528  0.65455359  0.07563064  1
  S  S57  1  0.36996951  0.34544641  0.92436936  1
  S  S58  1  0.04433887  0.84544641  0.57563064  1
  S  S59  1  0.46541592  0.15455359  0.42436936  1
  S  S60  1  0.75521310  0.88655410  0.10587132  1
  S  S61  1  0.74763852  0.11344590  0.89412868  1
  S  S62  1  0.39176721  0.61344590  0.60587132  1
  S  S63  1  0.61108442  0.38655410  0.39412868  1
