# generated using pymatgen
data_NaAlBr4
_symmetry_space_group_name_H-M   'P 1'
_cell_length_a   7.52428271
_cell_length_b   7.52194040
_cell_length_c   13.80994839
_cell_angle_alpha   90.00000000
_cell_angle_beta   90.00000000
_cell_angle_gamma   90.00000000
_symmetry_Int_Tables_number   1
_chemical_formula_structural   NaAlBr4
_chemical_formula_sum   'Na4 Al4 Br16'
_cell_volume   781.60449522
_cell_formula_units_Z   4
loop_
 _symmetry_equiv_pos_site_id
 _symmetry_equiv_pos_as_xyz
  1  'x, y, z'
loop_
 _atom_site_type_symbol
 _atom_site_label
 _atom_site_symmetry_multiplicity
 _atom_site_fract_x
 _atom_site_fract_y
 _atom_site_fract_z
 _atom_site_occupancy
  Na  Na0  1  0.54784202  0.75000000  0.84578124  1
  Na  Na1  1  0.45215798  0.25000000  0.15421876  1
  Na  Na2  1  0.04784202  0.25000000  0.65421876  1
  Na  Na3  1  0.95215798  0.75000000  0.34578124  1
  Al  Al4  1  0.79948279  0.75000000  0.60062708  1
  Al  Al5  1  0.20051721  0.25000000  0.39937292  1
  Al  Al6  1  0.29948279  0.25000000  0.89937292  1
  Al  Al7  1  0.70051721  0.75000000  0.10062708  1
  Br  Br8  1  0.09393428  0.75000000  0.55350862  1
  Br  Br9  1  0.90606572  0.25000000  0.44649138  1
  Br  Br10  1  0.59393428  0.25000000  0.94649138  1
  Br  Br11  1  0.40606572  0.75000000  0.05350862  1
  Br  Br12  1  0.73913441  0.50577687  0.69804724  1
  Br  Br13  1  0.26086559  0.49422313  0.30195276  1
  Br  Br14  1  0.23913441  0.49422313  0.80195276  1
  Br  Br15  1  0.26086559  0.00577687  0.30195276  1
  Br  Br16  1  0.76086559  0.50577687  0.19804724  1
  Br  Br17  1  0.73913441  0.99422313  0.69804724  1
  Br  Br18  1  0.76086559  0.99422313  0.19804724  1
  Br  Br19  1  0.23913441  0.00577687  0.80195276  1
  Br  Br20  1  0.87444668  0.75000000  0.96446640  1
  Br  Br21  1  0.12555332  0.25000000  0.03553360  1
  Br  Br22  1  0.37444668  0.25000000  0.53553360  1
  Br  Br23  1  0.62555332  0.75000000  0.46446640  1
