# generated using pymatgen
data_Cs3Er2I9
_symmetry_space_group_name_H-M   'P 1'
_cell_length_a   8.48247215
_cell_length_b   8.48150452
_cell_length_c   21.43408544
_cell_angle_alpha   90.01911297
_cell_angle_beta   89.98691282
_cell_angle_gamma   119.99948089
_symmetry_Int_Tables_number   1
_chemical_formula_structural   Cs3Er2I9
_chemical_formula_sum   'Cs6 Er4 I18'
_cell_volume   1335.46704676
_cell_formula_units_Z   2
loop_
 _symmetry_equiv_pos_site_id
 _symmetry_equiv_pos_as_xyz
  1  'x, y, z'
loop_
 _atom_site_type_symbol
 _atom_site_label
 _atom_site_symmetry_multiplicity
 _atom_site_fract_x
 _atom_site_fract_y
 _atom_site_fract_z
 _atom_site_occupancy
  Cs  Cs0  1  0.33333025  0.66665680  0.43207425  1
  Cs  Cs1  1  0.66664154  0.33332907  0.56794597  1
  Cs  Cs2  1  0.66667120  0.33332399  0.93207933  1
  Cs  Cs3  1  0.33331618  0.66666914  0.06793073  1
  Cs  Cs4  1  0.99996461  0.00000093  0.24999811  1
  Cs  Cs5  1  0.00001368  0.99996102  0.75000878  1
  Er  Er6  1  0.66665222  0.33329983  0.34409778  1
  Er  Er7  1  0.33338891  0.66671267  0.65589297  1
  Er  Er8  1  0.33334566  0.66666465  0.84410465  1
  Er  Er9  1  0.66657540  0.33335076  0.15588820  1
  I  I10  1  0.83519661  0.67049689  0.41478740  1
  I  I11  1  0.32950878  0.16475377  0.41477476  1
  I  I12  1  0.83515673  0.16467769  0.41476424  1
  I  I13  1  0.16481175  0.32958387  0.58518710  1
  I  I14  1  0.67055456  0.83516699  0.58520510  1
  I  I15  1  0.16476168  0.83525850  0.58524520  1
  I  I16  1  0.16475865  0.32954338  0.91479430  1
  I  I17  1  0.67061950  0.83523701  0.91472696  1
  I  I18  1  0.16470567  0.83522055  0.91477875  1
  I  I19  1  0.83521955  0.67070300  0.08530512  1
  I  I20  1  0.32944937  0.16471841  0.08524641  1
  I  I21  1  0.83522852  0.16473553  0.08522412  1
  I  I22  1  0.50494771  0.01003608  0.24993406  1
  I  I23  1  0.98990481  0.49497072  0.24994744  1
  I  I24  1  0.50494989  0.49491926  0.25007285  1
  I  I25  1  0.49498176  0.98995925  0.75007116  1
  I  I26  1  0.01032716  0.50503036  0.74999331  1
  I  I27  1  0.49501765  0.50501986  0.74991993  1
