# generated using pymatgen
data_CaLa2Co2Sb2(PbO6)2
_symmetry_space_group_name_H-M   'P 1'
_cell_length_a   6.27273002
_cell_length_b   6.61846877
_cell_length_c   8.94033476
_cell_angle_alpha   104.12826613
_cell_angle_beta   104.65159702
_cell_angle_gamma   70.51372457
_symmetry_Int_Tables_number   1
_chemical_formula_structural   CaLa2Co2Sb2(PbO6)2
_chemical_formula_sum   'Ca1 La2 Co2 Sb2 Pb2 O12'
_cell_volume   333.29660473
_cell_formula_units_Z   1
loop_
 _symmetry_equiv_pos_site_id
 _symmetry_equiv_pos_as_xyz
  1  'x, y, z'
loop_
 _atom_site_type_symbol
 _atom_site_label
 _atom_site_symmetry_multiplicity
 _atom_site_fract_x
 _atom_site_fract_y
 _atom_site_fract_z
 _atom_site_occupancy
  Ca  Ca0  1  0.89362300  0.84305500  0.36619400  1
  La  La1  1  0.47665300  0.44783500  0.72504700  1
  La  La2  1  0.08092200  0.13462200  0.18661700  1
  Co  Co3  1  0.93971800  0.40811900  0.59598700  1
  Co  Co4  1  0.53700200  0.03700600  0.96480100  1
  Sb  Sb5  1  0.97422100  0.53566800  0.99787700  1
  Sb  Sb6  1  0.43573700  0.93094600  0.51902000  1
  Pb  Pb7  1  0.52987900  0.45790100  0.25638700  1
  Pb  Pb8  1  0.96096600  0.94889300  0.75100600  1
  O  O9  1  0.72441400  0.09732400  0.18160500  1
  O  O10  1  0.10790400  0.51477800  0.80948400  1
  O  O11  1  0.50138500  0.07911000  0.74227600  1
  O  O12  1  0.87547500  0.52697900  0.20181100  1
  O  O13  1  0.25426800  0.75807500  0.55830000  1
  O  O14  1  0.66424100  0.72384000  0.90936100  1
  O  O15  1  0.75987400  0.19829400  0.56786300  1
  O  O16  1  0.27785300  0.28412900  0.05981100  1
  O  O17  1  0.17324300  0.23480000  0.47016800  1
  O  O18  1  0.82207400  0.29820200  0.91607700  1
  O  O19  1  0.77959200  0.70784800  0.55287800  1
  O  O20  1  0.13571700  0.74924300  0.13409500  1
