# generated using pymatgen
data_K2GaAs2
_symmetry_space_group_name_H-M   'P 1'
_cell_length_a   14.40327223
_cell_length_b   8.93796744
_cell_length_c   11.15347543
_cell_angle_alpha   61.91620468
_cell_angle_beta   90.00000000
_cell_angle_gamma   90.00000000
_symmetry_Int_Tables_number   1
_chemical_formula_structural   K2GaAs2
_chemical_formula_sum   'K16 Ga8 As16'
_cell_volume   1266.79623474
_cell_formula_units_Z   8
loop_
 _symmetry_equiv_pos_site_id
 _symmetry_equiv_pos_as_xyz
  1  'x, y, z'
loop_
 _atom_site_type_symbol
 _atom_site_label
 _atom_site_symmetry_multiplicity
 _atom_site_fract_x
 _atom_site_fract_y
 _atom_site_fract_z
 _atom_site_occupancy
  K  K0  1  0.62792903  0.99419833  0.46733651  1
  K  K1  1  0.12792903  0.00580167  0.03266349  1
  K  K2  1  0.37207097  0.00580167  0.53266349  1
  K  K3  1  0.87207097  0.99419833  0.96733651  1
  K  K4  1  0.63110595  0.58649389  0.09005522  1
  K  K5  1  0.13110595  0.41350611  0.40994478  1
  K  K6  1  0.36889405  0.41350611  0.90994478  1
  K  K7  1  0.86889405  0.58649389  0.59005522  1
  K  K8  1  0.88513667  0.20405409  0.47561356  1
  K  K9  1  0.38513667  0.79594591  0.02438644  1
  K  K10  1  0.11486333  0.79594591  0.52438644  1
  K  K11  1  0.61486333  0.20405409  0.97561356  1
  K  K12  1  0.87917517  0.47611825  0.05804706  1
  K  K13  1  0.37917517  0.52388175  0.44195294  1
  K  K14  1  0.12082483  0.52388175  0.94195294  1
  K  K15  1  0.62082483  0.47611825  0.55804706  1
  Ga  Ga16  1  0.71698377  0.84682588  0.25402476  1
  Ga  Ga17  1  0.21698377  0.15317412  0.24597524  1
  Ga  Ga18  1  0.28301623  0.15317412  0.74597524  1
  Ga  Ga19  1  0.78301623  0.84682588  0.75402476  1
  Ga  Ga20  1  0.94288991  0.00251370  0.25796408  1
  Ga  Ga21  1  0.44288991  0.99748630  0.24203592  1
  Ga  Ga22  1  0.05711009  0.99748630  0.74203592  1
  Ga  Ga23  1  0.55711009  0.00251370  0.75796408  1
  As  As24  1  0.78562850  0.10233779  0.22821628  1
  As  As25  1  0.28562850  0.89766221  0.27178372  1
  As  As26  1  0.21437150  0.89766221  0.77178372  1
  As  As27  1  0.71437150  0.10233779  0.72821628  1
  As  As28  1  0.81565129  0.62008883  0.28031101  1
  As  As29  1  0.31565129  0.37991117  0.21968899  1
  As  As30  1  0.18434871  0.37991117  0.71968899  1
  As  As31  1  0.68434871  0.62008883  0.78031101  1
  As  As32  1  0.55330035  0.78795916  0.25634583  1
  As  As33  1  0.05330035  0.21204084  0.24365417  1
  As  As34  1  0.44669965  0.21204084  0.74365417  1
  As  As35  1  0.94669965  0.78795916  0.75634583  1
  As  As36  1  0.97284220  0.73087591  0.27629803  1
  As  As37  1  0.47284220  0.26912409  0.22370197  1
  As  As38  1  0.02715780  0.26912409  0.72370197  1
  As  As39  1  0.52715780  0.73087591  0.77629803  1
