# generated using pymatgen
data_KBaCeBiO6
_symmetry_space_group_name_H-M   'P 1'
_cell_length_a   8.64750223
_cell_length_b   8.65283087
_cell_length_c   8.64674828
_cell_angle_alpha   90.00000000
_cell_angle_beta   90.00000000
_cell_angle_gamma   90.00000000
_symmetry_Int_Tables_number   1
_chemical_formula_structural   KBaCeBiO6
_chemical_formula_sum   'K4 Ba4 Ce4 Bi4 O24'
_cell_volume   646.99617605
_cell_formula_units_Z   4
loop_
 _symmetry_equiv_pos_site_id
 _symmetry_equiv_pos_as_xyz
  1  'x, y, z'
loop_
 _atom_site_type_symbol
 _atom_site_label
 _atom_site_symmetry_multiplicity
 _atom_site_fract_x
 _atom_site_fract_y
 _atom_site_fract_z
 _atom_site_occupancy
  K  K0  1  0.50000000  0.00000000  0.50000000  1
  K  K1  1  0.50000000  0.50000000  0.00000000  1
  K  K2  1  -0.00000000  0.50000000  0.00000000  1
  K  K3  1  -0.00000000  0.00000000  0.50000000  1
  Ba  Ba4  1  -0.00000000  0.50000000  0.50000000  1
  Ba  Ba5  1  0.50000000  0.00000000  0.00000000  1
  Ba  Ba6  1  -0.00000000  0.00000000  0.00000000  1
  Ba  Ba7  1  0.50000000  0.50000000  0.50000000  1
  Ce  Ce8  1  0.25000000  0.25000000  0.25000000  1
  Ce  Ce9  1  0.75000000  0.75000000  0.25000000  1
  Ce  Ce10  1  0.75000000  0.25000000  0.75000000  1
  Ce  Ce11  1  0.25000000  0.75000000  0.75000000  1
  Bi  Bi12  1  0.75000000  0.75000000  0.75000000  1
  Bi  Bi13  1  0.25000000  0.25000000  0.75000000  1
  Bi  Bi14  1  0.25000000  0.75000000  0.25000000  1
  Bi  Bi15  1  0.75000000  0.25000000  0.25000000  1
  O  O16  1  0.99420131  0.24702384  0.26117114  1
  O  O17  1  0.00579869  0.75297616  0.26117114  1
  O  O18  1  0.00579869  0.24702384  0.73882886  1
  O  O19  1  0.99420131  0.75297616  0.73882886  1
  O  O20  1  0.25277842  0.99415397  0.23554752  1
  O  O21  1  0.25277842  0.00584603  0.76445248  1
  O  O22  1  0.74722158  0.00584603  0.23554752  1
  O  O23  1  0.74722158  0.99415397  0.76445248  1
  O  O24  1  0.23879121  0.24684175  0.99435939  1
  O  O25  1  0.76120879  0.24684175  0.00564061  1
  O  O26  1  0.23879121  0.75315825  0.00564061  1
  O  O27  1  0.76120879  0.75315825  0.99435939  1
  O  O28  1  0.50579869  0.25297616  0.23882886  1
  O  O29  1  0.49420131  0.74702384  0.23882886  1
  O  O30  1  0.49420131  0.25297616  0.76117114  1
  O  O31  1  0.50579869  0.74702384  0.76117114  1
  O  O32  1  0.24722158  0.50584603  0.26445248  1
  O  O33  1  0.24722158  0.49415397  0.73554752  1
  O  O34  1  0.75277842  0.49415397  0.26445248  1
  O  O35  1  0.75277842  0.50584603  0.73554752  1
  O  O36  1  0.26120879  0.25315825  0.50564061  1
  O  O37  1  0.73879121  0.25315825  0.49435939  1
  O  O38  1  0.26120879  0.74684175  0.49435939  1
  O  O39  1  0.73879121  0.74684175  0.50564061  1
