# generated using pymatgen
data_MgV6O5F19
_symmetry_space_group_name_H-M   'P 1'
_cell_length_a   5.45130209
_cell_length_b   5.37435212
_cell_length_c   15.51809902
_cell_angle_alpha   90.03088917
_cell_angle_beta   100.10533544
_cell_angle_gamma   91.22233535
_symmetry_Int_Tables_number   1
_chemical_formula_structural   MgV6O5F19
_chemical_formula_sum   'Mg1 V6 O5 F19'
_cell_volume   447.47817233
_cell_formula_units_Z   1
loop_
 _symmetry_equiv_pos_site_id
 _symmetry_equiv_pos_as_xyz
  1  'x, y, z'
loop_
 _atom_site_type_symbol
 _atom_site_label
 _atom_site_symmetry_multiplicity
 _atom_site_fract_x
 _atom_site_fract_y
 _atom_site_fract_z
 _atom_site_occupancy
  Mg  Mg0  1  0.48900000  0.73581100  0.48789000  1
  V  V1  1  0.04930700  0.96297400  0.00520500  1
  V  V2  1  0.13454700  0.48384200  0.32192200  1
  V  V3  1  0.31851800  0.06200300  0.67029100  1
  V  V4  1  0.53739900  0.45503300  0.99466300  1
  V  V5  1  0.66988300  0.01226800  0.32374200  1
  V  V6  1  0.83725800  0.49921000  0.67753000  1
  O  O7  1  0.05547800  0.23050500  0.65205500  1
  O  O8  1  0.54651100  0.27261600  0.65754800  1
  O  O9  1  0.70583200  0.23049100  0.97096600  1
  O  O10  1  0.29317900  0.79446900  0.02897300  1
  O  O11  1  0.87569200  0.28566600  0.32189900  1
  F  F12  1  0.21779200  0.27095300  0.97666600  1
  F  F13  1  0.11365500  0.72679700  0.68102900  1
  F  F14  1  0.02277100  0.09714500  0.10796700  1
  F  F15  1  0.24601400  0.46638500  0.44787500  1
  F  F16  1  0.37573600  0.04514700  0.78554000  1
  F  F17  1  0.13618200  0.58875500  0.21375700  1
  F  F18  1  0.29207500  0.92651100  0.55325900  1
  F  F19  1  0.44003900  0.60050300  0.89254000  1
  F  F20  1  0.37122300  0.21491100  0.30858700  1
  F  F21  1  0.45621600  0.71388100  0.35244500  1
  F  F22  1  0.62457600  0.77092600  0.68427300  1
  F  F23  1  0.54351400  0.42015000  0.10885000  1
  F  F24  1  0.68150600  0.02751200  0.44635200  1
  F  F25  1  0.89315600  0.43024800  0.78964800  1
  F  F26  1  0.60342600  0.91337900  0.21491200  1
  F  F27  1  0.76270100  0.55916500  0.55190900  1
  F  F28  1  0.94950600  0.91343700  0.89173400  1
  F  F29  1  0.80082400  0.70983500  0.02462200  1
  F  F30  1  0.95648200  0.79196600  0.34642600  1
