# generated using pymatgen
data_Ca2SiSe4
_symmetry_space_group_name_H-M   'P 1'
_cell_length_a   6.54714783
_cell_length_b   8.56334720
_cell_length_c   14.23855996
_cell_angle_alpha   90.00000000
_cell_angle_beta   90.00000000
_cell_angle_gamma   90.00000000
_symmetry_Int_Tables_number   1
_chemical_formula_structural   Ca2SiSe4
_chemical_formula_sum   'Ca8 Si4 Se16'
_cell_volume   798.29198398
_cell_formula_units_Z   4
loop_
 _symmetry_equiv_pos_site_id
 _symmetry_equiv_pos_as_xyz
  1  'x, y, z'
loop_
 _atom_site_type_symbol
 _atom_site_label
 _atom_site_symmetry_multiplicity
 _atom_site_fract_x
 _atom_site_fract_y
 _atom_site_fract_z
 _atom_site_occupancy
  Ca  Ca0  1  0.00000000  0.50000000  0.00000000  1
  Ca  Ca1  1  0.50000000  -0.00000000  0.50000000  1
  Ca  Ca2  1  0.00000000  -0.00000000  0.00000000  1
  Ca  Ca3  1  0.50000000  0.50000000  0.50000000  1
  Ca  Ca4  1  0.48184239  0.75000000  0.22816737  1
  Ca  Ca5  1  0.01815761  0.75000000  0.72816737  1
  Ca  Ca6  1  0.51815761  0.25000000  0.77183263  1
  Ca  Ca7  1  0.98184239  0.25000000  0.27183263  1
  Si  Si8  1  0.90221247  0.75000000  0.40765977  1
  Si  Si9  1  0.59778753  0.75000000  0.90765977  1
  Si  Si10  1  0.09778753  0.25000000  0.59234023  1
  Si  Si11  1  0.40221247  0.25000000  0.09234023  1
  Se  Se12  1  0.24700131  0.75000000  0.40703430  1
  Se  Se13  1  0.25299869  0.75000000  0.90703430  1
  Se  Se14  1  0.75299869  0.25000000  0.59296570  1
  Se  Se15  1  0.74700131  0.25000000  0.09296570  1
  Se  Se16  1  0.77329426  0.75000000  0.55706820  1
  Se  Se17  1  0.72670574  0.75000000  0.05706820  1
  Se  Se18  1  0.22670574  0.25000000  0.44293180  1
  Se  Se19  1  0.27329426  0.25000000  0.94293180  1
  Se  Se20  1  0.76276914  0.53996253  0.33183269  1
  Se  Se21  1  0.73723086  0.96003747  0.83183269  1
  Se  Se22  1  0.23723086  0.03996253  0.66816731  1
  Se  Se23  1  0.26276914  0.46003747  0.16816731  1
  Se  Se24  1  0.23723086  0.46003747  0.66816731  1
  Se  Se25  1  0.26276914  0.03996253  0.16816731  1
  Se  Se26  1  0.76276914  0.96003747  0.33183269  1
  Se  Se27  1  0.73723086  0.53996253  0.83183269  1
