# generated using pymatgen
data_KAgSnSe3
_symmetry_space_group_name_H-M   'P 1'
_cell_length_a   8.28800668
_cell_length_b   8.28800668
_cell_length_c   20.47347469
_cell_angle_alpha   90.00000000
_cell_angle_beta   90.00000000
_cell_angle_gamma   90.00000000
_symmetry_Int_Tables_number   1
_chemical_formula_structural   KAgSnSe3
_chemical_formula_sum   'K8 Ag8 Sn8 Se24'
_cell_volume   1406.34457040
_cell_formula_units_Z   8
loop_
 _symmetry_equiv_pos_site_id
 _symmetry_equiv_pos_as_xyz
  1  'x, y, z'
loop_
 _atom_site_type_symbol
 _atom_site_label
 _atom_site_symmetry_multiplicity
 _atom_site_fract_x
 _atom_site_fract_y
 _atom_site_fract_z
 _atom_site_occupancy
  K  K0  1  -0.00000000  0.00000000  0.40464696  1
  K  K1  1  -0.00000000  0.00000000  0.90464696  1
  K  K2  1  -0.00000000  0.00000000  0.59454348  1
  K  K3  1  -0.00000000  0.00000000  0.09454348  1
  K  K4  1  0.50000000  0.50000000  0.23904903  1
  K  K5  1  0.50000000  0.50000000  0.73904903  1
  K  K6  1  0.50000000  0.50000000  0.44594648  1
  K  K7  1  0.50000000  0.50000000  0.94594648  1
  Ag  Ag8  1  0.31799026  0.00656191  0.24992063  1
  Ag  Ag9  1  0.68200974  0.99343809  0.24992063  1
  Ag  Ag10  1  0.99343809  0.31799026  0.24992063  1
  Ag  Ag11  1  0.00656191  0.68200974  0.24992063  1
  Ag  Ag12  1  0.68200974  0.00656191  0.74992063  1
  Ag  Ag13  1  0.31799026  0.99343809  0.74992063  1
  Ag  Ag14  1  0.00656191  0.31799026  0.74992063  1
  Ag  Ag15  1  0.99343809  0.68200974  0.74992063  1
  Sn  Sn16  1  0.50000000  0.00000000  0.41335120  1
  Sn  Sn17  1  -0.00000000  0.50000000  0.41335120  1
  Sn  Sn18  1  0.50000000  0.00000000  0.91335120  1
  Sn  Sn19  1  -0.00000000  0.50000000  0.91335120  1
  Sn  Sn20  1  0.50000000  0.00000000  0.58830740  1
  Sn  Sn21  1  -0.00000000  0.50000000  0.58830740  1
  Sn  Sn22  1  0.50000000  0.00000000  0.08830740  1
  Sn  Sn23  1  -0.00000000  0.50000000  0.08830740  1
  Se  Se24  1  0.33152224  0.84602396  0.50047187  1
  Se  Se25  1  0.66847776  0.15397604  0.50047187  1
  Se  Se26  1  0.15397604  0.33152224  0.50047187  1
  Se  Se27  1  0.84602396  0.66847776  0.50047187  1
  Se  Se28  1  0.66847776  0.84602396  0.00047187  1
  Se  Se29  1  0.33152224  0.15397604  0.00047187  1
  Se  Se30  1  0.84602396  0.33152224  0.00047187  1
  Se  Se31  1  0.15397604  0.66847776  0.00047187  1
  Se  Se32  1  0.32868016  0.19209151  0.34644152  1
  Se  Se33  1  0.67131984  0.80790849  0.34644152  1
  Se  Se34  1  0.80790849  0.32868016  0.34644152  1
  Se  Se35  1  0.19209151  0.67131984  0.34644152  1
  Se  Se36  1  0.67131984  0.19209151  0.84644152  1
  Se  Se37  1  0.32868016  0.80790849  0.84644152  1
  Se  Se38  1  0.19209151  0.32868016  0.84644152  1
  Se  Se39  1  0.80790849  0.67131984  0.84644152  1
  Se  Se40  1  0.67758514  0.81550187  0.65551444  1
  Se  Se41  1  0.32241486  0.18449813  0.65551444  1
  Se  Se42  1  0.18449813  0.67758514  0.65551444  1
  Se  Se43  1  0.81550187  0.32241486  0.65551444  1
  Se  Se44  1  0.32241486  0.81550187  0.15551444  1
  Se  Se45  1  0.67758514  0.18449813  0.15551444  1
  Se  Se46  1  0.81550187  0.67758514  0.15551444  1
  Se  Se47  1  0.18449813  0.32241486  0.15551444  1
