# generated using pymatgen
data_Ba3(AlN2)2
_symmetry_space_group_name_H-M   'P 1'
_cell_length_a   6.24592260
_cell_length_b   10.14239301
_cell_length_c   10.23240050
_cell_angle_alpha   90.00000000
_cell_angle_beta   90.00000000
_cell_angle_gamma   90.00000000
_symmetry_Int_Tables_number   1
_chemical_formula_structural   Ba3(AlN2)2
_chemical_formula_sum   'Ba12 Al8 N16'
_cell_volume   648.20826391
_cell_formula_units_Z   4
loop_
 _symmetry_equiv_pos_site_id
 _symmetry_equiv_pos_as_xyz
  1  'x, y, z'
loop_
 _atom_site_type_symbol
 _atom_site_label
 _atom_site_symmetry_multiplicity
 _atom_site_fract_x
 _atom_site_fract_y
 _atom_site_fract_z
 _atom_site_occupancy
  Ba  Ba0  1  0.25000000  0.90806118  0.50000000  1
  Ba  Ba1  1  0.25000000  0.59193882  0.00000000  1
  Ba  Ba2  1  0.75000000  0.09193882  0.50000000  1
  Ba  Ba3  1  0.75000000  0.40806118  0.00000000  1
  Ba  Ba4  1  0.11632852  0.91370866  0.15524102  1
  Ba  Ba5  1  0.11632852  0.58629134  0.34475898  1
  Ba  Ba6  1  0.38367148  0.58629134  0.65524102  1
  Ba  Ba7  1  0.38367148  0.91370866  0.84475898  1
  Ba  Ba8  1  0.88367148  0.08629134  0.84475898  1
  Ba  Ba9  1  0.88367148  0.41370866  0.65524102  1
  Ba  Ba10  1  0.61632852  0.41370866  0.34475898  1
  Ba  Ba11  1  0.61632852  0.08629134  0.15524102  1
  Al  Al12  1  0.25000000  0.26784104  0.00000000  1
  Al  Al13  1  0.25000000  0.23215896  0.50000000  1
  Al  Al14  1  0.75000000  0.73215896  0.00000000  1
  Al  Al15  1  0.75000000  0.76784104  0.50000000  1
  Al  Al16  1  0.82593366  0.75000000  0.75000000  1
  Al  Al17  1  0.32593366  0.25000000  0.75000000  1
  Al  Al18  1  0.17406634  0.25000000  0.25000000  1
  Al  Al19  1  0.67406634  0.75000000  0.25000000  1
  N  N20  1  0.85577020  0.63454447  0.14490117  1
  N  N21  1  0.85577020  0.86545553  0.35509883  1
  N  N22  1  0.64422980  0.86545553  0.64490117  1
  N  N23  1  0.64422980  0.63454447  0.85509883  1
  N  N24  1  0.14422980  0.36545553  0.85509883  1
  N  N25  1  0.14422980  0.13454447  0.64490117  1
  N  N26  1  0.35577020  0.13454447  0.35509883  1
  N  N27  1  0.35577020  0.36545553  0.14490117  1
  N  N28  1  0.53646114  0.82723114  0.09931369  1
  N  N29  1  0.53646114  0.67276886  0.40068631  1
  N  N30  1  0.96353886  0.67276886  0.59931369  1
  N  N31  1  0.96353886  0.82723114  0.90068631  1
  N  N32  1  0.46353886  0.32723114  0.59931369  1
  N  N33  1  0.03646114  0.32723114  0.40068631  1
  N  N34  1  0.03646114  0.17276886  0.09931369  1
  N  N35  1  0.46353886  0.17276886  0.90068631  1
