# generated using pymatgen
data_MgV6O5F19
_symmetry_space_group_name_H-M   'P 1'
_cell_length_a   5.41535341
_cell_length_b   5.28920555
_cell_length_c   15.61917155
_cell_angle_alpha   89.66145653
_cell_angle_beta   100.20795867
_cell_angle_gamma   89.68649056
_symmetry_Int_Tables_number   1
_chemical_formula_structural   MgV6O5F19
_chemical_formula_sum   'Mg1 V6 O5 F19'
_cell_volume   440.27973872
_cell_formula_units_Z   1
loop_
 _symmetry_equiv_pos_site_id
 _symmetry_equiv_pos_as_xyz
  1  'x, y, z'
loop_
 _atom_site_type_symbol
 _atom_site_label
 _atom_site_symmetry_multiplicity
 _atom_site_fract_x
 _atom_site_fract_y
 _atom_site_fract_z
 _atom_site_occupancy
  Mg  Mg0  1  0.66294400  0.24767900  0.84844700  1
  V  V1  1  0.03688300  0.97588100  0.01056900  1
  V  V2  1  0.12208500  0.47400700  0.33077400  1
  V  V3  1  0.32022700  0.05647000  0.65041200  1
  V  V4  1  0.53176900  0.46655600  0.01249100  1
  V  V5  1  0.65112000  0.99112300  0.33468400  1
  V  V6  1  0.82831800  0.51322000  0.65470700  1
  O  O7  1  0.05156100  0.23159100  0.64291100  1
  O  O8  1  0.54117200  0.27503200  0.63951100  1
  O  O9  1  0.71252200  0.21541100  0.98907900  1
  O  O10  1  0.27917200  0.78932400  0.00902700  1
  O  O11  1  0.87034000  0.29604200  0.31227400  1
  F  F12  1  0.20538400  0.28093700  0.98477400  1
  F  F13  1  0.11087800  0.73074600  0.68451300  1
  F  F14  1  0.07673300  0.07157200  0.11956700  1
  F  F15  1  0.22892500  0.41993100  0.44292100  1
  F  F16  1  0.39617600  0.07338900  0.77742300  1
  F  F17  1  0.12592800  0.59851600  0.22517500  1
  F  F18  1  0.27306100  0.91494100  0.54641700  1
  F  F19  1  0.48953100  0.54554000  0.88819000  1
  F  F20  1  0.35020500  0.20924300  0.30738700  1
  F  F21  1  0.46505100  0.70882100  0.35508300  1
  F  F22  1  0.61005900  0.77875600  0.68204600  1
  F  F23  1  0.51674400  0.46655600  0.12513500  1
  F  F24  1  0.70888400  0.09564400  0.44337800  1
  F  F25  1  0.86289500  0.41957600  0.77664600  1
  F  F26  1  0.63418700  0.93497100  0.22202200  1
  F  F27  1  0.77948700  0.59273400  0.54408900  1
  F  F28  1  0.91343900  0.96612700  0.88929500  1
  F  F29  1  0.81287400  0.71651400  0.03130900  1
  F  F30  1  0.96239700  0.78064500  0.35903400  1
