# generated using pymatgen
data_Na2NiPO4F
_symmetry_space_group_name_H-M   'P 1'
_cell_length_a   5.15330266
_cell_length_b   13.39475398
_cell_length_c   13.65656319
_cell_angle_alpha   59.43387063
_cell_angle_beta   90.00000000
_cell_angle_gamma   90.00000000
_symmetry_Int_Tables_number   1
_chemical_formula_structural   Na2NiPO4F
_chemical_formula_sum   'Na16 Ni8 P8 O32 F8'
_cell_volume   811.68318389
_cell_formula_units_Z   8
loop_
 _symmetry_equiv_pos_site_id
 _symmetry_equiv_pos_as_xyz
  1  'x, y, z'
loop_
 _atom_site_type_symbol
 _atom_site_label
 _atom_site_symmetry_multiplicity
 _atom_site_fract_x
 _atom_site_fract_y
 _atom_site_fract_z
 _atom_site_occupancy
  Na  Na0  1  0.27263804  0.91813317  0.91216419  1
  Na  Na1  1  0.77263804  0.08186683  0.58783581  1
  Na  Na2  1  0.72736196  0.08186683  0.08783581  1
  Na  Na3  1  0.22736196  0.91813317  0.41216419  1
  Na  Na4  1  0.23719412  0.17038735  0.41990328  1
  Na  Na5  1  0.73719412  0.82961265  0.08009672  1
  Na  Na6  1  0.76280588  0.82961265  0.58009672  1
  Na  Na7  1  0.26280588  0.17038735  0.91990328  1
  Na  Na8  1  0.76042684  0.58238735  0.08048633  1
  Na  Na9  1  0.26042684  0.41761265  0.41951367  1
  Na  Na10  1  0.23957316  0.41761265  0.91951367  1
  Na  Na11  1  0.73957316  0.58238735  0.58048633  1
  Na  Na12  1  0.76292149  0.32904117  0.34009241  1
  Na  Na13  1  0.26292149  0.67095883  0.15990759  1
  Na  Na14  1  0.23707851  0.67095883  0.65990759  1
  Na  Na15  1  0.73707851  0.32904117  0.84009241  1
  Ni  Ni16  1  0.78628159  0.82310509  0.85172353  1
  Ni  Ni17  1  0.28628159  0.17689491  0.64827647  1
  Ni  Ni18  1  0.21371841  0.17689491  0.14827647  1
  Ni  Ni19  1  0.71371841  0.82310509  0.35172353  1
  Ni  Ni20  1  0.22112261  0.67698371  0.92513098  1
  Ni  Ni21  1  0.72112261  0.32301629  0.57486902  1
  Ni  Ni22  1  0.77887739  0.32301629  0.07486902  1
  Ni  Ni23  1  0.27887739  0.67698371  0.42513098  1
  P  P24  1  0.69986950  0.08807669  0.32338411  1
  P  P25  1  0.19986950  0.91192331  0.17661589  1
  P  P26  1  0.30013050  0.91192331  0.67661589  1
  P  P27  1  0.80013050  0.08807669  0.82338411  1
  P  P28  1  0.79380856  0.58835654  0.33802260  1
  P  P29  1  0.29380856  0.41164346  0.16197740  1
  P  P30  1  0.20619144  0.41164346  0.66197740  1
  P  P31  1  0.70619144  0.58835654  0.83802260  1
  O  O32  1  0.08952231  0.60637538  0.34458658  1
  O  O33  1  0.58952231  0.39362462  0.15541342  1
  O  O34  1  0.91047769  0.39362462  0.65541342  1
  O  O35  1  0.41047769  0.60637538  0.84458658  1
  O  O36  1  0.09581584  0.10715316  0.79973467  1
  O  O37  1  0.59581584  0.89284684  0.70026533  1
  O  O38  1  0.90418416  0.89284684  0.20026533  1
  O  O39  1  0.40418416  0.10715316  0.29973467  1
  O  O40  1  0.85014963  0.65462342  0.88752155  1
  O  O41  1  0.35014963  0.34537658  0.61247845  1
  O  O42  1  0.14985037  0.34537658  0.11247845  1
  O  O43  1  0.64985037  0.65462342  0.38752155  1
  O  O44  1  0.27162801  0.54153083  0.58865029  1
  O  O45  1  0.77162901  0.45846917  0.91134971  1
  O  O46  1  0.72837199  0.45846917  0.41134971  1
  O  O47  1  0.22837199  0.54153083  0.08865029  1
  O  O48  1  0.21372589  0.86880847  0.59824550  1
  O  O49  1  0.71372589  0.13119153  0.90175450  1
  O  O50  1  0.78627411  0.13119153  0.40175450  1
  O  O51  1  0.28627411  0.86880847  0.09824550  1
  O  O52  1  0.71208933  0.63228288  0.21585595  1
  O  O53  1  0.21208933  0.36771712  0.28414405  1
  O  O54  1  0.28791067  0.36771712  0.78414405  1
  O  O55  1  0.78791067  0.63228288  0.71585595  1
  O  O56  1  0.26418466  0.04190410  0.12138364  1
  O  O57  1  0.76418466  0.95809590  0.37861636  1
  O  O58  1  0.73581534  0.95809590  0.87861636  1
  O  O59  1  0.23581534  0.04190410  0.62138364  1
  O  O60  1  0.84153709  0.15405508  0.20720100  1
  O  O61  1  0.34153709  0.84594492  0.29279900  1
  O  O62  1  0.15846291  0.84594492  0.79279900  1
  O  O63  1  0.65846291  0.15405508  0.70720100  1
  F  F64  1  0.50448178  0.24737405  0.49994136  1
  F  F65  1  0.00448178  0.75262595  0.00005864  1
  F  F66  1  0.49551822  0.75262595  0.50005864  1
  F  F67  1  0.99551822  0.24737405  -0.00005864  1
  F  F68  1  0.50528794  0.74733398  0.97206606  1
  F  F69  1  0.00528794  0.25266602  0.52793394  1
  F  F70  1  0.49471206  0.25266602  0.02793394  1
  F  F71  1  0.99471206  0.74733398  0.47206606  1
