# generated using pymatgen
data_Ba6Y2Co4O15
_symmetry_space_group_name_H-M   'P 1'
_cell_length_a   5.99207333
_cell_length_b   7.98914674
_cell_length_c   18.36967173
_cell_angle_alpha   88.88547812
_cell_angle_beta   90.00000000
_cell_angle_gamma   90.00000000
_symmetry_Int_Tables_number   1
_chemical_formula_structural   Ba6Y2Co4O15
_chemical_formula_sum   'Ba12 Y4 Co8 O30'
_cell_volume   879.21834859
_cell_formula_units_Z   2
loop_
 _symmetry_equiv_pos_site_id
 _symmetry_equiv_pos_as_xyz
  1  'x, y, z'
loop_
 _atom_site_type_symbol
 _atom_site_label
 _atom_site_symmetry_multiplicity
 _atom_site_fract_x
 _atom_site_fract_y
 _atom_site_fract_z
 _atom_site_occupancy
  Ba  Ba0  1  0.28744295  0.00000000  0.25000000  1
  Ba  Ba1  1  0.71255705  0.00000000  0.75000000  1
  Ba  Ba2  1  0.32720888  0.50000000  0.25000000  1
  Ba  Ba3  1  0.67279112  0.50000000  0.75000000  1
  Ba  Ba4  1  0.74970234  0.97954461  0.08828104  1
  Ba  Ba5  1  0.74970234  0.02045539  0.41171896  1
  Ba  Ba6  1  0.25029766  0.02045539  0.91171896  1
  Ba  Ba7  1  0.25029766  0.97954461  0.58828104  1
  Ba  Ba8  1  0.24688141  0.49590252  0.57783915  1
  Ba  Ba9  1  0.24688141  0.50409748  0.92216085  1
  Ba  Ba10  1  0.75311859  0.50409748  0.42216085  1
  Ba  Ba11  1  0.75311859  0.49590252  0.07783915  1
  Y  Y12  1  0.25254756  0.75437230  0.41111627  1
  Y  Y13  1  0.25254756  0.24562770  0.08888373  1
  Y  Y14  1  0.74745244  0.24562770  0.58888373  1
  Y  Y15  1  0.74745244  0.75437230  0.91111627  1
  Co  Co16  1  0.25252098  0.75349318  0.06321042  1
  Co  Co17  1  0.25252098  0.24650682  0.43678958  1
  Co  Co18  1  0.74747902  0.24650682  0.93678958  1
  Co  Co19  1  0.74747902  0.75349318  0.56321042  1
  Co  Co20  1  0.77598783  0.76874075  0.26368704  1
  Co  Co21  1  0.77598783  0.23125925  0.23631296  1
  Co  Co22  1  0.22401217  0.23125925  0.73631296  1
  Co  Co23  1  0.22401217  0.76874075  0.76368704  1
  O  O24  1  0.81998010  0.00000000  0.25000000  1
  O  O25  1  0.18001990  0.00000000  0.75000000  1
  O  O26  1  0.76838985  0.95719952  0.60614375  1
  O  O27  1  0.76838985  0.04280048  0.89385625  1
  O  O28  1  0.23161015  0.04280048  0.39385625  1
  O  O29  1  0.23161015  0.95719952  0.10614375  1
  O  O30  1  0.24748789  0.53215545  0.08883999  1
  O  O31  1  0.24748789  0.46784455  0.41116001  1
  O  O32  1  0.75251211  0.46784455  0.91116001  1
  O  O33  1  0.75251211  0.53215545  0.58883999  1
  O  O34  1  0.03339050  0.71590624  0.31208161  1
  O  O35  1  0.03339050  0.28409376  0.18791839  1
  O  O36  1  0.96660950  0.28409376  0.68791839  1
  O  O37  1  0.96660950  0.71590624  0.81208161  1
  O  O38  1  0.54169216  0.75475842  0.33489375  1
  O  O39  1  0.54169216  0.24524158  0.16510625  1
  O  O40  1  0.45830784  0.24524158  0.66510625  1
  O  O41  1  0.45830784  0.75475842  0.83489375  1
  O  O42  1  0.49258852  0.76517180  0.50151911  1
  O  O43  1  0.49258852  0.23482820  0.99848089  1
  O  O44  1  0.50741148  0.23482820  0.49848089  1
  O  O45  1  0.50741148  0.76517180  0.00151911  1
  O  O46  1  0.01294856  0.76401571  0.99389604  1
  O  O47  1  0.01294856  0.23598429  0.50610396  1
  O  O48  1  0.98705144  0.23598429  0.00610396  1
  O  O49  1  0.98705144  0.76401571  0.49389604  1
  O  O50  1  0.35182685  0.70036808  0.68183950  1
  O  O51  1  0.35182685  0.29963192  0.81816050  1
  O  O52  1  0.64817315  0.29963192  0.31816050  1
  O  O53  1  0.64817315  0.70036808  0.18183950  1
