# generated using pymatgen
data_K3W2(O2F3)2
_symmetry_space_group_name_H-M   'P 1'
_cell_length_a   8.12556964
_cell_length_b   8.12556964
_cell_length_c   8.34497398
_cell_angle_alpha   73.22581617
_cell_angle_beta   73.22581617
_cell_angle_gamma   91.74190398
_symmetry_Int_Tables_number   1
_chemical_formula_structural   K3W2(O2F3)2
_chemical_formula_sum   'K6 W4 O8 F12'
_cell_volume   501.18582469
_cell_formula_units_Z   2
loop_
 _symmetry_equiv_pos_site_id
 _symmetry_equiv_pos_as_xyz
  1  'x, y, z'
loop_
 _atom_site_type_symbol
 _atom_site_label
 _atom_site_symmetry_multiplicity
 _atom_site_fract_x
 _atom_site_fract_y
 _atom_site_fract_z
 _atom_site_occupancy
  K  K0  1  0.95572482  0.74807567  0.00155835  1
  K  K1  1  0.25192433  0.04427518  0.49844165  1
  K  K2  1  0.04427518  0.25192433  0.99844165  1
  K  K3  1  0.74807567  0.95572482  0.50155835  1
  K  K4  1  0.50000000  0.50000000  -0.00000000  1
  K  K5  1  0.50000000  0.50000000  0.50000000  1
  W  W6  1  0.02068300  0.43078016  0.36388052  1
  W  W7  1  0.56921984  0.97931700  0.13611948  1
  W  W8  1  0.97931700  0.56921984  0.63611948  1
  W  W9  1  0.43078016  0.02068300  0.86388052  1
  O  O10  1  0.94113221  0.33931780  0.61865686  1
  O  O11  1  0.66068220  0.05886779  0.88134314  1
  O  O12  1  0.05886779  0.66068220  0.38134314  1
  O  O13  1  0.33931780  0.94113221  0.11865686  1
  O  O14  1  0.82615156  0.44577868  0.31708385  1
  O  O15  1  0.55422132  0.17384844  0.18291615  1
  O  O16  1  0.17384844  0.55422132  0.68291615  1
  O  O17  1  0.44577868  0.82615156  0.81708385  1
  F  F18  1  0.15247403  0.50586846  0.10689542  1
  F  F19  1  0.49413154  0.84752597  0.39310458  1
  F  F20  1  0.84752597  0.49413154  0.89310458  1
  F  F21  1  0.50586846  0.15247403  0.60689542  1
  F  F22  1  0.02878437  0.19043507  0.34174940  1
  F  F23  1  0.80956493  0.97121563  0.15825060  1
  F  F24  1  0.97121563  0.80956493  0.65825060  1
  F  F25  1  0.19043507  0.02878437  0.84174940  1
  F  F26  1  0.73471762  0.60980548  0.62920382  1
  F  F27  1  0.39019452  0.26528238  0.87079618  1
  F  F28  1  0.26528238  0.39019452  0.37079618  1
  F  F29  1  0.60980548  0.73471762  0.12920382  1
