# generated using pymatgen
data_Ba6Tm2Ga4O15
_symmetry_space_group_name_H-M   'P 1'
_cell_length_a   5.96059391
_cell_length_b   7.93926900
_cell_length_c   18.47223900
_cell_angle_alpha   88.55096907
_cell_angle_beta   90.00000000
_cell_angle_gamma   90.00000000
_symmetry_Int_Tables_number   1
_chemical_formula_structural   Ba6Tm2Ga4O15
_chemical_formula_sum   'Ba12 Tm4 Ga8 O30'
_cell_volume   873.87776230
_cell_formula_units_Z   2
loop_
 _symmetry_equiv_pos_site_id
 _symmetry_equiv_pos_as_xyz
  1  'x, y, z'
loop_
 _atom_site_type_symbol
 _atom_site_label
 _atom_site_symmetry_multiplicity
 _atom_site_fract_x
 _atom_site_fract_y
 _atom_site_fract_z
 _atom_site_occupancy
  Ba  Ba0  1  0.75421494  0.49906420  0.07837662  1
  Ba  Ba1  1  0.24578506  0.50093580  0.92162338  1
  Ba  Ba2  1  0.75421494  0.50093580  0.42162338  1
  Ba  Ba3  1  0.24578506  0.49906420  0.57837662  1
  Ba  Ba4  1  0.74938118  0.97468266  0.08939259  1
  Ba  Ba5  1  0.25061882  0.02531734  0.91060741  1
  Ba  Ba6  1  0.74938118  0.02531734  0.41060741  1
  Ba  Ba7  1  0.25061882  0.97468266  0.58939259  1
  Ba  Ba8  1  0.72145141  -0.00000000  0.75000000  1
  Ba  Ba9  1  0.27854859  -0.00000000  0.25000000  1
  Ba  Ba10  1  0.67640177  0.50000000  0.75000000  1
  Ba  Ba11  1  0.32359823  0.50000000  0.25000000  1
  Tm  Tm12  1  0.74828782  0.75323883  0.91056183  1
  Tm  Tm13  1  0.25171218  0.24676117  0.08943817  1
  Tm  Tm14  1  0.74828782  0.24676117  0.58943817  1
  Tm  Tm15  1  0.25171218  0.75323883  0.41056183  1
  Ga  Ga16  1  0.74651638  0.75429462  0.55757444  1
  Ga  Ga17  1  0.25348362  0.24570538  0.44242556  1
  Ga  Ga18  1  0.74651638  0.24570538  0.94242556  1
  Ga  Ga19  1  0.25348362  0.75429462  0.05757444  1
  Ga  Ga20  1  0.77044492  0.76997298  0.26765212  1
  Ga  Ga21  1  0.22955508  0.23002702  0.73234788  1
  Ga  Ga22  1  0.77044492  0.23002702  0.23234788  1
  Ga  Ga23  1  0.22955508  0.76997298  0.76765212  1
  O  O24  1  0.19531673  -0.00000000  0.75000000  1
  O  O25  1  0.80468327  -0.00000000  0.25000000  1
  O  O26  1  0.51094879  0.76692589  0.00008984  1
  O  O27  1  0.48905121  0.23307411  -0.00008984  1
  O  O28  1  0.51094879  0.23307411  0.49991016  1
  O  O29  1  0.48905121  0.76692589  0.50008984  1
  O  O30  1  0.76449787  0.95509999  0.60704262  1
  O  O31  1  0.23550213  0.04490001  0.39295738  1
  O  O32  1  0.76449787  0.04490001  0.89295738  1
  O  O33  1  0.23550213  0.95509999  0.10704262  1
  O  O34  1  0.01122148  0.76604086  0.99204831  1
  O  O35  1  0.98877852  0.23395914  0.00795169  1
  O  O36  1  0.01122148  0.23395914  0.50795169  1
  O  O37  1  0.98877852  0.76604086  0.49204831  1
  O  O38  1  0.33502800  0.68820155  0.68370150  1
  O  O39  1  0.66497200  0.31179845  0.31629850  1
  O  O40  1  0.33502800  0.31179845  0.81629850  1
  O  O41  1  0.66497200  0.68820155  0.18370150  1
  O  O42  1  0.45900532  0.75404549  0.83661775  1
  O  O43  1  0.54099468  0.24595451  0.16338225  1
  O  O44  1  0.45900532  0.24595451  0.66338225  1
  O  O45  1  0.54099468  0.75404549  0.33661775  1
  O  O46  1  0.96308184  0.72257870  0.81370344  1
  O  O47  1  0.03691816  0.27742130  0.18629656  1
  O  O48  1  0.96308184  0.27742130  0.68629656  1
  O  O49  1  0.03691816  0.72257870  0.31370344  1
  O  O50  1  0.75308740  0.53032387  0.58948950  1
  O  O51  1  0.24691260  0.46967613  0.41051050  1
  O  O52  1  0.75308740  0.46967613  0.91051050  1
  O  O53  1  0.24691260  0.53032387  0.08948950  1
