# generated using pymatgen
data_Na2Ga2As3
_symmetry_space_group_name_H-M   'P 1'
_cell_length_a   6.71269833
_cell_length_b   13.18905531
_cell_length_c   14.35348495
_cell_angle_alpha   89.75731121
_cell_angle_beta   90.00000000
_cell_angle_gamma   90.00000000
_symmetry_Int_Tables_number   1
_chemical_formula_structural   Na2Ga2As3
_chemical_formula_sum   'Na16 Ga16 As24'
_cell_volume   1270.76218341
_cell_formula_units_Z   8
loop_
 _symmetry_equiv_pos_site_id
 _symmetry_equiv_pos_as_xyz
  1  'x, y, z'
loop_
 _atom_site_type_symbol
 _atom_site_label
 _atom_site_symmetry_multiplicity
 _atom_site_fract_x
 _atom_site_fract_y
 _atom_site_fract_z
 _atom_site_occupancy
  Na  Na0  1  0.04855158  0.85929337  0.01109480  1
  Na  Na1  1  0.54855158  0.14070663  0.48890520  1
  Na  Na2  1  0.95144842  0.14070663  0.98890520  1
  Na  Na3  1  0.45144842  0.85929337  0.51109480  1
  Na  Na4  1  0.41982741  0.34652060  0.97770358  1
  Na  Na5  1  0.91982741  0.65347940  0.52229642  1
  Na  Na6  1  0.58017259  0.65347940  0.02229642  1
  Na  Na7  1  0.08017259  0.34652060  0.47770358  1
  Na  Na8  1  0.45430723  0.08544979  0.88897271  1
  Na  Na9  1  0.95430723  0.91455021  0.61102729  1
  Na  Na10  1  0.54569277  0.91455021  0.11102729  1
  Na  Na11  1  0.04569277  0.08544979  0.38897271  1
  Na  Na12  1  0.08955843  0.56505896  0.09057820  1
  Na  Na13  1  0.58955843  0.43494104  0.40942180  1
  Na  Na14  1  0.91044157  0.43494104  0.90942180  1
  Na  Na15  1  0.41044157  0.56505896  0.59057820  1
  Ga  Ga16  1  0.71692182  0.31718289  0.16044222  1
  Ga  Ga17  1  0.21692182  0.68281711  0.33955778  1
  Ga  Ga18  1  0.28307818  0.68281711  0.83955778  1
  Ga  Ga19  1  0.78307818  0.31718289  0.66044222  1
  Ga  Ga20  1  0.20964651  0.90972034  0.27092464  1
  Ga  Ga21  1  0.70964651  0.09027966  0.22907536  1
  Ga  Ga22  1  0.79035349  0.09027966  0.72907536  1
  Ga  Ga23  1  0.29035349  0.90972034  0.77092464  1
  Ga  Ga24  1  0.23779895  0.18747096  0.16911550  1
  Ga  Ga25  1  0.73779895  0.81252904  0.33088450  1
  Ga  Ga26  1  0.76220105  0.81252904  0.83088450  1
  Ga  Ga27  1  0.26220105  0.18747096  0.66911550  1
  Ga  Ga28  1  0.23709875  0.41328002  0.24117578  1
  Ga  Ga29  1  0.73709875  0.58671998  0.25882422  1
  Ga  Ga30  1  0.76290125  0.58671998  0.75882422  1
  Ga  Ga31  1  0.26290125  0.41328002  0.74117578  1
  As  As32  1  0.03376716  0.03148996  0.16897036  1
  As  As33  1  0.53376716  0.96851004  0.33102964  1
  As  As34  1  0.96623284  0.96851004  0.83102964  1
  As  As35  1  0.46623284  0.03148996  0.66897036  1
  As  As36  1  0.54978128  0.16005715  0.08504878  1
  As  As37  1  0.04978128  0.83994285  0.41495122  1
  As  As38  1  0.45021872  0.83994285  0.91495122  1
  As  As39  1  0.95021872  0.16005715  0.58504878  1
  As  As40  1  0.05475183  0.34024306  0.10242070  1
  As  As41  1  0.55475183  0.65975694  0.39757930  1
  As  As42  1  0.94524817  0.65975694  0.89757930  1
  As  As43  1  0.44524817  0.34024306  0.60242070  1
  As  As44  1  0.16395275  0.25251641  0.82728312  1
  As  As45  1  0.66395275  0.74748359  0.67271688  1
  As  As46  1  0.83604725  0.74748359  0.17271688  1
  As  As47  1  0.33604725  0.25251641  0.32728312  1
  As  As48  1  0.53003001  0.47932308  0.15533172  1
  As  As49  1  0.03003001  0.52067692  0.34466828  1
  As  As50  1  0.46996999  0.52067692  0.84466828  1
  As  As51  1  0.96996999  0.47932308  0.65533172  1
  As  As52  1  0.79354264  0.24998196  0.82150213  1
  As  As53  1  0.29354264  0.75001804  0.67849787  1
  As  As54  1  0.20645736  0.75001804  0.17849787  1
  As  As55  1  0.70645736  0.24998196  0.32150213  1
