# generated using pymatgen
data_LiMg14GaO16
_symmetry_space_group_name_H-M   'P 1'
_cell_length_a   8.50092444
_cell_length_b   8.49582612
_cell_length_c   4.24964892
_cell_angle_alpha   90.00000000
_cell_angle_beta   90.00000000
_cell_angle_gamma   90.00000000
_symmetry_Int_Tables_number   1
_chemical_formula_structural   LiMg14GaO16
_chemical_formula_sum   'Li1 Mg14 Ga1 O16'
_cell_volume   306.91974175
_cell_formula_units_Z   1
loop_
 _symmetry_equiv_pos_site_id
 _symmetry_equiv_pos_as_xyz
  1  'x, y, z'
loop_
 _atom_site_type_symbol
 _atom_site_label
 _atom_site_symmetry_multiplicity
 _atom_site_fract_x
 _atom_site_fract_y
 _atom_site_fract_z
 _atom_site_occupancy
  Li  Li0  1  0.00000000  0.00000000  0.00000000  1
  Mg  Mg1  1  0.50000000  0.00000000  0.00000000  1
  Mg  Mg2  1  0.50000000  0.50000000  0.00000000  1
  Mg  Mg3  1  0.00000000  0.24083747  0.50000000  1
  Mg  Mg4  1  0.00000000  0.75916253  0.50000000  1
  Mg  Mg5  1  0.50000000  0.24760538  0.50000000  1
  Mg  Mg6  1  0.50000000  0.75239462  0.50000000  1
  Mg  Mg7  1  0.24455506  0.00000000  0.50000000  1
  Mg  Mg8  1  0.25161494  0.50000000  0.50000000  1
  Mg  Mg9  1  0.75544494  0.00000000  0.50000000  1
  Mg  Mg10  1  0.74838506  0.50000000  0.50000000  1
  Mg  Mg11  1  0.24930467  0.24381522  -0.00000000  1
  Mg  Mg12  1  0.24930467  0.75618478  -0.00000000  1
  Mg  Mg13  1  0.75069533  0.24381522  0.00000000  1
  Mg  Mg14  1  0.75069533  0.75618478  -0.00000000  1
  Ga  Ga15  1  0.00000000  0.50000000  0.00000000  1
  O  O16  1  0.25521829  0.00000000  0.00000000  1
  O  O17  1  0.24334441  0.50000000  0.00000000  1
  O  O18  1  0.74478171  -0.00000000  -0.00000000  1
  O  O19  1  0.75665559  0.50000000  0.00000000  1
  O  O20  1  0.24939215  0.25199189  0.50000000  1
  O  O21  1  0.24939215  0.74800811  0.50000000  1
  O  O22  1  0.75060785  0.25199189  0.50000000  1
  O  O23  1  0.75060785  0.74800811  0.50000000  1
  O  O24  1  0.00000000  0.00000000  0.50000000  1
  O  O25  1  0.00000000  0.50000000  0.50000000  1
  O  O26  1  0.50000000  0.00000000  0.50000000  1
  O  O27  1  0.50000000  0.50000000  0.50000000  1
  O  O28  1  0.00000000  0.26903011  -0.00000000  1
  O  O29  1  0.00000000  0.73096989  0.00000000  1
  O  O30  1  0.50000000  0.25388753  0.00000000  1
  O  O31  1  0.50000000  0.74611247  0.00000000  1
