# generated using pymatgen
data_Li3AsO4
_symmetry_space_group_name_H-M   'P 1'
_cell_length_a   5.04461160
_cell_length_b   6.24903662
_cell_length_c   10.74114183
_cell_angle_alpha   90.00000000
_cell_angle_beta   90.00000000
_cell_angle_gamma   90.00000000
_symmetry_Int_Tables_number   1
_chemical_formula_structural   Li3AsO4
_chemical_formula_sum   'Li12 As4 O16'
_cell_volume   338.60335357
_cell_formula_units_Z   4
loop_
 _symmetry_equiv_pos_site_id
 _symmetry_equiv_pos_as_xyz
  1  'x, y, z'
loop_
 _atom_site_type_symbol
 _atom_site_label
 _atom_site_symmetry_multiplicity
 _atom_site_fract_x
 _atom_site_fract_y
 _atom_site_fract_z
 _atom_site_occupancy
  Li  Li0  1  0.69108266  0.00375599  0.16595996  1
  Li  Li1  1  0.80891734  0.49624401  0.66595996  1
  Li  Li2  1  0.30891734  0.50375599  0.83404004  1
  Li  Li3  1  0.19108266  0.99624401  0.33404004  1
  Li  Li4  1  0.30891734  0.99624401  0.83404004  1
  Li  Li5  1  0.19108266  0.50375599  0.33404004  1
  Li  Li6  1  0.69108266  0.49624401  0.16595996  1
  Li  Li7  1  0.80891734  0.00375599  0.66595996  1
  Li  Li8  1  0.80903663  0.25000000  0.42224332  1
  Li  Li9  1  0.69096337  0.25000000  0.92224332  1
  Li  Li10  1  0.19096337  0.75000000  0.57775668  1
  Li  Li11  1  0.30903663  0.75000000  0.07775668  1
  As  As12  1  0.68662421  0.75000000  0.41337756  1
  As  As13  1  0.81337579  0.75000000  0.91337756  1
  As  As14  1  0.31337579  0.25000000  0.58662244  1
  As  As15  1  0.18662421  0.25000000  0.08662244  1
  O  O16  1  0.70303867  0.75000000  0.06235167  1
  O  O17  1  0.79696133  0.75000000  0.56235167  1
  O  O18  1  0.29696133  0.25000000  0.93764833  1
  O  O19  1  0.20303867  0.25000000  0.43764833  1
  O  O20  1  0.79761577  0.52863151  0.33761896  1
  O  O21  1  0.70238423  0.97136849  0.83761896  1
  O  O22  1  0.20238423  0.02863151  0.66238104  1
  O  O23  1  0.29761577  0.47136849  0.16238104  1
  O  O24  1  0.20238423  0.47136849  0.66238104  1
  O  O25  1  0.29761577  0.02863151  0.16238104  1
  O  O26  1  0.79761577  0.97136849  0.33761896  1
  O  O27  1  0.70238423  0.52863151  0.83761896  1
  O  O28  1  0.84879463  0.25000000  0.08704224  1
  O  O29  1  0.65120537  0.25000000  0.58704224  1
  O  O30  1  0.15120537  0.75000000  0.91295776  1
  O  O31  1  0.34879463  0.75000000  0.41295776  1
