# generated using pymatgen
data_Nd2HfS5
_symmetry_space_group_name_H-M   'P 1'
_cell_length_a   7.36801201
_cell_length_b   7.99601231
_cell_length_c   11.57266403
_cell_angle_alpha   90.00000000
_cell_angle_beta   90.00000000
_cell_angle_gamma   90.00000000
_symmetry_Int_Tables_number   1
_chemical_formula_structural   Nd2HfS5
_chemical_formula_sum   'Nd8 Hf4 S20'
_cell_volume   681.80020002
_cell_formula_units_Z   4
loop_
 _symmetry_equiv_pos_site_id
 _symmetry_equiv_pos_as_xyz
  1  'x, y, z'
loop_
 _atom_site_type_symbol
 _atom_site_label
 _atom_site_symmetry_multiplicity
 _atom_site_fract_x
 _atom_site_fract_y
 _atom_site_fract_z
 _atom_site_occupancy
  Nd  Nd0  1  0.53960197  0.49924191  0.32481832  1
  Nd  Nd1  1  0.96039803  0.00075809  0.82481832  1
  Nd  Nd2  1  0.46039803  0.99924191  0.67518168  1
  Nd  Nd3  1  0.03960197  0.50075809  0.17518168  1
  Nd  Nd4  1  0.46039803  0.50075809  0.67518168  1
  Nd  Nd5  1  0.03960197  0.99924191  0.17518168  1
  Nd  Nd6  1  0.53960197  0.00075809  0.32481832  1
  Nd  Nd7  1  0.96039803  0.49924191  0.82481832  1
  Hf  Hf8  1  0.07238236  0.75000000  0.49277487  1
  Hf  Hf9  1  0.42761764  0.75000000  0.99277487  1
  Hf  Hf10  1  0.92761764  0.25000000  0.50722513  1
  Hf  Hf11  1  0.57238236  0.25000000  0.00722513  1
  S  S12  1  0.83297827  0.96559858  0.58261592  1
  S  S13  1  0.66702173  0.53440142  0.08261592  1
  S  S14  1  0.16702173  0.46559858  0.41738408  1
  S  S15  1  0.33297827  0.03440142  0.91738408  1
  S  S16  1  0.16702173  0.03440142  0.41738408  1
  S  S17  1  0.33297827  0.46559858  0.91738408  1
  S  S18  1  0.83297827  0.53440142  0.58261592  1
  S  S19  1  0.66702173  0.96559858  0.08261592  1
  S  S20  1  0.84735229  0.75000000  0.31555607  1
  S  S21  1  0.65264771  0.75000000  0.81555607  1
  S  S22  1  0.15264771  0.25000000  0.68444393  1
  S  S23  1  0.34735229  0.25000000  0.18444393  1
  S  S24  1  0.44157392  0.75000000  0.49511404  1
  S  S25  1  0.05842608  0.75000000  0.99511404  1
  S  S26  1  0.55842608  0.25000000  0.50488596  1
  S  S27  1  0.94157392  0.25000000  0.00488596  1
  S  S28  1  0.17332459  0.75000000  0.70552094  1
  S  S29  1  0.32667541  0.75000000  0.20552094  1
  S  S30  1  0.82667541  0.25000000  0.29447906  1
  S  S31  1  0.67332459  0.25000000  0.79447906  1
