# generated using pymatgen
data_Na2TeSe3
_symmetry_space_group_name_H-M   'P 1'
_cell_length_a   5.95861770
_cell_length_b   8.76786937
_cell_length_c   12.60714745
_cell_angle_alpha   90.00000000
_cell_angle_beta   90.00000000
_cell_angle_gamma   93.66641633
_symmetry_Int_Tables_number   1
_chemical_formula_structural   Na2TeSe3
_chemical_formula_sum   'Na8 Te4 Se12'
_cell_volume   657.30453939
_cell_formula_units_Z   4
loop_
 _symmetry_equiv_pos_site_id
 _symmetry_equiv_pos_as_xyz
  1  'x, y, z'
loop_
 _atom_site_type_symbol
 _atom_site_label
 _atom_site_symmetry_multiplicity
 _atom_site_fract_x
 _atom_site_fract_y
 _atom_site_fract_z
 _atom_site_occupancy
  Na  Na0  1  0.26355802  0.36699677  0.26210641  1
  Na  Na1  1  0.73644198  0.13300323  0.76210641  1
  Na  Na2  1  0.73644198  0.63300323  0.73789359  1
  Na  Na3  1  0.26355802  0.86699677  0.23789359  1
  Na  Na4  1  0.75427313  0.13604416  0.41667661  1
  Na  Na5  1  0.24572687  0.36395584  0.91667661  1
  Na  Na6  1  0.24572687  0.86395584  0.58332339  1
  Na  Na7  1  0.75427313  0.63604416  0.08332339  1
  Te  Te8  1  0.29777801  0.30935175  0.58888572  1
  Te  Te9  1  0.70222199  0.19064825  0.08888572  1
  Te  Te10  1  0.70222199  0.69064825  0.41111428  1
  Te  Te11  1  0.29777801  0.80935175  0.91111428  1
  Se  Se12  1  0.71869253  0.36822051  0.59179250  1
  Se  Se13  1  0.28130747  0.13177949  0.09179250  1
  Se  Se14  1  0.28130747  0.63177949  0.40820750  1
  Se  Se15  1  0.71869253  0.86822051  0.90820750  1
  Se  Se16  1  0.23610218  0.12189831  0.74116399  1
  Se  Se17  1  0.76389782  0.37810169  0.24116399  1
  Se  Se18  1  0.76389782  0.87810169  0.25883601  1
  Se  Se19  1  0.23610218  0.62189831  0.75883601  1
  Se  Se20  1  0.25225179  0.13567412  0.43124475  1
  Se  Se21  1  0.74774821  0.36432588  0.93124475  1
  Se  Se22  1  0.74774821  0.86432588  0.56875525  1
  Se  Se23  1  0.25225179  0.63567412  0.06875525  1
