# generated using pymatgen
data_MgCr(Si2O5)2
_symmetry_space_group_name_H-M   'P 1'
_cell_length_a   7.34417400
_cell_length_b   7.34417400
_cell_length_c   14.92063900
_cell_angle_alpha   90.00000000
_cell_angle_beta   90.00000000
_cell_angle_gamma   90.00000000
_symmetry_Int_Tables_number   1
_chemical_formula_structural   MgCr(Si2O5)2
_chemical_formula_sum   'Mg4 Cr4 Si16 O40'
_cell_volume   804.77289047
_cell_formula_units_Z   4
loop_
 _symmetry_equiv_pos_site_id
 _symmetry_equiv_pos_as_xyz
  1  'x, y, z'
loop_
 _atom_site_type_symbol
 _atom_site_label
 _atom_site_symmetry_multiplicity
 _atom_site_fract_x
 _atom_site_fract_y
 _atom_site_fract_z
 _atom_site_occupancy
  Mg  Mg0  1  0.25000000  0.75000000  0.50000000  1
  Mg  Mg1  1  0.75000000  0.25000000  0.50000000  1
  Mg  Mg2  1  0.75000000  0.25000000  0.00000000  1
  Mg  Mg3  1  0.25000000  0.75000000  0.00000000  1
  Cr  Cr4  1  0.25000000  0.25000000  0.57058200  1
  Cr  Cr5  1  0.75000000  0.75000000  0.92941800  1
  Cr  Cr6  1  0.75000000  0.75000000  0.42941800  1
  Cr  Cr7  1  0.25000000  0.25000000  0.07058200  1
  Si  Si8  1  0.91181900  0.49173800  0.64478500  1
  Si  Si9  1  0.58818100  0.00826200  0.64478500  1
  Si  Si10  1  0.99173800  0.41181900  0.85521500  1
  Si  Si11  1  0.49173800  0.58818100  0.64478500  1
  Si  Si12  1  0.00826200  0.91181900  0.64478500  1
  Si  Si13  1  0.08818100  0.99173800  0.85521500  1
  Si  Si14  1  0.41181900  0.50826200  0.85521500  1
  Si  Si15  1  0.50826200  0.08818100  0.85521500  1
  Si  Si16  1  0.08818100  0.50826200  0.35521500  1
  Si  Si17  1  0.41181900  0.99173800  0.35521500  1
  Si  Si18  1  0.00826200  0.58818100  0.14478500  1
  Si  Si19  1  0.50826200  0.41181900  0.35521500  1
  Si  Si20  1  0.99173800  0.08818100  0.35521500  1
  Si  Si21  1  0.91181900  0.00826200  0.14478500  1
  Si  Si22  1  0.58818100  0.49173800  0.14478500  1
  Si  Si23  1  0.49173800  0.91181900  0.14478500  1
  O  O24  1  0.98124900  0.33721200  0.57561400  1
  O  O25  1  0.51875100  0.16278800  0.57561400  1
  O  O26  1  0.83721200  0.48124900  0.92438600  1
  O  O27  1  0.33721200  0.51875100  0.57561400  1
  O  O28  1  0.16278800  0.98124900  0.57561400  1
  O  O29  1  0.01875100  0.83721200  0.92438600  1
  O  O30  1  0.48124900  0.66278800  0.92438600  1
  O  O31  1  0.66278800  0.01875100  0.92438600  1
  O  O32  1  0.01875100  0.66278800  0.42438600  1
  O  O33  1  0.48124900  0.83721200  0.42438600  1
  O  O34  1  0.16278800  0.51875100  0.07561400  1
  O  O35  1  0.66278800  0.48124900  0.42438600  1
  O  O36  1  0.83721200  0.01875100  0.42438600  1
  O  O37  1  0.98124900  0.16278800  0.07561400  1
  O  O38  1  0.51875100  0.33721200  0.07561400  1
  O  O39  1  0.00162600  0.30738400  0.37495200  1
  O  O40  1  0.33721200  0.98124900  0.07561400  1
  O  O41  1  0.50162600  0.80738400  0.62504800  1
  O  O42  1  0.19261600  0.49837400  0.87495200  1
  O  O43  1  0.69261600  0.50162600  0.62504800  1
  O  O44  1  0.80738400  0.99837400  0.62504800  1
  O  O45  1  0.00162600  0.19261600  0.87495200  1
  O  O46  1  0.49837400  0.30738400  0.87495200  1
  O  O47  1  0.30738400  0.00162600  0.87495200  1
  O  O48  1  0.44627300  0.94627300  0.25000000  1
  O  O49  1  0.55372700  0.44627300  0.25000000  1
  O  O50  1  0.94627300  0.05372800  0.25000000  1
  O  O51  1  0.05372800  0.55372700  0.25000000  1
  O  O52  1  0.55372700  0.05372800  0.75000000  1
  O  O53  1  0.44627300  0.55372700  0.75000000  1
  O  O54  1  0.05372800  0.94627300  0.75000000  1
  O  O55  1  0.94627300  0.44627300  0.75000000  1
  O  O56  1  0.69261600  0.99837400  0.12504800  1
  O  O57  1  0.50162600  0.69261600  0.12504800  1
  O  O58  1  0.99837400  0.80738400  0.12504800  1
  O  O59  1  0.19261600  0.00162600  0.37495200  1
  O  O60  1  0.30738400  0.49837400  0.37495200  1
  O  O61  1  0.80738400  0.50162600  0.12504800  1
  O  O62  1  0.49837400  0.19261600  0.37495200  1
  O  O63  1  0.99837400  0.69261600  0.62504800  1
