# generated using pymatgen
data_Na2AgF4
_symmetry_space_group_name_H-M   'P 1'
_cell_length_a   10.28230178
_cell_length_b   3.29327190
_cell_length_c   6.05992384
_cell_angle_alpha   65.89564494
_cell_angle_beta   90.00000000
_cell_angle_gamma   90.00000000
_symmetry_Int_Tables_number   1
_chemical_formula_structural   Na2AgF4
_chemical_formula_sum   'Na4 Ag2 F8'
_cell_volume   187.31054339
_cell_formula_units_Z   2
loop_
 _symmetry_equiv_pos_site_id
 _symmetry_equiv_pos_as_xyz
  1  'x, y, z'
loop_
 _atom_site_type_symbol
 _atom_site_label
 _atom_site_symmetry_multiplicity
 _atom_site_fract_x
 _atom_site_fract_y
 _atom_site_fract_z
 _atom_site_occupancy
  Na  Na0  1  0.64981469  0.25081673  0.96711915  1
  Na  Na1  1  0.14981469  0.74918327  0.53288085  1
  Na  Na2  1  0.35018531  0.74918327  0.03288085  1
  Na  Na3  1  0.85018531  0.25081673  0.46711915  1
  Ag  Ag4  1  0.50000000  -0.00000000  0.50000000  1
  Ag  Ag5  1  0.00000000  -0.00000000  -0.00000000  1
  F  F6  1  0.06100750  0.42606481  0.29427863  1
  F  F7  1  0.56100750  0.57393519  0.20572137  1
  F  F8  1  0.93899250  0.57393519  0.70572137  1
  F  F9  1  0.43899250  0.42606481  0.79427863  1
  F  F10  1  0.32723730  0.03764928  0.31212767  1
  F  F11  1  0.82723730  0.96235072  0.18787233  1
  F  F12  1  0.67276270  0.96235072  0.68787233  1
  F  F13  1  0.17276270  0.03764928  0.81212767  1
