# generated using pymatgen
data_KAsO3
_symmetry_space_group_name_H-M   'P 1'
_cell_length_a   4.90279138
_cell_length_b   11.38334748
_cell_length_c   11.51034733
_cell_angle_alpha   90.00000000
_cell_angle_beta   90.00000000
_cell_angle_gamma   90.00000000
_symmetry_Int_Tables_number   1
_chemical_formula_structural   KAsO3
_chemical_formula_sum   'K8 As8 O24'
_cell_volume   642.39453218
_cell_formula_units_Z   8
loop_
 _symmetry_equiv_pos_site_id
 _symmetry_equiv_pos_as_xyz
  1  'x, y, z'
loop_
 _atom_site_type_symbol
 _atom_site_label
 _atom_site_symmetry_multiplicity
 _atom_site_fract_x
 _atom_site_fract_y
 _atom_site_fract_z
 _atom_site_occupancy
  K  K0  1  0.25000000  0.50000000  0.80991044  1
  K  K1  1  0.75000000  -0.00000000  0.69008956  1
  K  K2  1  0.75000000  0.50000000  0.19008956  1
  K  K3  1  0.25000000  -0.00000000  0.30991044  1
  K  K4  1  0.75000000  0.50000000  0.60983821  1
  K  K5  1  0.25000000  -0.00000000  0.89016179  1
  K  K6  1  0.25000000  0.50000000  0.39016179  1
  K  K7  1  0.75000000  -0.00000000  0.10983821  1
  As  As8  1  0.72044364  0.73034963  0.91119104  1
  As  As9  1  0.22044364  0.76965037  0.58880896  1
  As  As10  1  0.27955636  0.23034963  0.58880896  1
  As  As11  1  0.77955636  0.26965037  0.91119104  1
  As  As12  1  0.27955636  0.26965037  0.08880896  1
  As  As13  1  0.77955636  0.23034963  0.41119104  1
  As  As14  1  0.72044364  0.76965037  0.41119104  1
  As  As15  1  0.22044364  0.73034963  0.08880896  1
  O  O16  1  0.74886628  0.87439990  0.90009402  1
  O  O17  1  0.24886628  0.62560010  0.59990598  1
  O  O18  1  0.25113372  0.37439990  0.59990598  1
  O  O19  1  0.75113372  0.12560010  0.90009402  1
  O  O20  1  0.25113372  0.12560010  0.09990598  1
  O  O21  1  0.75113372  0.37439990  0.40009402  1
  O  O22  1  0.74886628  0.62560010  0.40009402  1
  O  O23  1  0.24886628  0.87439990  0.09990598  1
  O  O24  1  0.79065832  0.63884134  0.80489827  1
  O  O25  1  0.29065832  0.86115866  0.69510173  1
  O  O26  1  0.20934168  0.13884134  0.69510173  1
  O  O27  1  0.70934168  0.36115866  0.80489827  1
  O  O28  1  0.20934168  0.36115866  0.19510173  1
  O  O29  1  0.70934168  0.13884134  0.30489827  1
  O  O30  1  0.79065832  0.86115866  0.30489827  1
  O  O31  1  0.29065832  0.63884134  0.19510173  1
  O  O32  1  0.38984087  0.68621875  0.95800038  1
  O  O33  1  0.88984087  0.81378125  0.54199962  1
  O  O34  1  0.61015913  0.18621875  0.54199962  1
  O  O35  1  0.11015913  0.31378125  0.95800038  1
  O  O36  1  0.61015913  0.31378125  0.04199962  1
  O  O37  1  0.11015913  0.18621875  0.45800038  1
  O  O38  1  0.38984087  0.81378125  0.45800038  1
  O  O39  1  0.88984087  0.68621875  0.04199962  1
