# generated using pymatgen
data_MgAl4(HO)12
_symmetry_space_group_name_H-M   'P 1'
_cell_length_a   7.23616202
_cell_length_b   7.00808507
_cell_length_c   7.21042132
_cell_angle_alpha   100.63111383
_cell_angle_beta   137.87646106
_cell_angle_gamma   95.11035981
_symmetry_Int_Tables_number   1
_chemical_formula_structural   MgAl4(HO)12
_chemical_formula_sum   'Mg1 Al4 H12 O12'
_cell_volume   226.44920832
_cell_formula_units_Z   1
loop_
 _symmetry_equiv_pos_site_id
 _symmetry_equiv_pos_as_xyz
  1  'x, y, z'
loop_
 _atom_site_type_symbol
 _atom_site_label
 _atom_site_symmetry_multiplicity
 _atom_site_fract_x
 _atom_site_fract_y
 _atom_site_fract_z
 _atom_site_occupancy
  Mg  Mg0  1  0.44263000  0.40660600  0.95955900  1
  Al  Al1  1  0.50260100  0.83764000  0.30826700  1
  Al  Al2  1  0.51010500  0.14504300  0.65877200  1
  Al  Al3  1  0.00173000  0.66886400  0.64493700  1
  Al  Al4  1  0.98156500  0.30595300  0.29106700  1
  H  H5  1  0.05141400  0.04145000  0.75343600  1
  H  H6  1  0.01090500  0.98963200  0.40094500  1
  H  H7  1  0.51886700  0.55150900  0.69382500  1
  H  H8  1  0.46714500  0.47373100  0.32665300  1
  H  H9  1  0.04087300  0.68233900  0.32365000  1
  H  H10  1  0.86255900  0.28463000  0.55270000  1
  H  H11  1  0.37900300  0.15400200  0.20967400  1
  H  H12  1  0.71657500  0.86603000  0.79317900  1
  H  H13  1  0.48499300  0.92604600  0.97014400  1
  H  H14  1  0.22480600  0.21491300  0.98644200  1
  H  H15  1  0.04862200  0.26121100  0.98312400  1
  H  H16  1  0.01071500  0.56685000  0.97110600  1
  O  O17  1  0.91021100  0.90744600  0.57080300  1
  O  O18  1  0.09006600  0.06355500  0.35705000  1
  O  O19  1  0.40796400  0.41436900  0.63341700  1
  O  O20  1  0.57342100  0.57139400  0.32834300  1
  O  O21  1  0.94197800  0.58252400  0.32757200  1
  O  O22  1  0.00956600  0.38234500  0.59772000  1
  O  O23  1  0.51379500  0.11280500  0.39134700  1
  O  O24  1  0.53438700  0.87082900  0.60398500  1
  O  O25  1  0.40987400  0.79871700  0.97107500  1
  O  O26  1  0.58318000  0.17298200  0.97179300  1
  O  O27  1  0.92621400  0.31101000  0.99115700  1
  O  O28  1  0.07792000  0.69476200  0.96900700  1
