# generated using pymatgen
data_BaEr2Si3O10
_symmetry_space_group_name_H-M   'P 1'
_cell_length_a   12.15649464
_cell_length_b   5.37946152
_cell_length_c   6.82203788
_cell_angle_alpha   73.34434540
_cell_angle_beta   90.00000000
_cell_angle_gamma   90.00000000
_symmetry_Int_Tables_number   1
_chemical_formula_structural   BaEr2Si3O10
_chemical_formula_sum   'Ba2 Er4 Si6 O20'
_cell_volume   427.41231401
_cell_formula_units_Z   2
loop_
 _symmetry_equiv_pos_site_id
 _symmetry_equiv_pos_as_xyz
  1  'x, y, z'
loop_
 _atom_site_type_symbol
 _atom_site_label
 _atom_site_symmetry_multiplicity
 _atom_site_fract_x
 _atom_site_fract_y
 _atom_site_fract_z
 _atom_site_occupancy
  Ba  Ba0  1  0.25000000  0.24097944  0.02089748  1
  Ba  Ba1  1  0.75000000  0.75902056  0.97910252  1
  Er  Er2  1  0.09991720  0.84482748  0.68228015  1
  Er  Er3  1  0.59991720  0.15517252  0.31771985  1
  Er  Er4  1  0.90008280  0.15517252  0.31771985  1
  Er  Er5  1  0.40008280  0.84482748  0.68228015  1
  Si  Si6  1  0.25000000  0.41908512  0.48879394  1
  Si  Si7  1  0.75000000  0.58091488  0.51120606  1
  Si  Si8  1  0.05989933  0.69514953  0.21335147  1
  Si  Si9  1  0.55989933  0.30485047  0.78664853  1
  Si  Si10  1  0.94010067  0.30485047  0.78664853  1
  Si  Si11  1  0.44010067  0.69514953  0.21335147  1
  O  O12  1  0.25000000  0.63385097  0.61234396  1
  O  O13  1  0.75000000  0.36614903  0.38765604  1
  O  O14  1  0.25000000  0.12328211  0.63578670  1
  O  O15  1  0.75000000  0.87671789  0.36421330  1
  O  O16  1  0.14263689  0.45237469  0.33843112  1
  O  O17  1  0.64263689  0.54762531  0.66156888  1
  O  O18  1  0.85736311  0.54762531  0.66156888  1
  O  O19  1  0.35736311  0.45237469  0.33843112  1
  O  O20  1  0.94398005  0.56153777  0.19326211  1
  O  O21  1  0.44398005  0.43846223  0.80673789  1
  O  O22  1  0.05601995  0.43846223  0.80673789  1
  O  O23  1  0.55601995  0.56153777  0.19326211  1
  O  O24  1  0.12066021  0.83730025  0.00044122  1
  O  O25  1  0.62066021  0.16269975  -0.00044122  1
  O  O26  1  0.87933979  0.16269975  -0.00044122  1
  O  O27  1  0.37933979  0.83730025  0.00044122  1
  O  O28  1  0.04898749  0.89772488  0.35226349  1
  O  O29  1  0.54898749  0.10227512  0.64773651  1
  O  O30  1  0.95101251  0.10227512  0.64773651  1
  O  O31  1  0.45101251  0.89772488  0.35226349  1
