# generated using pymatgen
data_LiYS2
_symmetry_space_group_name_H-M   'P 1'
_cell_length_a   6.53637511
_cell_length_b   6.53637511
_cell_length_c   6.53637485
_cell_angle_alpha   34.77765681
_cell_angle_beta   34.77765681
_cell_angle_gamma   34.77765343
_symmetry_Int_Tables_number   1
_chemical_formula_structural   LiYS2
_chemical_formula_sum   'Li1 Y1 S2'
_cell_volume   81.09398008
_cell_formula_units_Z   1
loop_
 _symmetry_equiv_pos_site_id
 _symmetry_equiv_pos_as_xyz
  1  'x, y, z'
loop_
 _atom_site_type_symbol
 _atom_site_label
 _atom_site_symmetry_multiplicity
 _atom_site_fract_x
 _atom_site_fract_y
 _atom_site_fract_z
 _atom_site_occupancy
  Li  Li0  1  0.50000000  0.50000000  0.50000000  1
  Y  Y1  1  -0.00000000  -0.00000000  -0.00000000  1
  S  S2  1  0.24956317  0.24956317  0.24956317  1
  S  S3  1  0.75043683  0.75043683  0.75043683  1
