# generated using pymatgen
data_Na5NpO6
_symmetry_space_group_name_H-M   'P 1'
_cell_length_a   5.73229559
_cell_length_b   5.73229559
_cell_length_c   5.69747959
_cell_angle_alpha   79.97025047
_cell_angle_beta   79.97025047
_cell_angle_gamma   119.65464665
_symmetry_Int_Tables_number   1
_chemical_formula_structural   Na5NpO6
_chemical_formula_sum   'Na5 Np1 O6'
_cell_volume   152.61435309
_cell_formula_units_Z   1
loop_
 _symmetry_equiv_pos_site_id
 _symmetry_equiv_pos_as_xyz
  1  'x, y, z'
loop_
 _atom_site_type_symbol
 _atom_site_label
 _atom_site_symmetry_multiplicity
 _atom_site_fract_x
 _atom_site_fract_y
 _atom_site_fract_z
 _atom_site_occupancy
  Na  Na0  1  0.33279747  0.66720253  -0.00000000  1
  Na  Na1  1  0.66720253  0.33279747  -0.00000000  1
  Na  Na2  1  0.50000000  0.50000000  0.50000000  1
  Na  Na3  1  0.17685053  0.82314947  0.50000000  1
  Na  Na4  1  0.82314947  0.17685053  0.50000000  1
  Np  Np5  1  0.00000000  0.00000000  -0.00000000  1
  O  O6  1  0.92592757  0.63577334  0.22416936  1
  O  O7  1  0.63577334  0.92592757  0.22416936  1
  O  O8  1  0.07407243  0.36422666  0.77583064  1
  O  O9  1  0.36422666  0.07407243  0.77583064  1
  O  O10  1  0.78766136  0.78766136  0.78708770  1
  O  O11  1  0.21233864  0.21233864  0.21291230  1
