# generated using pymatgen
data_LuRhO3
_symmetry_space_group_name_H-M   'P 1'
_cell_length_a   5.15042715
_cell_length_b   5.66071551
_cell_length_c   7.48237152
_cell_angle_alpha   90.00000000
_cell_angle_beta   90.00000000
_cell_angle_gamma   90.00000000
_symmetry_Int_Tables_number   1
_chemical_formula_structural   LuRhO3
_chemical_formula_sum   'Lu4 Rh4 O12'
_cell_volume   218.14931124
_cell_formula_units_Z   4
loop_
 _symmetry_equiv_pos_site_id
 _symmetry_equiv_pos_as_xyz
  1  'x, y, z'
loop_
 _atom_site_type_symbol
 _atom_site_label
 _atom_site_symmetry_multiplicity
 _atom_site_fract_x
 _atom_site_fract_y
 _atom_site_fract_z
 _atom_site_occupancy
  Lu  Lu0  1  0.53112646  0.58514376  0.25000000  1
  Lu  Lu1  1  0.96887354  0.08514376  0.25000000  1
  Lu  Lu2  1  0.46887354  0.41485624  0.75000000  1
  Lu  Lu3  1  0.03112646  0.91485624  0.75000000  1
  Rh  Rh4  1  0.00000000  0.50000000  0.00000000  1
  Rh  Rh5  1  0.50000000  -0.00000000  0.50000000  1
  Rh  Rh6  1  0.00000000  0.50000000  0.50000000  1
  Rh  Rh7  1  0.50000000  -0.00000000  0.00000000  1
  O  O8  1  0.35538815  0.93966727  0.25000000  1
  O  O9  1  0.14461185  0.43966727  0.25000000  1
  O  O10  1  0.64461185  0.06033273  0.75000000  1
  O  O11  1  0.85538815  0.56033273  0.75000000  1
  O  O12  1  0.82615650  0.81292084  0.06723306  1
  O  O13  1  0.67384350  0.31292084  0.43276694  1
  O  O14  1  0.17384350  0.18707916  0.56723306  1
  O  O15  1  0.32615650  0.68707916  0.93276694  1
  O  O16  1  0.17384350  0.18707916  0.93276694  1
  O  O17  1  0.32615650  0.68707916  0.56723306  1
  O  O18  1  0.82615650  0.81292084  0.43276694  1
  O  O19  1  0.67384350  0.31292084  0.06723306  1
