# generated using pymatgen
data_BaSr3Mn3O10
_symmetry_space_group_name_H-M   'P 1'
_cell_length_a   5.61224599
_cell_length_b   6.97255869
_cell_length_c   12.93134816
_cell_angle_alpha   90.28545270
_cell_angle_beta   90.00000000
_cell_angle_gamma   66.26841605
_symmetry_Int_Tables_number   1
_chemical_formula_structural   BaSr3Mn3O10
_chemical_formula_sum   'Ba2 Sr6 Mn6 O20'
_cell_volume   463.22986776
_cell_formula_units_Z   2
loop_
 _symmetry_equiv_pos_site_id
 _symmetry_equiv_pos_as_xyz
  1  'x, y, z'
loop_
 _atom_site_type_symbol
 _atom_site_label
 _atom_site_symmetry_multiplicity
 _atom_site_fract_x
 _atom_site_fract_y
 _atom_site_fract_z
 _atom_site_occupancy
  Ba  Ba0  1  0.96603914  0.06792171  0.64477846  1
  Ba  Ba1  1  0.03396086  0.93207829  0.35522154  1
  Sr  Sr2  1  0.53042179  0.93915641  0.14230106  1
  Sr  Sr3  1  0.46957821  0.06084359  0.85769894  1
  Sr  Sr4  1  0.75921608  0.48156784  0.89059751  1
  Sr  Sr5  1  0.24078392  0.51843216  0.10940249  1
  Sr  Sr6  1  0.74041434  0.51917131  0.39049515  1
  Sr  Sr7  1  0.25958566  0.48082869  0.60950485  1
  Mn  Mn8  1  0.63024122  0.73951756  0.65249463  1
  Mn  Mn9  1  0.36975878  0.26048244  0.34750537  1
  Mn  Mn10  1  0.86722447  0.26555106  0.15148943  1
  Mn  Mn11  1  0.13277553  0.73444894  0.84851057  1
  Mn  Mn12  1  0.50000000  0.00000000  0.50000000  1
  Mn  Mn13  1  -0.00000000  0.00000000  0.00000000  1
  O  O14  1  0.53701860  0.92596280  0.35464922  1
  O  O15  1  0.46298140  0.07403720  0.64535078  1
  O  O16  1  0.96243139  0.07513722  0.85674827  1
  O  O17  1  0.03756861  0.92486278  0.14325173  1
  O  O18  1  0.38604984  0.78163838  0.53704637  1
  O  O19  1  0.16768823  0.21836162  0.46295363  1
  O  O20  1  0.66546364  0.21466933  0.03797415  1
  O  O21  1  0.88013297  0.78533067  0.96202585  1
  O  O22  1  0.61395016  0.21836162  0.46295363  1
  O  O23  1  0.83231177  0.78163838  0.53704637  1
  O  O24  1  0.33453636  0.78533067  0.96202585  1
  O  O25  1  0.11986703  0.21466933  0.03797415  1
  O  O26  1  0.37345565  0.75901795  0.75236067  1
  O  O27  1  0.13247360  0.24098205  0.24763933  1
  O  O28  1  0.62654435  0.24098205  0.24763933  1
  O  O29  1  0.86752640  0.75901795  0.75236067  1
  O  O30  1  0.77042949  0.45914102  0.64657412  1
  O  O31  1  0.22957051  0.54085898  0.35342588  1
  O  O32  1  0.72438793  0.55122415  0.14698447  1
  O  O33  1  0.27561207  0.44877585  0.85301553  1
