# generated using pymatgen
data_Na3ScCl6
_symmetry_space_group_name_H-M   'P 1'
_cell_length_a   7.13071060
_cell_length_b   6.64925160
_cell_length_c   11.83470106
_cell_angle_alpha   56.43458582
_cell_angle_beta   90.00000000
_cell_angle_gamma   90.00000000
_symmetry_Int_Tables_number   1
_chemical_formula_structural   Na3ScCl6
_chemical_formula_sum   'Na6 Sc2 Cl12'
_cell_volume   467.56378868
_cell_formula_units_Z   2
loop_
 _symmetry_equiv_pos_site_id
 _symmetry_equiv_pos_as_xyz
  1  'x, y, z'
loop_
 _atom_site_type_symbol
 _atom_site_label
 _atom_site_symmetry_multiplicity
 _atom_site_fract_x
 _atom_site_fract_y
 _atom_site_fract_z
 _atom_site_occupancy
  Na  Na0  1  0.91806664  0.71207546  0.75722093  1
  Na  Na1  1  0.58193336  0.71207546  0.25722093  1
  Na  Na2  1  0.08193336  0.28792454  0.24277907  1
  Na  Na3  1  0.41806664  0.28792454  0.74277907  1
  Na  Na4  1  -0.00000000  0.50000000  0.50000000  1
  Na  Na5  1  0.50000000  0.50000000  0.00000000  1
  Sc  Sc6  1  0.50000000  -0.00000000  0.50000000  1
  Sc  Sc7  1  -0.00000000  -0.00000000  0.00000000  1
  Cl  Cl8  1  0.55586734  0.90227975  0.73450747  1
  Cl  Cl9  1  0.94413266  0.90227975  0.23450747  1
  Cl  Cl10  1  0.44413266  0.09772025  0.26549253  1
  Cl  Cl11  1  0.05586734  0.09772025  0.76549253  1
  Cl  Cl12  1  0.79645785  0.24105928  0.42450496  1
  Cl  Cl13  1  0.70354215  0.24105928  0.92450496  1
  Cl  Cl14  1  0.20354215  0.75894072  0.57549504  1
  Cl  Cl15  1  0.29645785  0.75894072  0.07549504  1
  Cl  Cl16  1  0.67767992  0.63106034  0.56273924  1
  Cl  Cl17  1  0.82232008  0.63106034  0.06273924  1
  Cl  Cl18  1  0.32232008  0.36893966  0.43726076  1
  Cl  Cl19  1  0.17767992  0.36893966  0.93726076  1
