# generated using pymatgen
data_Cs2U4Nb4O23
_symmetry_space_group_name_H-M   'P 1'
_cell_length_a   7.70266870
_cell_length_b   8.80818195
_cell_length_c   8.80818195
_cell_angle_alpha   103.80989498
_cell_angle_beta   90.20902018
_cell_angle_gamma   90.20902018
_symmetry_Int_Tables_number   1
_chemical_formula_structural   Cs2U4Nb4O23
_chemical_formula_sum   'Cs2 U4 Nb4 O23'
_cell_volume   580.31932960
_cell_formula_units_Z   1
loop_
 _symmetry_equiv_pos_site_id
 _symmetry_equiv_pos_as_xyz
  1  'x, y, z'
loop_
 _atom_site_type_symbol
 _atom_site_label
 _atom_site_symmetry_multiplicity
 _atom_site_fract_x
 _atom_site_fract_y
 _atom_site_fract_z
 _atom_site_occupancy
  Cs  Cs0  1  0.50127761  0.99842297  0.99842297  1
  Cs  Cs1  1  0.00030745  0.00629807  0.00629807  1
  U  U2  1  0.24070345  0.02721871  0.51023567  1
  U  U3  1  0.76211076  0.49367095  0.95981287  1
  U  U4  1  0.76211076  0.95981287  0.49367095  1
  U  U5  1  0.24070345  0.51023567  0.02721871  1
  Nb  Nb6  1  0.50160535  0.35838854  0.63054433  1
  Nb  Nb7  1  0.00167702  0.38349210  0.60541650  1
  Nb  Nb8  1  0.50160535  0.63054433  0.35838854  1
  Nb  Nb9  1  0.00167702  0.60541650  0.38349210  1
  O  O10  1  0.53772255  0.14236008  0.56195821  1
  O  O11  1  0.46518687  0.45315331  0.84344066  1
  O  O12  1  0.96878878  0.14876108  0.54835003  1
  O  O13  1  0.03304151  0.44751235  0.84071152  1
  O  O14  1  0.46518687  0.84344066  0.45315331  1
  O  O15  1  0.53772255  0.56195821  0.14236008  1
  O  O16  1  0.03304151  0.84071152  0.44751235  1
  O  O17  1  0.96878878  0.54835003  0.14876108  1
  O  O18  1  0.25019010  0.04380529  0.30882656  1
  O  O19  1  0.76274356  0.69488673  0.94267172  1
  O  O20  1  0.76274356  0.94267172  0.69488673  1
  O  O21  1  0.25019010  0.30882656  0.04380529  1
  O  O22  1  0.24351778  0.01253234  0.71257467  1
  O  O23  1  0.74907024  0.29218947  0.97697687  1
  O  O24  1  0.74907024  0.97697687  0.29218947  1
  O  O25  1  0.24351778  0.71257467  0.01253234  1
  O  O26  1  0.25047393  0.30597862  0.59134212  1
  O  O27  1  0.75279350  0.40511857  0.68108850  1
  O  O28  1  0.75279350  0.68108850  0.40511857  1
  O  O29  1  0.25047393  0.59134212  0.30597862  1
  O  O30  1  0.50384937  0.47692781  0.47692781  1
  O  O31  1  0.08933981  0.59035668  0.59035668  1
  O  O32  1  0.91997396  0.39597610  0.39597610  1
