# generated using pymatgen
data_MgFe3Ni2Sb(PO4)6
_symmetry_space_group_name_H-M   'P 1'
_cell_length_a   8.69890997
_cell_length_b   8.69891443
_cell_length_c   8.69890985
_cell_angle_alpha   59.98525429
_cell_angle_beta   59.98527420
_cell_angle_gamma   59.98525894
_symmetry_Int_Tables_number   1
_chemical_formula_structural   MgFe3Ni2Sb(PO4)6
_chemical_formula_sum   'Mg1 Fe3 Ni2 Sb1 P6 O24'
_cell_volume   465.30163244
_cell_formula_units_Z   1
loop_
 _symmetry_equiv_pos_site_id
 _symmetry_equiv_pos_as_xyz
  1  'x, y, z'
loop_
 _atom_site_type_symbol
 _atom_site_label
 _atom_site_symmetry_multiplicity
 _atom_site_fract_x
 _atom_site_fract_y
 _atom_site_fract_z
 _atom_site_occupancy
  Mg  Mg0  1  0.24989000  0.24989000  0.24989000  1
  Fe  Fe1  1  0.12803900  0.12803900  0.12803800  1
  Fe  Fe2  1  0.37262800  0.37262800  0.37262800  1
  Fe  Fe3  1  0.64748800  0.64748900  0.64748800  1
  Ni  Ni4  1  0.99941900  0.99942300  0.99942300  1
  Ni  Ni5  1  0.50560300  0.50560100  0.50560200  1
  Sb  Sb6  1  0.85351100  0.85351100  0.85351100  1
  P  P7  1  0.04265500  0.74548000  0.45755100  1
  P  P8  1  0.45755200  0.04265500  0.74548000  1
  P  P9  1  0.74548000  0.45755200  0.04265500  1
  P  P10  1  0.25341300  0.54662900  0.94622900  1
  P  P11  1  0.54662900  0.94622900  0.25341300  1
  P  P12  1  0.94623000  0.25341300  0.54662900  1
  O  O13  1  0.11576000  0.29760700  0.50573300  1
  O  O14  1  0.29760700  0.50573200  0.11576000  1
  O  O15  1  0.03847300  0.89620400  0.26178400  1
  O  O16  1  0.50573300  0.11576000  0.29760700  1
  O  O17  1  0.98162200  0.85048900  0.59524800  1
  O  O18  1  0.24397800  0.60817500  0.45345200  1
  O  O19  1  0.26178400  0.03847300  0.89620400  1
  O  O20  1  0.45345200  0.24397800  0.60817600  1
  O  O21  1  0.19964600  0.38073800  0.99491200  1
  O  O22  1  0.60817600  0.45345100  0.24397900  1
  O  O23  1  0.08298000  0.74522100  0.93174800  1
  O  O24  1  0.38073800  0.99491100  0.19964600  1
  O  O25  1  0.59524900  0.98162200  0.85048900  1
  O  O26  1  0.89620400  0.26178500  0.03847300  1
  O  O27  1  0.40723000  0.57679100  0.75089200  1
  O  O28  1  0.85048800  0.59524900  0.98162200  1
  O  O29  1  0.57679100  0.75089200  0.40723000  1
  O  O30  1  0.74522100  0.93174800  0.08298000  1
  O  O31  1  0.75089200  0.40723000  0.57679000  1
  O  O32  1  0.99491200  0.19964600  0.38073800  1
  O  O33  1  0.53167400  0.90428500  0.64682100  1
  O  O34  1  0.93174800  0.08298000  0.74522100  1
  O  O35  1  0.64682100  0.53167500  0.90428500  1
  O  O36  1  0.90428500  0.64682200  0.53167500  1
