# generated using pymatgen
data_Rb2B4O7
_symmetry_space_group_name_H-M   'P 1'
_cell_length_a   6.65517340
_cell_length_b   9.85140547
_cell_length_c   10.64006134
_cell_angle_alpha   89.29372205
_cell_angle_beta   103.26590825
_cell_angle_gamma   101.20295994
_symmetry_Int_Tables_number   1
_chemical_formula_structural   Rb2B4O7
_chemical_formula_sum   'Rb8 B16 O28'
_cell_volume   665.65944907
_cell_formula_units_Z   4
loop_
 _symmetry_equiv_pos_site_id
 _symmetry_equiv_pos_as_xyz
  1  'x, y, z'
loop_
 _atom_site_type_symbol
 _atom_site_label
 _atom_site_symmetry_multiplicity
 _atom_site_fract_x
 _atom_site_fract_y
 _atom_site_fract_z
 _atom_site_occupancy
  Rb  Rb0  1  0.76078845  0.00960925  0.59348980  1
  Rb  Rb1  1  0.23921155  0.99039075  0.40651020  1
  Rb  Rb2  1  0.24019410  0.62056450  0.50825986  1
  Rb  Rb3  1  0.75980590  0.37943550  0.49174014  1
  Rb  Rb4  1  0.66719713  0.47947172  0.87392634  1
  Rb  Rb5  1  0.33280287  0.52052828  0.12607366  1
  Rb  Rb6  1  0.63834380  0.87569614  0.95032232  1
  Rb  Rb7  1  0.36165620  0.12430386  0.04967768  1
  B  B8  1  0.30334031  0.29055578  0.55083872  1
  B  B9  1  0.69665969  0.70944422  0.44916128  1
  B  B10  1  0.85304659  0.20640428  0.85140716  1
  B  B11  1  0.14695341  0.79359572  0.14859284  1
  B  B12  1  0.12952227  0.55840766  0.80325779  1
  B  B13  1  0.87047773  0.44159234  0.19674221  1
  B  B14  1  0.20333938  0.91308809  0.73505341  1
  B  B15  1  0.79666062  0.08691191  0.26494659  1
  B  B16  1  0.43819973  0.16025662  0.73918919  1
  B  B17  1  0.56180027  0.83974338  0.26081081  1
  B  B18  1  0.90420523  0.70765394  0.68066263  1
  B  B19  1  0.09579477  0.29234606  0.31933737  1
  B  B20  1  0.06832527  0.77452771  0.89986762  1
  B  B21  1  0.93167473  0.22547229  0.10013238  1
  B  B22  1  0.16462269  0.31024855  0.74881933  1
  B  B23  1  0.83537731  0.68975145  0.25118067  1
  O  O24  1  0.86871986  0.74530274  0.80309715  1
  O  O25  1  0.06890263  0.81858037  0.64332167  1
  O  O26  1  0.29108402  0.30685684  0.42053187  1
  O  O27  1  0.70891598  0.69314316  0.57946813  1
  O  O28  1  0.01791884  0.42606739  0.30761118  1
  O  O29  1  0.93109737  0.18141963  0.35667833  1
  O  O30  1  0.66342144  0.98488713  0.31029240  1
  O  O31  1  0.33657856  0.01511287  0.68970760  1
  O  O32  1  0.35934732  0.84527979  0.17019697  1
  O  O33  1  0.64065268  0.15472021  0.82980303  1
  O  O34  1  0.68628756  0.77408795  0.19577374  1
  O  O35  1  0.31371244  0.22591205  0.80422626  1
  O  O36  1  0.77473731  0.55334763  0.17856098  1
  O  O37  1  0.22526269  0.44665237  0.82143902  1
  O  O38  1  0.53259600  0.76685438  0.38140671  1
  O  O39  1  0.46740400  0.23314562  0.61859329  1
  O  O40  1  0.83569308  0.66631876  0.39053712  1
  O  O41  1  0.16430692  0.33368124  0.60946288  1
  O  O42  1  0.05764543  0.75225157  0.25047820  1
  O  O43  1  0.94235457  0.24774843  0.74952180  1
  O  O44  1  0.18525637  0.65773745  0.90125950  1
  O  O45  1  0.81474363  0.34226255  0.09874050  1
  O  O46  1  0.20281189  0.90173212  0.86341782  1
  O  O47  1  0.79718811  0.09826788  0.13658218  1
  O  O48  1  0.97589452  0.21178425  0.97415255  1
  O  O49  1  0.02410548  0.78821575  0.02584745  1
  O  O50  1  0.98208116  0.57393261  0.69238882  1
  O  O51  1  0.13128014  0.25469726  0.19690285  1
