# generated using pymatgen
data_K6CdO4
_symmetry_space_group_name_H-M   'P 1'
_cell_length_a   8.66748218
_cell_length_b   8.66749077
_cell_length_c   6.63122184
_cell_angle_alpha   89.99980017
_cell_angle_beta   90.00005911
_cell_angle_gamma   120.00045022
_symmetry_Int_Tables_number   1
_chemical_formula_structural   K6CdO4
_chemical_formula_sum   'K12 Cd2 O8'
_cell_volume   431.42823423
_cell_formula_units_Z   2
loop_
 _symmetry_equiv_pos_site_id
 _symmetry_equiv_pos_as_xyz
  1  'x, y, z'
loop_
 _atom_site_type_symbol
 _atom_site_label
 _atom_site_symmetry_multiplicity
 _atom_site_fract_x
 _atom_site_fract_y
 _atom_site_fract_z
 _atom_site_occupancy
  K  K0  1  0.53639221  0.07278280  0.14045909  1
  K  K1  1  0.46362555  0.53637264  0.64046761  1
  K  K2  1  0.92721491  0.46360864  0.14045704  1
  K  K3  1  0.53639241  0.46361019  0.14045813  1
  K  K4  1  0.14384878  0.85615106  0.97225407  1
  K  K5  1  0.28772455  0.14386324  0.47226103  1
  K  K6  1  0.07274595  0.53637101  0.64046753  1
  K  K7  1  0.85613680  0.71227210  0.47225899  1
  K  K8  1  0.85613613  0.14386227  0.47226356  1
  K  K9  1  0.71230376  0.85615593  0.97224721  1
  K  K10  1  0.14384362  0.28769764  0.97225721  1
  K  K11  1  0.46362794  0.92725421  0.64046715  1
  Cd  Cd12  1  0.66666704  0.33333273  0.75075221  1
  Cd  Cd13  1  0.33333744  0.66666561  0.25073318  1
  O  O14  1  0.19160066  0.80840048  0.36216339  1
  O  O15  1  0.38320204  0.19160194  0.86216851  1
  O  O16  1  0.80839875  0.61679771  0.86216738  1
  O  O17  1  0.19159823  0.38319541  0.36216384  1
  O  O18  1  0.61680688  0.80840302  0.36216242  1
  O  O19  1  0.80839917  0.19160163  0.86216882  1
  O  O20  1  0.66666621  0.33333328  0.41701090  1
  O  O21  1  0.33333395  0.66666645  0.91698872  1
