# generated using pymatgen
data_CdF2
_symmetry_space_group_name_H-M   'P 1'
_cell_length_a   3.56021466
_cell_length_b   5.84457349
_cell_length_c   6.95001352
_cell_angle_alpha   90.00000000
_cell_angle_beta   90.00000000
_cell_angle_gamma   90.00000000
_symmetry_Int_Tables_number   1
_chemical_formula_structural   CdF2
_chemical_formula_sum   'Cd4 F8'
_cell_volume   144.61543806
_cell_formula_units_Z   4
loop_
 _symmetry_equiv_pos_site_id
 _symmetry_equiv_pos_as_xyz
  1  'x, y, z'
loop_
 _atom_site_type_symbol
 _atom_site_label
 _atom_site_symmetry_multiplicity
 _atom_site_fract_x
 _atom_site_fract_y
 _atom_site_fract_z
 _atom_site_occupancy
  Cd  Cd0  1  0.25000000  0.24667176  0.60912441  1
  Cd  Cd1  1  0.25000000  0.74667176  0.89087559  1
  Cd  Cd2  1  0.75000000  0.75332824  0.39087559  1
  Cd  Cd3  1  0.75000000  0.25332824  0.10912441  1
  F  F4  1  0.25000000  0.14165268  0.92197555  1
  F  F5  1  0.25000000  0.64165268  0.57802445  1
  F  F6  1  0.75000000  0.85834732  0.07802445  1
  F  F7  1  0.75000000  0.35834732  0.42197555  1
  F  F8  1  0.25000000  0.01571392  0.33643524  1
  F  F9  1  0.25000000  0.51571392  0.16356476  1
  F  F10  1  0.75000000  0.98428608  0.66356476  1
  F  F11  1  0.75000000  0.48428608  0.83643524  1
