# generated using pymatgen
data_Ba4NbFeO8
_symmetry_space_group_name_H-M   'P 1'
_cell_length_a   6.05570358
_cell_length_b   7.59024912
_cell_length_c   21.06481822
_cell_angle_alpha   82.04453938
_cell_angle_beta   90.00000000
_cell_angle_gamma   90.00000000
_symmetry_Int_Tables_number   1
_chemical_formula_structural   Ba4NbFeO8
_chemical_formula_sum   'Ba16 Nb4 Fe4 O32'
_cell_volume   958.91131487
_cell_formula_units_Z   4
loop_
 _symmetry_equiv_pos_site_id
 _symmetry_equiv_pos_as_xyz
  1  'x, y, z'
loop_
 _atom_site_type_symbol
 _atom_site_label
 _atom_site_symmetry_multiplicity
 _atom_site_fract_x
 _atom_site_fract_y
 _atom_site_fract_z
 _atom_site_occupancy
  Ba  Ba0  1  0.76216524  0.03366308  0.09674338  1
  Ba  Ba1  1  0.26216524  0.96633692  0.40325662  1
  Ba  Ba2  1  0.23783476  0.96633692  0.90325662  1
  Ba  Ba3  1  0.73783476  0.03366308  0.59674338  1
  Ba  Ba4  1  0.75666973  0.51258881  0.13766139  1
  Ba  Ba5  1  0.25666973  0.48741119  0.36233861  1
  Ba  Ba6  1  0.24333027  0.48741119  0.86233861  1
  Ba  Ba7  1  0.74333027  0.51258881  0.63766139  1
  Ba  Ba8  1  0.27282073  0.29858061  0.04765773  1
  Ba  Ba9  1  0.77282073  0.70141939  0.45234227  1
  Ba  Ba10  1  0.72717927  0.70141939  0.95234227  1
  Ba  Ba11  1  0.22717927  0.29858061  0.54765773  1
  Ba  Ba12  1  0.27564915  0.85093887  0.21145068  1
  Ba  Ba13  1  0.77564915  0.14906113  0.28854932  1
  Ba  Ba14  1  0.72435085  0.14906113  0.78854932  1
  Ba  Ba15  1  0.22435085  0.85093887  0.71145068  1
  Nb  Nb16  1  0.26337283  0.34327685  0.21210505  1
  Nb  Nb17  1  0.76337283  0.65672315  0.28789495  1
  Nb  Nb18  1  0.73662717  0.65672315  0.78789495  1
  Nb  Nb19  1  0.23662717  0.34327685  0.71210505  1
  Fe  Fe20  1  0.22329921  0.73396478  0.05931736  1
  Fe  Fe21  1  0.72329921  0.26603522  0.44068264  1
  Fe  Fe22  1  0.77670079  0.26603522  0.94068264  1
  Fe  Fe23  1  0.27670079  0.73396478  0.55931736  1
  O  O24  1  0.50110893  0.49918200  0.25181500  1
  O  O25  1  0.00110893  0.50081800  0.24818500  1
  O  O26  1  0.49889107  0.50081800  0.74818500  1
  O  O27  1  -0.00110893  0.49918200  0.75181500  1
  O  O28  1  0.49536847  0.21295816  0.17721571  1
  O  O29  1  0.99536847  0.78704184  0.32278429  1
  O  O30  1  0.50463153  0.78704184  0.82278429  1
  O  O31  1  0.00463153  0.21295816  0.67721571  1
  O  O32  1  0.24134884  0.18815894  0.29285845  1
  O  O33  1  0.74134884  0.81184106  0.20714155  1
  O  O34  1  0.75865116  0.81184106  0.70714155  1
  O  O35  1  0.25865116  0.18815894  0.79285845  1
  O  O36  1  0.03109466  0.22277999  0.16938069  1
  O  O37  1  0.53109466  0.77722001  0.33061931  1
  O  O38  1  0.96890534  0.77722001  0.83061931  1
  O  O39  1  0.46890534  0.22277999  0.66938069  1
  O  O40  1  0.27312448  0.55038501  0.13185547  1
  O  O41  1  0.77312448  0.44961499  0.36814453  1
  O  O42  1  0.72687552  0.44961499  0.86814453  1
  O  O43  1  0.22687552  0.55038501  0.63185547  1
  O  O44  1  0.34425878  0.94189724  0.08086212  1
  O  O45  1  0.84425878  0.05810276  0.41913788  1
  O  O46  1  0.65574122  0.05810276  0.91913788  1
  O  O47  1  0.15574122  0.94189724  0.58086212  1
  O  O48  1  0.30148451  0.65362128  0.98128359  1
  O  O49  1  0.80148451  0.34637872  0.51871641  1
  O  O50  1  0.69851549  0.34637872  0.01871641  1
  O  O51  1  0.19851549  0.65362128  0.48128359  1
  O  O52  1  0.91826387  0.76130653  0.05474160  1
  O  O53  1  0.41826387  0.23869347  0.44525840  1
  O  O54  1  0.08173613  0.23869347  0.94525840  1
  O  O55  1  0.58173613  0.76130653  0.55474160  1
