# generated using pymatgen
data_Rb2Ba8Ca(Sb3O)2
_symmetry_space_group_name_H-M   'P 1'
_cell_length_a   9.32039882
_cell_length_b   9.96643668
_cell_length_c   10.50827467
_cell_angle_alpha   116.98546435
_cell_angle_beta   115.80262556
_cell_angle_gamma   93.49972784
_symmetry_Int_Tables_number   1
_chemical_formula_structural   Rb2Ba8Ca(Sb3O)2
_chemical_formula_sum   'Rb2 Ba8 Ca1 Sb6 O2'
_cell_volume   741.33903937
_cell_formula_units_Z   1
loop_
 _symmetry_equiv_pos_site_id
 _symmetry_equiv_pos_as_xyz
  1  'x, y, z'
loop_
 _atom_site_type_symbol
 _atom_site_label
 _atom_site_symmetry_multiplicity
 _atom_site_fract_x
 _atom_site_fract_y
 _atom_site_fract_z
 _atom_site_occupancy
  Rb  Rb0  1  0.04446300  0.03622200  0.05872800  1
  Rb  Rb1  1  0.49442200  0.49249600  0.00232700  1
  Ba  Ba2  1  0.49453900  0.68986800  0.69047800  1
  Ba  Ba3  1  0.19686600  0.98168300  0.67909400  1
  Ba  Ba4  1  0.79588100  0.02304800  0.33869400  1
  Ba  Ba5  1  0.06849400  0.49097400  0.67322600  1
  Ba  Ba6  1  0.51235400  0.31715000  0.30128900  1
  Ba  Ba7  1  0.68332800  0.05649200  0.69770500  1
  Ba  Ba8  1  0.96792700  0.51803300  0.25881700  1
  Ba  Ba9  1  0.27858300  0.77269300  0.26057000  1
  Ca  Ca10  1  0.75411300  0.41230600  0.74386500  1
  Sb  Sb11  1  0.86054700  0.72322500  0.06012600  1
  Sb  Sb12  1  0.62456900  0.10566900  0.01098800  1
  Sb  Sb13  1  0.08203400  0.32979100  0.93345000  1
  Sb  Sb14  1  0.38338500  0.89240100  0.00063000  1
  Sb  Sb15  1  0.33964300  0.25408700  0.54091600  1
  Sb  Sb16  1  0.75306400  0.72214000  0.48389300  1
  O  O17  1  0.77587100  0.31243700  0.51943100  1
  O  O18  1  0.25420400  0.74071300  0.48327300  1
