# generated using pymatgen
data_Cs3Hf2P5S18
_symmetry_space_group_name_H-M   'P 1'
_cell_length_a   6.91583835
_cell_length_b   6.91583835
_cell_length_c   34.37521385
_cell_angle_alpha   86.71855071
_cell_angle_beta   86.71855071
_cell_angle_gamma   92.97785313
_symmetry_Int_Tables_number   1
_chemical_formula_structural   Cs3Hf2P5S18
_chemical_formula_sum   'Cs6 Hf4 P10 S36'
_cell_volume   1636.22149196
_cell_formula_units_Z   2
loop_
 _symmetry_equiv_pos_site_id
 _symmetry_equiv_pos_as_xyz
  1  'x, y, z'
loop_
 _atom_site_type_symbol
 _atom_site_label
 _atom_site_symmetry_multiplicity
 _atom_site_fract_x
 _atom_site_fract_y
 _atom_site_fract_z
 _atom_site_occupancy
  Cs  Cs0  1  0.55911123  0.84740010  0.25368380  1
  Cs  Cs1  1  0.84740010  0.55911123  0.75368380  1
  Cs  Cs2  1  0.50553864  0.72694864  0.06894608  1
  Cs  Cs3  1  0.72694864  0.50553864  0.56894608  1
  Cs  Cs4  1  0.22375276  0.02313630  0.86471618  1
  Cs  Cs5  1  0.02313630  0.22375276  0.36471618  1
  Hf  Hf6  1  0.97458050  0.15493639  0.15376976  1
  Hf  Hf7  1  0.15493639  0.97458050  0.65376976  1
  Hf  Hf8  1  0.96088243  0.37293478  0.96420196  1
  Hf  Hf9  1  0.37293478  0.96088243  0.46420196  1
  P  P10  1  0.85027581  0.34550899  0.23692994  1
  P  P11  1  0.34550899  0.85027581  0.73692994  1
  P  P12  1  0.06551722  0.70067315  0.17314960  1
  P  P13  1  0.70067315  0.06551722  0.67314960  1
  P  P14  1  0.93900243  0.23801665  0.05859782  1
  P  P15  1  0.23801665  0.93900243  0.55859782  1
  P  P16  1  0.42355396  0.48297479  0.94536279  1
  P  P17  1  0.48297479  0.42355396  0.44536279  1
  P  P18  1  0.75455482  0.30660782  0.88103740  1
  P  P19  1  0.30660782  0.75455482  0.38103740  1
  S  S20  1  0.70582181  0.34274884  0.28768170  1
  S  S21  1  0.34274884  0.70582181  0.78768170  1
  S  S22  1  0.04601773  0.14296785  0.22743589  1
  S  S23  1  0.14296785  0.04601773  0.72743589  1
  S  S24  1  0.69275209  0.32807552  0.18909013  1
  S  S25  1  0.32807552  0.69275209  0.68909013  1
  S  S26  1  0.01886711  0.62043053  0.23344166  1
  S  S27  1  0.62043053  0.01886711  0.73344166  1
  S  S28  1  0.27057873  0.92047060  0.16810260  1
  S  S29  1  0.92047060  0.27057873  0.66810260  1
  S  S30  1  0.81546603  0.80924350  0.15491047  1
  S  S31  1  0.80924350  0.81546603  0.65491047  1
  S  S32  1  0.16691304  0.48345215  0.14200769  1
  S  S33  1  0.48345215  0.16691304  0.64200769  1
  S  S34  1  0.72411484  0.23677138  0.10197340  1
  S  S35  1  0.23677138  0.72411484  0.60197340  1
  S  S36  1  0.16064294  0.12335430  0.08738305  1
  S  S37  1  0.12335430  0.16064294  0.58738305  1
  S  S38  1  0.01056675  0.50670241  0.03295034  1
  S  S39  1  0.50670241  0.01056675  0.53295034  1
  S  S40  1  0.86025692  0.08115028  0.01325447  1
  S  S41  1  0.08115028  0.86025692  0.51325447  1
  S  S42  1  0.22272867  0.68164994  0.95088869  1
  S  S43  1  0.68164994  0.22272867  0.45088869  1
  S  S44  1  0.29242971  0.22137824  0.96386844  1
  S  S45  1  0.22137824  0.29242971  0.46386844  1
  S  S46  1  0.65406412  0.56491076  0.97581745  1
  S  S47  1  0.56491076  0.65406412  0.47581745  1
  S  S48  1  0.50017164  0.47470114  0.88479457  1
  S  S49  1  0.47470114  0.50017164  0.38479457  1
  S  S50  1  0.75584081  0.11732533  0.92832031  1
  S  S51  1  0.11732533  0.75584081  0.42832031  1
  S  S52  1  0.98127912  0.49230656  0.89066214  1
  S  S53  1  0.49230656  0.98127912  0.39066214  1
  S  S54  1  0.74211226  0.19267395  0.83019968  1
  S  S55  1  0.19267395  0.74211226  0.33019968  1
