# generated using pymatgen
data_MgSn8(P2O9)2
_symmetry_space_group_name_H-M   'P 1'
_cell_length_a   11.20762462
_cell_length_b   8.36694002
_cell_length_c   7.09339483
_cell_angle_alpha   63.46527960
_cell_angle_beta   77.78666304
_cell_angle_gamma   94.51584954
_symmetry_Int_Tables_number   1
_chemical_formula_structural   MgSn8(P2O9)2
_chemical_formula_sum   'Mg1 Sn8 P4 O18'
_cell_volume   570.10667811
_cell_formula_units_Z   1
loop_
 _symmetry_equiv_pos_site_id
 _symmetry_equiv_pos_as_xyz
  1  'x, y, z'
loop_
 _atom_site_type_symbol
 _atom_site_label
 _atom_site_symmetry_multiplicity
 _atom_site_fract_x
 _atom_site_fract_y
 _atom_site_fract_z
 _atom_site_occupancy
  Mg  Mg0  1  0.15375871  0.86799725  0.84680920  1
  Sn  Sn1  1  0.09897024  0.23969246  0.19904541  1
  Sn  Sn2  1  0.03402082  0.22073777  0.72864698  1
  Sn  Sn3  1  0.31633786  0.54620977  0.67297596  1
  Sn  Sn4  1  0.42461261  0.09617097  0.78630186  1
  Sn  Sn5  1  0.60973717  0.92812783  0.18354364  1
  Sn  Sn6  1  0.68203704  0.45697103  0.37585967  1
  Sn  Sn7  1  0.94768127  0.81036332  0.27251002  1
  Sn  Sn8  1  0.89312435  0.74404845  0.82294800  1
  P  P9  1  0.30372898  0.98252331  0.43611606  1
  P  P10  1  0.23251100  0.62448060  0.16734638  1
  P  P11  1  0.76236463  0.36597790  0.85705311  1
  P  P12  1  0.70957804  0.02694856  0.54704947  1
  O  O13  1  0.09499616  0.65513933  0.16725359  1
  O  O14  1  0.22086271  0.78806852  0.61486237  1
  O  O15  1  0.24476132  0.07416381  0.24708855  1
  O  O16  1  0.26172201  0.57288039  0.38330354  1
  O  O17  1  0.31094473  0.81330242  0.97513397  1
  O  O18  1  0.29569478  0.08662091  0.57757591  1
  O  O19  1  0.43603541  0.96272322  0.35581069  1
  O  O20  1  0.25219230  0.47727620  0.09246851  1
  O  O21  1  0.15352069  0.34072789  0.85275018  1
  O  O22  1  0.82727510  0.68594308  0.15923910  1
  O  O23  1  0.75033374  0.50390426  0.95047102  1
  O  O24  1  0.56903817  0.99482891  0.66351344  1
  O  O25  1  0.72141615  0.93502362  0.39606546  1
  O  O26  1  0.64189677  0.21581236  0.97566035  1
  O  O27  1  0.77611513  0.47153857  0.60788135  1
  O  O28  1  0.77681412  0.93570114  0.72733226  1
  O  O29  1  0.76989255  0.23143356  0.40888921  1
  O  O30  1  0.87802543  0.28037660  0.90219876  1
