# generated using pymatgen
data_Na4LuC3O9F
_symmetry_space_group_name_H-M   'P 1'
_cell_length_a   8.84007090
_cell_length_b   8.84007090
_cell_length_c   13.66198228
_cell_angle_alpha   85.03061238
_cell_angle_beta   85.03061238
_cell_angle_gamma   126.75144125
_symmetry_Int_Tables_number   1
_chemical_formula_structural   Na4LuC3O9F
_chemical_formula_sum   'Na16 Lu4 C12 O36 F4'
_cell_volume   839.30212561
_cell_formula_units_Z   4
loop_
 _symmetry_equiv_pos_site_id
 _symmetry_equiv_pos_as_xyz
  1  'x, y, z'
loop_
 _atom_site_type_symbol
 _atom_site_label
 _atom_site_symmetry_multiplicity
 _atom_site_fract_x
 _atom_site_fract_y
 _atom_site_fract_z
 _atom_site_occupancy
  Na  Na0  1  0.58684055  0.58636937  0.19359985  1
  Na  Na1  1  0.58636937  0.58684055  0.69359985  1
  Na  Na2  1  0.14352766  0.50747428  0.61014059  1
  Na  Na3  1  0.50747428  0.14352766  0.11014059  1
  Na  Na4  1  0.17466551  0.52875422  0.08899128  1
  Na  Na5  1  0.52875422  0.17466551  0.58899128  1
  Na  Na6  1  0.07717086  0.86073501  0.52833655  1
  Na  Na7  1  0.86073501  0.07717086  0.02833655  1
  Na  Na8  1  0.06077484  0.86291071  0.27468936  1
  Na  Na9  1  0.86291071  0.06077484  0.77468936  1
  Na  Na10  1  0.84417006  0.06802039  0.27662830  1
  Na  Na11  1  0.06802039  0.84417006  0.77662830  1
  Na  Na12  1  0.83500540  0.07903708  0.53249042  1
  Na  Na13  1  0.07903708  0.83500540  0.03249042  1
  Na  Na14  1  0.50100227  0.17466249  0.35047518  1
  Na  Na15  1  0.17466249  0.50100227  0.85047518  1
  Lu  Lu16  1  0.12938577  0.54248830  0.33831949  1
  Lu  Lu17  1  0.54248830  0.12938577  0.83831949  1
  Lu  Lu18  1  0.57489360  0.61510523  0.44791116  1
  Lu  Lu19  1  0.61510523  0.57489360  0.94791116  1
  C  C20  1  0.22271185  0.24822033  0.36998394  1
  C  C21  1  0.24822033  0.22271185  0.86998394  1
  C  C22  1  0.45427278  0.83880588  0.21566775  1
  C  C23  1  0.83880588  0.45427278  0.71566775  1
  C  C24  1  0.84187320  0.48122544  0.45902156  1
  C  C25  1  0.48122544  0.84187320  0.95902156  1
  C  C26  1  0.22238214  0.23062978  0.61455619  1
  C  C27  1  0.23062978  0.22238214  0.11455619  1
  C  C28  1  0.44537618  0.84688559  0.72361670  1
  C  C29  1  0.84688559  0.44537618  0.22361670  1
  C  C30  1  0.44532895  0.83498033  0.45771293  1
  C  C31  1  0.83498033  0.44532895  0.95771293  1
  O  O32  1  0.40077219  0.39979556  0.35498454  1
  O  O33  1  0.39979556  0.40077219  0.85498454  1
  O  O34  1  0.37959453  0.40462575  0.58101087  1
  O  O35  1  0.40462575  0.37959453  0.08101087  1
  O  O36  1  0.08893066  0.26964128  0.37391289  1
  O  O37  1  0.26964128  0.08893066  0.87391289  1
  O  O38  1  0.32511062  0.64924628  0.45134284  1
  O  O39  1  0.64924628  0.32511062  0.95134284  1
  O  O40  1  0.37194793  0.65625378  0.21608984  1
  O  O41  1  0.65625378  0.37194793  0.71608984  1
  O  O42  1  0.18123535  0.08259597  0.37978354  1
  O  O43  1  0.08259597  0.18123535  0.87978354  1
  O  O44  1  0.87755432  0.36894147  0.49541190  1
  O  O45  1  0.36894147  0.87755432  0.99541190  1
  O  O46  1  0.38730389  0.92419378  0.48956001  1
  O  O47  1  0.92419378  0.38730389  0.98956001  1
  O  O48  1  0.62296962  0.90787708  0.43171108  1
  O  O49  1  0.90787708  0.62296962  0.93171108  1
  O  O50  1  0.35596525  0.87512861  0.27170550  1
  O  O51  1  0.87512861  0.35596525  0.77170550  1
  O  O52  1  0.40079226  0.69694732  0.69232969  1
  O  O53  1  0.69694732  0.40079226  0.19232969  1
  O  O54  1  0.98640951  0.65012761  0.41036868  1
  O  O55  1  0.65012761  0.98640951  0.91036868  1
  O  O56  1  0.06268135  0.20519756  0.62813759  1
  O  O57  1  0.20519756  0.06268135  0.12813759  1
  O  O58  1  0.32767556  0.84185018  0.79169539  1
  O  O59  1  0.84185018  0.32767556  0.29169539  1
  O  O60  1  0.23019724  0.09106178  0.63389832  1
  O  O61  1  0.09106178  0.23019724  0.13389832  1
  O  O62  1  0.67124140  0.42922801  0.46426751  1
  O  O63  1  0.42922801  0.67124140  0.96426751  1
  O  O64  1  0.61835751  0.96978663  0.16517247  1
  O  O65  1  0.96978663  0.61835751  0.66517247  1
  O  O66  1  0.61048160  0.01529659  0.69425271  1
  O  O67  1  0.01529659  0.61048160  0.19425171  1
  F  F68  1  0.77065616  0.77113917  0.54322579  1
  F  F69  1  0.77113917  0.77065616  0.04322579  1
  F  F70  1  0.75796935  0.76181424  0.30807357  1
  F  F71  1  0.76181424  0.75796935  0.80807357  1
