# generated using pymatgen
data_KFeBr4
_symmetry_space_group_name_H-M   'P 1'
_cell_length_a   7.71859286
_cell_length_b   10.36185954
_cell_length_c   10.30902180
_cell_angle_alpha   90.00000632
_cell_angle_beta   90.00001721
_cell_angle_gamma   89.99995023
_symmetry_Int_Tables_number   1
_chemical_formula_structural   KFeBr4
_chemical_formula_sum   'K4 Fe4 Br16'
_cell_volume   824.50499745
_cell_formula_units_Z   4
loop_
 _symmetry_equiv_pos_site_id
 _symmetry_equiv_pos_as_xyz
  1  'x, y, z'
loop_
 _atom_site_type_symbol
 _atom_site_label
 _atom_site_symmetry_multiplicity
 _atom_site_fract_x
 _atom_site_fract_y
 _atom_site_fract_z
 _atom_site_occupancy
  K  K0  1  0.32487206  0.24999991  0.24999992  1
  K  K1  1  0.67512716  0.74999980  0.75000013  1
  K  K2  1  0.17512743  0.75000022  0.25000012  1
  K  K3  1  0.82487335  0.24999978  0.74999992  1
  Fe  Fe4  1  0.24999986  -0.00000018  0.68083778  1
  Fe  Fe5  1  0.74999768  -0.00000026  0.31916265  1
  Fe  Fe6  1  0.24999769  0.50000103  0.81916222  1
  Fe  Fe7  1  0.74999847  0.49999905  0.18083891  1
  Br  Br8  1  0.16722514  0.17666717  0.55294565  1
  Br  Br9  1  0.83277642  0.82333261  0.44705442  1
  Br  Br10  1  0.33277605  0.82333293  0.55294561  1
  Br  Br11  1  0.33277611  0.67666721  0.94705414  1
  Br  Br12  1  0.66722472  0.17666693  0.44705398  1
  Br  Br13  1  0.66722513  0.32333319  0.05294624  1
  Br  Br14  1  0.16722507  0.32333302  0.94705389  1
  Br  Br15  1  0.83277634  0.67666751  0.05294530  1
  Br  Br16  1  0.99024388  0.04576543  0.18643327  1
  Br  Br17  1  0.00975639  0.95423488  0.81356763  1
  Br  Br18  1  0.50975689  0.95423527  0.18643247  1
  Br  Br19  1  0.50975671  0.54576506  0.31356733  1
  Br  Br20  1  0.49024359  0.04576556  0.81356648  1
  Br  Br21  1  0.49024352  0.45423453  0.68643347  1
  Br  Br22  1  0.99024354  0.45423450  0.31356604  1
  Br  Br23  1  0.00975682  0.54576485  0.68643244  1
