# generated using pymatgen
data_MgV6(HO3)6
_symmetry_space_group_name_H-M   'P 1'
_cell_length_a   5.06422957
_cell_length_b   9.65656038
_cell_length_c   8.43186267
_cell_angle_alpha   89.72377339
_cell_angle_beta   103.44398666
_cell_angle_gamma   90.36497013
_symmetry_Int_Tables_number   1
_chemical_formula_structural   MgV6(HO3)6
_chemical_formula_sum   'Mg1 V6 H6 O18'
_cell_volume   401.03402852
_cell_formula_units_Z   1
loop_
 _symmetry_equiv_pos_site_id
 _symmetry_equiv_pos_as_xyz
  1  'x, y, z'
loop_
 _atom_site_type_symbol
 _atom_site_label
 _atom_site_symmetry_multiplicity
 _atom_site_fract_x
 _atom_site_fract_y
 _atom_site_fract_z
 _atom_site_occupancy
  Mg  Mg0  1  0.98274703  0.75003892  0.65214396  1
  V  V1  1  0.46824091  0.42650383  0.16227148  1
  V  V2  1  0.54072508  0.93021103  0.83889829  1
  V  V3  1  0.54055983  0.56233541  0.84430942  1
  V  V4  1  0.47300381  0.06687532  0.15640605  1
  V  V5  1  0.90112160  0.24814687  0.02816081  1
  V  V6  1  0.11806276  0.74731904  0.99062408  1
  H  H7  1  0.73800538  0.63322185  0.38681066  1
  H  H8  1  0.25385117  0.15713655  0.60623181  1
  H  H9  1  0.06483046  0.24615393  0.70678619  1
  H  H10  1  0.25838184  0.33156189  0.60606603  1
  H  H11  1  0.93616756  0.74097871  0.32553271  1
  H  H12  1  0.66286230  0.88277621  0.35276201  1
  O  O13  1  0.64351192  0.40735377  0.97807500  1
  O  O14  1  0.39722989  0.89661487  0.03105275  1
  O  O15  1  0.37763495  0.59205439  0.02870173  1
  O  O16  1  0.62480898  0.09155169  0.96627948  1
  O  O17  1  0.14453948  0.37708091  0.17032767  1
  O  O18  1  0.86929031  0.87890803  0.81956925  1
  O  O19  1  0.86544258  0.62064539  0.82138207  1
  O  O20  1  0.14609257  0.10491994  0.15575921  1
  O  O21  1  0.62622359  0.24035224  0.19788184  1
  O  O22  1  0.36139871  0.74678136  0.78762256  1
  O  O23  1  0.99684600  0.24947613  0.85173257  1
  O  O24  1  0.01035107  0.75246868  0.16084088  1
  O  O25  1  0.61508307  0.49938430  0.33861898  1
  O  O26  1  0.36532834  -0.00008762  0.66650208  1
  O  O27  1  0.37224121  0.48844082  0.67388006  1
  O  O28  1  0.62482239  0.98368498  0.34336514  1
  O  O29  1  0.14352021  0.24490785  0.59668282  1
  O  O30  1  0.83957501  0.72718174  0.41878341  1
