# generated using pymatgen
data_MgSb3XeF23
_symmetry_space_group_name_H-M   'P 1'
_cell_length_a   10.82492600
_cell_length_b   11.04587260
_cell_length_c   15.65348697
_cell_angle_alpha   90.21272369
_cell_angle_beta   90.00000000
_cell_angle_gamma   90.00000000
_symmetry_Int_Tables_number   1
_chemical_formula_structural   MgSb3XeF23
_chemical_formula_sum   'Mg4 Sb12 Xe4 F92'
_cell_volume   1871.68633214
_cell_formula_units_Z   4
loop_
 _symmetry_equiv_pos_site_id
 _symmetry_equiv_pos_as_xyz
  1  'x, y, z'
loop_
 _atom_site_type_symbol
 _atom_site_label
 _atom_site_symmetry_multiplicity
 _atom_site_fract_x
 _atom_site_fract_y
 _atom_site_fract_z
 _atom_site_occupancy
  Mg  Mg0  1  0.50000000  0.00000000  0.50000000  1
  Mg  Mg1  1  0.00000000  0.50000000  0.00000000  1
  Mg  Mg2  1  0.00000000  0.50000000  0.50000000  1
  Mg  Mg3  1  0.50000000  0.00000000  0.00000000  1
  Sb  Sb4  1  0.29135606  0.29151689  0.50664401  1
  Sb  Sb5  1  0.20864394  0.79151689  0.00664401  1
  Sb  Sb6  1  0.70864394  0.70848311  0.49335599  1
  Sb  Sb7  1  0.79135606  0.20848311  0.99335599  1
  Sb  Sb8  1  0.20586428  0.79415967  0.48740224  1
  Sb  Sb9  1  0.29413572  0.29415967  0.98740224  1
  Sb  Sb10  1  0.79413572  0.20584033  0.51259776  1
  Sb  Sb11  1  0.70586428  0.70584033  0.01259776  1
  Sb  Sb12  1  0.00595570  0.52564415  0.75289456  1
  Sb  Sb13  1  0.49404430  0.02564415  0.25289456  1
  Sb  Sb14  1  0.99404430  0.47435585  0.24710544  1
  Sb  Sb15  1  0.50595570  0.97435585  0.74710544  1
  Xe  Xe16  1  0.05281060  0.95552237  0.75357059  1
  Xe  Xe17  1  0.44718940  0.45552237  0.25357059  1
  Xe  Xe18  1  0.94718940  0.04447763  0.24642941  1
  Xe  Xe19  1  0.55281060  0.54447763  0.74642941  1
  F  F20  1  0.93693764  0.09124730  0.75659078  1
  F  F21  1  0.56306236  0.59124730  0.25659078  1
  F  F22  1  0.06306236  0.90875270  0.24340922  1
  F  F23  1  0.43693764  0.40875270  0.74340922  1
  F  F24  1  0.94607208  0.90449639  0.65925498  1
  F  F25  1  0.55392792  0.40449639  0.15925498  1
  F  F26  1  0.05392792  0.09550361  0.34074502  1
  F  F27  1  0.44607208  0.59550361  0.84074502  1
  F  F28  1  0.12561631  0.04590479  0.84897284  1
  F  F29  1  0.37438369  0.54590479  0.34897284  1
  F  F30  1  0.87438369  0.95409521  0.15102716  1
  F  F31  1  0.62561631  0.45409521  0.65102716  1
  F  F32  1  0.93081004  0.88640848  0.83216154  1
  F  F33  1  0.56918996  0.38640848  0.33216154  1
  F  F34  1  0.06918996  0.11359152  0.16783846  1
  F  F35  1  0.43081004  0.61359152  0.66783846  1
  F  F36  1  0.13953065  0.06494340  0.67568015  1
  F  F37  1  0.36046935  0.56494340  0.17568015  1
  F  F38  1  0.86046935  0.93505660  0.32431985  1
  F  F39  1  0.63953065  0.43505660  0.82431985  1
  F  F40  1  0.41172871  0.15942898  0.52505907  1
  F  F41  1  0.08827129  0.65942898  0.02505907  1
  F  F42  1  0.58827129  0.84057102  0.47494093  1
  F  F43  1  0.91172871  0.34057102  0.97494093  1
  F  F44  1  0.33882534  0.29808181  0.38811597  1
  F  F45  1  0.16117466  0.79808181  0.88811597  1
  F  F46  1  0.66117466  0.70191819  0.61188403  1
  F  F47  1  0.83882534  0.20191819  0.11188403  1
  F  F48  1  0.41250425  0.40842816  0.53221521  1
  F  F49  1  0.08749575  0.90842816  0.03221521  1
  F  F50  1  0.58749575  0.59157184  0.46778479  1
  F  F51  1  0.91250425  0.09157184  0.96778479  1
  F  F52  1  0.16712690  0.41945173  0.48462452  1
  F  F53  1  0.33287310  0.91945173  0.98462452  1
  F  F54  1  0.83287310  0.58054827  0.51537548  1
  F  F55  1  0.66712690  0.08054827  0.01537548  1
  F  F56  1  0.24123728  0.28809018  0.62276983  1
  F  F57  1  0.25876272  0.78809018  0.12276983  1
  F  F58  1  0.75876272  0.71190982  0.37723017  1
  F  F59  1  0.74123728  0.21190982  0.87723017  1
  F  F60  1  0.17199408  0.17305809  0.47791633  1
  F  F61  1  0.32800592  0.67305809  0.97791633  1
  F  F62  1  0.82800592  0.82694191  0.52208367  1
  F  F63  1  0.67199408  0.32694191  0.02208367  1
  F  F64  1  0.33488404  0.92021071  0.47685675  1
  F  F65  1  0.16511596  0.42021071  0.97685675  1
  F  F66  1  0.66511596  0.07978929  0.52314325  1
  F  F67  1  0.83488404  0.57978929  0.02314325  1
  F  F68  1  0.08095644  0.90680835  0.46180368  1
  F  F69  1  0.41904356  0.40680835  0.96180368  1
  F  F70  1  0.91904356  0.09319165  0.53819632  1
  F  F71  1  0.58095644  0.59319165  0.03819632  1
  F  F72  1  0.18946065  0.83358763  0.60661137  1
  F  F73  1  0.31053935  0.33358763  0.10661137  1
  F  F74  1  0.81053935  0.16641237  0.39338863  1
  F  F75  1  0.68946065  0.66641237  0.89338863  1
  F  F76  1  0.08118258  0.66448413  0.50059803  1
  F  F77  1  0.41881742  0.16448413  0.00059803  1
  F  F78  1  0.91881742  0.33551587  0.49940197  1
  F  F79  1  0.58118258  0.83551587  0.99940197  1
  F  F80  1  0.33077120  0.68172816  0.51675030  1
  F  F81  1  0.16922880  0.18172816  0.01675030  1
  F  F82  1  0.66922880  0.31827184  0.48324970  1
  F  F83  1  0.83077120  0.81827184  0.98324970  1
  F  F84  1  0.22182777  0.75380351  0.37011448  1
  F  F85  1  0.27817223  0.25380351  0.87011448  1
  F  F86  1  0.77817223  0.24619649  0.62988552  1
  F  F87  1  0.72182777  0.74619649  0.12988552  1
  F  F88  1  0.02059599  0.49695683  0.62944678  1
  F  F89  1  0.47940401  0.99695683  0.12944678  1
  F  F90  1  0.97940401  0.50304317  0.37055322  1
  F  F91  1  0.52059599  0.00304317  0.87055322  1
  F  F92  1  0.03586723  0.69531417  0.73446746  1
  F  F93  1  0.46413277  0.19531417  0.23446746  1
  F  F94  1  0.96413277  0.30468583  0.26553254  1
  F  F95  1  0.53586723  0.80468583  0.76553254  1
  F  F96  1  0.83408500  0.55912069  0.73702693  1
  F  F97  1  0.66591500  0.05912069  0.23702693  1
  F  F98  1  0.16591500  0.44087931  0.26297307  1
  F  F99  1  0.33408500  0.94087931  0.76297307  1
  F  F100  1  0.98595300  0.55448874  0.87622482  1
  F  F101  1  0.51404700  0.05448874  0.37622482  1
  F  F102  1  0.01404700  0.44551126  0.12377518  1
  F  F103  1  0.48595300  0.94551126  0.62377518  1
  F  F104  1  0.97292640  0.36011880  0.77129454  1
  F  F105  1  0.52707360  0.86011880  0.27129454  1
  F  F106  1  0.02707360  0.63988120  0.22870546  1
  F  F107  1  0.47292640  0.13988120  0.72870546  1
  F  F108  1  0.17793565  0.50472430  0.76799225  1
  F  F109  1  0.32206435  0.00472430  0.26799225  1
  F  F110  1  0.82206435  0.49527570  0.23200775  1
  F  F111  1  0.67793565  0.99527570  0.73200775  1
