# generated using pymatgen
data_Cs2MoO4
_symmetry_space_group_name_H-M   'P 1'
_cell_length_a   6.53833819
_cell_length_b   8.53671604
_cell_length_c   11.60642050
_cell_angle_alpha   90.00000000
_cell_angle_beta   90.00000000
_cell_angle_gamma   90.00000000
_symmetry_Int_Tables_number   1
_chemical_formula_structural   Cs2MoO4
_chemical_formula_sum   'Cs8 Mo4 O16'
_cell_volume   647.82322964
_cell_formula_units_Z   4
loop_
 _symmetry_equiv_pos_site_id
 _symmetry_equiv_pos_as_xyz
  1  'x, y, z'
loop_
 _atom_site_type_symbol
 _atom_site_label
 _atom_site_symmetry_multiplicity
 _atom_site_fract_x
 _atom_site_fract_y
 _atom_site_fract_z
 _atom_site_occupancy
  Cs  Cs0  1  0.25000000  0.17067709  0.91551815  1
  Cs  Cs1  1  0.25000000  0.67067709  0.58448185  1
  Cs  Cs2  1  0.75000000  0.82932291  0.08448185  1
  Cs  Cs3  1  0.75000000  0.32932291  0.41551815  1
  Cs  Cs4  1  0.25000000  0.49024912  0.20632551  1
  Cs  Cs5  1  0.25000000  0.99024912  0.29367449  1
  Cs  Cs6  1  0.75000000  0.50975088  0.79367449  1
  Cs  Cs7  1  0.75000000  0.00975088  0.70632551  1
  Mo  Mo8  1  0.25000000  0.72585258  0.92102364  1
  Mo  Mo9  1  0.25000000  0.22585258  0.57897636  1
  Mo  Mo10  1  0.75000000  0.27414742  0.07897636  1
  Mo  Mo11  1  0.75000000  0.77414742  0.42102364  1
  O  O12  1  0.25000000  0.51920274  0.91883619  1
  O  O13  1  0.25000000  0.01920274  0.58116381  1
  O  O14  1  0.75000000  0.48079726  0.08116381  1
  O  O15  1  0.75000000  0.98079726  0.41883619  1
  O  O16  1  0.25000000  0.79473525  0.06527511  1
  O  O17  1  0.25000000  0.29473525  0.43472489  1
  O  O18  1  0.75000000  0.20526475  0.93472489  1
  O  O19  1  0.75000000  0.70526475  0.56527511  1
  O  O20  1  0.02822158  0.79713709  0.85099425  1
  O  O21  1  0.47177842  0.29713709  0.64900575  1
  O  O22  1  0.52822158  0.20286291  0.14900575  1
  O  O23  1  0.97177842  0.70286291  0.35099425  1
  O  O24  1  0.97177842  0.20286291  0.14900575  1
  O  O25  1  0.52822158  0.70286291  0.35099425  1
  O  O26  1  0.47177842  0.79713709  0.85099425  1
  O  O27  1  0.02822158  0.29713709  0.64900575  1
