# generated using pymatgen
data_Li7Mn5O12
_symmetry_space_group_name_H-M   'P 1'
_cell_length_a   5.17011686
_cell_length_b   6.00771992
_cell_length_c   15.07946764
_cell_angle_alpha   95.60945242
_cell_angle_beta   95.74753891
_cell_angle_gamma   106.94414531
_symmetry_Int_Tables_number   1
_chemical_formula_structural   Li7Mn5O12
_chemical_formula_sum   'Li14 Mn10 O24'
_cell_volume   441.81031690
_cell_formula_units_Z   2
loop_
 _symmetry_equiv_pos_site_id
 _symmetry_equiv_pos_as_xyz
  1  'x, y, z'
loop_
 _atom_site_type_symbol
 _atom_site_label
 _atom_site_symmetry_multiplicity
 _atom_site_fract_x
 _atom_site_fract_y
 _atom_site_fract_z
 _atom_site_occupancy
  Li  Li0  1  0.33519300  0.16927100  0.33421100  1
  Li  Li1  1  0.83144700  0.65590900  0.83462600  1
  Li  Li2  1  0.57478400  0.17017000  0.08434600  1
  Li  Li3  1  0.07725900  0.65926000  0.58265100  1
  Li  Li4  1  0.57930000  0.65989400  0.08079500  1
  Li  Li5  1  0.08088500  0.16931200  0.58203400  1
  Li  Li6  1  0.76424200  0.01460200  0.25634700  1
  Li  Li7  1  0.26326900  0.51074400  0.75566900  1
  Li  Li8  1  0.92369500  0.33430700  0.41771600  1
  Li  Li9  1  0.41869600  0.82094500  0.91542400  1
  Li  Li10  1  0.91358800  0.82751500  0.41024500  1
  Li  Li11  1  0.41985700  0.33658700  0.91121400  1
  Li  Li12  1  0.74790000  0.50034300  0.25355700  1
  Li  Li13  1  0.25194400  0.99382500  0.75308100  1
  Mn  Mn14  1  0.83631200  0.15537400  0.83266800  1
  Mn  Mn15  1  0.32732000  0.66490200  0.33359200  1
  Mn  Mn16  1  0.49545700  0.49760600  0.49931200  1
  Mn  Mn17  1  0.98986800  0.99491600  0.99693200  1
  Mn  Mn18  1  0.17362900  0.84810200  0.16803300  1
  Mn  Mn19  1  0.68208600  0.33664400  0.66881800  1
  Mn  Mn20  1  0.49984900  0.00278500  0.49791600  1
  Mn  Mn21  1  0.99536600  0.50090900  0.99722800  1
  Mn  Mn22  1  0.16813300  0.34111200  0.16810000  1
  Mn  Mn23  1  0.66808200  0.82836200  0.66857600  1
  O  O24  1  0.27166000  0.35750100  0.04832300  1
  O  O25  1  0.75464900  0.82594100  0.54361900  1
  O  O26  1  0.91724600  0.51779100  0.12595500  1
  O  O27  1  0.41759200  0.00555300  0.62502100  1
  O  O28  1  0.41750000  0.17209300  0.20238400  1
  O  O29  1  0.92130400  0.66552700  0.70266600  1
  O  O30  1  0.24703000  0.17821800  0.46715600  1
  O  O31  1  0.72145200  0.64360500  0.96291200  1
  O  O32  1  0.60088600  0.97260000  0.37560200  1
  O  O33  1  0.10157700  0.46426200  0.87333000  1
  O  O34  1  0.05678200  0.35549600  0.28687600  1
  O  O35  1  0.56153900  0.84611900  0.78675800  1
  O  O36  1  0.27200000  0.85716000  0.04427900  1
  O  O37  1  0.80029700  0.33706300  0.55027600  1
  O  O38  1  0.88999500  0.04154200  0.12310300  1
  O  O39  1  0.39359100  0.53021200  0.62540100  1
  O  O40  1  0.44545300  0.64501300  0.21352600  1
  O  O41  1  0.94715300  0.13342200  0.71264600  1
  O  O42  1  0.19442200  0.66325200  0.44668800  1
  O  O43  1  0.71688500  0.14057300  0.94925700  1
  O  O44  1  0.58898900  0.51190200  0.37839200  1
  O  O45  1  0.09917700  0.00551000  0.87753400  1
  O  O46  1  0.07066100  0.82517600  0.28719700  1
  O  O47  1  0.57400000  0.31107600  0.78800600  1
