# generated using pymatgen
data_Cs2HgBr4
_symmetry_space_group_name_H-M   'P 1'
_cell_length_a   10.39349499
_cell_length_b   7.91583537
_cell_length_c   16.17319528
_cell_angle_alpha   60.85079463
_cell_angle_beta   90.00000000
_cell_angle_gamma   90.00000000
_symmetry_Int_Tables_number   1
_chemical_formula_structural   Cs2HgBr4
_chemical_formula_sum   'Cs8 Hg4 Br16'
_cell_volume   1162.10301194
_cell_formula_units_Z   4
loop_
 _symmetry_equiv_pos_site_id
 _symmetry_equiv_pos_as_xyz
  1  'x, y, z'
loop_
 _atom_site_type_symbol
 _atom_site_label
 _atom_site_symmetry_multiplicity
 _atom_site_fract_x
 _atom_site_fract_y
 _atom_site_fract_z
 _atom_site_occupancy
  Cs  Cs0  1  0.38445796  0.83866692  0.39755526  1
  Cs  Cs1  1  0.61554204  0.16133308  0.60244474  1
  Cs  Cs2  1  0.11554204  0.83866692  0.89755526  1
  Cs  Cs3  1  0.88445796  0.16133308  0.10244474  1
  Cs  Cs4  1  0.51411634  0.40639536  0.82949267  1
  Cs  Cs5  1  0.48588366  0.59360464  0.17050733  1
  Cs  Cs6  1  0.98588366  0.40639536  0.32949267  1
  Cs  Cs7  1  0.01411634  0.59360464  0.67050733  1
  Hg  Hg8  1  0.27908153  0.17924700  0.07468452  1
  Hg  Hg9  1  0.72091847  0.82075300  0.92531548  1
  Hg  Hg10  1  0.22091847  0.17924700  0.57468452  1
  Hg  Hg11  1  0.77908153  0.82075300  0.42531548  1
  Br  Br12  1  0.52990657  0.15269706  0.08914117  1
  Br  Br13  1  0.47009343  0.84730294  0.91085883  1
  Br  Br14  1  0.97009343  0.15269706  0.58914117  1
  Br  Br15  1  0.02990657  0.84730294  0.41085883  1
  Br  Br16  1  0.17165503  0.30200458  0.90609917  1
  Br  Br17  1  0.82834497  0.69799542  0.09390083  1
  Br  Br18  1  0.32834497  0.30200458  0.40609917  1
  Br  Br19  1  0.67165503  0.69799542  0.59390083  1
  Br  Br20  1  0.17551785  0.40827902  0.13341388  1
  Br  Br21  1  0.82448215  0.59172098  0.86658612  1
  Br  Br22  1  0.32448215  0.40827902  0.63341388  1
  Br  Br23  1  0.67551785  0.59172098  0.36658612  1
  Br  Br24  1  0.18749999  0.82850522  0.18913440  1
  Br  Br25  1  0.81250001  0.17149478  0.81086560  1
  Br  Br26  1  0.31250001  0.82850522  0.68913440  1
  Br  Br27  1  0.68749999  0.17149478  0.31086560  1
