# generated using pymatgen
data_Mn2CrPb2O9
_symmetry_space_group_name_H-M   'P 1'
_cell_length_a   5.01566017
_cell_length_b   7.55881202
_cell_length_c   10.34569768
_cell_angle_alpha   91.69689682
_cell_angle_beta   99.05798338
_cell_angle_gamma   109.32744795
_symmetry_Int_Tables_number   1
_chemical_formula_structural   Mn2CrPb2O9
_chemical_formula_sum   'Mn4 Cr2 Pb4 O18'
_cell_volume   364.10173313
_cell_formula_units_Z   2
loop_
 _symmetry_equiv_pos_site_id
 _symmetry_equiv_pos_as_xyz
  1  'x, y, z'
loop_
 _atom_site_type_symbol
 _atom_site_label
 _atom_site_symmetry_multiplicity
 _atom_site_fract_x
 _atom_site_fract_y
 _atom_site_fract_z
 _atom_site_occupancy
  Mn  Mn0  1  0.40154851  0.80450644  0.50138434  1
  Mn  Mn1  1  0.59845149  0.19549356  0.49861566  1
  Mn  Mn2  1  0.80381810  0.60606545  0.50674750  1
  Mn  Mn3  1  0.19618190  0.39393455  0.49325250  1
  Cr  Cr4  1  0.18914145  0.76650532  0.04796271  1
  Cr  Cr5  1  0.81085855  0.23349468  0.95203729  1
  Pb  Pb6  1  0.89563871  0.96016310  0.25805830  1
  Pb  Pb7  1  0.10436129  0.03983690  0.74194170  1
  Pb  Pb8  1  0.50846484  0.38958464  0.17940689  1
  Pb  Pb9  1  0.49153516  0.61041536  0.82059311  1
  O  O10  1  0.45175676  0.67610743  0.06745180  1
  O  O11  1  0.54824324  0.32389257  0.93254820  1
  O  O12  1  0.94832436  0.65158998  0.13193461  1
  O  O13  1  0.05167564  0.34841002  0.86806539  1
  O  O14  1  0.05176672  0.73883629  0.88777165  1
  O  O15  1  0.94823328  0.26116371  0.11222835  1
  O  O16  1  0.30708166  0.98918119  0.10586928  1
  O  O17  1  0.69291834  0.01081881  0.89413072  1
  O  O18  1  0.17117834  0.61025889  0.59785321  1
  O  O19  1  0.82882166  0.38974111  0.40214679  1
  O  O20  1  0.55495447  0.40731663  0.59647793  1
  O  O21  1  0.44504553  0.59268337  0.40352207  1
  O  O22  1  0.57810126  0.98503596  0.39577320  1
  O  O23  1  0.42189874  0.01496404  0.60422680  1
  O  O24  1  0.74147478  0.78718605  0.60981774  1
  O  O25  1  0.25852522  0.21281395  0.39018226  1
  O  O26  1  0.03175519  0.77103592  0.40995369  1
  O  O27  1  0.96824481  0.22896408  0.59004631  1
