# generated using pymatgen
data_K3Lu(PO4)2
_symmetry_space_group_name_H-M   'P 1'
_cell_length_a   9.55407681
_cell_length_b   9.55407709
_cell_length_c   7.60832200
_cell_angle_alpha   90.00000000
_cell_angle_beta   90.00000000
_cell_angle_gamma   120.00000381
_symmetry_Int_Tables_number   1
_chemical_formula_structural   K3Lu(PO4)2
_chemical_formula_sum   'K9 Lu3 P6 O24'
_cell_volume   601.44645498
_cell_formula_units_Z   3
loop_
 _symmetry_equiv_pos_site_id
 _symmetry_equiv_pos_as_xyz
  1  'x, y, z'
loop_
 _atom_site_type_symbol
 _atom_site_label
 _atom_site_symmetry_multiplicity
 _atom_site_fract_x
 _atom_site_fract_y
 _atom_site_fract_z
 _atom_site_occupancy
  K  K0  1  0.33476249  0.33289378  0.24795762  1
  K  K1  1  0.99813130  0.66523751  0.24795762  1
  K  K2  1  0.66710622  0.00186870  0.24795762  1
  K  K3  1  0.66523751  0.66710622  0.75204238  1
  K  K4  1  0.00186870  0.33476249  0.75204238  1
  K  K5  1  0.33289378  0.99813130  0.75204238  1
  K  K6  1  0.33333300  0.66666700  0.50784552  1
  K  K7  1  0.66666700  0.33333300  0.49215548  1
  K  K8  1  0.00000000  0.00000000  0.50000000  1
  Lu  Lu9  1  0.33333300  0.66666700  0.03438188  1
  Lu  Lu10  1  0.66666700  0.33333300  0.96561812  1
  Lu  Lu11  1  0.00000000  0.00000000  0.00000000  1
  P  P12  1  0.32769926  0.34039839  0.76769534  1
  P  P13  1  0.01269813  0.67230074  0.76769534  1
  P  P14  1  0.65960161  0.98730187  0.76769534  1
  P  P15  1  0.67230074  0.65960161  0.23230466  1
  P  P16  1  0.98730187  0.32769926  0.23230466  1
  P  P17  1  0.34039839  0.01269813  0.23230466  1
  O  O18  1  0.33764666  0.47821990  0.88451935  1
  O  O19  1  0.14057424  0.66235334  0.88451935  1
  O  O20  1  0.52178010  0.85942576  0.88451935  1
  O  O21  1  0.66235334  0.52178010  0.11548065  1
  O  O22  1  0.85942576  0.33764666  0.11548065  1
  O  O23  1  0.47821990  0.14057424  0.11548065  1
  O  O24  1  0.48555336  0.33499506  0.78951662  1
  O  O25  1  0.84944270  0.51444664  0.78951662  1
  O  O26  1  0.66500494  0.15055730  0.78951662  1
  O  O27  1  0.51444664  0.66500494  0.21048338  1
  O  O28  1  0.15055730  0.48555336  0.21048338  1
  O  O29  1  0.33499506  0.84944270  0.21048338  1
  O  O30  1  0.18577933  0.17792386  0.83280246  1
  O  O31  1  0.99214453  0.81422067  0.83280246  1
  O  O32  1  0.82207614  0.00785547  0.83280246  1
  O  O33  1  0.81422067  0.82207614  0.16719754  1
  O  O34  1  0.00785547  0.18577933  0.16719754  1
  O  O35  1  0.17792386  0.99214453  0.16719754  1
  O  O36  1  0.36942101  0.07119044  0.41997165  1
  O  O37  1  0.92880956  0.29823256  0.41997165  1
  O  O38  1  0.70176744  0.63057899  0.41997165  1
  O  O39  1  0.63057899  0.92880956  0.58002835  1
  O  O40  1  0.07119044  0.70176744  0.58002835  1
  O  O41  1  0.29823256  0.36942101  0.58002835  1
