# generated using pymatgen
data_Na2CeO3
_symmetry_space_group_name_H-M   'P 1'
_cell_length_a   5.99928546
_cell_length_b   5.99928546
_cell_length_c   11.06323138
_cell_angle_alpha   95.23536586
_cell_angle_beta   95.23536586
_cell_angle_gamma   120.09437301
_symmetry_Int_Tables_number   1
_chemical_formula_structural   Na2CeO3
_chemical_formula_sum   'Na8 Ce4 O12'
_cell_volume   338.70484202
_cell_formula_units_Z   4
loop_
 _symmetry_equiv_pos_site_id
 _symmetry_equiv_pos_as_xyz
  1  'x, y, z'
loop_
 _atom_site_type_symbol
 _atom_site_label
 _atom_site_symmetry_multiplicity
 _atom_site_fract_x
 _atom_site_fract_y
 _atom_site_fract_z
 _atom_site_occupancy
  Na  Na0  1  0.18582606  0.84268187  0.50032908  1
  Na  Na1  1  0.65731813  0.31417394  -0.00032908  1
  Na  Na2  1  0.81417394  0.15731813  0.49967092  1
  Na  Na3  1  0.34268187  0.68582606  0.00032908  1
  Na  Na4  1  0.50000000  0.50000000  0.50000000  1
  Na  Na5  1  0.00000000  -0.00000000  -0.00000000  1
  Na  Na6  1  0.41566681  0.08433319  0.25000000  1
  Na  Na7  1  0.58433319  0.91566681  0.75000000  1
  Ce  Ce8  1  0.75016831  0.74983169  0.25000000  1
  Ce  Ce9  1  0.24983169  0.25016831  0.75000000  1
  Ce  Ce10  1  0.08271461  0.41728539  0.25000000  1
  Ce  Ce11  1  0.91728539  0.58271461  0.75000000  1
  O  O12  1  0.45457010  0.76091262  0.36190202  1
  O  O13  1  0.73908738  0.04542990  0.13809798  1
  O  O14  1  0.54542990  0.23908738  0.63809798  1
  O  O15  1  0.26091262  0.95457010  0.86190202  1
  O  O16  1  0.09056675  0.12061291  0.35919756  1
  O  O17  1  0.37938709  0.40943325  0.14080244  1
  O  O18  1  0.90943325  0.87938709  0.64080244  1
  O  O19  1  0.62061291  0.59056675  0.85919756  1
  O  O20  1  0.81495649  0.48186402  0.35924000  1
  O  O21  1  0.01813598  0.68504351  0.14076000  1
  O  O22  1  0.18504351  0.51813598  0.64076000  1
  O  O23  1  0.98186402  0.31495649  0.85924000  1
