# generated using pymatgen
data_Lu2ZnS4
_symmetry_space_group_name_H-M   'P 1'
_cell_length_a   6.22192107
_cell_length_b   7.67312108
_cell_length_c   13.19955691
_cell_angle_alpha   90.00000000
_cell_angle_beta   90.00000000
_cell_angle_gamma   90.00000000
_symmetry_Int_Tables_number   1
_chemical_formula_structural   Lu2ZnS4
_chemical_formula_sum   'Lu8 Zn4 S16'
_cell_volume   630.16735530
_cell_formula_units_Z   4
loop_
 _symmetry_equiv_pos_site_id
 _symmetry_equiv_pos_as_xyz
  1  'x, y, z'
loop_
 _atom_site_type_symbol
 _atom_site_label
 _atom_site_symmetry_multiplicity
 _atom_site_fract_x
 _atom_site_fract_y
 _atom_site_fract_z
 _atom_site_occupancy
  Lu  Lu0  1  0.50000000  0.50000000  0.50000000  1
  Lu  Lu1  1  0.00000000  0.50000000  0.00000000  1
  Lu  Lu2  1  0.50000000  -0.00000000  0.50000000  1
  Lu  Lu3  1  0.00000000  -0.00000000  0.00000000  1
  Lu  Lu4  1  0.00283871  0.75000000  0.26507068  1
  Lu  Lu5  1  0.50283871  0.25000000  0.23492932  1
  Lu  Lu6  1  0.99716129  0.25000000  0.73492932  1
  Lu  Lu7  1  0.49716129  0.75000000  0.76507068  1
  Zn  Zn8  1  0.58696658  0.75000000  0.09178854  1
  Zn  Zn9  1  0.08696658  0.25000000  0.40821146  1
  Zn  Zn10  1  0.41303342  0.25000000  0.90821146  1
  Zn  Zn11  1  0.91303342  0.75000000  0.59178854  1
  S  S12  1  0.25755474  0.48985017  0.33174262  1
  S  S13  1  0.75755474  0.51014983  0.16825738  1
  S  S14  1  0.74244526  0.98985017  0.66825738  1
  S  S15  1  0.24244526  0.01014983  0.83174262  1
  S  S16  1  0.74244526  0.51014983  0.66825738  1
  S  S17  1  0.24244526  0.48985017  0.83174262  1
  S  S18  1  0.25755474  0.01014983  0.33174262  1
  S  S19  1  0.75755474  0.98985017  0.16825738  1
  S  S20  1  0.74500634  0.75000000  0.92840311  1
  S  S21  1  0.24500634  0.25000000  0.57159689  1
  S  S22  1  0.25499366  0.25000000  0.07159689  1
  S  S23  1  0.75499366  0.75000000  0.42840311  1
  S  S24  1  0.22189565  0.75000000  0.08994923  1
  S  S25  1  0.72189565  0.25000000  0.41005077  1
  S  S26  1  0.77810435  0.25000000  0.91005077  1
  S  S27  1  0.27810435  0.75000000  0.58994923  1
