# generated using pymatgen
data_Rb2CaNb2(TeO6)2
_symmetry_space_group_name_H-M   'P 1'
_cell_length_a   7.49324953
_cell_length_b   7.19130708
_cell_length_c   8.20135276
_cell_angle_alpha   90.00000000
_cell_angle_beta   65.61934488
_cell_angle_gamma   118.67576045
_symmetry_Int_Tables_number   1
_chemical_formula_structural   Rb2CaNb2(TeO6)2
_chemical_formula_sum   'Rb2 Ca1 Nb2 Te2 O12'
_cell_volume   342.13720051
_cell_formula_units_Z   1
loop_
 _symmetry_equiv_pos_site_id
 _symmetry_equiv_pos_as_xyz
  1  'x, y, z'
loop_
 _atom_site_type_symbol
 _atom_site_label
 _atom_site_symmetry_multiplicity
 _atom_site_fract_x
 _atom_site_fract_y
 _atom_site_fract_z
 _atom_site_occupancy
  Rb  Rb0  1  0.74544100  0.37272000  0.36717100  1
  Rb  Rb1  1  0.09003500  0.54501700  0.78453600  1
  Ca  Ca2  1  0.48717600  0.74358700  0.28753300  1
  Nb  Nb3  1  0.53226600  0.51867000  0.91979900  1
  Nb  Nb4  1  0.53226600  0.01359600  0.91979900  1
  Te  Te5  1  0.11802800  0.05901400  0.48336300  1
  Te  Te6  1  0.00041200  0.00020600  0.98780600  1
  O  O7  1  0.85658100  0.92829000  0.24827600  1
  O  O8  1  0.56411100  0.28205600  0.98554400  1
  O  O9  1  0.21258500  0.90681400  0.96130300  1
  O  O10  1  0.31772900  0.36762400  0.39005200  1
  O  O11  1  0.21258500  0.30577100  0.96130300  1
  O  O12  1  0.31772900  0.95010500  0.39005200  1
  O  O13  1  0.14671300  0.07335700  0.71326000  1
  O  O14  1  0.40132000  0.70066000  0.03576100  1
  O  O15  1  0.77522600  0.07795200  0.00197600  1
  O  O16  1  0.69835800  0.61627200  0.67376300  1
  O  O17  1  0.77522600  0.69727300  0.00197600  1
  O  O18  1  0.69835800  0.08208700  0.67376300  1
