# generated using pymatgen
data_Gd3Se3N
_symmetry_space_group_name_H-M   'P 1'
_cell_length_a   4.00144105
_cell_length_b   12.65259632
_cell_length_c   13.22567041
_cell_angle_alpha   90.00000000
_cell_angle_beta   90.00000000
_cell_angle_gamma   90.00000000
_symmetry_Int_Tables_number   1
_chemical_formula_structural   Gd3Se3N
_chemical_formula_sum   'Gd12 Se12 N4'
_cell_volume   669.59741900
_cell_formula_units_Z   4
loop_
 _symmetry_equiv_pos_site_id
 _symmetry_equiv_pos_as_xyz
  1  'x, y, z'
loop_
 _atom_site_type_symbol
 _atom_site_label
 _atom_site_symmetry_multiplicity
 _atom_site_fract_x
 _atom_site_fract_y
 _atom_site_fract_z
 _atom_site_occupancy
  Gd  Gd0  1  0.25000000  0.06558900  0.36751457  1
  Gd  Gd1  1  0.25000000  0.56558900  0.13248543  1
  Gd  Gd2  1  0.75000000  0.93441100  0.63248543  1
  Gd  Gd3  1  0.75000000  0.43441100  0.86751457  1
  Gd  Gd4  1  0.25000000  0.70527548  0.35922383  1
  Gd  Gd5  1  0.25000000  0.20527548  0.14077617  1
  Gd  Gd6  1  0.75000000  0.29472452  0.64077617  1
  Gd  Gd7  1  0.75000000  0.79472452  0.85922383  1
  Gd  Gd8  1  0.25000000  0.54253084  0.65097343  1
  Gd  Gd9  1  0.25000000  0.04253084  0.84902657  1
  Gd  Gd10  1  0.75000000  0.45746916  0.34902657  1
  Gd  Gd11  1  0.75000000  0.95746916  0.15097343  1
  Se  Se12  1  0.25000000  0.87032182  0.99488720  1
  Se  Se13  1  0.25000000  0.37032182  0.50511280  1
  Se  Se14  1  0.75000000  0.12967818  0.00511280  1
  Se  Se15  1  0.75000000  0.62967818  0.49488720  1
  Se  Se16  1  0.25000000  0.09490676  0.60433627  1
  Se  Se17  1  0.25000000  0.59490676  0.89566373  1
  Se  Se18  1  0.75000000  0.90509324  0.39566373  1
  Se  Se19  1  0.75000000  0.40509324  0.10433627  1
  Se  Se20  1  0.25000000  0.77572667  0.68850269  1
  Se  Se21  1  0.25000000  0.27572667  0.81149731  1
  Se  Se22  1  0.75000000  0.22427333  0.31149731  1
  Se  Se23  1  0.75000000  0.72427333  0.18850269  1
  N  N24  1  0.25000000  0.03844908  0.20343365  1
  N  N25  1  0.25000000  0.53844908  0.29656635  1
  N  N26  1  0.75000000  0.96155092  0.79656635  1
  N  N27  1  0.75000000  0.46155092  0.70343365  1
