# generated using pymatgen
data_Rb2NdI5
_symmetry_space_group_name_H-M   'P 1'
_cell_length_a   9.35556503
_cell_length_b   10.01095027
_cell_length_c   14.80339678
_cell_angle_alpha   90.00000000
_cell_angle_beta   90.00000000
_cell_angle_gamma   90.00000000
_symmetry_Int_Tables_number   1
_chemical_formula_structural   Rb2NdI5
_chemical_formula_sum   'Rb8 Nd4 I20'
_cell_volume   1386.45796064
_cell_formula_units_Z   4
loop_
 _symmetry_equiv_pos_site_id
 _symmetry_equiv_pos_as_xyz
  1  'x, y, z'
loop_
 _atom_site_type_symbol
 _atom_site_label
 _atom_site_symmetry_multiplicity
 _atom_site_fract_x
 _atom_site_fract_y
 _atom_site_fract_z
 _atom_site_occupancy
  Rb  Rb0  1  0.93844796  0.00421873  0.82747151  1
  Rb  Rb1  1  0.06155204  0.99578127  0.17252849  1
  Rb  Rb2  1  0.43844796  0.99578127  0.67252849  1
  Rb  Rb3  1  0.06155204  0.50421873  0.17252849  1
  Rb  Rb4  1  0.56155204  0.00421873  0.32747151  1
  Rb  Rb5  1  0.93844796  0.49578127  0.82747151  1
  Rb  Rb6  1  0.56155204  0.49578127  0.32747151  1
  Rb  Rb7  1  0.43844796  0.50421873  0.67252849  1
  Nd  Nd8  1  0.92068019  0.75000000  0.50519423  1
  Nd  Nd9  1  0.07931981  0.25000000  0.49480577  1
  Nd  Nd10  1  0.42068019  0.25000000  0.99480577  1
  Nd  Nd11  1  0.57931981  0.75000000  0.00519423  1
  I  I12  1  0.11935770  0.75000000  0.67926171  1
  I  I13  1  0.88064230  0.25000000  0.32073829  1
  I  I14  1  0.61935770  0.25000000  0.82073829  1
  I  I15  1  0.38064230  0.75000000  0.17926171  1
  I  I16  1  0.83251448  0.04534890  0.57306815  1
  I  I17  1  0.16748552  0.95465110  0.42693185  1
  I  I18  1  0.33251448  0.95465110  0.92693185  1
  I  I19  1  0.16748552  0.54534890  0.42693185  1
  I  I20  1  0.66748552  0.04534890  0.07306815  1
  I  I21  1  0.83251448  0.45465110  0.57306815  1
  I  I22  1  0.66748552  0.45465110  0.07306815  1
  I  I23  1  0.33251448  0.54534890  0.92693185  1
  I  I24  1  0.57505428  0.75000000  0.50957524  1
  I  I25  1  0.42494572  0.25000000  0.49042476  1
  I  I26  1  0.07505428  0.25000000  0.99042476  1
  I  I27  1  0.92494572  0.75000000  0.00957524  1
  I  I28  1  0.65669524  0.75000000  0.79715161  1
  I  I29  1  0.34330476  0.25000000  0.20284839  1
  I  I30  1  0.15669524  0.25000000  0.70284839  1
  I  I31  1  0.84330476  0.75000000  0.29715161  1
