# generated using pymatgen
data_KTlSe2
_symmetry_space_group_name_H-M   'P 1'
_cell_length_a   6.76856402
_cell_length_b   6.76856459
_cell_length_c   6.76871458
_cell_angle_alpha   106.11769907
_cell_angle_beta   106.11772797
_cell_angle_gamma   116.40992710
_symmetry_Int_Tables_number   1
_chemical_formula_structural   KTlSe2
_chemical_formula_sum   'K2 Tl2 Se4'
_cell_volume   236.05517997
_cell_formula_units_Z   2
loop_
 _symmetry_equiv_pos_site_id
 _symmetry_equiv_pos_as_xyz
  1  'x, y, z'
loop_
 _atom_site_type_symbol
 _atom_site_label
 _atom_site_symmetry_multiplicity
 _atom_site_fract_x
 _atom_site_fract_y
 _atom_site_fract_z
 _atom_site_occupancy
  K  K0  1  0.75000094  0.74999981  0.00000008  1
  K  K1  1  0.24999873  0.24999967  -0.00000047  1
  Tl  Tl2  1  0.74999313  0.24999328  0.50000263  1
  Tl  Tl3  1  0.25000675  0.75000669  0.49999718  1
  Se  Se4  1  0.82358320  0.32358330  0.14719539  1
  Se  Se5  1  0.17641693  0.67641690  0.85280478  1
  Se  Se6  1  0.67639925  0.82360119  0.50000027  1
  Se  Se7  1  0.32360105  0.17639917  0.50000014  1
