# generated using pymatgen
data_Cs2NaAs7
_symmetry_space_group_name_H-M   'P 1'
_cell_length_a   11.01809919
_cell_length_b   10.31019227
_cell_length_c   11.88530038
_cell_angle_alpha   90.00855719
_cell_angle_beta   90.00000000
_cell_angle_gamma   90.00000000
_symmetry_Int_Tables_number   1
_chemical_formula_structural   Cs2NaAs7
_chemical_formula_sum   'Cs8 Na4 As28'
_cell_volume   1350.15490776
_cell_formula_units_Z   4
loop_
 _symmetry_equiv_pos_site_id
 _symmetry_equiv_pos_as_xyz
  1  'x, y, z'
loop_
 _atom_site_type_symbol
 _atom_site_label
 _atom_site_symmetry_multiplicity
 _atom_site_fract_x
 _atom_site_fract_y
 _atom_site_fract_z
 _atom_site_occupancy
  Cs  Cs0  1  0.29745596  0.46169782  0.98849899  1
  Cs  Cs1  1  0.79745596  0.03830218  0.01150101  1
  Cs  Cs2  1  0.70254404  0.53830218  0.01150101  1
  Cs  Cs3  1  0.20254404  0.96169782  0.98849899  1
  Cs  Cs4  1  0.00396724  0.35061970  0.73374404  1
  Cs  Cs5  1  0.50396724  0.14938030  0.26625596  1
  Cs  Cs6  1  -0.00396724  0.64938030  0.26625596  1
  Cs  Cs7  1  0.49603276  0.85061970  0.73374404  1
  Na  Na8  1  0.19801806  0.05547020  0.46462940  1
  Na  Na9  1  0.69801806  0.44452980  0.53537060  1
  Na  Na10  1  0.80198194  0.94452980  0.53537060  1
  Na  Na11  1  0.30198194  0.55547020  0.46462940  1
  As  As12  1  0.50046613  0.17810085  0.90268015  1
  As  As13  1  0.00046613  0.32189915  0.09731985  1
  As  As14  1  0.49953387  0.82189915  0.09731985  1
  As  As15  1  -0.00046613  0.67810085  0.90268015  1
  As  As16  1  0.65263088  0.28439448  0.78745610  1
  As  As17  1  0.15263088  0.21560552  0.21254390  1
  As  As18  1  0.34736912  0.71560552  0.21254390  1
  As  As19  1  0.84736912  0.78439448  0.78745610  1
  As  As20  1  0.33421542  0.18839150  0.77857648  1
  As  As21  1  0.83421542  0.31160850  0.22142352  1
  As  As22  1  0.66578458  0.81160850  0.22142352  1
  As  As23  1  0.16578458  0.68839150  0.77857648  1
  As  As24  1  0.95320847  0.98529947  0.74251527  1
  As  As25  1  0.45320847  0.51470053  0.25748473  1
  As  As26  1  0.04679153  0.01470053  0.25748473  1
  As  As27  1  0.54679153  0.48529947  0.74251527  1
  As  As28  1  0.36591737  0.39810961  0.67019622  1
  As  As29  1  0.86591737  0.10189039  0.32980378  1
  As  As30  1  0.63408263  0.60189039  0.32980378  1
  As  As31  1  0.13408263  0.89810961  0.67019622  1
  As  As32  1  0.42489091  0.18675226  0.58369871  1
  As  As33  1  0.92489091  0.31324774  0.41630129  1
  As  As34  1  0.57510909  0.81324774  0.41630129  1
  As  As35  1  0.07510909  0.68675226  0.58369871  1
  As  As36  1  0.13613190  0.33183849  0.38881090  1
  As  As37  1  0.63613190  0.16816151  0.61118910  1
  As  As38  1  0.86386810  0.66816151  0.61118910  1
  As  As39  1  0.36386810  0.83183849  0.38881090  1
