# generated using pymatgen
data_Mo2WS6
_symmetry_space_group_name_H-M   'P 1'
_cell_length_a   3.18412586
_cell_length_b   3.18412586
_cell_length_c   28.36234547
_cell_angle_alpha   90.00000000
_cell_angle_beta   90.00000000
_cell_angle_gamma   120.00001444
_symmetry_Int_Tables_number   1
_chemical_formula_structural   Mo2WS6
_chemical_formula_sum   'Mo2 W1 S6'
_cell_volume   249.03085614
_cell_formula_units_Z   1
loop_
 _symmetry_equiv_pos_site_id
 _symmetry_equiv_pos_as_xyz
  1  'x, y, z'
loop_
 _atom_site_type_symbol
 _atom_site_label
 _atom_site_symmetry_multiplicity
 _atom_site_fract_x
 _atom_site_fract_y
 _atom_site_fract_z
 _atom_site_occupancy
  Mo  Mo0  1  0.33333300  0.66666700  0.76912005  1
  Mo  Mo1  1  0.33333300  0.66666700  0.23087995  1
  W  W2  1  0.66666700  0.33333300  -0.00000000  1
  S  S3  1  0.33333300  0.66666700  0.05500936  1
  S  S4  1  0.66666700  0.33333300  0.71444015  1
  S  S5  1  0.66666700  0.33333300  0.17616647  1
  S  S6  1  0.66666700  0.33333300  0.82383353  1
  S  S7  1  0.66666700  0.33333300  0.28555985  1
  S  S8  1  0.33333300  0.66666700  0.94499064  1
