# generated using pymatgen
data_CaCr4(PO4)4
_symmetry_space_group_name_H-M   'P 1'
_cell_length_a   9.42253303
_cell_length_b   5.64988679
_cell_length_c   6.46114547
_cell_angle_alpha   100.96598441
_cell_angle_beta   104.00251906
_cell_angle_gamma   81.24303481
_symmetry_Int_Tables_number   1
_chemical_formula_structural   CaCr4(PO4)4
_chemical_formula_sum   'Ca1 Cr4 P4 O16'
_cell_volume   325.60880377
_cell_formula_units_Z   1
loop_
 _symmetry_equiv_pos_site_id
 _symmetry_equiv_pos_as_xyz
  1  'x, y, z'
loop_
 _atom_site_type_symbol
 _atom_site_label
 _atom_site_symmetry_multiplicity
 _atom_site_fract_x
 _atom_site_fract_y
 _atom_site_fract_z
 _atom_site_occupancy
  Ca  Ca0  1  0.32240700  0.94112200  0.06548200  1
  Cr  Cr1  1  0.07150700  0.30838500  0.33958700  1
  Cr  Cr2  1  0.28986400  0.86257400  0.55013000  1
  Cr  Cr3  1  0.70834800  0.13401600  0.44137400  1
  Cr  Cr4  1  0.91496600  0.69210500  0.66616600  1
  P  P5  1  0.03638700  0.19253200  0.78703000  1
  P  P6  1  0.40656800  0.30190000  0.64921900  1
  P  P7  1  0.59507400  0.69650200  0.35413600  1
  P  P8  1  0.96270200  0.80654600  0.21306500  1
  O  O9  1  0.07138400  0.38477400  0.66849800  1
  O  O10  1  0.12603800  0.94142400  0.71455900  1
  O  O11  1  0.10256600  0.24489900  0.03168800  1
  O  O12  1  0.13554800  0.81661300  0.26665500  1
  O  O13  1  0.29754800  0.17995300  0.43313200  1
  O  O14  1  0.39897300  0.11664400  0.79872300  1
  O  O15  1  0.34490500  0.56774000  0.72178500  1
  O  O16  1  0.43099500  0.70681900  0.36905300  1
  O  O17  1  0.55800900  0.29308100  0.60551100  1
  O  O18  1  0.65710400  0.43518000  0.28974900  1
  O  O19  1  0.58612500  0.88566300  0.19876300  1
  O  O20  1  0.69647700  0.82593000  0.56293800  1
  O  O21  1  0.87037500  0.17323300  0.72739600  1
  O  O22  1  0.91015700  0.72597800  0.97490700  1
  O  O23  1  0.88689000  0.05902400  0.29818400  1
  O  O24  1  0.93158400  0.62403000  0.34518500  1
