# generated using pymatgen
data_In6Te10Pb
_symmetry_space_group_name_H-M   'P 1'
_cell_length_a   10.92520828
_cell_length_b   10.92520828
_cell_length_c   10.82129236
_cell_angle_alpha   89.82032890
_cell_angle_beta   89.82032890
_cell_angle_gamma   88.89562885
_symmetry_Int_Tables_number   1
_chemical_formula_structural   In6Te10Pb
_chemical_formula_sum   'In12 Te20 Pb2'
_cell_volume   1291.37897472
_cell_formula_units_Z   2
loop_
 _symmetry_equiv_pos_site_id
 _symmetry_equiv_pos_as_xyz
  1  'x, y, z'
loop_
 _atom_site_type_symbol
 _atom_site_label
 _atom_site_symmetry_multiplicity
 _atom_site_fract_x
 _atom_site_fract_y
 _atom_site_fract_z
 _atom_site_occupancy
  In  In0  1  0.74370781  0.17545484  0.33184814  1
  In  In1  1  0.16972806  0.33858596  0.74520942  1
  In  In2  1  0.34383868  0.74405310  0.17229917  1
  In  In3  1  0.25594690  0.65616132  0.82770083  1
  In  In4  1  0.82454516  0.25629219  0.66815186  1
  In  In5  1  0.66141404  0.83027194  0.25479058  1
  In  In6  1  0.84548324  0.87643708  0.57573860  1
  In  In7  1  0.86980826  0.57031986  0.84069427  1
  In  In8  1  0.57636129  0.84298771  0.87844646  1
  In  In9  1  0.15701229  0.42363871  0.12155354  1
  In  In10  1  0.12356292  0.15451676  0.42426140  1
  In  In11  1  0.42968014  0.13019174  0.15930573  1
  Te  Te12  1  0.17109400  0.82890600  0.00000000  1
  Te  Te13  1  0.82443036  -0.00088681  0.16195168  1
  Te  Te14  1  0.00088681  0.17556964  0.83804832  1
  Te  Te15  1  0.83442411  0.83098228  0.83530302  1
  Te  Te16  1  0.16901772  0.16557589  0.16469698  1
  Te  Te17  1  0.77088735  0.67644391  0.43219288  1
  Te  Te18  1  0.67468398  0.44614044  0.74564996  1
  Te  Te19  1  0.43225218  0.76711943  0.67778572  1
  Te  Te20  1  0.23288057  0.56774782  0.32221428  1
  Te  Te21  1  0.32355609  0.22911265  0.56780712  1
  Te  Te22  1  0.55385956  0.32531602  0.25435004  1
  Te  Te23  1  0.08967150  0.91032850  0.50000000  1
  Te  Te24  1  0.91312884  0.50190065  0.08909458  1
  Te  Te25  1  0.49809935  0.08687116  0.91090542  1
  Te  Te26  1  0.67283907  0.07025285  0.56773495  1
  Te  Te27  1  0.06998359  0.56926836  0.66872123  1
  Te  Te28  1  0.57237329  0.66535391  0.07067359  1
  Te  Te29  1  0.33464609  0.42762671  0.92932641  1
  Te  Te30  1  0.92974715  0.32716093  0.43226505  1
  Te  Te31  1  0.43073164  0.93001641  0.33127877  1
  Pb  Pb32  1  0.26432187  0.00410791  0.75012492  1
  Pb  Pb33  1  0.99589209  0.73567813  0.24987508  1
