# generated using pymatgen
data_PrV2IO9
_symmetry_space_group_name_H-M   'P 1'
_cell_length_a   7.05114900
_cell_length_b   7.24510842
_cell_length_c   14.54448389
_cell_angle_alpha   90.00000000
_cell_angle_beta   90.00000000
_cell_angle_gamma   90.00000000
_symmetry_Int_Tables_number   1
_chemical_formula_structural   PrV2IO9
_chemical_formula_sum   'Pr4 V8 I4 O36'
_cell_volume   743.02443445
_cell_formula_units_Z   4
loop_
 _symmetry_equiv_pos_site_id
 _symmetry_equiv_pos_as_xyz
  1  'x, y, z'
loop_
 _atom_site_type_symbol
 _atom_site_label
 _atom_site_symmetry_multiplicity
 _atom_site_fract_x
 _atom_site_fract_y
 _atom_site_fract_z
 _atom_site_occupancy
  Pr  Pr0  1  0.85094905  0.25000000  0.95273528  1
  Pr  Pr1  1  0.14905095  0.75000000  0.04726472  1
  Pr  Pr2  1  0.85094905  0.75000000  0.54726472  1
  Pr  Pr3  1  0.14905095  0.25000000  0.45273528  1
  V  V4  1  0.46526831  -0.00000000  0.25000000  1
  V  V5  1  0.53473169  0.50000000  0.75000000  1
  V  V6  1  0.53473169  -0.00000000  0.75000000  1
  V  V7  1  0.46526831  0.50000000  0.25000000  1
  V  V8  1  0.81901844  0.25000000  0.22856681  1
  V  V9  1  0.18098156  0.75000000  0.77143319  1
  V  V10  1  0.81901844  0.75000000  0.27143319  1
  V  V11  1  0.18098156  0.25000000  0.72856681  1
  I  I12  1  0.29646411  0.25000000  0.05614501  1
  I  I13  1  0.70353589  0.75000000  0.94385499  1
  I  I14  1  0.29646411  0.75000000  0.44385499  1
  I  I15  1  0.70353589  0.25000000  0.55614501  1
  O  O16  1  0.17504277  0.07145748  0.98959325  1
  O  O17  1  0.82495723  0.57145748  0.01040675  1
  O  O18  1  0.17504277  0.92854252  0.51040675  1
  O  O19  1  0.82495723  0.42854252  0.48959325  1
  O  O20  1  0.82495723  0.92854252  0.01040675  1
  O  O21  1  0.17504277  0.42854252  0.98959325  1
  O  O22  1  0.82495723  0.07145748  0.48959325  1
  O  O23  1  0.17504277  0.57145748  0.51040675  1
  O  O24  1  0.52406772  0.25000000  0.00232454  1
  O  O25  1  0.47593228  0.75000000  0.99767546  1
  O  O26  1  0.52406772  0.75000000  0.49767546  1
  O  O27  1  0.47593228  0.25000000  0.50232454  1
  O  O28  1  0.33138425  0.95636569  0.15791102  1
  O  O29  1  0.66861575  0.45636569  0.84208898  1
  O  O30  1  0.33138425  0.04363431  0.34208898  1
  O  O31  1  0.66861575  0.54363431  0.65791102  1
  O  O32  1  0.66861575  0.04363431  0.84208898  1
  O  O33  1  0.33138425  0.54363431  0.15791102  1
  O  O34  1  0.66861575  0.95636569  0.65791102  1
  O  O35  1  0.33138425  0.45636569  0.34208898  1
  O  O36  1  0.53215851  0.75000000  0.27844066  1
  O  O37  1  0.46784149  0.25000000  0.72155934  1
  O  O38  1  0.53215851  0.25000000  0.22155934  1
  O  O39  1  0.46784149  0.75000000  0.77844066  1
  O  O40  1  0.73971653  -0.00000000  0.25000000  1
  O  O41  1  0.26028347  0.50000000  0.75000000  1
  O  O42  1  0.26028347  -0.00000000  0.75000000  1
  O  O43  1  0.73971653  0.50000000  0.25000000  1
  O  O44  1  0.98951474  0.25000000  0.30610667  1
  O  O45  1  0.01048526  0.75000000  0.69389333  1
  O  O46  1  0.98951474  0.75000000  0.19389333  1
  O  O47  1  0.01048526  0.25000000  0.80610667  1
  O  O48  1  0.91797008  0.25000000  0.12494226  1
  O  O49  1  0.08202992  0.75000000  0.87505774  1
  O  O50  1  0.91797008  0.75000000  0.37505774  1
  O  O51  1  0.08202992  0.25000000  0.62494226  1
