# generated using pymatgen
data_Cs3DyO3
_symmetry_space_group_name_H-M   'P 1'
_cell_length_a   14.82176866
_cell_length_b   7.45905377
_cell_length_c   7.85258114
_cell_angle_alpha   63.73518574
_cell_angle_beta   90.00000000
_cell_angle_gamma   90.00000000
_symmetry_Int_Tables_number   1
_chemical_formula_structural   Cs3DyO3
_chemical_formula_sum   'Cs12 Dy4 O12'
_cell_volume   778.52333157
_cell_formula_units_Z   4
loop_
 _symmetry_equiv_pos_site_id
 _symmetry_equiv_pos_as_xyz
  1  'x, y, z'
loop_
 _atom_site_type_symbol
 _atom_site_label
 _atom_site_symmetry_multiplicity
 _atom_site_fract_x
 _atom_site_fract_y
 _atom_site_fract_z
 _atom_site_occupancy
  Cs  Cs0  1  0.95802807  0.49036780  0.26918592  1
  Cs  Cs1  1  0.69024637  0.40696159  0.46552607  1
  Cs  Cs2  1  0.20192908  0.64620768  0.07427922  1
  Cs  Cs3  1  0.54197193  0.99036780  0.26918592  1
  Cs  Cs4  1  0.80975363  0.90696159  0.46552607  1
  Cs  Cs5  1  0.29807092  0.14620768  0.07427922  1
  Cs  Cs6  1  0.79807092  0.35379232  0.92572078  1
  Cs  Cs7  1  0.30975363  0.59303841  0.53447393  1
  Cs  Cs8  1  0.04197193  0.50963220  0.73081408  1
  Cs  Cs9  1  0.70192908  0.85379232  0.92572078  1
  Cs  Cs10  1  0.19024637  0.09303841  0.53447393  1
  Cs  Cs11  1  0.45802807  0.00963220  0.73081408  1
  Dy  Dy12  1  0.44059766  0.51509903  0.16473905  1
  Dy  Dy13  1  0.05940234  0.01509903  0.16473905  1
  Dy  Dy14  1  0.55940234  0.48490097  0.83526095  1
  Dy  Dy15  1  0.94059766  0.98490097  0.83526095  1
  O  O16  1  0.58417593  0.47454749  0.11322150  1
  O  O17  1  0.86750782  0.22585223  0.62780876  1
  O  O18  1  0.91582407  0.97454749  0.11322150  1
  O  O19  1  0.63249218  0.72585223  0.62780876  1
  O  O20  1  0.59973226  0.21636518  0.82981336  1
  O  O21  1  0.90026774  0.71636518  0.82981336  1
  O  O22  1  0.40026774  0.78363482  0.17018664  1
  O  O23  1  0.09973226  0.28363482  0.17018664  1
  O  O24  1  0.13249218  0.77414777  0.37219124  1
  O  O25  1  0.41582407  0.52545251  0.88677850  1
  O  O26  1  0.36750782  0.27414777  0.37219124  1
  O  O27  1  0.08417593  0.02545251  0.88677850  1
