# generated using pymatgen
data_Ho2ZrS5
_symmetry_space_group_name_H-M   'P 1'
_cell_length_a   7.23651322
_cell_length_b   7.70784225
_cell_length_c   11.55825331
_cell_angle_alpha   90.00000000
_cell_angle_beta   90.00000000
_cell_angle_gamma   90.00000000
_symmetry_Int_Tables_number   1
_chemical_formula_structural   Ho2ZrS5
_chemical_formula_sum   'Ho8 Zr4 S20'
_cell_volume   644.69512434
_cell_formula_units_Z   4
loop_
 _symmetry_equiv_pos_site_id
 _symmetry_equiv_pos_as_xyz
  1  'x, y, z'
loop_
 _atom_site_type_symbol
 _atom_site_label
 _atom_site_symmetry_multiplicity
 _atom_site_fract_x
 _atom_site_fract_y
 _atom_site_fract_z
 _atom_site_occupancy
  Ho  Ho0  1  0.51961219  0.49713844  0.32057454  1
  Ho  Ho1  1  0.98038781  0.00286156  0.82057454  1
  Ho  Ho2  1  0.48038781  0.99713844  0.67942546  1
  Ho  Ho3  1  0.01961219  0.50286156  0.17942546  1
  Ho  Ho4  1  0.48038781  0.50286156  0.67942546  1
  Ho  Ho5  1  0.01961219  0.99713844  0.17942546  1
  Ho  Ho6  1  0.51961219  0.00286156  0.32057454  1
  Ho  Ho7  1  0.98038781  0.49713844  0.82057454  1
  Zr  Zr8  1  0.07772256  0.75000000  0.49422617  1
  Zr  Zr9  1  0.42227744  0.75000000  0.99422617  1
  Zr  Zr10  1  0.92227744  0.25000000  0.50577383  1
  Zr  Zr11  1  0.57772256  0.25000000  0.00577383  1
  S  S12  1  0.83963230  0.96318049  0.59581536  1
  S  S13  1  0.66036770  0.53681951  0.09581536  1
  S  S14  1  0.16036770  0.46318049  0.40418464  1
  S  S15  1  0.33963230  0.03681951  0.90418464  1
  S  S16  1  0.16036770  0.03681951  0.40418464  1
  S  S17  1  0.33963230  0.46318049  0.90418464  1
  S  S18  1  0.83963230  0.53681951  0.59581536  1
  S  S19  1  0.66036770  0.96318049  0.09581536  1
  S  S20  1  0.83024423  0.75000000  0.31809527  1
  S  S21  1  0.66975577  0.75000000  0.81809527  1
  S  S22  1  0.16975577  0.25000000  0.68190473  1
  S  S23  1  0.33024423  0.25000000  0.18190473  1
  S  S24  1  0.44990976  0.75000000  0.49748478  1
  S  S25  1  0.05009024  0.75000000  0.99748478  1
  S  S26  1  0.55009024  0.25000000  0.50251522  1
  S  S27  1  0.94990976  0.25000000  0.00251522  1
  S  S28  1  0.19208005  0.75000000  0.70862173  1
  S  S29  1  0.30791995  0.75000000  0.20862173  1
  S  S30  1  0.80791995  0.25000000  0.29137827  1
  S  S31  1  0.69208005  0.25000000  0.79137827  1
