# generated using pymatgen
data_CsMnO4
_symmetry_space_group_name_H-M   'P 1'
_cell_length_a   5.78906139
_cell_length_b   7.95344873
_cell_length_c   9.95472390
_cell_angle_alpha   90.00000000
_cell_angle_beta   90.00000000
_cell_angle_gamma   90.00000000
_symmetry_Int_Tables_number   1
_chemical_formula_structural   CsMnO4
_chemical_formula_sum   'Cs4 Mn4 O16'
_cell_volume   458.34538200
_cell_formula_units_Z   4
loop_
 _symmetry_equiv_pos_site_id
 _symmetry_equiv_pos_as_xyz
  1  'x, y, z'
loop_
 _atom_site_type_symbol
 _atom_site_label
 _atom_site_symmetry_multiplicity
 _atom_site_fract_x
 _atom_site_fract_y
 _atom_site_fract_z
 _atom_site_occupancy
  Cs  Cs0  1  0.25000000  0.84670392  0.81090204  1
  Cs  Cs1  1  0.75000000  0.15329608  0.18909796  1
  Cs  Cs2  1  0.75000000  0.34670392  0.68909796  1
  Cs  Cs3  1  0.25000000  0.65329608  0.31090204  1
  Mn  Mn4  1  0.25000000  0.29440612  0.94926733  1
  Mn  Mn5  1  0.75000000  0.70559388  0.05073267  1
  Mn  Mn6  1  0.75000000  0.79440612  0.55073267  1
  Mn  Mn7  1  0.25000000  0.20559388  0.44926733  1
  O  O8  1  0.52433133  0.81761301  0.07931189  1
  O  O9  1  0.02433133  0.18238699  0.92068811  1
  O  O10  1  0.47566867  0.31761301  0.42068811  1
  O  O11  1  0.97566867  0.68238699  0.57931189  1
  O  O12  1  0.47566867  0.18238699  0.92068811  1
  O  O13  1  0.97566867  0.81761301  0.07931189  1
  O  O14  1  0.52433133  0.68238699  0.57931189  1
  O  O15  1  0.02433133  0.31761301  0.42068811  1
  O  O16  1  0.25000000  0.04614576  0.35095206  1
  O  O17  1  0.75000000  0.95385424  0.64904794  1
  O  O18  1  0.75000000  0.54614576  0.14904794  1
  O  O19  1  0.25000000  0.45385424  0.85095206  1
  O  O20  1  0.25000000  0.14752623  0.60341049  1
  O  O21  1  0.75000000  0.85247377  0.39658951  1
  O  O22  1  0.75000000  0.64752623  0.89658951  1
  O  O23  1  0.25000000  0.35247377  0.10341049  1
