# generated using pymatgen
data_Ba2Ga2S5
_symmetry_space_group_name_H-M   'P 1'
_cell_length_a   10.74977484
_cell_length_b   10.74977484
_cell_length_c   8.63227046
_cell_angle_alpha   78.60327049
_cell_angle_beta   78.60327049
_cell_angle_gamma   87.48536461
_symmetry_Int_Tables_number   1
_chemical_formula_structural   Ba2Ga2S5
_chemical_formula_sum   'Ba8 Ga8 S20'
_cell_volume   958.56320114
_cell_formula_units_Z   4
loop_
 _symmetry_equiv_pos_site_id
 _symmetry_equiv_pos_as_xyz
  1  'x, y, z'
loop_
 _atom_site_type_symbol
 _atom_site_label
 _atom_site_symmetry_multiplicity
 _atom_site_fract_x
 _atom_site_fract_y
 _atom_site_fract_z
 _atom_site_occupancy
  Ba  Ba0  1  0.01516908  0.28157617  0.60986391  1
  Ba  Ba1  1  0.71842383  0.98483092  0.89013609  1
  Ba  Ba2  1  0.98483092  0.71842383  0.39013609  1
  Ba  Ba3  1  0.28157617  0.01516908  0.10986391  1
  Ba  Ba4  1  0.42933765  0.27144503  0.60773195  1
  Ba  Ba5  1  0.72855497  0.57066235  0.89226805  1
  Ba  Ba6  1  0.57066235  0.72855497  0.39226805  1
  Ba  Ba7  1  0.27144503  0.42933765  0.10773195  1
  Ga  Ga8  1  0.23213668  0.62398085  0.61859397  1
  Ga  Ga9  1  0.37601915  0.76786332  0.88140603  1
  Ga  Ga10  1  0.76786332  0.37601915  0.38140603  1
  Ga  Ga11  1  0.62398085  0.23213668  0.11859397  1
  Ga  Ga12  1  0.22763997  0.97912378  0.58566578  1
  Ga  Ga13  1  0.02087622  0.77236003  0.91433422  1
  Ga  Ga14  1  0.77236003  0.02087622  0.41433422  1
  Ga  Ga15  1  0.97912378  0.22763997  0.08566578  1
  S  S16  1  0.96806729  0.03193271  0.25000000  1
  S  S17  1  0.03193271  0.96806729  0.75000000  1
  S  S18  1  0.03440940  0.61162222  0.77080581  1
  S  S19  1  0.38837778  0.96559060  0.72919419  1
  S  S20  1  0.96559060  0.38837778  0.22919419  1
  S  S21  1  0.61162222  0.03440940  0.27080581  1
  S  S22  1  0.23946101  0.48399465  0.46033107  1
  S  S23  1  0.51600535  0.76053899  0.03966893  1
  S  S24  1  0.76053899  0.51600535  0.53966893  1
  S  S25  1  0.48399465  0.23946101  0.96033107  1
  S  S26  1  0.83612110  0.74672970  0.09157806  1
  S  S27  1  0.25327030  0.16387890  0.40842194  1
  S  S28  1  0.16387890  0.25327030  0.90842194  1
  S  S29  1  0.74672970  0.83612110  0.59157806  1
  S  S30  1  0.26178795  0.81716270  0.44469621  1
  S  S31  1  0.18283730  0.73821205  0.05530379  1
  S  S32  1  0.40108297  0.59891703  0.75000000  1
  S  S33  1  0.59891703  0.40108297  0.25000000  1
  S  S34  1  0.81716270  0.26178795  0.94469621  1
  S  S35  1  0.73821205  0.18283730  0.55530379  1
