# generated using pymatgen
data_Mn2As2O7
_symmetry_space_group_name_H-M   'P 1'
_cell_length_a   5.35231600
_cell_length_b   5.35231610
_cell_length_c   9.63236294
_cell_angle_alpha   98.44642737
_cell_angle_beta   98.44642179
_cell_angle_gamma   103.58260601
_symmetry_Int_Tables_number   1
_chemical_formula_structural   Mn2As2O7
_chemical_formula_sum   'Mn4 As4 O14'
_cell_volume   260.55077439
_cell_formula_units_Z   2
loop_
 _symmetry_equiv_pos_site_id
 _symmetry_equiv_pos_as_xyz
  1  'x, y, z'
loop_
 _atom_site_type_symbol
 _atom_site_label
 _atom_site_symmetry_multiplicity
 _atom_site_fract_x
 _atom_site_fract_y
 _atom_site_fract_z
 _atom_site_occupancy
  Mn  Mn0  1  0.68624671  0.31375329  0.75000000  1
  Mn  Mn1  1  0.31375329  0.68624671  0.25000000  1
  Mn  Mn2  1  0.68624671  0.31375329  0.25000000  1
  Mn  Mn3  1  0.31375329  0.68624671  0.75000000  1
  As  As4  1  0.76846841  0.76846841  0.04909465  1
  As  As5  1  0.76846841  0.76846841  0.54909465  1
  As  As6  1  0.23153159  0.23153159  0.45090535  1
  As  As7  1  0.23153159  0.23153159  0.95090535  1
  O  O8  1  0.00000000  0.00000000  0.00000000  1
  O  O9  1  0.00000000  0.00000000  0.50000000  1
  O  O10  1  0.59718561  0.59718561  0.38277777  1
  O  O11  1  0.59718561  0.59718561  0.88277777  1
  O  O12  1  0.40281439  0.40281439  0.11722223  1
  O  O13  1  0.40281439  0.40281439  0.61722223  1
  O  O14  1  0.93871475  0.59748770  0.14356424  1
  O  O15  1  0.93871475  0.59748770  0.64356424  1
  O  O16  1  0.40251230  0.06128525  0.35643576  1
  O  O17  1  0.40251230  0.06128525  0.85643576  1
  O  O18  1  0.06128525  0.40251230  0.35643576  1
  O  O19  1  0.06128525  0.40251230  0.85643576  1
  O  O20  1  0.59748770  0.93871475  0.14356424  1
  O  O21  1  0.59748770  0.93871475  0.64356424  1
