# generated using pymatgen
data_La3SiN4F
_symmetry_space_group_name_H-M   'P 1'
_cell_length_a   6.89298354
_cell_length_b   7.73452882
_cell_length_c   9.92799918
_cell_angle_alpha   90.00000000
_cell_angle_beta   90.00000000
_cell_angle_gamma   90.00000000
_symmetry_Int_Tables_number   1
_chemical_formula_structural   La3SiN4F
_chemical_formula_sum   'La12 Si4 N16 F4'
_cell_volume   529.30114819
_cell_formula_units_Z   4
loop_
 _symmetry_equiv_pos_site_id
 _symmetry_equiv_pos_as_xyz
  1  'x, y, z'
loop_
 _atom_site_type_symbol
 _atom_site_label
 _atom_site_symmetry_multiplicity
 _atom_site_fract_x
 _atom_site_fract_y
 _atom_site_fract_z
 _atom_site_occupancy
  La  La0  1  0.90046190  0.52534774  0.33776280  1
  La  La1  1  0.59953810  0.97465226  0.83776280  1
  La  La2  1  0.09953810  0.02534774  0.66223720  1
  La  La3  1  0.40046190  0.47465226  0.16223720  1
  La  La4  1  0.09953810  0.47465226  0.66223720  1
  La  La5  1  0.40046190  0.02534774  0.16223720  1
  La  La6  1  0.90046190  0.97465226  0.33776280  1
  La  La7  1  0.59953810  0.52534774  0.83776280  1
  La  La8  1  0.41392085  0.75000000  0.46637625  1
  La  La9  1  0.08607915  0.75000000  0.96637625  1
  La  La10  1  0.58607915  0.25000000  0.53362375  1
  La  La11  1  0.91392085  0.25000000  0.03362375  1
  Si  Si12  1  0.69086461  0.75000000  0.10627122  1
  Si  Si13  1  0.80913539  0.75000000  0.60627122  1
  Si  Si14  1  0.30913539  0.25000000  0.89372878  1
  Si  Si15  1  0.19086461  0.25000000  0.39372878  1
  N  N16  1  0.80915089  0.55662716  0.07721897  1
  N  N17  1  0.69084911  0.94337284  0.57721897  1
  N  N18  1  0.19084911  0.05662716  0.92278103  1
  N  N19  1  0.30915089  0.44337284  0.42278103  1
  N  N20  1  0.19084911  0.44337284  0.92278103  1
  N  N21  1  0.30915089  0.05662716  0.42278103  1
  N  N22  1  0.80915089  0.94337284  0.07721897  1
  N  N23  1  0.69084911  0.55662716  0.57721897  1
  N  N24  1  0.47962115  0.75000000  0.00738885  1
  N  N25  1  0.02037885  0.75000000  0.50738885  1
  N  N26  1  0.52037885  0.25000000  0.99261115  1
  N  N27  1  0.97962115  0.25000000  0.49261115  1
  N  N28  1  0.62682052  0.75000000  0.27666163  1
  N  N29  1  0.87317948  0.75000000  0.77666163  1
  N  N30  1  0.37317948  0.25000000  0.72333837  1
  N  N31  1  0.12682052  0.25000000  0.22333837  1
  F  F32  1  0.16140891  0.75000000  0.22607068  1
  F  F33  1  0.33859109  0.75000000  0.72607068  1
  F  F34  1  0.83859109  0.25000000  0.77392932  1
  F  F35  1  0.66140891  0.25000000  0.27392932  1
