# generated using pymatgen
data_MgZn4(Se2O5)4
_symmetry_space_group_name_H-M   'P 1'
_cell_length_a   6.27451174
_cell_length_b   6.94482404
_cell_length_c   11.02094260
_cell_angle_alpha   85.54288205
_cell_angle_beta   94.12971637
_cell_angle_gamma   92.38502803
_symmetry_Int_Tables_number   1
_chemical_formula_structural   MgZn4(Se2O5)4
_chemical_formula_sum   'Mg1 Zn4 Se8 O20'
_cell_volume   477.23288755
_cell_formula_units_Z   1
loop_
 _symmetry_equiv_pos_site_id
 _symmetry_equiv_pos_as_xyz
  1  'x, y, z'
loop_
 _atom_site_type_symbol
 _atom_site_label
 _atom_site_symmetry_multiplicity
 _atom_site_fract_x
 _atom_site_fract_y
 _atom_site_fract_z
 _atom_site_occupancy
  Mg  Mg0  1  0.98184066  0.11356091  0.75972203  1
  Zn  Zn1  1  0.69892065  0.05570328  0.96420799  1
  Zn  Zn2  1  0.25496266  0.46435719  0.55378372  1
  Zn  Zn3  1  0.18418516  0.03920945  0.08028844  1
  Zn  Zn4  1  0.74375809  0.48495551  0.43822992  1
  Se  Se5  1  0.02649470  0.45896562  0.88948265  1
  Se  Se6  1  0.50107065  0.13030211  0.65739284  1
  Se  Se7  1  0.04500771  0.81787082  0.62561683  1
  Se  Se8  1  0.51429565  0.63730674  0.84635923  1
  Se  Se9  1  0.92656360  0.64516828  0.16130192  1
  Se  Se10  1  0.44427292  0.86548030  0.33935956  1
  Se  Se11  1  0.00862021  0.12605870  0.34770780  1
  Se  Se12  1  0.49125704  0.37153283  0.16361960  1
  O  O13  1  0.86347128  0.98983097  0.57322866  1
  O  O14  1  0.28504663  0.53297909  0.95021707  1
  O  O15  1  0.24726770  0.99251054  0.41932709  1
  O  O16  1  0.68928005  0.52126658  0.08242027  1
  O  O17  1  0.25692645  0.21550516  0.69321665  1
  O  O18  1  0.67986577  0.20298516  0.77737788  1
  O  O19  1  0.97547000  0.81072235  0.77730895  1
  O  O20  1  0.39329076  0.63564762  0.70624245  1
  O  O21  1  0.82154054  0.69774882  0.29202595  1
  O  O22  1  0.29983340  0.81415062  0.20680931  1
  O  O23  1  0.10663543  0.21114452  0.21181804  1
  O  O24  1  0.63448049  0.29517805  0.29304981  1
  O  O25  1  0.03846970  0.33122957  0.42469379  1
  O  O26  1  0.49343319  0.16923043  0.07405859  1
  O  O27  1  0.90668000  0.86119915  0.07100289  1
  O  O28  1  0.44080994  0.64945550  0.42596161  1
  O  O29  1  0.96167702  0.59078856  0.57052250  1
  O  O30  1  0.48560293  0.86800534  0.88734187  1
  O  O31  1  0.01382623  0.18461318  0.93779702  1
  O  O32  1  0.53826778  0.32181807  0.54850707  1
