# generated using pymatgen
data_Eu(AlSe2)2
_symmetry_space_group_name_H-M   'P 1'
_cell_length_a   6.27890693
_cell_length_b   6.27890500
_cell_length_c   10.94081642
_cell_angle_alpha   90.00000000
_cell_angle_beta   90.00000000
_cell_angle_gamma   120.58796299
_symmetry_Int_Tables_number   1
_chemical_formula_structural   Eu(AlSe2)2
_chemical_formula_sum   'Eu2 Al4 Se8'
_cell_volume   371.31683750
_cell_formula_units_Z   2
loop_
 _symmetry_equiv_pos_site_id
 _symmetry_equiv_pos_as_xyz
  1  'x, y, z'
loop_
 _atom_site_type_symbol
 _atom_site_label
 _atom_site_symmetry_multiplicity
 _atom_site_fract_x
 _atom_site_fract_y
 _atom_site_fract_z
 _atom_site_occupancy
  Eu  Eu0  1  0.50000000  0.50000000  0.25000000  1
  Eu  Eu1  1  0.50000000  0.50000000  0.75000000  1
  Al  Al2  1  0.75845510  0.23950673  0.50000000  1
  Al  Al3  1  0.24154490  0.76049327  0.50000000  1
  Al  Al4  1  0.76049327  0.24154490  0.00000000  1
  Al  Al5  1  0.23950673  0.75845510  0.00000000  1
  Se  Se6  1  0.81820376  0.65148294  0.50000000  1
  Se  Se7  1  0.18179624  0.34851706  0.50000000  1
  Se  Se8  1  0.34851706  0.18179624  0.00000000  1
  Se  Se9  1  0.65148294  0.81820376  0.00000000  1
  Se  Se10  1  -0.00000000  0.50000000  0.16699163  1
  Se  Se11  1  0.50000000  0.00000000  0.33300837  1
  Se  Se12  1  -0.00000000  0.50000000  0.83300837  1
  Se  Se13  1  0.50000000  0.00000000  0.66699163  1
