# generated using pymatgen
data_Na2B4O7
_symmetry_space_group_name_H-M   'P 1'
_cell_length_a   6.50786174
_cell_length_b   8.61043796
_cell_length_c   10.40948701
_cell_angle_alpha   92.98035177
_cell_angle_beta   95.00825890
_cell_angle_gamma   90.40832008
_symmetry_Int_Tables_number   1
_chemical_formula_structural   Na2B4O7
_chemical_formula_sum   'Na8 B16 O28'
_cell_volume   580.24840840
_cell_formula_units_Z   4
loop_
 _symmetry_equiv_pos_site_id
 _symmetry_equiv_pos_as_xyz
  1  'x, y, z'
loop_
 _atom_site_type_symbol
 _atom_site_label
 _atom_site_symmetry_multiplicity
 _atom_site_fract_x
 _atom_site_fract_y
 _atom_site_fract_z
 _atom_site_occupancy
  Na  Na0  1  0.55263416  0.08073837  0.14341538  1
  Na  Na1  1  0.44736584  0.91926163  0.85658462  1
  Na  Na2  1  0.53407874  0.54176386  0.76794703  1
  Na  Na3  1  0.46592126  0.45823614  0.23205297  1
  Na  Na4  1  0.82536450  0.65989245  0.98264470  1
  Na  Na5  1  0.17463550  0.34010755  0.01735530  1
  Na  Na6  1  0.88962989  0.87115391  0.38550127  1
  Na  Na7  1  0.11037011  0.12884609  0.61449873  1
  B  B8  1  0.65490852  0.24084307  0.59235446  1
  B  B9  1  0.34509148  0.75915693  0.40764554  1
  B  B10  1  0.61178028  0.82263817  0.57662664  1
  B  B11  1  0.38821972  0.17736183  0.42337336  1
  B  B12  1  0.94564052  0.44748560  0.27888850  1
  B  B13  1  0.05435948  0.55251440  0.72111150  1
  B  B14  1  0.84467966  0.05598914  0.86981614  1
  B  B15  1  0.15532034  0.94401086  0.13018386  1
  B  B16  1  0.88384454  0.31562462  0.80160513  1
  B  B17  1  0.11615546  0.68437538  0.19839487  1
  B  B18  1  0.74750856  0.23946500  0.36762428  1
  B  B19  1  0.25249144  0.76053500  0.63237572  1
  B  B20  1  0.93160819  0.82385917  0.73087132  1
  B  B21  1  0.06839181  0.17614083  0.26912868  1
  B  B22  1  0.67080253  0.27942596  0.97708793  1
  B  B23  1  0.32919747  0.72057404  0.02291207  1
  O  O24  1  0.85667987  0.13536758  0.28468559  1
  O  O25  1  0.80122987  0.22018920  0.50790710  1
  O  O26  1  0.21947026  0.59693342  0.65941611  1
  O  O27  1  0.78052974  0.40306658  0.34058389  1
  O  O28  1  0.47673544  0.79257193  0.66431703  1
  O  O29  1  0.19877013  0.77981080  0.49209290  1
  O  O30  1  0.30837784  0.69359466  0.28654008  1
  O  O31  1  0.69162216  0.30640534  0.71345992  1
  O  O32  1  0.03214089  0.84268919  0.18497953  1
  O  O33  1  0.96785911  0.15731081  0.81502047  1
  O  O34  1  0.18456716  0.62369646  0.07299017  1
  O  O35  1  0.81543284  0.37630354  0.92700983  1
  O  O36  1  0.05073213  0.40289837  0.75867117  1
  O  O37  1  0.94926787  0.59710163  0.24132883  1
  O  O38  1  0.44996193  0.19572788  0.55518852  1
  O  O39  1  0.55003807  0.80427212  0.44481148  1
  O  O40  1  0.30527400  0.88606309  0.05334202  1
  O  O41  1  0.69472600  0.11393691  0.94665798  1
  O  O42  1  0.47651334  0.67903876  0.95122658  1
  O  O43  1  0.52348666  0.32096124  0.04877342  1
  O  O44  1  0.90186748  0.65474676  0.75047837  1
  O  O45  1  0.09813252  0.34525324  0.24952163  1
  O  O46  1  0.80907838  0.86748932  0.61029511  1
  O  O47  1  0.19092162  0.13251068  0.38970489  1
  O  O48  1  0.85112399  0.90003439  0.84747008  1
  O  O49  1  0.14887601  0.09996561  0.15252992  1
  O  O50  1  0.52326456  0.20742807  0.33568297  1
  O  O51  1  0.14332013  0.86463242  0.71531441  1
