# generated using pymatgen
data_K8MgMn4O16
_symmetry_space_group_name_H-M   'P 1'
_cell_length_a   5.86074755
_cell_length_b   8.11455406
_cell_length_c   12.22853760
_cell_angle_alpha   91.04263304
_cell_angle_beta   116.08327944
_cell_angle_gamma   91.13076637
_symmetry_Int_Tables_number   1
_chemical_formula_structural   K8MgMn4O16
_chemical_formula_sum   'K8 Mg1 Mn4 O16'
_cell_volume   521.99313758
_cell_formula_units_Z   1
loop_
 _symmetry_equiv_pos_site_id
 _symmetry_equiv_pos_as_xyz
  1  'x, y, z'
loop_
 _atom_site_type_symbol
 _atom_site_label
 _atom_site_symmetry_multiplicity
 _atom_site_fract_x
 _atom_site_fract_y
 _atom_site_fract_z
 _atom_site_occupancy
  K  K0  1  0.17683800  0.75597000  0.90389000  1
  K  K1  1  0.44251300  0.54997800  0.66715400  1
  K  K2  1  0.18794200  0.80362100  0.40105900  1
  K  K3  1  0.54093800  0.01160600  0.78937200  1
  K  K4  1  0.50529500  0.99945000  0.23992700  1
  K  K5  1  0.84765700  0.19859400  0.60948000  1
  K  K6  1  0.51674800  0.49826200  0.25891900  1
  K  K7  1  0.90263900  0.20710100  0.14047300  1
  Mg  Mg8  1  0.62557800  0.46193700  0.94145500  1
  Mn  Mn9  1  0.13444300  0.26069700  0.92611300  1
  Mn  Mn10  1  0.17084500  0.26647000  0.43844600  1
  Mn  Mn11  1  0.83822500  0.74083500  0.56463000  1
  Mn  Mn12  1  0.85708400  0.73281800  0.07541200  1
  O  O13  1  0.12244500  0.08260500  0.84965800  1
  O  O14  1  0.25878600  0.41734900  0.86908400  1
  O  O15  1  0.31016200  0.23172400  0.58744600  1
  O  O16  1  0.13957300  0.80903500  0.63568100  1
  O  O17  1  0.23778000  0.45937600  0.41727900  1
  O  O18  1  0.27537800  0.13248400  0.36696300  1
  O  O19  1  0.81912300  0.30037000  0.90014200  1
  O  O20  1  0.71088300  0.69448900  0.91446600  1
  O  O21  1  0.31584500  0.24676500  0.07851000  1
  O  O22  1  0.17582400  0.75237200  0.13347100  1
  O  O23  1  0.66385500  0.84664900  0.61666200  1
  O  O24  1  0.82582400  0.54231100  0.59004000  1
  O  O25  1  0.85647400  0.23942700  0.37988100  1
  O  O26  1  0.72382300  0.76801900  0.41451500  1
  O  O27  1  0.76878300  0.54270400  0.11437300  1
  O  O28  1  0.72577900  0.89698400  0.10883400  1
