# generated using pymatgen
data_DyNbO4
_symmetry_space_group_name_H-M   'P 1'
_cell_length_a   5.20981749
_cell_length_b   5.21075240
_cell_length_c   6.61444608
_cell_angle_alpha   113.20825355
_cell_angle_beta   113.20759868
_cell_angle_gamma   89.98143671
_symmetry_Int_Tables_number   1
_chemical_formula_structural   DyNbO4
_chemical_formula_sum   'Dy2 Nb2 O8'
_cell_volume   149.10415988
_cell_formula_units_Z   2
loop_
 _symmetry_equiv_pos_site_id
 _symmetry_equiv_pos_as_xyz
  1  'x, y, z'
loop_
 _atom_site_type_symbol
 _atom_site_label
 _atom_site_symmetry_multiplicity
 _atom_site_fract_x
 _atom_site_fract_y
 _atom_site_fract_z
 _atom_site_occupancy
  Dy  Dy0  1  0.62499998  0.87500859  0.25000113  1
  Dy  Dy1  1  0.37500012  0.12499115  0.74999892  1
  Nb  Nb2  1  0.12496969  0.37501632  0.25001021  1
  Nb  Nb3  1  0.87503002  0.62498436  0.74999048  1
  O  O4  1  0.78313107  0.46524973  0.06843840  1
  O  O5  1  0.28514047  0.10314700  0.06839526  1
  O  O6  1  0.96537298  0.78517094  0.56847308  1
  O  O7  1  0.60305919  0.28313426  0.56838478  1
  O  O8  1  0.21686828  0.53475049  0.93156209  1
  O  O9  1  0.71485788  0.89685282  0.93160430  1
  O  O10  1  0.03462669  0.21482812  0.43152623  1
  O  O11  1  0.39694163  0.71686622  0.43161612  1
