# generated using pymatgen
data_MgSn8(P2O9)2
_symmetry_space_group_name_H-M   'P 1'
_cell_length_a   10.04199942
_cell_length_b   8.34847075
_cell_length_c   8.34268776
_cell_angle_alpha   54.16990801
_cell_angle_beta   74.63888850
_cell_angle_gamma   90.21286054
_symmetry_Int_Tables_number   1
_chemical_formula_structural   MgSn8(P2O9)2
_chemical_formula_sum   'Mg1 Sn8 P4 O18'
_cell_volume   535.39851884
_cell_formula_units_Z   1
loop_
 _symmetry_equiv_pos_site_id
 _symmetry_equiv_pos_as_xyz
  1  'x, y, z'
loop_
 _atom_site_type_symbol
 _atom_site_label
 _atom_site_symmetry_multiplicity
 _atom_site_fract_x
 _atom_site_fract_y
 _atom_site_fract_z
 _atom_site_occupancy
  Mg  Mg0  1  0.50000000  0.50000000  0.00000000  1
  Sn  Sn1  1  0.10021206  0.26489138  0.15719888  1
  Sn  Sn2  1  0.08517231  0.24708743  0.73871392  1
  Sn  Sn3  1  0.42870117  0.49206529  0.69165808  1
  Sn  Sn4  1  0.42597930  0.04228187  0.79504188  1
  Sn  Sn5  1  0.57402070  0.95771813  0.20495812  1
  Sn  Sn6  1  0.57129883  0.50793471  0.30834192  1
  Sn  Sn7  1  0.91482769  0.75291257  0.26128608  1
  Sn  Sn8  1  0.89978794  0.73510862  0.84280112  1
  P  P9  1  0.32116332  0.00797546  0.44316680  1
  P  P10  1  0.20676478  0.57674651  0.22439983  1
  P  P11  1  0.79323522  0.42325349  0.77560017  1
  P  P12  1  0.67883668  0.99202454  0.55683320  1
  O  O13  1  0.04522346  0.53897729  0.26343775  1
  O  O14  1  0.35557006  0.79864402  0.51758221  1
  O  O15  1  0.18338683  0.03163913  0.38911979  1
  O  O16  1  0.23386058  0.47483104  0.43583495  1
  O  O17  1  0.27040997  0.80330638  0.08248652  1
  O  O18  1  0.30950896  0.04441955  0.60816644  1
  O  O19  1  0.45089907  0.16587220  0.23372615  1
  O  O20  1  0.27587387  0.47993885  0.11521495  1
  O  O21  1  0.21615313  0.31939422  0.86021836  1
  O  O22  1  0.78384687  0.68060578  0.13978164  1
  O  O23  1  0.72412613  0.52006115  0.88478505  1
  O  O24  1  0.54910093  0.83412780  0.76627385  1
  O  O25  1  0.69049104  0.95558045  0.39183356  1
  O  O26  1  0.72959003  0.19669362  0.91751348  1
  O  O27  1  0.76613942  0.52516896  0.56416505  1
  O  O28  1  0.81661317  0.96836087  0.61088021  1
  O  O29  1  0.64442994  0.20135598  0.48241779  1
  O  O30  1  0.95477654  0.46102271  0.73656225  1
