# generated using pymatgen
data_Ca(BeAs)2
_symmetry_space_group_name_H-M   'P 1'
_cell_length_a   3.88220725
_cell_length_b   3.88238041
_cell_length_c   6.78403704
_cell_angle_alpha   90.00423159
_cell_angle_beta   89.99322556
_cell_angle_gamma   119.99830104
_symmetry_Int_Tables_number   1
_chemical_formula_structural   Ca(BeAs)2
_chemical_formula_sum   'Ca1 Be2 As2'
_cell_volume   88.55295877
_cell_formula_units_Z   1
loop_
 _symmetry_equiv_pos_site_id
 _symmetry_equiv_pos_as_xyz
  1  'x, y, z'
loop_
 _atom_site_type_symbol
 _atom_site_label
 _atom_site_symmetry_multiplicity
 _atom_site_fract_x
 _atom_site_fract_y
 _atom_site_fract_z
 _atom_site_occupancy
  Ca  Ca0  1  -0.00000000  0.00000000  -0.00000000  1
  Be  Be1  1  0.66657340  0.33333595  0.37608321  1
  Be  Be2  1  0.33342660  0.66666405  0.62391679  1
  As  As3  1  0.66679687  0.33332930  0.71937088  1
  As  As4  1  0.33320313  0.66667070  0.28062912  1
