# generated using pymatgen
data_Cs2AgCl3
_symmetry_space_group_name_H-M   'P 1'
_cell_length_a   4.58529106
_cell_length_b   13.30796203
_cell_length_c   13.82120854
_cell_angle_alpha   90.00000000
_cell_angle_beta   90.00000000
_cell_angle_gamma   90.00000000
_symmetry_Int_Tables_number   1
_chemical_formula_structural   Cs2AgCl3
_chemical_formula_sum   'Cs8 Ag4 Cl12'
_cell_volume   843.38229842
_cell_formula_units_Z   4
loop_
 _symmetry_equiv_pos_site_id
 _symmetry_equiv_pos_as_xyz
  1  'x, y, z'
loop_
 _atom_site_type_symbol
 _atom_site_label
 _atom_site_symmetry_multiplicity
 _atom_site_fract_x
 _atom_site_fract_y
 _atom_site_fract_z
 _atom_site_occupancy
  Cs  Cs0  1  0.25000000  0.67372691  0.98031640  1
  Cs  Cs1  1  0.25000000  0.17372691  0.51968360  1
  Cs  Cs2  1  0.75000000  0.32627309  0.01968360  1
  Cs  Cs3  1  0.75000000  0.82627309  0.48031640  1
  Cs  Cs4  1  0.25000000  0.01236688  0.17411024  1
  Cs  Cs5  1  0.25000000  0.51236688  0.32588976  1
  Cs  Cs6  1  0.75000000  0.98763312  0.82588976  1
  Cs  Cs7  1  0.75000000  0.48763312  0.67411024  1
  Ag  Ag8  1  0.25000000  0.75343591  0.69877360  1
  Ag  Ag9  1  0.25000000  0.25343591  0.80122640  1
  Ag  Ag10  1  0.75000000  0.24656409  0.30122640  1
  Ag  Ag11  1  0.75000000  0.74656409  0.19877360  1
  Cl  Cl12  1  0.25000000  0.63671014  0.55036722  1
  Cl  Cl13  1  0.25000000  0.13671014  0.94963278  1
  Cl  Cl14  1  0.75000000  0.36328986  0.44963278  1
  Cl  Cl15  1  0.75000000  0.86328986  0.05036722  1
  Cl  Cl16  1  0.25000000  0.93871208  0.64036930  1
  Cl  Cl17  1  0.25000000  0.43871208  0.85963070  1
  Cl  Cl18  1  0.75000000  0.06128792  0.35963070  1
  Cl  Cl19  1  0.75000000  0.56128792  0.14036930  1
  Cl  Cl20  1  0.25000000  0.77547098  0.28715310  1
  Cl  Cl21  1  0.25000000  0.27547098  0.21284690  1
  Cl  Cl22  1  0.75000000  0.22452902  0.71284690  1
  Cl  Cl23  1  0.75000000  0.72452902  0.78715310  1
