# generated using pymatgen
data_Ba2MgV2(Si2O7)2
_symmetry_space_group_name_H-M   'P 1'
_cell_length_a   5.71081942
_cell_length_b   7.45894916
_cell_length_c   8.33414792
_cell_angle_alpha   104.59417360
_cell_angle_beta   110.96342917
_cell_angle_gamma   85.45544635
_symmetry_Int_Tables_number   1
_chemical_formula_structural   Ba2MgV2(Si2O7)2
_chemical_formula_sum   'Ba2 Mg1 V2 Si4 O14'
_cell_volume   320.78939784
_cell_formula_units_Z   1
loop_
 _symmetry_equiv_pos_site_id
 _symmetry_equiv_pos_as_xyz
  1  'x, y, z'
loop_
 _atom_site_type_symbol
 _atom_site_label
 _atom_site_symmetry_multiplicity
 _atom_site_fract_x
 _atom_site_fract_y
 _atom_site_fract_z
 _atom_site_occupancy
  Ba  Ba0  1  0.81585000  0.68932900  0.62691700  1
  Ba  Ba1  1  0.16094600  0.31159300  0.28731000  1
  Mg  Mg2  1  0.29922600  0.06839000  0.55367600  1
  V  V3  1  0.05455600  0.74286900  0.18013500  1
  V  V4  1  0.91891000  0.21967100  0.75453000  1
  Si  Si5  1  0.41625700  0.46116400  0.77075900  1
  Si  Si6  1  0.58948200  0.49576700  0.18822500  1
  Si  Si7  1  0.40629400  0.91054300  0.83408400  1
  Si  Si8  1  0.65502500  0.06415800  0.25833100  1
  O  O9  1  0.15868600  0.33355200  0.65130500  1
  O  O10  1  0.38917600  0.60535900  0.27588700  1
  O  O11  1  0.12929700  0.98730900  0.72503000  1
  O  O12  1  0.50724300  0.04421700  0.38640400  1
  O  O13  1  0.49988900  0.45309800  0.97521300  1
  O  O14  1  0.50552300  0.95609400  0.05008900  1
  O  O15  1  0.98232500  0.75506200  0.96507200  1
  O  O16  1  0.02451000  0.31108500  0.98197300  1
  O  O17  1  0.36433300  0.67970000  0.75373700  1
  O  O18  1  0.64894100  0.29133400  0.25172900  1
  O  O19  1  0.61741600  0.38171000  0.67310400  1
  O  O20  1  0.85979300  0.60445600  0.27986200  1
  O  O21  1  0.58097700  0.98469900  0.74518600  1
  O  O22  1  0.95384200  0.00069500  0.32363100  1
