# generated using pymatgen
data_HoPtF7
_symmetry_space_group_name_H-M   'P 1'
_cell_length_a   5.40437564
_cell_length_b   8.73043507
_cell_length_c   11.83166757
_cell_angle_alpha   62.42594640
_cell_angle_beta   90.00000000
_cell_angle_gamma   90.00000000
_symmetry_Int_Tables_number   1
_chemical_formula_structural   HoPtF7
_chemical_formula_sum   'Ho4 Pt4 F28'
_cell_volume   494.83867272
_cell_formula_units_Z   4
loop_
 _symmetry_equiv_pos_site_id
 _symmetry_equiv_pos_as_xyz
  1  'x, y, z'
loop_
 _atom_site_type_symbol
 _atom_site_label
 _atom_site_symmetry_multiplicity
 _atom_site_fract_x
 _atom_site_fract_y
 _atom_site_fract_z
 _atom_site_occupancy
  Ho  Ho0  1  0.76139514  0.81378058  0.76412107  1
  Ho  Ho1  1  0.26139514  0.18621942  0.73587893  1
  Ho  Ho2  1  0.23860486  0.18621942  0.23587893  1
  Ho  Ho3  1  0.73860486  0.81378058  0.26412107  1
  Pt  Pt4  1  0.75828089  0.27138252  0.95763313  1
  Pt  Pt5  1  0.25828089  0.72861748  0.54236687  1
  Pt  Pt6  1  0.24171911  0.72861748  0.04236687  1
  Pt  Pt7  1  0.74171911  0.27138252  0.45763313  1
  F  F8  1  0.43423532  0.70501877  0.91245608  1
  F  F9  1  0.93423532  0.29498123  0.58754392  1
  F  F10  1  0.56576468  0.29498123  0.08754392  1
  F  F11  1  0.06576468  0.70501877  0.41245608  1
  F  F12  1  0.43348181  0.27383849  0.54239261  1
  F  F13  1  0.93348181  0.72616151  0.95760739  1
  F  F14  1  0.56651819  0.72616151  0.45760739  1
  F  F15  1  0.06651819  0.27383849  0.04239261  1
  F  F16  1  0.77616659  0.52186074  0.85971558  1
  F  F17  1  0.27616659  0.47813926  0.64028442  1
  F  F18  1  0.22383341  0.47813926  0.14028442  1
  F  F19  1  0.72383341  0.52186074  0.35971558  1
  F  F20  1  0.75346504  0.02075434  0.05098593  1
  F  F21  1  0.25346504  0.97924566  0.44901407  1
  F  F22  1  0.24653496  0.97924566  0.94901407  1
  F  F23  1  0.74653496  0.02075434  0.55098593  1
  F  F24  1  0.95836851  0.72284637  0.63486680  1
  F  F25  1  0.45836851  0.27715363  0.86513320  1
  F  F26  1  0.04163149  0.27715363  0.36513320  1
  F  F27  1  0.54163149  0.72284637  0.13486680  1
  F  F28  1  0.05600259  0.74556392  0.17693756  1
  F  F29  1  0.55600259  0.25443608  0.32306244  1
  F  F30  1  0.94399741  0.25443608  0.82306244  1
  F  F31  1  0.44399741  0.74556392  0.67693756  1
  F  F32  1  0.40573714  0.96629636  0.23168398  1
  F  F33  1  0.90573714  0.03370364  0.26831602  1
  F  F34  1  0.59426286  0.03370364  0.76831602  1
  F  F35  1  0.09426286  0.96629636  0.73168398  1
