# generated using pymatgen
data_Cs2NaMoF6
_symmetry_space_group_name_H-M   'P 1'
_cell_length_a   6.23700120
_cell_length_b   6.23700215
_cell_length_c   6.23700070
_cell_angle_alpha   59.99987187
_cell_angle_beta   59.99986764
_cell_angle_gamma   59.99987564
_symmetry_Int_Tables_number   1
_chemical_formula_structural   Cs2NaMoF6
_chemical_formula_sum   'Cs2 Na1 Mo1 F6'
_cell_volume   171.55810986
_cell_formula_units_Z   1
loop_
 _symmetry_equiv_pos_site_id
 _symmetry_equiv_pos_as_xyz
  1  'x, y, z'
loop_
 _atom_site_type_symbol
 _atom_site_label
 _atom_site_symmetry_multiplicity
 _atom_site_fract_x
 _atom_site_fract_y
 _atom_site_fract_z
 _atom_site_occupancy
  Cs  Cs0  1  0.25000000  0.25000000  0.25000000  1
  Cs  Cs1  1  0.75000000  0.75000000  0.75000000  1
  Na  Na2  1  0.50000000  0.50000000  0.50000000  1
  Mo  Mo3  1  0.00000000  -0.00000000  -0.00000000  1
  F  F4  1  0.23485130  0.76514970  0.23485130  1
  F  F5  1  0.76514870  0.76514870  0.23485030  1
  F  F6  1  0.76514870  0.23485030  0.76514870  1
  F  F7  1  0.76514970  0.23485130  0.23485130  1
  F  F8  1  0.23485030  0.76514870  0.76514970  1
  F  F9  1  0.23485130  0.23485130  0.76514970  1
