# generated using pymatgen
data_Cs2MgGe3Se8
_symmetry_space_group_name_H-M   'P 1'
_cell_length_a   7.85413900
_cell_length_b   13.29571152
_cell_length_c   18.13099190
_cell_angle_alpha   90.00000000
_cell_angle_beta   90.00000000
_cell_angle_gamma   90.00000000
_symmetry_Int_Tables_number   1
_chemical_formula_structural   Cs2MgGe3Se8
_chemical_formula_sum   'Cs8 Mg4 Ge12 Se32'
_cell_volume   1893.35360302
_cell_formula_units_Z   4
loop_
 _symmetry_equiv_pos_site_id
 _symmetry_equiv_pos_as_xyz
  1  'x, y, z'
loop_
 _atom_site_type_symbol
 _atom_site_label
 _atom_site_symmetry_multiplicity
 _atom_site_fract_x
 _atom_site_fract_y
 _atom_site_fract_z
 _atom_site_occupancy
  Cs  Cs0  1  0.75608626  0.62671448  0.05349282  1
  Cs  Cs1  1  0.74391374  0.37328552  0.55349282  1
  Cs  Cs2  1  0.25608626  0.87328552  0.94650718  1
  Cs  Cs3  1  0.24391374  0.12671448  0.44650718  1
  Cs  Cs4  1  0.26949131  0.80966819  0.34764970  1
  Cs  Cs5  1  0.23050869  0.19033181  0.84764970  1
  Cs  Cs6  1  0.76949131  0.69033181  0.65235030  1
  Cs  Cs7  1  0.73050869  0.30966819  0.15235030  1
  Mg  Mg8  1  0.98311772  0.50071216  0.34766686  1
  Mg  Mg9  1  0.51688228  0.49928784  0.84766686  1
  Mg  Mg10  1  0.48311772  0.99928784  0.65233314  1
  Mg  Mg11  1  0.01688228  0.00071216  0.15233314  1
  Ge  Ge12  1  0.76569987  0.04884758  0.32278787  1
  Ge  Ge13  1  0.73430013  0.95115242  0.82278787  1
  Ge  Ge14  1  0.26569987  0.45115242  0.67721213  1
  Ge  Ge15  1  0.23430013  0.54884758  0.17721213  1
  Ge  Ge16  1  0.73914500  0.94218998  0.48264333  1
  Ge  Ge17  1  0.76085500  0.05781002  0.98264333  1
  Ge  Ge18  1  0.23914500  0.55781002  0.51735667  1
  Ge  Ge19  1  0.26085500  0.44218998  0.01735667  1
  Ge  Ge20  1  0.51848707  0.97438637  0.15346263  1
  Ge  Ge21  1  0.98151293  0.02561363  0.65346263  1
  Ge  Ge22  1  0.01848707  0.52561363  0.84653737  1
  Ge  Ge23  1  0.48151293  0.47438637  0.34653737  1
  Se  Se24  1  0.99304169  0.61847608  0.23286339  1
  Se  Se25  1  0.50695831  0.38152392  0.73286339  1
  Se  Se26  1  0.49304169  0.88152392  0.76713661  1
  Se  Se27  1  0.00695831  0.11847608  0.26713661  1
  Se  Se28  1  0.98685667  0.61732829  0.46386548  1
  Se  Se29  1  0.51314333  0.38267171  0.96386548  1
  Se  Se30  1  0.48685667  0.88267171  0.53613452  1
  Se  Se31  1  0.01314333  0.11732829  0.03613452  1
  Se  Se32  1  0.76426219  0.87395563  0.15637258  1
  Se  Se33  1  0.73573781  0.12604437  0.65637258  1
  Se  Se34  1  0.26426219  0.62604437  0.84362742  1
  Se  Se35  1  0.23573781  0.37395563  0.34362742  1
  Se  Se36  1  0.77126174  0.62663197  0.84977601  1
  Se  Se37  1  0.72873826  0.37336803  0.34977601  1
  Se  Se38  1  0.27126174  0.87336803  0.15022399  1
  Se  Se39  1  0.22873826  0.12663197  0.65022399  1
  Se  Se40  1  0.77929791  0.87261104  0.35985302  1
  Se  Se41  1  0.72070209  0.12738896  0.85985302  1
  Se  Se42  1  0.27929791  0.62738896  0.64014698  1
  Se  Se43  1  0.22070209  0.37261104  0.14014698  1
  Se  Se44  1  0.73347785  0.11882953  0.44655373  1
  Se  Se45  1  0.76652215  0.88117047  0.94655373  1
  Se  Se46  1  0.23347785  0.38117047  0.55344627  1
  Se  Se47  1  0.26652215  0.61882953  0.05344627  1
  Se  Se48  1  0.50136221  0.58455098  0.23789695  1
  Se  Se49  1  0.99863779  0.41544902  0.73789695  1
  Se  Se50  1  0.00136221  0.91544902  0.76210305  1
  Se  Se51  1  0.49863779  0.08455098  0.26210305  1
  Se  Se52  1  0.49760781  0.59425034  0.44987017  1
  Se  Se53  1  0.00239219  0.40574966  0.94987017  1
  Se  Se54  1  0.99760781  0.90574966  0.55012983  1
  Se  Se55  1  0.50239219  0.09425034  0.05012983  1
