# generated using pymatgen
data_Cs2HgCl4
_symmetry_space_group_name_H-M   'P 1'
_cell_length_a   7.56496627
_cell_length_b   9.79999473
_cell_length_c   27.44593837
_cell_angle_alpha   88.79052226
_cell_angle_beta   90.00000000
_cell_angle_gamma   90.00000000
_symmetry_Int_Tables_number   1
_chemical_formula_structural   Cs2HgCl4
_chemical_formula_sum   'Cs16 Hg8 Cl32'
_cell_volume   2034.29603650
_cell_formula_units_Z   8
loop_
 _symmetry_equiv_pos_site_id
 _symmetry_equiv_pos_as_xyz
  1  'x, y, z'
loop_
 _atom_site_type_symbol
 _atom_site_label
 _atom_site_symmetry_multiplicity
 _atom_site_fract_x
 _atom_site_fract_y
 _atom_site_fract_z
 _atom_site_occupancy
  Cs  Cs0  1  0.24977833  0.61516454  0.78677917  1
  Cs  Cs1  1  0.74977833  0.38483546  0.71322083  1
  Cs  Cs2  1  0.75022167  0.38483546  0.21322083  1
  Cs  Cs3  1  0.25022167  0.61516454  0.28677917  1
  Cs  Cs4  1  0.24510239  0.99320904  0.65426204  1
  Cs  Cs5  1  0.74510239  0.00679096  0.84573796  1
  Cs  Cs6  1  0.75489761  0.00679096  0.34573796  1
  Cs  Cs7  1  0.25489761  0.99320904  0.15426204  1
  Cs  Cs8  1  0.77610883  0.87920848  0.06126217  1
  Cs  Cs9  1  0.27610883  0.12079152  0.43873783  1
  Cs  Cs10  1  0.22389117  0.12079152  0.93873783  1
  Cs  Cs11  1  0.72389117  0.87920848  0.56126217  1
  Cs  Cs12  1  0.71063932  0.51333902  0.91186247  1
  Cs  Cs13  1  0.21063932  0.48666098  0.58813753  1
  Cs  Cs14  1  0.28936068  0.48666098  0.08813753  1
  Cs  Cs15  1  0.78936068  0.51333902  0.41186247  1
  Hg  Hg16  1  0.23512031  0.19870014  0.78533963  1
  Hg  Hg17  1  0.73512031  0.80129986  0.71466037  1
  Hg  Hg18  1  0.76487969  0.80129986  0.21466037  1
  Hg  Hg19  1  0.26487969  0.19870014  0.28533963  1
  Hg  Hg20  1  0.78012369  0.28448324  0.03956663  1
  Hg  Hg21  1  0.28012369  0.71551676  0.46043337  1
  Hg  Hg22  1  0.21987631  0.71551676  0.96043337  1
  Hg  Hg23  1  0.71987631  0.28448324  0.53956663  1
  Cl  Cl24  1  0.13801502  0.96101651  0.77884012  1
  Cl  Cl25  1  0.63801502  0.03898349  0.72115988  1
  Cl  Cl26  1  0.86198498  0.03898349  0.22115988  1
  Cl  Cl27  1  0.36198498  0.96101651  0.27884012  1
  Cl  Cl28  1  0.25122168  0.33012476  0.70441387  1
  Cl  Cl29  1  0.75122168  0.66987524  0.79558613  1
  Cl  Cl30  1  0.74877832  0.66987524  0.29558613  1
  Cl  Cl31  1  0.24877832  0.33012476  0.20441387  1
  Cl  Cl32  1  0.98356975  0.31774298  0.83230360  1
  Cl  Cl33  1  0.48356975  0.68225702  0.66769640  1
  Cl  Cl34  1  0.01643025  0.68225702  0.16769640  1
  Cl  Cl35  1  0.51643025  0.31774298  0.33230360  1
  Cl  Cl36  1  0.01099237  0.29889984  0.33012416  1
  Cl  Cl37  1  0.51099237  0.70110016  0.16987584  1
  Cl  Cl38  1  0.98900763  0.70110016  0.66987584  1
  Cl  Cl39  1  0.48900763  0.29889984  0.83012416  1
  Cl  Cl40  1  0.75777932  0.53624451  0.04013845  1
  Cl  Cl41  1  0.25777932  0.46375549  0.45986155  1
  Cl  Cl42  1  0.24222068  0.46375549  0.95986155  1
  Cl  Cl43  1  0.74222068  0.53624451  0.54013845  1
  Cl  Cl44  1  0.69309656  0.17216050  0.96110419  1
  Cl  Cl45  1  0.19309656  0.82783950  0.53889581  1
  Cl  Cl46  1  0.30690344  0.82783950  0.03889581  1
  Cl  Cl47  1  0.80690344  0.17216050  0.46110419  1
  Cl  Cl48  1  0.58768874  0.19731559  0.10931024  1
  Cl  Cl49  1  0.08768874  0.80268441  0.39068976  1
  Cl  Cl50  1  0.41231126  0.80268441  0.89068976  1
  Cl  Cl51  1  0.91231126  0.19731559  0.60931024  1
  Cl  Cl52  1  0.42368451  0.17616394  0.55771403  1
  Cl  Cl53  1  0.92368451  0.82383606  0.94228597  1
  Cl  Cl54  1  0.57631549  0.82383606  0.44228597  1
  Cl  Cl55  1  0.07631549  0.17616394  0.05771403  1
