# generated using pymatgen
data_Cs2Pb2O3
_symmetry_space_group_name_H-M   'P 1'
_cell_length_a   7.90302169
_cell_length_b   7.90302169
_cell_length_c   7.90302169
_cell_angle_alpha   109.47122063
_cell_angle_beta   109.47122063
_cell_angle_gamma   109.47122063
_symmetry_Int_Tables_number   1
_chemical_formula_structural   Cs2Pb2O3
_chemical_formula_sum   'Cs4 Pb4 O6'
_cell_volume   379.97728107
_cell_formula_units_Z   2
loop_
 _symmetry_equiv_pos_site_id
 _symmetry_equiv_pos_as_xyz
  1  'x, y, z'
loop_
 _atom_site_type_symbol
 _atom_site_label
 _atom_site_symmetry_multiplicity
 _atom_site_fract_x
 _atom_site_fract_y
 _atom_site_fract_z
 _atom_site_occupancy
  Cs  Cs0  1  0.48725462  0.48725462  0.48725462  1
  Cs  Cs1  1  0.01274538  0.50000000  0.00000000  1
  Cs  Cs2  1  0.00000000  0.01274538  0.50000000  1
  Cs  Cs3  1  0.50000000  -0.00000000  0.01274538  1
  Pb  Pb4  1  0.02352125  0.02352125  0.02352125  1
  Pb  Pb5  1  0.47647875  0.50000000  -0.00000000  1
  Pb  Pb6  1  -0.00000000  0.47647875  0.50000000  1
  Pb  Pb7  1  0.50000000  0.00000000  0.47647875  1
  O  O8  1  0.24261896  0.99261896  0.25000000  1
  O  O9  1  0.25738104  0.50738104  0.75000000  1
  O  O10  1  0.99261896  0.25000000  0.24261896  1
  O  O11  1  0.50738104  0.75000000  0.25738104  1
  O  O12  1  0.25000000  0.24261896  0.99261896  1
  O  O13  1  0.75000000  0.25738104  0.50738104  1
