# generated using pymatgen
data_Cd(RhO2)2
_symmetry_space_group_name_H-M   'P 1'
_cell_length_a   6.23126621
_cell_length_b   6.23126621
_cell_length_c   6.23126621
_cell_angle_alpha   60.00000000
_cell_angle_beta   60.00000000
_cell_angle_gamma   60.00000000
_symmetry_Int_Tables_number   1
_chemical_formula_structural   Cd(RhO2)2
_chemical_formula_sum   'Cd2 Rh4 O8'
_cell_volume   171.08578142
_cell_formula_units_Z   2
loop_
 _symmetry_equiv_pos_site_id
 _symmetry_equiv_pos_as_xyz
  1  'x, y, z'
loop_
 _atom_site_type_symbol
 _atom_site_label
 _atom_site_symmetry_multiplicity
 _atom_site_fract_x
 _atom_site_fract_y
 _atom_site_fract_z
 _atom_site_occupancy
  Cd  Cd0  1  0.75000000  0.75000000  0.75000000  1
  Cd  Cd1  1  -0.00000000  -0.00000000  -0.00000000  1
  Rh  Rh2  1  0.87500000  0.37500000  0.37500000  1
  Rh  Rh3  1  0.37500000  0.87500000  0.37500000  1
  Rh  Rh4  1  0.37500000  0.37500000  0.87500000  1
  Rh  Rh5  1  0.37500000  0.37500000  0.37500000  1
  O  O6  1  0.57058742  0.14313686  0.14313686  1
  O  O7  1  0.14313686  0.57058742  0.14313686  1
  O  O8  1  0.14313686  0.14313686  0.57058742  1
  O  O9  1  0.14313686  0.14313686  0.14313686  1
  O  O10  1  0.17941258  0.60686314  0.60686314  1
  O  O11  1  0.60686314  0.17941258  0.60686314  1
  O  O12  1  0.60686314  0.60686314  0.17941258  1
  O  O13  1  0.60686314  0.60686314  0.60686314  1
