# generated using pymatgen
data_K3Na(SeO4)2
_symmetry_space_group_name_H-M   'P 1'
_cell_length_a   5.82517754
_cell_length_b   5.82517754
_cell_length_c   15.00435104
_cell_angle_alpha   90.40928260
_cell_angle_beta   90.40928260
_cell_angle_gamma   60.43329322
_symmetry_Int_Tables_number   1
_chemical_formula_structural   K3Na(SeO4)2
_chemical_formula_sum   'K6 Na2 Se4 O16'
_cell_volume   442.82387251
_cell_formula_units_Z   2
loop_
 _symmetry_equiv_pos_site_id
 _symmetry_equiv_pos_as_xyz
  1  'x, y, z'
loop_
 _atom_site_type_symbol
 _atom_site_label
 _atom_site_symmetry_multiplicity
 _atom_site_fract_x
 _atom_site_fract_y
 _atom_site_fract_z
 _atom_site_occupancy
  K  K0  1  0.05383361  0.94616639  0.25000000  1
  K  K1  1  0.94616639  0.05383361  0.75000000  1
  K  K2  1  0.69769942  0.64784663  0.41114567  1
  K  K3  1  0.35215337  0.30230058  0.08885433  1
  K  K4  1  0.30230058  0.35215337  0.58885433  1
  K  K5  1  0.64784663  0.69769942  0.91114567  1
  Na  Na6  1  -0.00000000  0.00000000  0.00000000  1
  Na  Na7  1  -0.00000000  0.00000000  0.50000000  1
  Se  Se8  1  0.68157318  0.64596489  0.13512753  1
  Se  Se9  1  0.35403511  0.31842682  0.36487247  1
  Se  Se10  1  0.31842682  0.35403511  0.86487247  1
  Se  Se11  1  0.64596489  0.68157318  0.63512753  1
  O  O12  1  0.85502663  0.77442959  0.09233756  1
  O  O13  1  0.22557041  0.14497337  0.40766244  1
  O  O14  1  0.14497337  0.22557041  0.90766244  1
  O  O15  1  0.77442959  0.85502663  0.59233756  1
  O  O16  1  0.84226044  0.32306482  0.11734842  1
  O  O17  1  0.67693518  0.15773956  0.38265158  1
  O  O18  1  0.15773956  0.67693518  0.88265158  1
  O  O19  1  0.32306482  0.84226044  0.61734842  1
  O  O20  1  0.39569276  0.77521635  0.08041855  1
  O  O21  1  0.22478365  0.60430724  0.41958145  1
  O  O22  1  0.60430724  0.22478365  0.91958145  1
  O  O23  1  0.77521635  0.39569276  0.58041855  1
  O  O24  1  0.72258093  0.62283536  0.74099636  1
  O  O25  1  0.37716464  0.27741907  0.75900364  1
  O  O26  1  0.27741907  0.37716464  0.25900364  1
  O  O27  1  0.62283536  0.72258093  0.24099636  1
