# generated using pymatgen
data_CeSe2
_symmetry_space_group_name_H-M   'P 1'
_cell_length_a   16.90655441
_cell_length_b   16.90655441
_cell_length_c   17.30894381
_cell_angle_alpha   90.00000000
_cell_angle_beta   90.00000000
_cell_angle_gamma   120.00000255
_symmetry_Int_Tables_number   1
_chemical_formula_structural   CeSe2
_chemical_formula_sum   'Ce12 Se24'
_cell_volume   4284.61103289
_cell_formula_units_Z   12
loop_
 _symmetry_equiv_pos_site_id
 _symmetry_equiv_pos_as_xyz
  1  'x, y, z'
loop_
 _atom_site_type_symbol
 _atom_site_label
 _atom_site_symmetry_multiplicity
 _atom_site_fract_x
 _atom_site_fract_y
 _atom_site_fract_z
 _atom_site_occupancy
  Ce  Ce0  1  0.56960610  0.13921220  0.89555253  1
  Ce  Ce1  1  0.56960610  0.43039390  0.89555253  1
  Ce  Ce2  1  0.86078780  0.43039390  0.89555253  1
  Ce  Ce3  1  0.43039390  0.86078780  0.10444747  1
  Ce  Ce4  1  0.43039390  0.56960610  0.10444747  1
  Ce  Ce5  1  0.13921220  0.56960610  0.10444747  1
  Ce  Ce6  1  0.43039390  0.86078780  0.39555253  1
  Ce  Ce7  1  0.43039390  0.56960610  0.39555253  1
  Ce  Ce8  1  0.13921220  0.56960610  0.39555253  1
  Ce  Ce9  1  0.56960610  0.13921220  0.60444747  1
  Ce  Ce10  1  0.56960610  0.43039390  0.60444747  1
  Ce  Ce11  1  0.86078780  0.43039390  0.60444747  1
  Se  Se12  1  0.00000000  0.50000000  0.00000000  1
  Se  Se13  1  0.50000000  0.00000000  0.00000000  1
  Se  Se14  1  0.50000000  0.50000000  0.00000000  1
  Se  Se15  1  0.00000000  0.50000000  0.50000000  1
  Se  Se16  1  0.50000000  0.00000000  0.50000000  1
  Se  Se17  1  0.50000000  0.50000000  0.50000000  1
  Se  Se18  1  0.49482584  0.24741292  0.91499511  1
  Se  Se19  1  0.75258708  0.50517416  0.91499511  1
  Se  Se20  1  0.75258708  0.24741292  0.91499511  1
  Se  Se21  1  0.50517416  0.75258708  0.08500489  1
  Se  Se22  1  0.24741292  0.49482584  0.08500489  1
  Se  Se23  1  0.24741292  0.75258708  0.08500489  1
  Se  Se24  1  0.50517416  0.75258708  0.41499511  1
  Se  Se25  1  0.24741292  0.49482584  0.41499511  1
  Se  Se26  1  0.24741292  0.75258708  0.41499511  1
  Se  Se27  1  0.49482584  0.24741292  0.58500489  1
  Se  Se28  1  0.75258708  0.50517416  0.58500489  1
  Se  Se29  1  0.75258708  0.24741292  0.58500489  1
  Se  Se30  1  0.06919854  0.53459927  0.25000000  1
  Se  Se31  1  0.46540073  0.93080146  0.25000000  1
  Se  Se32  1  0.46540073  0.53459927  0.25000000  1
  Se  Se33  1  0.93080146  0.46540073  0.75000000  1
  Se  Se34  1  0.53459927  0.06919854  0.75000000  1
  Se  Se35  1  0.53459927  0.46540073  0.75000000  1
