# generated using pymatgen
data_BaGd2O4
_symmetry_space_group_name_H-M   'P 1'
_cell_length_a   3.52084094
_cell_length_b   10.53064837
_cell_length_c   12.27884659
_cell_angle_alpha   90.00000000
_cell_angle_beta   90.00000000
_cell_angle_gamma   90.00000000
_symmetry_Int_Tables_number   1
_chemical_formula_structural   BaGd2O4
_chemical_formula_sum   'Ba4 Gd8 O16'
_cell_volume   455.25957680
_cell_formula_units_Z   4
loop_
 _symmetry_equiv_pos_site_id
 _symmetry_equiv_pos_as_xyz
  1  'x, y, z'
loop_
 _atom_site_type_symbol
 _atom_site_label
 _atom_site_symmetry_multiplicity
 _atom_site_fract_x
 _atom_site_fract_y
 _atom_site_fract_z
 _atom_site_occupancy
  Ba  Ba0  1  0.75000000  0.25280125  0.85124950  1
  Ba  Ba1  1  0.25000000  0.74719875  0.14875050  1
  Ba  Ba2  1  0.75000000  0.75280125  0.64875050  1
  Ba  Ba3  1  0.25000000  0.24719875  0.35124950  1
  Gd  Gd4  1  0.25000000  0.57521438  0.38870468  1
  Gd  Gd5  1  0.75000000  0.42478562  0.61129532  1
  Gd  Gd6  1  0.25000000  0.07521438  0.11129532  1
  Gd  Gd7  1  0.75000000  0.92478562  0.88870468  1
  Gd  Gd8  1  0.75000000  0.92231396  0.39002818  1
  Gd  Gd9  1  0.25000000  0.07768604  0.60997182  1
  Gd  Gd10  1  0.75000000  0.42231396  0.10997182  1
  Gd  Gd11  1  0.25000000  0.57768604  0.89002818  1
  O  O12  1  0.25000000  0.57077608  0.57478755  1
  O  O13  1  0.75000000  0.42922392  0.42521245  1
  O  O14  1  0.25000000  0.07077608  0.92521245  1
  O  O15  1  0.75000000  0.92922392  0.07478755  1
  O  O16  1  0.25000000  0.48175843  0.21729001  1
  O  O17  1  0.75000000  0.51824157  0.78270999  1
  O  O18  1  0.25000000  0.98175843  0.28270999  1
  O  O19  1  0.75000000  0.01824157  0.71729001  1
  O  O20  1  0.25000000  0.88263682  0.51847696  1
  O  O21  1  0.75000000  0.11736318  0.48152304  1
  O  O22  1  0.25000000  0.38263682  0.98152304  1
  O  O23  1  0.75000000  0.61736318  0.01847696  1
  O  O24  1  0.75000000  0.70986079  0.33690545  1
  O  O25  1  0.25000000  0.29013921  0.66309455  1
  O  O26  1  0.75000000  0.20986079  0.16309455  1
  O  O27  1  0.25000000  0.79013921  0.83690545  1
