# generated using pymatgen
data_CoSO4
_symmetry_space_group_name_H-M   'P 1'
_cell_length_a   4.73114290
_cell_length_b   6.64916350
_cell_length_c   8.58483022
_cell_angle_alpha   89.99949776
_cell_angle_beta   89.99996720
_cell_angle_gamma   90.00032301
_symmetry_Int_Tables_number   1
_chemical_formula_structural   CoSO4
_chemical_formula_sum   'Co4 S4 O16'
_cell_volume   270.06281397
_cell_formula_units_Z   4
loop_
 _symmetry_equiv_pos_site_id
 _symmetry_equiv_pos_as_xyz
  1  'x, y, z'
loop_
 _atom_site_type_symbol
 _atom_site_label
 _atom_site_symmetry_multiplicity
 _atom_site_fract_x
 _atom_site_fract_y
 _atom_site_fract_z
 _atom_site_occupancy
  Co  Co0  1  0.50000000  0.00000000  0.50000000  1
  Co  Co1  1  0.00000000  0.00000000  -0.00000000  1
  Co  Co2  1  0.00000000  0.50000000  -0.00000000  1
  Co  Co3  1  0.50000000  0.50000000  0.50000000  1
  S  S4  1  0.97599444  0.74999807  0.32120838  1
  S  S5  1  0.52399804  0.75000125  0.82120252  1
  S  S6  1  0.02400556  0.25000193  0.67879162  1
  S  S7  1  0.47600196  0.24999875  0.17879748  1
  O  O8  1  0.77357032  0.25000410  0.12532519  1
  O  O9  1  0.83820149  0.56588016  0.37479450  1
  O  O10  1  0.95904265  0.75000618  0.14654635  1
  O  O11  1  0.83819568  0.93411151  0.37480554  1
  O  O12  1  0.22642968  0.74999590  0.87467481  1
  O  O13  1  0.27358829  0.75000294  0.37467610  1
  O  O14  1  0.33821777  0.06591720  0.12520102  1
  O  O15  1  0.16180432  0.06588849  0.62519446  1
  O  O16  1  0.54095623  0.75000637  0.64656928  1
  O  O17  1  0.66178118  0.56588074  0.87478983  1
  O  O18  1  0.72641171  0.24999706  0.62532390  1
  O  O19  1  0.33821882  0.43411926  0.12521017  1
  O  O20  1  0.16179851  0.43411984  0.62520550  1
  O  O21  1  0.45904377  0.24999363  0.35343072  1
  O  O22  1  0.66178223  0.93408280  0.87479898  1
  O  O23  1  0.04095735  0.24999382  0.85345365  1
