# generated using pymatgen
data_Cs4Ge(PSe3)4
_symmetry_space_group_name_H-M   'P 1'
_cell_length_a   7.99414014
_cell_length_b   15.07207153
_cell_length_c   25.33451712
_cell_angle_alpha   90.00000000
_cell_angle_beta   90.00000000
_cell_angle_gamma   90.00000000
_symmetry_Int_Tables_number   1
_chemical_formula_structural   Cs4Ge(PSe3)4
_chemical_formula_sum   'Cs16 Ge4 P16 Se48'
_cell_volume   3052.51168333
_cell_formula_units_Z   4
loop_
 _symmetry_equiv_pos_site_id
 _symmetry_equiv_pos_as_xyz
  1  'x, y, z'
loop_
 _atom_site_type_symbol
 _atom_site_label
 _atom_site_symmetry_multiplicity
 _atom_site_fract_x
 _atom_site_fract_y
 _atom_site_fract_z
 _atom_site_occupancy
  Cs  Cs0  1  0.27105525  0.46331130  0.55884564  1
  Cs  Cs1  1  0.72894475  0.53668870  0.05884564  1
  Cs  Cs2  1  0.27105525  0.03668870  0.05884564  1
  Cs  Cs3  1  0.72894475  0.96331130  0.55884564  1
  Cs  Cs4  1  0.23067582  0.12463596  0.66534539  1
  Cs  Cs5  1  0.76932418  0.87536404  0.16534539  1
  Cs  Cs6  1  0.23067582  0.37536404  0.16534539  1
  Cs  Cs7  1  0.76932418  0.62463596  0.66534539  1
  Cs  Cs8  1  0.21580962  0.82419265  0.78879822  1
  Cs  Cs9  1  0.78419038  0.17580735  0.28879822  1
  Cs  Cs10  1  0.21580962  0.67580735  0.28879822  1
  Cs  Cs11  1  0.78419038  0.32419265  0.78879822  1
  Cs  Cs12  1  0.18251478  0.67220237  0.93624917  1
  Cs  Cs13  1  0.81748522  0.32779763  0.43624917  1
  Cs  Cs14  1  0.18251478  0.82779763  0.43624917  1
  Cs  Cs15  1  0.81748522  0.17220237  0.93624917  1
  Ge  Ge16  1  0.32849054  0.42286584  0.86662308  1
  Ge  Ge17  1  0.67150946  0.57713416  0.36662308  1
  Ge  Ge18  1  0.32849054  0.07713416  0.36662308  1
  Ge  Ge19  1  0.67150946  0.92286584  0.86662308  1
  P  P20  1  0.27379569  0.40352883  0.72337891  1
  P  P21  1  0.72620431  0.59647117  0.22337891  1
  P  P22  1  0.27379569  0.09647117  0.22337891  1
  P  P23  1  0.72620431  0.90352883  0.72337891  1
  P  P24  1  0.77326533  0.04391190  0.75658401  1
  P  P25  1  0.22673467  0.95608810  0.25658401  1
  P  P26  1  0.77326533  0.45608810  0.25658401  1
  P  P27  1  0.22673467  0.54391190  0.75658401  1
  P  P28  1  0.16997258  0.39313798  0.99962402  1
  P  P29  1  0.83002742  0.60686202  0.49962402  1
  P  P30  1  0.16997258  0.10686202  0.49962402  1
  P  P31  1  0.83002742  0.89313798  0.99962402  1
  P  P32  1  0.38427543  0.29655227  0.97940359  1
  P  P33  1  0.61572457  0.70344773  0.47940359  1
  P  P34  1  0.38427543  0.20344773  0.47940359  1
  P  P35  1  0.61572457  0.79655227  0.97940359  1
  Se  Se36  1  0.51018968  0.39816977  0.68277300  1
  Se  Se37  1  0.48981032  0.60183023  0.18277300  1
  Se  Se38  1  0.51018968  0.10183023  0.18277300  1
  Se  Se39  1  0.48981032  0.89816977  0.68277300  1
  Se  Se40  1  0.05487389  0.36666437  0.67831199  1
  Se  Se41  1  0.94512611  0.63333563  0.17831199  1
  Se  Se42  1  0.05487389  0.13333563  0.17831199  1
  Se  Se43  1  0.94512611  0.86666437  0.67831199  1
  Se  Se44  1  0.27450080  0.31380424  0.79948606  1
  Se  Se45  1  0.72549920  0.68619576  0.29948606  1
  Se  Se46  1  0.27450080  0.18619576  0.29948606  1
  Se  Se47  1  0.72549920  0.81380424  0.79948606  1
  Se  Se48  1  0.71330939  0.13597775  0.69458528  1
  Se  Se49  1  0.28669061  0.86402225  0.19458528  1
  Se  Se50  1  0.71330939  0.36402225  0.19458528  1
  Se  Se51  1  0.28669061  0.63597775  0.69458528  1
  Se  Se52  1  0.01325926  0.05414733  0.79598685  1
  Se  Se53  1  0.98674074  0.94585267  0.29598685  1
  Se  Se54  1  0.01325926  0.44585267  0.29598685  1
  Se  Se55  1  0.98674074  0.55414733  0.79598685  1
  Se  Se56  1  0.56612009  0.05117302  0.82103362  1
  Se  Se57  1  0.43387991  0.94882698  0.32103362  1
  Se  Se58  1  0.56612009  0.44882698  0.32103362  1
  Se  Se59  1  0.43387991  0.55117302  0.82103362  1
  Se  Se60  1  0.07012721  0.43135573  0.91556127  1
  Se  Se61  1  0.92987279  0.56864427  0.41556127  1
  Se  Se62  1  0.07012721  0.06864427  0.41556127  1
  Se  Se63  1  0.92987279  0.93135573  0.91556127  1
  Se  Se64  1  0.25828432  0.99012368  0.54079245  1
  Se  Se65  1  0.74171568  0.00987632  0.04079245  1
  Se  Se66  1  0.25828432  0.50987632  0.04079245  1
  Se  Se67  1  0.74171568  0.49012368  0.54079245  1
  Se  Se68  1  0.02541411  0.68195373  0.53766104  1
  Se  Se69  1  0.97458589  0.31804627  0.03766104  1
  Se  Se70  1  0.02541411  0.81804627  0.03766104  1
  Se  Se71  1  0.97458589  0.18195373  0.53766104  1
  Se  Se72  1  0.54880774  0.39347167  0.92852026  1
  Se  Se73  1  0.45119226  0.60652833  0.42852026  1
  Se  Se74  1  0.54880774  0.10652833  0.42852026  1
  Se  Se75  1  0.45119226  0.89347167  0.92852026  1
  Se  Se76  1  0.51621447  0.23239922  0.55101332  1
  Se  Se77  1  0.48378553  0.76760078  0.05101332  1
  Se  Se78  1  0.51621447  0.26760078  0.05101332  1
  Se  Se79  1  0.48378553  0.73239922  0.55101332  1
  Se  Se80  1  0.29839963  0.19021601  0.92879281  1
  Se  Se81  1  0.70160037  0.80978399  0.42879281  1
  Se  Se82  1  0.29839963  0.30978399  0.42879281  1
  Se  Se83  1  0.70160037  0.69021601  0.92879281  1
