# generated using pymatgen
data_HfTe3O8
_symmetry_space_group_name_H-M   'P 1'
_cell_length_a   9.77740069
_cell_length_b   9.77777730
_cell_length_c   9.77819620
_cell_angle_alpha   109.47270162
_cell_angle_beta   109.47142615
_cell_angle_gamma   109.47107193
_symmetry_Int_Tables_number   1
_chemical_formula_structural   HfTe3O8
_chemical_formula_sum   'Hf4 Te12 O32'
_cell_volume   719.60168011
_cell_formula_units_Z   4
loop_
 _symmetry_equiv_pos_site_id
 _symmetry_equiv_pos_as_xyz
  1  'x, y, z'
loop_
 _atom_site_type_symbol
 _atom_site_label
 _atom_site_symmetry_multiplicity
 _atom_site_fract_x
 _atom_site_fract_y
 _atom_site_fract_z
 _atom_site_occupancy
  Hf  Hf0  1  0.00001734  0.50000496  -0.00001609  1
  Hf  Hf1  1  0.50004523  0.50004657  0.50003773  1
  Hf  Hf2  1  0.00003193  0.00003125  0.50004168  1
  Hf  Hf3  1  0.50002405  -0.00002485  0.00000432  1
  Te  Te4  1  0.95517420  0.74993902  0.70505879  1
  Te  Te5  1  0.24973257  0.79469350  0.54482461  1
  Te  Te6  1  0.70486582  0.95517637  0.74983106  1
  Te  Te7  1  0.75018931  0.70544189  0.95500321  1
  Te  Te8  1  0.79468003  0.54484812  0.24969007  1
  Te  Te9  1  0.54491004  0.25016385  0.79505747  1
  Te  Te10  1  0.04483176  0.25003383  0.29497100  1
  Te  Te11  1  0.74979637  0.20499545  0.45507192  1
  Te  Te12  1  0.29514801  0.04484603  0.25015685  1
  Te  Te13  1  0.24984221  0.29463477  0.04503185  1
  Te  Te14  1  0.20502142  0.45511788  0.74984472  1
  Te  Te15  1  0.45496805  0.74949644  0.20476930  1
  O  O16  1  0.66424605  0.49999509  0.00007133  1
  O  O17  1  0.83580297  0.83572314  0.83581464  1
  O  O18  1  0.00009280  0.66428134  0.50005224  1
  O  O19  1  0.50007682  0.00002105  0.66424252  1
  O  O20  1  0.33582365  0.50010433  0.00008063  1
  O  O21  1  0.16421784  0.16423882  0.16419022  1
  O  O22  1  0.00004224  0.33582065  0.50003251  1
  O  O23  1  0.50002021  0.00009413  0.33581115  1
  O  O24  1  0.16374858  0.23861199  0.70187968  1
  O  O25  1  0.03664642  0.46183940  0.79808908  1
  O  O26  1  0.33631174  0.03813175  0.07487594  1
  O  O27  1  0.79814218  0.03669387  0.46188091  1
  O  O28  1  0.23858542  0.70188784  0.16371332  1
  O  O29  1  0.26147107  0.42515079  0.46332787  1
  O  O30  1  0.42514213  0.46330014  0.26146283  1
  O  O31  1  0.46186451  0.79813874  0.03670310  1
  O  O32  1  0.53669493  0.73851597  0.57478590  1
  O  O33  1  0.29816486  0.83626968  0.76149456  1
  O  O34  1  0.96187809  0.92516270  0.66373012  1
  O  O35  1  0.92521060  0.66372503  0.96188489  1
  O  O36  1  0.53818415  0.20189243  0.96339978  1
  O  O37  1  0.57492216  0.53672029  0.73860752  1
  O  O38  1  0.73860084  0.57486374  0.53668395  1
  O  O39  1  0.76146319  0.29821082  0.83635219  1
  O  O40  1  0.20184722  0.96326846  0.53813199  1
  O  O41  1  0.66372102  0.96187478  0.92511242  1
  O  O42  1  0.96333631  0.53822535  0.20187888  1
  O  O43  1  0.83629168  0.76150157  0.29809503  1
  O  O44  1  0.46336349  0.26153481  0.42521353  1
  O  O45  1  0.70186285  0.16367085  0.23857675  1
  O  O46  1  0.03815135  0.07479663  0.33628585  1
  O  O47  1  0.07479426  0.33628873  0.03816017  1
