# generated using pymatgen
data_MgV(Si2O5)2
_symmetry_space_group_name_H-M   'P 1'
_cell_length_a   7.33714300
_cell_length_b   7.33714300
_cell_length_c   14.97201900
_cell_angle_alpha   90.00000000
_cell_angle_beta   90.00000000
_cell_angle_gamma   90.00000000
_symmetry_Int_Tables_number   1
_chemical_formula_structural   MgV(Si2O5)2
_chemical_formula_sum   'Mg4 V4 Si16 O40'
_cell_volume   805.99869119
_cell_formula_units_Z   4
loop_
 _symmetry_equiv_pos_site_id
 _symmetry_equiv_pos_as_xyz
  1  'x, y, z'
loop_
 _atom_site_type_symbol
 _atom_site_label
 _atom_site_symmetry_multiplicity
 _atom_site_fract_x
 _atom_site_fract_y
 _atom_site_fract_z
 _atom_site_occupancy
  Mg  Mg0  1  0.25000000  0.75000000  0.50000000  1
  Mg  Mg1  1  0.75000000  0.25000000  0.50000000  1
  Mg  Mg2  1  0.75000000  0.25000000  0.00000000  1
  Mg  Mg3  1  0.25000000  0.75000000  0.00000000  1
  V  V4  1  0.25000000  0.25000000  0.57178800  1
  V  V5  1  0.75000000  0.75000000  0.92821200  1
  V  V6  1  0.75000000  0.75000000  0.42821200  1
  V  V7  1  0.25000000  0.25000000  0.07178800  1
  Si  Si8  1  0.90955200  0.49083200  0.64562400  1
  Si  Si9  1  0.59044800  0.00916800  0.64562400  1
  Si  Si10  1  0.99083200  0.40955200  0.85437600  1
  Si  Si11  1  0.49083200  0.59044800  0.64562400  1
  Si  Si12  1  0.00916800  0.90955200  0.64562400  1
  Si  Si13  1  0.09044800  0.99083200  0.85437600  1
  Si  Si14  1  0.40955200  0.50916800  0.85437600  1
  Si  Si15  1  0.50916800  0.09044800  0.85437600  1
  Si  Si16  1  0.09044800  0.50916800  0.35437600  1
  Si  Si17  1  0.40955200  0.99083200  0.35437600  1
  Si  Si18  1  0.00916800  0.59044800  0.14562400  1
  Si  Si19  1  0.50916800  0.40955200  0.35437600  1
  Si  Si20  1  0.99083200  0.09044800  0.35437600  1
  Si  Si21  1  0.90955200  0.00916800  0.14562400  1
  Si  Si22  1  0.59044800  0.49083200  0.14562400  1
  Si  Si23  1  0.49083200  0.90955200  0.14562400  1
  O  O24  1  0.97967200  0.33823700  0.57527100  1
  O  O25  1  0.52032800  0.16176300  0.57527100  1
  O  O26  1  0.83823700  0.47967200  0.92472900  1
  O  O27  1  0.33823700  0.52032800  0.57527100  1
  O  O28  1  0.16176300  0.97967200  0.57527100  1
  O  O29  1  0.02032800  0.83823700  0.92472900  1
  O  O30  1  0.47967200  0.66176300  0.92472900  1
  O  O31  1  0.66176300  0.02032800  0.92472900  1
  O  O32  1  0.02032800  0.66176300  0.42472900  1
  O  O33  1  0.47967200  0.83823700  0.42472900  1
  O  O34  1  0.16176300  0.52032800  0.07527100  1
  O  O35  1  0.66176300  0.47967200  0.42472900  1
  O  O36  1  0.83823700  0.02032800  0.42472900  1
  O  O37  1  0.97967200  0.16176300  0.07527100  1
  O  O38  1  0.52032800  0.33823700  0.07527100  1
  O  O39  1  0.00074800  0.30996000  0.37393000  1
  O  O40  1  0.33823700  0.97967200  0.07527100  1
  O  O41  1  0.50074800  0.80996000  0.62607000  1
  O  O42  1  0.19004000  0.49925200  0.87393000  1
  O  O43  1  0.69004000  0.50074800  0.62607000  1
  O  O44  1  0.80996000  0.99925200  0.62607000  1
  O  O45  1  0.00074800  0.19004000  0.87393000  1
  O  O46  1  0.49925200  0.30996000  0.87393000  1
  O  O47  1  0.30996000  0.00074800  0.87393000  1
  O  O48  1  0.44223000  0.94223000  0.25000000  1
  O  O49  1  0.55777000  0.44223000  0.25000000  1
  O  O50  1  0.94223000  0.05777100  0.25000000  1
  O  O51  1  0.05777100  0.55777000  0.25000000  1
  O  O52  1  0.55777000  0.05777100  0.75000000  1
  O  O53  1  0.44223000  0.55777000  0.75000000  1
  O  O54  1  0.05777100  0.94223000  0.75000000  1
  O  O55  1  0.94223000  0.44223000  0.75000000  1
  O  O56  1  0.69004000  0.99925200  0.12607000  1
  O  O57  1  0.50074800  0.69004000  0.12607000  1
  O  O58  1  0.99925200  0.80996000  0.12607000  1
  O  O59  1  0.19004000  0.00074800  0.37393000  1
  O  O60  1  0.30996000  0.49925200  0.37393000  1
  O  O61  1  0.80996000  0.50074800  0.12607000  1
  O  O62  1  0.49925200  0.19004000  0.37393000  1
  O  O63  1  0.99925200  0.69004000  0.62607000  1
