# generated using pymatgen
data_Nd2ZrS5
_symmetry_space_group_name_H-M   'P 1'
_cell_length_a   7.39137457
_cell_length_b   8.00986552
_cell_length_c   11.66135565
_cell_angle_alpha   90.00000000
_cell_angle_beta   90.00000000
_cell_angle_gamma   90.00000000
_symmetry_Int_Tables_number   1
_chemical_formula_structural   Nd2ZrS5
_chemical_formula_sum   'Nd8 Zr4 S20'
_cell_volume   690.39792401
_cell_formula_units_Z   4
loop_
 _symmetry_equiv_pos_site_id
 _symmetry_equiv_pos_as_xyz
  1  'x, y, z'
loop_
 _atom_site_type_symbol
 _atom_site_label
 _atom_site_symmetry_multiplicity
 _atom_site_fract_x
 _atom_site_fract_y
 _atom_site_fract_z
 _atom_site_occupancy
  Nd  Nd0  1  0.53589858  0.49907110  0.32411850  1
  Nd  Nd1  1  0.96410142  0.00092890  0.82411850  1
  Nd  Nd2  1  0.46410142  0.99907110  0.67588150  1
  Nd  Nd3  1  0.03589858  0.50092890  0.17588150  1
  Nd  Nd4  1  0.46410142  0.50092890  0.67588150  1
  Nd  Nd5  1  0.03589858  0.99907110  0.17588150  1
  Nd  Nd6  1  0.53589858  0.00092890  0.32411850  1
  Nd  Nd7  1  0.96410142  0.49907110  0.82411850  1
  Zr  Zr8  1  0.07470224  0.75000000  0.49212027  1
  Zr  Zr9  1  0.42529776  0.75000000  0.99212027  1
  Zr  Zr10  1  0.92529776  0.25000000  0.50787973  1
  Zr  Zr11  1  0.57470224  0.25000000  0.00787973  1
  S  S12  1  0.83446979  0.96484480  0.58553520  1
  S  S13  1  0.66553021  0.53515520  0.08553520  1
  S  S14  1  0.16553021  0.46484480  0.41446480  1
  S  S15  1  0.33446979  0.03515520  0.91446480  1
  S  S16  1  0.16553021  0.03515520  0.41446480  1
  S  S17  1  0.33446979  0.46484480  0.91446480  1
  S  S18  1  0.83446979  0.53515520  0.58553520  1
  S  S19  1  0.66553021  0.96484480  0.08553520  1
  S  S20  1  0.84335059  0.75000000  0.31549525  1
  S  S21  1  0.65664941  0.75000000  0.81549525  1
  S  S22  1  0.15664941  0.25000000  0.68450475  1
  S  S23  1  0.34335059  0.25000000  0.18450475  1
  S  S24  1  0.44378223  0.75000000  0.49593564  1
  S  S25  1  0.05621777  0.75000000  0.99593564  1
  S  S26  1  0.55621777  0.25000000  0.50406436  1
  S  S27  1  0.94378223  0.25000000  0.00406436  1
  S  S28  1  0.17757790  0.75000000  0.70649991  1
  S  S29  1  0.32242210  0.75000000  0.20649991  1
  S  S30  1  0.82242210  0.25000000  0.29350009  1
  S  S31  1  0.67757790  0.25000000  0.79350009  1
