# generated using pymatgen
data_CeSe2
_symmetry_space_group_name_H-M   'P 1'
_cell_length_a   14.34416462
_cell_length_b   14.34416462
_cell_length_c   14.34416462
_cell_angle_alpha   109.47121815
_cell_angle_beta   109.47122188
_cell_angle_gamma   109.47122188
_symmetry_Int_Tables_number   1
_chemical_formula_structural   CeSe2
_chemical_formula_sum   'Ce12 Se24'
_cell_volume   2271.97679633
_cell_formula_units_Z   12
loop_
 _symmetry_equiv_pos_site_id
 _symmetry_equiv_pos_as_xyz
  1  'x, y, z'
loop_
 _atom_site_type_symbol
 _atom_site_label
 _atom_site_symmetry_multiplicity
 _atom_site_fract_x
 _atom_site_fract_y
 _atom_site_fract_z
 _atom_site_occupancy
  Ce  Ce0  1  0.83257837  0.76567995  0.87934382  1
  Ce  Ce1  1  0.26567995  0.37934382  0.83257837  1
  Ce  Ce2  1  0.87934382  0.33257837  0.26567995  1
  Ce  Ce3  1  0.88633613  0.45323456  0.62065618  1
  Ce  Ce4  1  0.54676544  0.93310157  0.66742163  1
  Ce  Ce5  1  0.06689843  0.11366387  0.23432005  1
  Ce  Ce6  1  0.61366387  0.73432005  0.06689843  1
  Ce  Ce7  1  0.95323456  0.12065618  0.88633613  1
  Ce  Ce8  1  0.43310157  0.16742163  0.54676544  1
  Ce  Ce9  1  0.66742163  0.04676544  0.43310157  1
  Ce  Ce10  1  0.23432005  0.56689843  0.61366387  1
  Ce  Ce11  1  0.62065618  0.38633613  0.95323456  1
  Se  Se12  1  0.88621839  0.89485172  0.78250676  1
  Se  Se13  1  0.39485172  0.28250676  0.88621839  1
  Se  Se14  1  0.78250676  0.38621839  0.39485172  1
  Se  Se15  1  0.11234496  0.60371163  0.71749324  1
  Se  Se16  1  0.39628837  0.00863333  0.61378161  1
  Se  Se17  1  0.99136667  0.88765504  0.10514828  1
  Se  Se18  1  0.38765504  0.60514828  0.99136667  1
  Se  Se19  1  0.10371163  0.21749324  0.11234496  1
  Se  Se20  1  0.50863333  0.11378161  0.39628837  1
  Se  Se21  1  0.61378161  0.89628837  0.50863333  1
  Se  Se22  1  0.10514828  0.49136667  0.38765504  1
  Se  Se23  1  0.71749324  0.61234496  0.10371163  1
  Se  Se24  1  0.60633994  0.35633994  0.75000000  1
  Se  Se25  1  0.85633994  0.25000000  0.60633994  1
  Se  Se26  1  0.75000000  0.10633994  0.85633994  1
  Se  Se27  1  0.64366006  0.75000000  0.89366006  1
  Se  Se28  1  0.25000000  0.39366006  0.64366006  1
  Se  Se29  1  0.89366006  0.14366006  0.25000000  1
  Se  Se30  1  0.81327935  0.56327935  0.75000000  1
  Se  Se31  1  0.06327935  0.25000000  0.81327935  1
  Se  Se32  1  0.75000000  0.31327935  0.06327935  1
  Se  Se33  1  0.43672065  0.75000000  0.68672065  1
  Se  Se34  1  0.25000000  0.18672065  0.43672065  1
  Se  Se35  1  0.68672065  0.93672065  0.25000000  1
