# generated using pymatgen
data_Mg(InSe2)2
_symmetry_space_group_name_H-M   'P 1'
_cell_length_a   7.09065503
_cell_length_b   8.19709265
_cell_length_c   13.70562719
_cell_angle_alpha   98.76851622
_cell_angle_beta   95.02471361
_cell_angle_gamma   89.98319215
_symmetry_Int_Tables_number   1
_chemical_formula_structural   Mg(InSe2)2
_chemical_formula_sum   'Mg4 In8 Se16'
_cell_volume   784.20373232
_cell_formula_units_Z   4
loop_
 _symmetry_equiv_pos_site_id
 _symmetry_equiv_pos_as_xyz
  1  'x, y, z'
loop_
 _atom_site_type_symbol
 _atom_site_label
 _atom_site_symmetry_multiplicity
 _atom_site_fract_x
 _atom_site_fract_y
 _atom_site_fract_z
 _atom_site_occupancy
  Mg  Mg0  1  0.25017109  0.37269187  0.00149923  1
  Mg  Mg1  1  0.13143423  0.19969218  0.29518330  1
  Mg  Mg2  1  0.74982891  0.62730813  0.99850077  1
  Mg  Mg3  1  0.86856577  0.80030782  0.70481670  1
  In  In4  1  0.23886149  0.87631376  -0.00002894  1
  In  In5  1  0.13870224  0.69950799  0.29280422  1
  In  In6  1  0.62899913  0.44325521  0.29124903  1
  In  In7  1  0.76113851  0.12368624  0.00002894  1
  In  In8  1  0.86129776  0.30049201  0.70719578  1
  In  In9  1  0.62895738  0.95287391  0.29540750  1
  In  In10  1  0.37104262  0.04712609  0.70459250  1
  In  In11  1  0.37100087  0.55674479  0.70875097  1
  Se  Se12  1  0.18675973  0.28227049  0.62607423  1
  Se  Se13  1  0.10570377  0.15446403  0.10664783  1
  Se  Se14  1  0.18578263  0.77982056  0.62434682  1
  Se  Se15  1  0.09934603  0.64722194  0.10325562  1
  Se  Se16  1  0.89429623  0.84553597  0.89335217  1
  Se  Se17  1  0.68800948  0.53168298  0.62543743  1
  Se  Se18  1  0.81324027  0.71772951  0.37392577  1
  Se  Se19  1  0.60249466  0.40182384  0.10131996  1
  Se  Se20  1  0.90065397  0.35277806  0.89674438  1
  Se  Se21  1  0.68982891  0.02803898  0.62405691  1
  Se  Se22  1  0.81421737  0.22017944  0.37565318  1
  Se  Se23  1  0.59880786  0.89937931  0.10421610  1
  Se  Se24  1  0.40119214  0.10062069  0.89578390  1
  Se  Se25  1  0.31017109  0.97196102  0.37594309  1
  Se  Se26  1  0.39750534  0.59817616  0.89868004  1
  Se  Se27  1  0.31199052  0.46831702  0.37456257  1
