# generated using pymatgen
data_Dy3Te3N
_symmetry_space_group_name_H-M   'P 1'
_cell_length_a   11.96043260
_cell_length_b   8.09958235
_cell_length_c   8.63858629
_cell_angle_alpha   71.12424697
_cell_angle_beta   90.00000000
_cell_angle_gamma   90.00000000
_symmetry_Int_Tables_number   1
_chemical_formula_structural   Dy3Te3N
_chemical_formula_sum   'Dy12 Te12 N4'
_cell_volume   791.85450587
_cell_formula_units_Z   4
loop_
 _symmetry_equiv_pos_site_id
 _symmetry_equiv_pos_as_xyz
  1  'x, y, z'
loop_
 _atom_site_type_symbol
 _atom_site_label
 _atom_site_symmetry_multiplicity
 _atom_site_fract_x
 _atom_site_fract_y
 _atom_site_fract_z
 _atom_site_occupancy
  Dy  Dy0  1  0.02304156  0.60180794  0.13775016  1
  Dy  Dy1  1  0.52304156  0.39819206  0.36224984  1
  Dy  Dy2  1  0.97695844  0.39819206  0.86224984  1
  Dy  Dy3  1  0.47695844  0.60180794  0.63775016  1
  Dy  Dy4  1  0.41186795  0.83845494  0.20535047  1
  Dy  Dy5  1  0.91186795  0.16154506  0.29464953  1
  Dy  Dy6  1  0.58813205  0.16154506  0.79464953  1
  Dy  Dy7  1  0.08813205  0.83845494  0.70535047  1
  Dy  Dy8  1  0.70830009  0.76716387  0.34553576  1
  Dy  Dy9  1  0.20830009  0.23283613  0.15446424  1
  Dy  Dy10  1  0.29169991  0.23283613  0.65446424  1
  Dy  Dy11  1  0.79169991  0.76716387  0.84553576  1
  Te  Te12  1  0.97930756  0.77741068  0.41396898  1
  Te  Te13  1  0.47930756  0.22258932  0.08603102  1
  Te  Te14  1  0.02069244  0.22258932  0.58603102  1
  Te  Te15  1  0.52069244  0.77741068  0.91396898  1
  Te  Te16  1  0.26626379  0.50683849  0.31317385  1
  Te  Te17  1  0.76626379  0.49316151  0.18682615  1
  Te  Te18  1  0.73373621  0.49316151  0.68682615  1
  Te  Te19  1  0.23373621  0.50683849  0.81317385  1
  Te  Te20  1  0.30801711  0.95334772  0.48337034  1
  Te  Te21  1  0.80801711  0.04665228  0.01662966  1
  Te  Te22  1  0.69198289  0.04665228  0.51662966  1
  Te  Te23  1  0.19198289  0.95334772  0.98337034  1
  N  N24  1  0.53450828  0.67289060  0.37680071  1
  N  N25  1  0.03450828  0.32710940  0.12319929  1
  N  N26  1  0.46549172  0.32710940  0.62319929  1
  N  N27  1  0.96549172  0.67289060  0.87680071  1
