# generated using pymatgen
data_CsKMg30O31
_symmetry_space_group_name_H-M   'P 1'
_cell_length_a   8.84952172
_cell_length_b   8.65071728
_cell_length_c   8.78644545
_cell_angle_alpha   90.00000000
_cell_angle_beta   90.00000000
_cell_angle_gamma   90.00000000
_symmetry_Int_Tables_number   1
_chemical_formula_structural   CsKMg30O31
_chemical_formula_sum   'Cs1 K1 Mg30 O31'
_cell_volume   672.64378742
_cell_formula_units_Z   1
loop_
 _symmetry_equiv_pos_site_id
 _symmetry_equiv_pos_as_xyz
  1  'x, y, z'
loop_
 _atom_site_type_symbol
 _atom_site_label
 _atom_site_symmetry_multiplicity
 _atom_site_fract_x
 _atom_site_fract_y
 _atom_site_fract_z
 _atom_site_occupancy
  Cs  Cs0  1  0.97271828  0.50000000  0.50000000  1
  K  K1  1  0.99753544  -0.00000000  0.00000000  1
  Mg  Mg2  1  0.97922551  -0.00000000  0.50000000  1
  Mg  Mg3  1  0.99889042  0.50000000  0.00000000  1
  Mg  Mg4  1  0.50182388  -0.00000000  0.00000000  1
  Mg  Mg5  1  0.51796930  -0.00000000  0.50000000  1
  Mg  Mg6  1  0.50021079  0.50000000  0.00000000  1
  Mg  Mg7  1  0.48757550  0.50000000  0.50000000  1
  Mg  Mg8  1  0.00795626  0.24818264  0.24740793  1
  Mg  Mg9  1  0.00795626  0.24818264  0.75259207  1
  Mg  Mg10  1  0.00795626  0.75181736  0.24740793  1
  Mg  Mg11  1  0.00795626  0.75181736  0.75259207  1
  Mg  Mg12  1  0.49610724  0.24825760  0.24516012  1
  Mg  Mg13  1  0.49610724  0.24825760  0.75483988  1
  Mg  Mg14  1  0.49610724  0.75174240  0.24516012  1
  Mg  Mg15  1  0.49610724  0.75174240  0.75483988  1
  Mg  Mg16  1  0.24805269  -0.00000000  0.22736227  1
  Mg  Mg17  1  0.24805269  -0.00000000  0.77263773  1
  Mg  Mg18  1  0.25222100  0.50000000  0.23866793  1
  Mg  Mg19  1  0.25222100  0.50000000  0.76133207  1
  Mg  Mg20  1  0.75231975  -0.00000000  0.24874164  1
  Mg  Mg21  1  0.75231975  -0.00000000  0.75125836  1
  Mg  Mg22  1  0.73694637  0.50000000  0.24350132  1
  Mg  Mg23  1  0.73694637  0.50000000  0.75649868  1
  Mg  Mg24  1  0.25182199  0.25645127  0.00000000  1
  Mg  Mg25  1  0.25616292  0.27028937  0.50000000  1
  Mg  Mg26  1  0.25182199  0.74354873  0.00000000  1
  Mg  Mg27  1  0.25616292  0.72971063  0.50000000  1
  Mg  Mg28  1  0.75136013  0.25216037  0.00000000  1
  Mg  Mg29  1  0.72604302  0.25309317  0.50000000  1
  Mg  Mg30  1  0.75136013  0.74783963  0.00000000  1
  Mg  Mg31  1  0.72604302  0.74690683  0.50000000  1
  O  O32  1  0.27511093  -0.00000000  0.00000000  1
  O  O33  1  0.26629738  0.50000000  0.00000000  1
  O  O34  1  0.27323668  0.50000000  0.50000000  1
  O  O35  1  0.72521984  -0.00000000  0.00000000  1
  O  O36  1  0.74468491  -0.00000000  0.50000000  1
  O  O37  1  0.73944032  0.50000000  0.00000000  1
  O  O38  1  0.69672335  0.50000000  0.50000000  1
  O  O39  1  0.25544178  0.24455565  0.24722768  1
  O  O40  1  0.25544178  0.24455565  0.75277232  1
  O  O41  1  0.25544178  0.75544435  0.24722768  1
  O  O42  1  0.25544178  0.75544435  0.75277232  1
  O  O43  1  0.74991140  0.25160601  0.25736844  1
  O  O44  1  0.74991140  0.25160601  0.74263156  1
  O  O45  1  0.74991140  0.74839399  0.25736844  1
  O  O46  1  0.74991140  0.74839399  0.74263156  1
  O  O47  1  0.00260296  -0.00000000  0.26976760  1
  O  O48  1  0.00260296  -0.00000000  0.73023240  1
  O  O49  1  0.01729450  0.50000000  0.21945752  1
  O  O50  1  0.01729450  0.50000000  0.78054248  1
  O  O51  1  0.49458360  -0.00000000  0.25949280  1
  O  O52  1  0.49458360  -0.00000000  0.74050720  1
  O  O53  1  0.49564567  0.50000000  0.24515422  1
  O  O54  1  0.49564567  0.50000000  0.75484578  1
  O  O55  1  -0.00066850  0.26954637  0.00000000  1
  O  O56  1  0.04219097  0.21312609  0.50000000  1
  O  O57  1  -0.00066850  0.73045363  0.00000000  1
  O  O58  1  0.04219097  0.78687391  0.50000000  1
  O  O59  1  0.50337529  0.25033997  0.00000000  1
  O  O60  1  0.48788301  0.23661995  0.50000000  1
  O  O61  1  0.50337529  0.74966003  0.00000000  1
  O  O62  1  0.48788301  0.76338005  0.50000000  1
