# generated using pymatgen
data_CsDy2Cl7
_symmetry_space_group_name_H-M   'P 1'
_cell_length_a   6.98703414
_cell_length_b   12.66543271
_cell_length_c   13.52578119
_cell_angle_alpha   90.00000000
_cell_angle_beta   90.00000000
_cell_angle_gamma   90.00000000
_symmetry_Int_Tables_number   1
_chemical_formula_structural   CsDy2Cl7
_chemical_formula_sum   'Cs4 Dy8 Cl28'
_cell_volume   1196.94792077
_cell_formula_units_Z   4
loop_
 _symmetry_equiv_pos_site_id
 _symmetry_equiv_pos_as_xyz
  1  'x, y, z'
loop_
 _atom_site_type_symbol
 _atom_site_label
 _atom_site_symmetry_multiplicity
 _atom_site_fract_x
 _atom_site_fract_y
 _atom_site_fract_z
 _atom_site_occupancy
  Cs  Cs0  1  0.25000000  0.80121757  0.03987404  1
  Cs  Cs1  1  0.75000000  0.19878243  0.96012596  1
  Cs  Cs2  1  0.75000000  0.30121757  0.46012596  1
  Cs  Cs3  1  0.25000000  0.69878243  0.53987404  1
  Dy  Dy4  1  0.25000000  0.45759988  0.24000326  1
  Dy  Dy5  1  0.75000000  0.54240012  0.75999674  1
  Dy  Dy6  1  0.75000000  0.95759988  0.25999674  1
  Dy  Dy7  1  0.25000000  0.04240012  0.74000326  1
  Dy  Dy8  1  0.25000000  0.15397176  0.24891558  1
  Dy  Dy9  1  0.75000000  0.84602824  0.75108442  1
  Dy  Dy10  1  0.75000000  0.65397176  0.25108442  1
  Dy  Dy11  1  0.25000000  0.34602824  0.74891558  1
  Cl  Cl12  1  0.00985989  0.30453101  0.17854063  1
  Cl  Cl13  1  0.99014011  0.69546899  0.82145937  1
  Cl  Cl14  1  0.99014011  0.80453101  0.32145937  1
  Cl  Cl15  1  0.50985989  0.69546899  0.82145937  1
  Cl  Cl16  1  0.00985989  0.19546899  0.67854063  1
  Cl  Cl17  1  0.49014011  0.30453101  0.17854063  1
  Cl  Cl18  1  0.49014011  0.19546899  0.67854063  1
  Cl  Cl19  1  0.50985989  0.80453101  0.32145937  1
  Cl  Cl20  1  0.00903827  0.57271421  0.12595703  1
  Cl  Cl21  1  0.99096173  0.42728579  0.87404297  1
  Cl  Cl22  1  0.99096173  0.07271421  0.37404297  1
  Cl  Cl23  1  0.50903827  0.42728579  0.87404297  1
  Cl  Cl24  1  0.00903827  0.92728579  0.62595703  1
  Cl  Cl25  1  0.49096173  0.57271421  0.12595703  1
  Cl  Cl26  1  0.49096173  0.92728579  0.62595703  1
  Cl  Cl27  1  0.50903827  0.07271421  0.37404297  1
  Cl  Cl28  1  0.01025224  0.03814895  0.13287249  1
  Cl  Cl29  1  0.98974776  0.96185105  0.86712751  1
  Cl  Cl30  1  0.98974776  0.53814895  0.36712751  1
  Cl  Cl31  1  0.51025224  0.96185105  0.86712751  1
  Cl  Cl32  1  0.01025224  0.46185105  0.63287249  1
  Cl  Cl33  1  0.48974776  0.03814895  0.13287249  1
  Cl  Cl34  1  0.48974776  0.46185105  0.63287249  1
  Cl  Cl35  1  0.51025224  0.53814895  0.36712751  1
  Cl  Cl36  1  0.25000000  0.30841968  0.39004288  1
  Cl  Cl37  1  0.75000000  0.69158032  0.60995712  1
  Cl  Cl38  1  0.75000000  0.80841968  0.10995712  1
  Cl  Cl39  1  0.25000000  0.19158032  0.89004288  1
