# generated using pymatgen
data_As2O5
_symmetry_space_group_name_H-M   'P 1'
_cell_length_a   8.61841547
_cell_length_b   8.61841547
_cell_length_c   4.63387087
_cell_angle_alpha   90.00000000
_cell_angle_beta   90.00000000
_cell_angle_gamma   90.00000000
_symmetry_Int_Tables_number   1
_chemical_formula_structural   As2O5
_chemical_formula_sum   'As8 O20'
_cell_volume   344.19042148
_cell_formula_units_Z   4
loop_
 _symmetry_equiv_pos_site_id
 _symmetry_equiv_pos_as_xyz
  1  'x, y, z'
loop_
 _atom_site_type_symbol
 _atom_site_label
 _atom_site_symmetry_multiplicity
 _atom_site_fract_x
 _atom_site_fract_y
 _atom_site_fract_z
 _atom_site_occupancy
  As  As0  1  0.59787736  0.59787736  0.50000000  1
  As  As1  1  0.21586781  0.21586781  0.50000000  1
  As  As2  1  0.78413219  0.78413219  0.00000000  1
  As  As3  1  0.71586781  0.28413219  0.75000000  1
  As  As4  1  0.90212264  0.09787736  0.25000000  1
  As  As5  1  0.40212264  0.40212264  0.00000000  1
  As  As6  1  0.28413219  0.71586781  0.25000000  1
  As  As7  1  0.09787736  0.90212264  0.75000000  1
  O  O8  1  0.75531984  0.97642889  0.07395220  1
  O  O9  1  0.24468016  0.02357111  0.57395220  1
  O  O10  1  0.34504053  0.23563650  0.22961837  1
  O  O11  1  0.44405159  0.55594841  0.75000000  1
  O  O12  1  0.94405159  0.94405159  0.50000000  1
  O  O13  1  0.76436350  0.65495947  0.27038163  1
  O  O14  1  0.55594841  0.44405159  0.25000000  1
  O  O15  1  0.47642889  0.74468016  0.32395220  1
  O  O16  1  0.26436350  0.84504053  0.97961837  1
  O  O17  1  0.73563650  0.15495947  0.47961837  1
  O  O18  1  0.74468016  0.47642889  0.67604780  1
  O  O19  1  0.05594841  0.05594841  0.00000000  1
  O  O20  1  0.23563650  0.34504053  0.77038163  1
  O  O21  1  0.84504053  0.26436350  0.02038163  1
  O  O22  1  0.02357111  0.24468016  0.42604780  1
  O  O23  1  0.65495947  0.76436350  0.72961837  1
  O  O24  1  0.15495947  0.73563650  0.52038163  1
  O  O25  1  0.52357111  0.25531984  0.82395220  1
  O  O26  1  0.25531984  0.52357111  0.17604780  1
  O  O27  1  0.97642889  0.75531984  0.92604780  1
