# generated using pymatgen
data_K4Ca(SiO3)3
_symmetry_space_group_name_H-M   'P 1'
_cell_length_a   16.15509829
_cell_length_b   16.15509829
_cell_length_c   16.15509829
_cell_angle_alpha   90.00000000
_cell_angle_beta   90.00000000
_cell_angle_gamma   90.00000000
_symmetry_Int_Tables_number   1
_chemical_formula_structural   K4Ca(SiO3)3
_chemical_formula_sum   'K64 Ca16 Si48 O144'
_cell_volume   4216.27388070
_cell_formula_units_Z   16
loop_
 _symmetry_equiv_pos_site_id
 _symmetry_equiv_pos_as_xyz
  1  'x, y, z'
loop_
 _atom_site_type_symbol
 _atom_site_label
 _atom_site_symmetry_multiplicity
 _atom_site_fract_x
 _atom_site_fract_y
 _atom_site_fract_z
 _atom_site_occupancy
  K  K0  1  0.50000000  0.50000000  -0.00000000  1
  K  K1  1  0.50000000  -0.00000000  0.50000000  1
  K  K2  1  -0.00000000  0.50000000  0.50000000  1
  K  K3  1  0.00000000  -0.00000000  -0.00000000  1
  K  K4  1  0.00000000  -0.00000000  0.50000000  1
  K  K5  1  0.00000000  0.50000000  -0.00000000  1
  K  K6  1  0.50000000  -0.00000000  -0.00000000  1
  K  K7  1  0.50000000  0.50000000  0.50000000  1
  K  K8  1  0.25104760  0.74895240  0.24895240  1
  K  K9  1  0.74895240  0.24895240  0.25104760  1
  K  K10  1  0.24895240  0.25104760  0.74895240  1
  K  K11  1  0.75104760  0.75104760  0.75104760  1
  K  K12  1  0.74895240  0.25104760  0.75104760  1
  K  K13  1  0.25104760  0.75104760  0.74895240  1
  K  K14  1  0.75104760  0.74895240  0.25104760  1
  K  K15  1  0.24895240  0.24895240  0.24895240  1
  K  K16  1  0.11021374  0.89155541  0.14980977  1
  K  K17  1  0.88978626  0.39155541  0.35019023  1
  K  K18  1  0.38978626  0.10844459  0.64980977  1
  K  K19  1  0.61021374  0.60844459  0.85019023  1
  K  K20  1  0.14980977  0.11021374  0.89155541  1
  K  K21  1  0.35019023  0.88978626  0.39155541  1
  K  K22  1  0.64980977  0.38978626  0.10844459  1
  K  K23  1  0.85019023  0.61021374  0.60844459  1
  K  K24  1  0.89155541  0.14980977  0.11021374  1
  K  K25  1  0.39155541  0.35019023  0.88978626  1
  K  K26  1  0.10844459  0.64980977  0.38978626  1
  K  K27  1  0.60844459  0.85019023  0.61021374  1
  K  K28  1  0.88978626  0.10844459  0.85019023  1
  K  K29  1  0.11021374  0.60844459  0.64980977  1
  K  K30  1  0.61021374  0.89155541  0.35019023  1
  K  K31  1  0.38978626  0.39155541  0.14980977  1
  K  K32  1  0.85019023  0.88978626  0.10844459  1
  K  K33  1  0.64980977  0.11021374  0.60844459  1
  K  K34  1  0.35019023  0.61021374  0.89155541  1
  K  K35  1  0.14980977  0.38978626  0.39155541  1
  K  K36  1  0.10844459  0.85019023  0.88978626  1
  K  K37  1  0.60844459  0.64980977  0.11021374  1
  K  K38  1  0.89155541  0.35019023  0.61021374  1
  K  K39  1  0.39155541  0.14980977  0.38978626  1
  K  K40  1  0.35588189  0.58552157  0.34601682  1
  K  K41  1  0.64411811  0.08552157  0.15398318  1
  K  K42  1  0.14411811  0.41447843  0.84601682  1
  K  K43  1  0.85588189  0.91447843  0.65398318  1
  K  K44  1  0.34601682  0.35588189  0.58552157  1
  K  K45  1  0.15398318  0.64411811  0.08552157  1
  K  K46  1  0.84601682  0.14411811  0.41447843  1
  K  K47  1  0.65398318  0.85588189  0.91447843  1
  K  K48  1  0.58552157  0.34601682  0.35588189  1
  K  K49  1  0.08552157  0.15398318  0.64411811  1
  K  K50  1  0.41447843  0.84601682  0.14411811  1
  K  K51  1  0.91447843  0.65398318  0.85588189  1
  K  K52  1  0.64411811  0.41447843  0.65398318  1
  K  K53  1  0.35588189  0.91447843  0.84601682  1
  K  K54  1  0.85588189  0.58552157  0.15398318  1
  K  K55  1  0.14411811  0.08552157  0.34601682  1
  K  K56  1  0.65398318  0.64411811  0.41447843  1
  K  K57  1  0.84601682  0.35588189  0.91447843  1
  K  K58  1  0.15398318  0.85588189  0.58552157  1
  K  K59  1  0.34601682  0.14411811  0.08552157  1
  K  K60  1  0.41447843  0.65398318  0.64411811  1
  K  K61  1  0.91447843  0.84601682  0.35588189  1
  K  K62  1  0.58552157  0.15398318  0.85588189  1
  K  K63  1  0.08552157  0.34601682  0.14411811  1
  Ca  Ca64  1  0.37556072  0.62443928  0.12443928  1
  Ca  Ca65  1  0.62443928  0.12443928  0.37556072  1
  Ca  Ca66  1  0.12443928  0.37556072  0.62443928  1
  Ca  Ca67  1  0.87556072  0.87556072  0.87556072  1
  Ca  Ca68  1  0.62443928  0.37556072  0.87556072  1
  Ca  Ca69  1  0.37556072  0.87556072  0.62443928  1
  Ca  Ca70  1  0.87556072  0.62443928  0.37556072  1
  Ca  Ca71  1  0.12443928  0.12443928  0.12443928  1
  Ca  Ca72  1  0.12756181  0.87243819  0.37243819  1
  Ca  Ca73  1  0.87243819  0.37243819  0.12756181  1
  Ca  Ca74  1  0.37243819  0.12756181  0.87243819  1
  Ca  Ca75  1  0.62756181  0.62756181  0.62756181  1
  Ca  Ca76  1  0.87243819  0.12756181  0.62756181  1
  Ca  Ca77  1  0.12756181  0.62756181  0.87243819  1
  Ca  Ca78  1  0.62756181  0.87243819  0.12756181  1
  Ca  Ca79  1  0.37243819  0.37243819  0.37243819  1
  Si  Si80  1  0.27929655  0.99079794  0.21757466  1
  Si  Si81  1  0.72070345  0.49079794  0.28242534  1
  Si  Si82  1  0.22070345  0.00920206  0.71757466  1
  Si  Si83  1  0.77929655  0.50920206  0.78242534  1
  Si  Si84  1  0.21757466  0.27929655  0.99079794  1
  Si  Si85  1  0.28242534  0.72070345  0.49079794  1
  Si  Si86  1  0.71757466  0.22070345  0.00920206  1
  Si  Si87  1  0.78242534  0.77929655  0.50920206  1
  Si  Si88  1  0.99079794  0.21757466  0.27929655  1
  Si  Si89  1  0.49079794  0.28242534  0.72070345  1
  Si  Si90  1  0.00920206  0.71757466  0.22070345  1
  Si  Si91  1  0.50920206  0.78242534  0.77929655  1
  Si  Si92  1  0.72070345  0.00920206  0.78242534  1
  Si  Si93  1  0.27929655  0.50920206  0.71757466  1
  Si  Si94  1  0.77929655  0.99079794  0.28242534  1
  Si  Si95  1  0.22070345  0.49079794  0.21757466  1
  Si  Si96  1  0.78242534  0.72070345  0.00920206  1
  Si  Si97  1  0.71757466  0.27929655  0.50920206  1
  Si  Si98  1  0.28242534  0.77929655  0.99079794  1
  Si  Si99  1  0.21757466  0.22070345  0.49079794  1
  Si  Si100  1  0.00920206  0.78242534  0.72070345  1
  Si  Si101  1  0.50920206  0.71757466  0.27929655  1
  Si  Si102  1  0.99079794  0.28242534  0.77929655  1
  Si  Si103  1  0.49079794  0.21757466  0.22070345  1
  Si  Si104  1  0.25671911  0.97346014  0.02431612  1
  Si  Si105  1  0.74328089  0.47346014  0.47568388  1
  Si  Si106  1  0.24328089  0.02653986  0.52431612  1
  Si  Si107  1  0.75671911  0.52653986  0.97568388  1
  Si  Si108  1  0.02431612  0.25671911  0.97346014  1
  Si  Si109  1  0.47568388  0.74328089  0.47346014  1
  Si  Si110  1  0.52431612  0.24328089  0.02653986  1
  Si  Si111  1  0.97568388  0.75671911  0.52653986  1
  Si  Si112  1  0.97346014  0.02431612  0.25671911  1
  Si  Si113  1  0.47346014  0.47568388  0.74328089  1
  Si  Si114  1  0.02653986  0.52431612  0.24328089  1
  Si  Si115  1  0.52653986  0.97568388  0.75671911  1
  Si  Si116  1  0.74328089  0.02653986  0.97568388  1
  Si  Si117  1  0.25671911  0.52653986  0.52431612  1
  Si  Si118  1  0.75671911  0.97346014  0.47568388  1
  Si  Si119  1  0.24328089  0.47346014  0.02431612  1
  Si  Si120  1  0.97568388  0.74328089  0.02653986  1
  Si  Si121  1  0.52431612  0.25671911  0.52653986  1
  Si  Si122  1  0.47568388  0.75671911  0.97346014  1
  Si  Si123  1  0.02431612  0.24328089  0.47346014  1
  Si  Si124  1  0.02653986  0.97568388  0.74328089  1
  Si  Si125  1  0.52653986  0.52431612  0.25671911  1
  Si  Si126  1  0.97346014  0.47568388  0.75671911  1
  Si  Si127  1  0.47346014  0.02431612  0.24328089  1
  O  O128  1  0.07794409  0.77018958  0.27248324  1
  O  O129  1  0.92205591  0.27018958  0.22751676  1
  O  O130  1  0.42205591  0.22981042  0.77248324  1
  O  O131  1  0.57794409  0.72981042  0.72751676  1
  O  O132  1  0.27248324  0.07794409  0.77018958  1
  O  O133  1  0.22751676  0.92205591  0.27018958  1
  O  O134  1  0.77248324  0.42205591  0.22981042  1
  O  O135  1  0.72751676  0.57794409  0.72981042  1
  O  O136  1  0.77018958  0.27248324  0.07794409  1
  O  O137  1  0.27018958  0.22751676  0.92205591  1
  O  O138  1  0.22981042  0.77248324  0.42205591  1
  O  O139  1  0.72981042  0.72751676  0.57794409  1
  O  O140  1  0.92205591  0.22981042  0.72751676  1
  O  O141  1  0.07794409  0.72981042  0.77248324  1
  O  O142  1  0.57794409  0.77018958  0.22751676  1
  O  O143  1  0.42205591  0.27018958  0.27248324  1
  O  O144  1  0.72751676  0.92205591  0.22981042  1
  O  O145  1  0.77248324  0.07794409  0.72981042  1
  O  O146  1  0.22751676  0.57794409  0.77018958  1
  O  O147  1  0.27248324  0.42205591  0.27018958  1
  O  O148  1  0.22981042  0.72751676  0.92205591  1
  O  O149  1  0.72981042  0.77248324  0.07794409  1
  O  O150  1  0.77018958  0.22751676  0.57794409  1
  O  O151  1  0.27018958  0.27248324  0.42205591  1
  O  O152  1  0.03066434  0.82490923  0.47683398  1
  O  O153  1  0.96933566  0.32490923  0.02316602  1
  O  O154  1  0.46933566  0.17509077  0.97683398  1
  O  O155  1  0.53066434  0.67509077  0.52316602  1
  O  O156  1  0.47683398  0.03066434  0.82490923  1
  O  O157  1  0.02316602  0.96933566  0.32490923  1
  O  O158  1  0.97683398  0.46933566  0.17509077  1
  O  O159  1  0.52316602  0.53066434  0.67509077  1
  O  O160  1  0.82490923  0.47683398  0.03066434  1
  O  O161  1  0.32490923  0.02316602  0.96933566  1
  O  O162  1  0.17509077  0.97683398  0.46933566  1
  O  O163  1  0.67509077  0.52316602  0.53066434  1
  O  O164  1  0.96933566  0.17509077  0.52316602  1
  O  O165  1  0.03066434  0.67509077  0.97683398  1
  O  O166  1  0.53066434  0.82490923  0.02316602  1
  O  O167  1  0.46933566  0.32490923  0.47683398  1
  O  O168  1  0.52316602  0.96933566  0.17509077  1
  O  O169  1  0.97683398  0.03066434  0.67509077  1
  O  O170  1  0.02316602  0.53066434  0.82490923  1
  O  O171  1  0.47683398  0.46933566  0.32490923  1
  O  O172  1  0.17509077  0.52316602  0.96933566  1
  O  O173  1  0.67509077  0.97683398  0.03066434  1
  O  O174  1  0.82490923  0.02316602  0.53066434  1
  O  O175  1  0.32490923  0.47683398  0.46933566  1
  O  O176  1  0.04244352  0.61996604  0.20637380  1
  O  O177  1  0.95755648  0.11996604  0.29362620  1
  O  O178  1  0.45755648  0.38003396  0.70637380  1
  O  O179  1  0.54244352  0.88003396  0.79362620  1
  O  O180  1  0.20637380  0.04244352  0.61996604  1
  O  O181  1  0.29362620  0.95755648  0.11996604  1
  O  O182  1  0.70637380  0.45755648  0.38003396  1
  O  O183  1  0.79362620  0.54244352  0.88003396  1
  O  O184  1  0.61996604  0.20637380  0.04244352  1
  O  O185  1  0.11996604  0.29362620  0.95755648  1
  O  O186  1  0.38003396  0.70637380  0.45755648  1
  O  O187  1  0.88003396  0.79362620  0.54244352  1
  O  O188  1  0.95755648  0.38003396  0.79362620  1
  O  O189  1  0.04244352  0.88003396  0.70637380  1
  O  O190  1  0.54244352  0.61996604  0.29362620  1
  O  O191  1  0.45755648  0.11996604  0.20637380  1
  O  O192  1  0.79362620  0.95755648  0.38003396  1
  O  O193  1  0.70637380  0.04244352  0.88003396  1
  O  O194  1  0.29362620  0.54244352  0.61996604  1
  O  O195  1  0.20637380  0.45755648  0.11996604  1
  O  O196  1  0.38003396  0.79362620  0.95755648  1
  O  O197  1  0.88003396  0.70637380  0.04244352  1
  O  O198  1  0.61996604  0.29362620  0.54244352  1
  O  O199  1  0.11996604  0.20637380  0.45755648  1
  O  O200  1  0.25952418  0.58319648  0.21386377  1
  O  O201  1  0.74047582  0.08319648  0.28613623  1
  O  O202  1  0.24047582  0.41680352  0.71386377  1
  O  O203  1  0.75952418  0.91680352  0.78613623  1
  O  O204  1  0.21386377  0.25952418  0.58319648  1
  O  O205  1  0.28613623  0.74047582  0.08319648  1
  O  O206  1  0.71386377  0.24047582  0.41680352  1
  O  O207  1  0.78613623  0.75952418  0.91680352  1
  O  O208  1  0.58319648  0.21386377  0.25952418  1
  O  O209  1  0.08319648  0.28613623  0.74047582  1
  O  O210  1  0.41680352  0.71386377  0.24047582  1
  O  O211  1  0.91680352  0.78613623  0.75952418  1
  O  O212  1  0.74047582  0.41680352  0.78613623  1
  O  O213  1  0.25952418  0.91680352  0.71386377  1
  O  O214  1  0.75952418  0.58319648  0.28613623  1
  O  O215  1  0.24047582  0.08319648  0.21386377  1
  O  O216  1  0.78613623  0.74047582  0.41680352  1
  O  O217  1  0.71386377  0.25952418  0.91680352  1
  O  O218  1  0.28613623  0.75952418  0.58319648  1
  O  O219  1  0.21386377  0.24047582  0.08319648  1
  O  O220  1  0.41680352  0.78613623  0.74047582  1
  O  O221  1  0.91680352  0.71386377  0.25952418  1
  O  O222  1  0.58319648  0.28613623  0.75952418  1
  O  O223  1  0.08319648  0.21386377  0.24047582  1
  O  O224  1  0.33407946  0.51617609  0.03037966  1
  O  O225  1  0.66592054  0.01617609  0.46962034  1
  O  O226  1  0.16592054  0.48382391  0.53037966  1
  O  O227  1  0.83407946  0.98382391  0.96962034  1
  O  O228  1  0.03037966  0.33407946  0.51617609  1
  O  O229  1  0.46962034  0.66592054  0.01617609  1
  O  O230  1  0.53037966  0.16592054  0.48382391  1
  O  O231  1  0.96962034  0.83407946  0.98382391  1
  O  O232  1  0.51617609  0.03037966  0.33407946  1
  O  O233  1  0.01617609  0.46962034  0.66592054  1
  O  O234  1  0.48382391  0.53037966  0.16592054  1
  O  O235  1  0.98382391  0.96962034  0.83407946  1
  O  O236  1  0.66592054  0.48382391  0.96962034  1
  O  O237  1  0.33407946  0.98382391  0.53037966  1
  O  O238  1  0.83407946  0.51617609  0.46962034  1
  O  O239  1  0.16592054  0.01617609  0.03037966  1
  O  O240  1  0.96962034  0.66592054  0.48382391  1
  O  O241  1  0.53037966  0.33407946  0.98382391  1
  O  O242  1  0.46962034  0.83407946  0.51617609  1
  O  O243  1  0.03037966  0.16592054  0.01617609  1
  O  O244  1  0.48382391  0.96962034  0.66592054  1
  O  O245  1  0.98382391  0.53037966  0.33407946  1
  O  O246  1  0.51617609  0.46962034  0.83407946  1
  O  O247  1  0.01617609  0.03037966  0.16592054  1
  O  O248  1  0.01186666  0.75576637  0.12345200  1
  O  O249  1  0.98813334  0.25576637  0.37654800  1
  O  O250  1  0.48813334  0.24423363  0.62345200  1
  O  O251  1  0.51186666  0.74423363  0.87654800  1
  O  O252  1  0.12345200  0.01186666  0.75576637  1
  O  O253  1  0.37654800  0.98813334  0.25576637  1
  O  O254  1  0.62345200  0.48813334  0.24423363  1
  O  O255  1  0.87654800  0.51186666  0.74423363  1
  O  O256  1  0.75576637  0.12345200  0.01186666  1
  O  O257  1  0.25576637  0.37654800  0.98813334  1
  O  O258  1  0.24423363  0.62345200  0.48813334  1
  O  O259  1  0.74423363  0.87654800  0.51186666  1
  O  O260  1  0.98813334  0.24423363  0.87654800  1
  O  O261  1  0.01186666  0.74423363  0.62345200  1
  O  O262  1  0.51186666  0.75576637  0.37654800  1
  O  O263  1  0.48813334  0.25576637  0.12345200  1
  O  O264  1  0.87654800  0.98813334  0.24423363  1
  O  O265  1  0.62345200  0.01186666  0.74423363  1
  O  O266  1  0.37654800  0.51186666  0.75576637  1
  O  O267  1  0.12345200  0.48813334  0.25576637  1
  O  O268  1  0.24423363  0.87654800  0.98813334  1
  O  O269  1  0.74423363  0.62345200  0.01186666  1
  O  O270  1  0.75576637  0.37654800  0.51186666  1
  O  O271  1  0.25576637  0.12345200  0.48813334  1
