# generated using pymatgen
data_LaSO5
_symmetry_space_group_name_H-M   'P 1'
_cell_length_a   12.82289299
_cell_length_b   4.62873481
_cell_length_c   7.08718184
_cell_angle_alpha   68.02242404
_cell_angle_beta   90.00000000
_cell_angle_gamma   90.00000000
_symmetry_Int_Tables_number   1
_chemical_formula_structural   LaSO5
_chemical_formula_sum   'La4 S4 O20'
_cell_volume   390.08242870
_cell_formula_units_Z   4
loop_
 _symmetry_equiv_pos_site_id
 _symmetry_equiv_pos_as_xyz
  1  'x, y, z'
loop_
 _atom_site_type_symbol
 _atom_site_label
 _atom_site_symmetry_multiplicity
 _atom_site_fract_x
 _atom_site_fract_y
 _atom_site_fract_z
 _atom_site_occupancy
  La  La0  1  0.42813411  0.16094398  0.20063806  1
  La  La1  1  0.07186589  0.16094398  0.70063806  1
  La  La2  1  0.57186589  0.83905602  0.79936194  1
  La  La3  1  0.92813411  0.83905602  0.29936194  1
  S  S4  1  0.14174814  0.39436570  0.12363837  1
  S  S5  1  0.35825186  0.39436570  0.62363837  1
  S  S6  1  0.85825186  0.60563430  0.87636163  1
  S  S7  1  0.64174814  0.60563430  0.37636163  1
  O  O8  1  0.24022306  0.23376660  0.19659641  1
  O  O9  1  0.25977694  0.23376660  0.69659641  1
  O  O10  1  0.75977694  0.76623340  0.80340359  1
  O  O11  1  0.74022306  0.76623340  0.30340359  1
  O  O12  1  0.57035685  0.25737715  0.94426325  1
  O  O13  1  0.92964315  0.25737715  0.44426325  1
  O  O14  1  0.42964315  0.74262285  0.05573675  1
  O  O15  1  0.07035685  0.74262285  0.55573675  1
  O  O16  1  0.34189924  0.68316529  0.45107990  1
  O  O17  1  0.15810076  0.68316529  0.95107990  1
  O  O18  1  0.65810076  0.31683471  0.54892010  1
  O  O19  1  0.84189924  0.31683471  0.04892010  1
  O  O20  1  0.42911338  0.18731723  0.56254175  1
  O  O21  1  0.07088662  0.18731723  0.06254175  1
  O  O22  1  0.57088662  0.81268277  0.43745825  1
  O  O23  1  0.92911338  0.81268277  0.93745825  1
  O  O24  1  0.58994968  0.54544120  0.20632582  1
  O  O25  1  0.91005032  0.54544120  0.70632582  1
  O  O26  1  0.41005032  0.45455880  0.79367418  1
  O  O27  1  0.08994968  0.45455880  0.29367418  1
