# generated using pymatgen
data_Pr2Ti2O7
_symmetry_space_group_name_H-M   'P 1'
_cell_length_a   5.51914343
_cell_length_b   7.72039827
_cell_length_c   13.11704388
_cell_angle_alpha   81.47873258
_cell_angle_beta   90.00000000
_cell_angle_gamma   90.00000000
_symmetry_Int_Tables_number   1
_chemical_formula_structural   Pr2Ti2O7
_chemical_formula_sum   'Pr8 Ti8 O28'
_cell_volume   552.74712412
_cell_formula_units_Z   4
loop_
 _symmetry_equiv_pos_site_id
 _symmetry_equiv_pos_as_xyz
  1  'x, y, z'
loop_
 _atom_site_type_symbol
 _atom_site_label
 _atom_site_symmetry_multiplicity
 _atom_site_fract_x
 _atom_site_fract_y
 _atom_site_fract_z
 _atom_site_occupancy
  Pr  Pr0  1  0.64262968  0.14594817  0.42598569  1
  Pr  Pr1  1  0.14262968  0.85405183  0.57401431  1
  Pr  Pr2  1  0.70691961  0.64945441  0.38300298  1
  Pr  Pr3  1  0.20691961  0.35054559  0.61699702  1
  Pr  Pr4  1  0.23813677  0.22839924  0.09257476  1
  Pr  Pr5  1  0.73813677  0.77160076  0.90742524  1
  Pr  Pr6  1  0.24772679  0.71938585  0.11875091  1
  Pr  Pr7  1  0.74772679  0.28061415  0.88124909  1
  Ti  Ti8  1  0.20132152  0.41519966  0.32534374  1
  Ti  Ti9  1  0.70132152  0.58480034  0.67465626  1
  Ti  Ti10  1  0.20787674  0.92543578  0.32047500  1
  Ti  Ti11  1  0.70787674  0.07456422  0.67952500  1
  Ti  Ti12  1  0.73583026  0.47231285  0.12087830  1
  Ti  Ti13  1  0.23583026  0.52768715  0.87912170  1
  Ti  Ti14  1  0.73418377  0.96873776  0.11860894  1
  Ti  Ti15  1  0.23418377  0.03126224  0.88139106  1
  O  O16  1  0.29605940  0.17427028  0.30393366  1
  O  O17  1  0.79605940  0.82572972  0.69606634  1
  O  O18  1  0.14857874  0.67311816  0.30617842  1
  O  O19  1  0.64857874  0.32688184  0.69382158  1
  O  O20  1  0.40934935  0.40885541  0.44078056  1
  O  O21  1  0.90934935  0.59114459  0.55921944  1
  O  O22  1  0.42494392  0.87126786  0.42883595  1
  O  O23  1  0.92494392  0.12873214  0.57116405  1
  O  O24  1  0.92019084  0.37575513  0.38997945  1
  O  O25  1  0.42019084  0.62424487  0.61002055  1
  O  O26  1  0.94177972  0.91988683  0.40639088  1
  O  O27  1  0.44177972  0.08011317  0.59360912  1
  O  O28  1  0.05151346  0.43437842  0.18231283  1
  O  O29  1  0.55151346  0.56562158  0.81768717  1
  O  O30  1  0.04660520  0.97576004  0.18418060  1
  O  O31  1  0.54660520  0.02423996  0.81581940  1
  O  O32  1  0.18606408  0.77673470  0.89238263  1
  O  O33  1  0.68606408  0.22326530  0.10761737  1
  O  O34  1  0.31852750  0.27285942  0.90772464  1
  O  O35  1  0.81852750  0.72714058  0.09227536  1
  O  O36  1  0.97593147  0.03970577  0.98231977  1
  O  O37  1  0.47593147  0.96029423  0.01768023  1
  O  O38  1  0.97619840  0.46961338  0.98032766  1
  O  O39  1  0.47619840  0.53038662  0.01967234  1
  O  O40  1  0.03456149  0.11266637  0.77357064  1
  O  O41  1  0.53456149  0.88733363  0.22642936  1
  O  O42  1  0.03967130  0.50051522  0.77038394  1
  O  O43  1  0.53967130  0.49948478  0.22961606  1
