# generated using pymatgen
data_LiMnO2
_symmetry_space_group_name_H-M   'P 1'
_cell_length_a   2.81654925
_cell_length_b   5.19752375
_cell_length_c   9.88918575
_cell_angle_alpha   90.00000000
_cell_angle_beta   90.00000000
_cell_angle_gamma   90.00000000
_symmetry_Int_Tables_number   1
_chemical_formula_structural   LiMnO2
_chemical_formula_sum   'Li4 Mn4 O8'
_cell_volume   144.76859735
_cell_formula_units_Z   4
loop_
 _symmetry_equiv_pos_site_id
 _symmetry_equiv_pos_as_xyz
  1  'x, y, z'
loop_
 _atom_site_type_symbol
 _atom_site_label
 _atom_site_symmetry_multiplicity
 _atom_site_fract_x
 _atom_site_fract_y
 _atom_site_fract_z
 _atom_site_occupancy
  Li  Li0  1  0.25000000  0.10344513  0.60497923  1
  Li  Li1  1  0.75000000  0.89655487  0.39502077  1
  Li  Li2  1  0.25000000  0.39655487  0.10497923  1
  Li  Li3  1  0.75000000  0.60344513  0.89502077  1
  Mn  Mn4  1  0.75000000  0.60714441  0.63235714  1
  Mn  Mn5  1  0.25000000  0.39285559  0.36764286  1
  Mn  Mn6  1  0.25000000  0.10714441  0.86764286  1
  Mn  Mn7  1  0.75000000  0.89285559  0.13235714  1
  O  O8  1  0.25000000  0.45222501  0.73761128  1
  O  O9  1  0.75000000  0.54777499  0.26238872  1
  O  O10  1  0.75000000  0.95222501  0.76238872  1
  O  O11  1  0.25000000  0.04777499  0.23761128  1
  O  O12  1  0.25000000  0.74659783  0.52000301  1
  O  O13  1  0.75000000  0.25340217  0.47999699  1
  O  O14  1  0.25000000  0.75340217  0.02000301  1
  O  O15  1  0.75000000  0.24659783  0.97999699  1
