# generated using pymatgen
data_Cs3AlTe3
_symmetry_space_group_name_H-M   'P 1'
_cell_length_a   14.61562874
_cell_length_b   9.21029305
_cell_length_c   12.05183710
_cell_angle_alpha   53.51036695
_cell_angle_beta   90.00000000
_cell_angle_gamma   90.00000000
_symmetry_Int_Tables_number   1
_chemical_formula_structural   Cs3AlTe3
_chemical_formula_sum   'Cs12 Al4 Te12'
_cell_volume   1304.31071470
_cell_formula_units_Z   4
loop_
 _symmetry_equiv_pos_site_id
 _symmetry_equiv_pos_as_xyz
  1  'x, y, z'
loop_
 _atom_site_type_symbol
 _atom_site_label
 _atom_site_symmetry_multiplicity
 _atom_site_fract_x
 _atom_site_fract_y
 _atom_site_fract_z
 _atom_site_occupancy
  Cs  Cs0  1  0.58059982  0.64718645  0.11199124  1
  Cs  Cs1  1  0.08059982  0.35281355  0.38800876  1
  Cs  Cs2  1  0.41940018  0.35281355  0.88800876  1
  Cs  Cs3  1  0.91940018  0.64718645  0.61199124  1
  Cs  Cs4  1  0.31042320  0.87487789  0.91175882  1
  Cs  Cs5  1  0.81042320  0.12512211  0.58824118  1
  Cs  Cs6  1  0.68957680  0.12512211  0.08824118  1
  Cs  Cs7  1  0.18957680  0.87487789  0.41175882  1
  Cs  Cs8  1  0.87528641  0.62416449  0.01471619  1
  Cs  Cs9  1  0.37528641  0.37583551  0.48528381  1
  Cs  Cs10  1  0.12471359  0.37583551  0.98528381  1
  Cs  Cs11  1  0.62471359  0.62416449  0.51471619  1
  Al  Al12  1  0.55894134  0.93280351  0.65866147  1
  Al  Al13  1  0.05894134  0.06719649  0.84133853  1
  Al  Al14  1  0.44105866  0.06719649  0.34133853  1
  Al  Al15  1  0.94105866  0.93280351  0.15866147  1
  Te  Te16  1  0.10687332  0.85854382  0.11105167  1
  Te  Te17  1  0.60687332  0.14145618  0.38894833  1
  Te  Te18  1  0.89312668  0.14145618  0.88894833  1
  Te  Te19  1  0.39312668  0.85854382  0.61105167  1
  Te  Te20  1  0.83468279  0.64960564  0.30622246  1
  Te  Te21  1  0.33468279  0.35039436  0.19377754  1
  Te  Te22  1  0.16531721  0.35039436  0.69377754  1
  Te  Te23  1  0.66531721  0.64960564  0.80622246  1
  Te  Te24  1  0.05780626  0.88643198  0.73833250  1
  Te  Te25  1  0.55780626  0.11356802  0.76166750  1
  Te  Te26  1  0.94219374  0.11356802  0.26166750  1
  Te  Te27  1  0.44219374  0.88643198  0.23833250  1
