# generated using pymatgen
data_Li4TiCo5O12
_symmetry_space_group_name_H-M   'P 1'
_cell_length_a   4.92779360
_cell_length_b   10.77567702
_cell_length_c   8.52379903
_cell_angle_alpha   113.27114285
_cell_angle_beta   90.01292311
_cell_angle_gamma   85.50726497
_symmetry_Int_Tables_number   1
_chemical_formula_structural   Li4TiCo5O12
_chemical_formula_sum   'Li8 Ti2 Co10 O24'
_cell_volume   414.28307761
_cell_formula_units_Z   2
loop_
 _symmetry_equiv_pos_site_id
 _symmetry_equiv_pos_as_xyz
  1  'x, y, z'
loop_
 _atom_site_type_symbol
 _atom_site_label
 _atom_site_symmetry_multiplicity
 _atom_site_fract_x
 _atom_site_fract_y
 _atom_site_fract_z
 _atom_site_occupancy
  Li  Li0  1  0.03976000  0.74393300  0.20666500  1
  Li  Li1  1  0.53637400  0.74500600  0.70581500  1
  Li  Li2  1  0.46297400  0.25564300  0.96176900  1
  Li  Li3  1  0.96139500  0.25533600  0.46124700  1
  Li  Li4  1  0.53749000  0.74434700  0.03929500  1
  Li  Li5  1  0.03537400  0.74044500  0.53555000  1
  Li  Li6  1  0.96581500  0.25851600  0.79590300  1
  Li  Li7  1  0.46267700  0.25655000  0.29425900  1
  Ti  Ti8  1  0.99897500  0.00076600  0.00602200  1
  Ti  Ti9  1  0.49971100  0.99945900  0.49858700  1
  Co  Co10  1  0.25027400  0.49997300  0.91526600  1
  Co  Co11  1  0.74984500  0.50004100  0.41535900  1
  Co  Co12  1  0.75012700  0.50008600  0.08494700  1
  Co  Co13  1  0.24999800  0.49989500  0.58499100  1
  Co  Co14  1  0.00018400  0.99954900  0.66803900  1
  Co  Co15  1  0.49967000  0.00029100  0.16681900  1
  Co  Co16  1  0.49975100  0.00031600  0.83471200  1
  Co  Co17  1  0.00000500  0.99968600  0.33081800  1
  Co  Co18  1  0.75005400  0.50009600  0.74957600  1
  Co  Co19  1  0.25007300  0.49989500  0.24948800  1
  O  O20  1  0.40366200  0.60143100  0.79852900  1
  O  O21  1  0.90367000  0.60156800  0.29856100  1
  O  O22  1  0.59653100  0.39863000  0.19718800  1
  O  O23  1  0.09637600  0.39836500  0.69713500  1
  O  O24  1  0.82104600  0.10801200  0.54793300  1
  O  O25  1  0.32318800  0.10784100  0.05454400  1
  O  O26  1  0.17940000  0.89047200  0.43868700  1
  O  O27  1  0.67640500  0.89308200  0.94729700  1
  O  O28  1  0.32499400  0.11110700  0.72559400  1
  O  O29  1  0.80847400  0.10888200  0.22583700  1
  O  O30  1  0.19134700  0.89173700  0.11663500  1
  O  O31  1  0.67475800  0.88870100  0.61510700  1
  O  O32  1  0.80807600  0.10847600  0.88831100  1
  O  O33  1  0.30849300  0.10702800  0.38144900  1
  O  O34  1  0.69104200  0.89266300  0.27384100  1
  O  O35  1  0.19153000  0.89217500  0.78040700  1
  O  O36  1  0.10026500  0.39920600  0.02981000  1
  O  O37  1  0.60005400  0.39939700  0.52992200  1
  O  O38  1  0.60618700  0.39926600  0.87148200  1
  O  O39  1  0.10542900  0.39914700  0.37142000  1
  O  O40  1  0.40008200  0.60062000  0.13034600  1
  O  O41  1  0.89990600  0.60077000  0.63053400  1
  O  O42  1  0.89473500  0.60086000  0.97214400  1
  O  O43  1  0.39382600  0.60073200  0.47215500  1
