# generated using pymatgen
data_MgTl4V4(TeO5)4
_symmetry_space_group_name_H-M   'P 1'
_cell_length_a   7.23542991
_cell_length_b   7.83090710
_cell_length_c   9.18203183
_cell_angle_alpha   87.60838666
_cell_angle_beta   89.10295695
_cell_angle_gamma   90.22011340
_symmetry_Int_Tables_number   1
_chemical_formula_structural   MgTl4V4(TeO5)4
_chemical_formula_sum   'Mg1 Tl4 V4 Te4 O20'
_cell_volume   519.73160049
_cell_formula_units_Z   1
loop_
 _symmetry_equiv_pos_site_id
 _symmetry_equiv_pos_as_xyz
  1  'x, y, z'
loop_
 _atom_site_type_symbol
 _atom_site_label
 _atom_site_symmetry_multiplicity
 _atom_site_fract_x
 _atom_site_fract_y
 _atom_site_fract_z
 _atom_site_occupancy
  Mg  Mg0  1  0.08369800  0.01867200  0.10237200  1
  Tl  Tl1  1  0.92775900  0.86585300  0.82528200  1
  Tl  Tl2  1  0.47393900  0.90474500  0.61003900  1
  Tl  Tl3  1  0.50923700  0.39525100  0.42093300  1
  Tl  Tl4  1  0.01289500  0.43537200  0.11020600  1
  V  V5  1  0.30188200  0.78057100  0.24813600  1
  V  V6  1  0.19549900  0.29544900  0.77014500  1
  V  V7  1  0.80108600  0.79296300  0.25118500  1
  V  V8  1  0.70593600  0.28320700  0.75585800  1
  Te  Te9  1  0.98469200  0.10692400  0.47416000  1
  Te  Te10  1  0.01180500  0.59978300  0.53124100  1
  Te  Te11  1  0.52051900  0.59933100  0.97944800  1
  Te  Te12  1  0.50083500  0.09779900  0.03931700  1
  O  O13  1  0.95448100  0.23135600  0.82659800  1
  O  O14  1  0.13542600  0.02160600  0.62440100  1
  O  O15  1  0.05930000  0.76089700  0.16297400  1
  O  O16  1  0.86608500  0.55268600  0.36685300  1
  O  O17  1  0.26061400  0.00079800  0.27613100  1
  O  O18  1  0.57178600  0.78474500  0.30995700  1
  O  O19  1  0.90202700  0.86688300  0.43445400  1
  O  O20  1  0.21052100  0.49441800  0.83183000  1
  O  O21  1  0.42234100  0.25568200  0.70264500  1
  O  O22  1  0.60934500  0.36078300  0.95994900  1
  O  O23  1  0.25305400  0.15483200  0.95968100  1
  O  O24  1  0.37498600  0.54814700  0.15000300  1
  O  O25  1  0.74513100  0.65899400  0.08025500  1
  O  O26  1  0.40197000  0.85854500  0.04474400  1
  O  O27  1  0.75820300  0.14322200  0.58108400  1
  O  O28  1  0.72619600  0.48728100  0.68178400  1
  O  O29  1  0.62977100  0.04900700  0.86522200  1
  O  O30  1  0.81754900  0.00119800  0.16845600  1
  O  O31  1  0.24325700  0.65431100  0.42959000  1
  O  O32  1  0.09960300  0.36168600  0.56792500  1
