# generated using pymatgen
data_K4MgZn4H16(Br3O2)4
_symmetry_space_group_name_H-M   'P 1'
_cell_length_a   7.49762931
_cell_length_b   12.88560193
_cell_length_c   13.34040273
_cell_angle_alpha   88.73125072
_cell_angle_beta   131.89818455
_cell_angle_gamma   93.91895836
_symmetry_Int_Tables_number   1
_chemical_formula_structural   K4MgZn4H16(Br3O2)4
_chemical_formula_sum   'K4 Mg1 Zn4 H16 Br12 O8'
_cell_volume   956.60018375
_cell_formula_units_Z   1
loop_
 _symmetry_equiv_pos_site_id
 _symmetry_equiv_pos_as_xyz
  1  'x, y, z'
loop_
 _atom_site_type_symbol
 _atom_site_label
 _atom_site_symmetry_multiplicity
 _atom_site_fract_x
 _atom_site_fract_y
 _atom_site_fract_z
 _atom_site_occupancy
  K  K0  1  0.41319544  0.80626798  0.02993099  1
  K  K1  1  0.73967890  0.34348943  0.50264701  1
  K  K2  1  0.63560756  0.17845766  0.97770376  1
  K  K3  1  0.30842115  0.68124709  0.51205293  1
  Mg  Mg4  1  0.82376877  0.99622074  0.83491612  1
  Zn  Zn5  1  0.35106715  0.97421058  0.67708812  1
  Zn  Zn6  1  0.52708747  0.42752477  0.76044344  1
  Zn  Zn7  1  0.50107270  0.08032475  0.27095209  1
  Zn  Zn8  1  0.47888581  0.56599197  0.24623572  1
  H  H9  1  0.78979169  0.26126253  0.80736977  1
  H  H10  1  0.21086511  0.76364277  0.69608397  1
  H  H11  1  0.21771748  0.71878633  0.20474771  1
  H  H12  1  0.78400190  0.24188212  0.28414675  1
  H  H13  1  0.94743027  0.34043531  0.93577715  1
  H  H14  1  0.99575239  0.81360976  0.56175229  1
  H  H15  1  0.06289375  0.64722946  0.06677697  1
  H  H16  1  0.92237278  0.18414765  0.42668117  1
  H  H17  1  0.88687777  0.14023328  0.70786218  1
  H  H18  1  0.09584653  0.65230909  0.77578997  1
  H  H19  1  0.11799651  0.84920088  0.24712961  1
  H  H20  1  0.95287043  0.35012462  0.22480575  1
  H  H21  1  0.61326293  0.12276378  0.63569494  1
  H  H22  1  0.33870479  0.61157132  0.83623065  1
  H  H23  1  0.39370123  0.84137516  0.34621810  1
  H  H24  1  0.69351754  0.37916202  0.14912615  1
  Br  Br25  1  0.29871613  0.39461230  0.52572722  1
  Br  Br26  1  0.82677800  0.93451882  0.02682125  1
  Br  Br27  1  0.70025970  0.59946379  0.48170739  1
  Br  Br28  1  0.26915452  0.09592107  0.02625673  1
  Br  Br29  1  0.31179613  0.41061771  0.83594707  1
  Br  Br30  1  0.88602805  0.85687666  0.73733197  1
  Br  Br31  1  0.73325901  0.59636296  0.19663899  1
  Br  Br32  1  0.32329403  0.12619393  0.35788479  1
  Br  Br33  1  0.10212306  0.14212467  0.65557832  1
  Br  Br34  1  0.75819388  0.59236674  0.83507611  1
  Br  Br35  1  0.68651767  0.91744410  0.33356531  1
  Br  Br36  1  0.26341740  0.39567610  0.17139092  1
  O  O37  1  0.16811687  0.80524558  0.61936692  1
  O  O38  1  0.78246866  0.31077350  0.86022085  1
  O  O39  1  0.76377587  0.20060812  0.34111174  1
  O  O40  1  0.22639756  0.67540705  0.14591402  1
  O  O41  1  0.26000670  0.67622554  0.81800838  1
  O  O42  1  0.77454313  0.13596445  0.72568559  1
  O  O43  1  0.79152009  0.31919876  0.18053616  1
  O  O44  1  0.24346748  0.80126012  0.31012797  1
