# generated using pymatgen
data_K3AlTe3
_symmetry_space_group_name_H-M   'P 1'
_cell_length_a   14.03918336
_cell_length_b   8.67811422
_cell_length_c   11.17303962
_cell_angle_alpha   52.61722600
_cell_angle_beta   90.00000000
_cell_angle_gamma   90.00000000
_symmetry_Int_Tables_number   1
_chemical_formula_structural   K3AlTe3
_chemical_formula_sum   'K12 Al4 Te12'
_cell_volume   1081.64705680
_cell_formula_units_Z   4
loop_
 _symmetry_equiv_pos_site_id
 _symmetry_equiv_pos_as_xyz
  1  'x, y, z'
loop_
 _atom_site_type_symbol
 _atom_site_label
 _atom_site_symmetry_multiplicity
 _atom_site_fract_x
 _atom_site_fract_y
 _atom_site_fract_z
 _atom_site_occupancy
  K  K0  1  0.31173525  0.14770544  0.07210646  1
  K  K1  1  0.68826475  0.85229456  0.92789354  1
  K  K2  1  0.81173525  0.85229456  0.42789354  1
  K  K3  1  0.89585118  0.31859094  0.40271733  1
  K  K4  1  0.61252581  0.36108877  0.47402778  1
  K  K5  1  0.11252581  0.63891123  0.02597222  1
  K  K6  1  0.38747419  0.63891123  0.52597222  1
  K  K7  1  0.88747419  0.36108877  0.97402778  1
  K  K8  1  0.60414882  0.31859094  0.90271733  1
  K  K9  1  0.10414882  0.68140906  0.59728267  1
  K  K10  1  0.39585118  0.68140906  0.09728267  1
  K  K11  1  0.18826475  0.14770544  0.57210646  1
  Al  Al12  1  0.06620037  0.94534085  0.15900268  1
  Al  Al13  1  0.56620037  0.05465915  0.34099732  1
  Al  Al14  1  0.43379963  0.94534085  0.65900268  1
  Al  Al15  1  0.93379963  0.05465915  0.84099732  1
  Te  Te16  1  0.39723335  0.17672117  0.36165664  1
  Te  Te17  1  0.89723335  0.82327883  0.13834336  1
  Te  Te18  1  0.60276665  0.82327883  0.63834336  1
  Te  Te19  1  0.10276665  0.17672117  0.86165664  1
  Te  Te20  1  0.69290850  0.33028929  0.19508953  1
  Te  Te21  1  0.19290850  0.66971071  0.30491047  1
  Te  Te22  1  0.30709150  0.66971071  0.80491047  1
  Te  Te23  1  0.80709150  0.33028929  0.69508953  1
  Te  Te24  1  0.55511708  0.85961161  0.23543494  1
  Te  Te25  1  0.05511708  0.14038839  0.26456506  1
  Te  Te26  1  0.44488292  0.14038839  0.76456506  1
  Te  Te27  1  0.94488292  0.85961161  0.73543494  1
