# generated using pymatgen
data_BaDy2CoO5
_symmetry_space_group_name_H-M   'P 1'
_cell_length_a   5.69438378
_cell_length_b   7.03120333
_cell_length_c   12.23460027
_cell_angle_alpha   90.00000000
_cell_angle_beta   90.00000000
_cell_angle_gamma   89.99305420
_symmetry_Int_Tables_number   1
_chemical_formula_structural   BaDy2CoO5
_chemical_formula_sum   'Ba4 Dy8 Co4 O20'
_cell_volume   489.85345118
_cell_formula_units_Z   4
loop_
 _symmetry_equiv_pos_site_id
 _symmetry_equiv_pos_as_xyz
  1  'x, y, z'
loop_
 _atom_site_type_symbol
 _atom_site_label
 _atom_site_symmetry_multiplicity
 _atom_site_fract_x
 _atom_site_fract_y
 _atom_site_fract_z
 _atom_site_occupancy
  Ba  Ba0  1  0.74987097  0.07774946  0.10033660  1
  Ba  Ba1  1  0.75010523  0.42220633  0.60029964  1
  Ba  Ba2  1  0.24987097  0.57774946  0.39966340  1
  Ba  Ba3  1  0.25010523  0.92220633  0.89970036  1
  Dy  Dy4  1  0.25002888  0.40218097  0.07481425  1
  Dy  Dy5  1  0.75003960  0.61905919  0.20807326  1
  Dy  Dy6  1  0.74996927  0.88095242  0.70805014  1
  Dy  Dy7  1  0.25003960  0.11905919  0.29192674  1
  Dy  Dy8  1  0.75000072  0.59786479  0.92529905  1
  Dy  Dy9  1  0.75002888  0.90218097  0.42518575  1
  Dy  Dy10  1  0.25000072  0.09786379  0.57470095  1
  Dy  Dy11  1  0.24996927  0.38095342  0.79194986  1
  Co  Co12  1  0.24963832  0.80716396  0.15270129  1
  Co  Co13  1  0.75034550  0.19288231  0.84739144  1
  Co  Co14  1  0.74963832  0.30716496  0.34729871  1
  Co  Co15  1  0.25034550  0.69288131  0.65260856  1
  O  O16  1  0.24980453  0.42506155  0.60269878  1
  O  O17  1  0.75021789  0.57485079  0.39722345  1
  O  O18  1  0.74980453  0.92506255  0.89730122  1
  O  O19  1  0.25021789  0.07485179  0.10277655  1
  O  O20  1  0.00208696  0.86029004  0.27477171  1
  O  O21  1  0.50152004  0.13938161  0.72516016  1
  O  O22  1  0.99841810  0.36059980  0.22524270  1
  O  O23  1  0.49791418  0.63970920  0.77479256  1
  O  O24  1  0.99791418  0.13970920  0.72520744  1
  O  O25  1  0.49841810  0.86059980  0.27475730  1
  O  O26  1  0.00152004  0.63938161  0.77483984  1
  O  O27  1  0.50208696  0.36029004  0.22522829  1
  O  O28  1  0.49561473  0.66721642  0.06563434  1
  O  O29  1  0.99578805  0.33270813  0.93463321  1
  O  O30  1  0.50428963  0.16725485  0.43452297  1
  O  O31  1  0.00434642  0.83286919  0.56549179  1
  O  O32  1  0.99561473  0.16721542  0.43436566  1
  O  O33  1  0.49578805  0.83270813  0.56536679  1
  O  O34  1  0.50434742  0.33286919  0.93450821  1
  O  O35  1  0.00428863  0.66725585  0.06547703  1
