# generated using pymatgen
data_MgMn3VCr2(PO4)6
_symmetry_space_group_name_H-M   'P 1'
_cell_length_a   8.96845099
_cell_length_b   8.74897332
_cell_length_c   8.67861652
_cell_angle_alpha   59.90491902
_cell_angle_beta   60.89281288
_cell_angle_gamma   58.34040924
_symmetry_Int_Tables_number   1
_chemical_formula_structural   MgMn3VCr2(PO4)6
_chemical_formula_sum   'Mg1 Mn3 V1 Cr2 P6 O24'
_cell_volume   477.88891973
_cell_formula_units_Z   1
loop_
 _symmetry_equiv_pos_site_id
 _symmetry_equiv_pos_as_xyz
  1  'x, y, z'
loop_
 _atom_site_type_symbol
 _atom_site_label
 _atom_site_symmetry_multiplicity
 _atom_site_fract_x
 _atom_site_fract_y
 _atom_site_fract_z
 _atom_site_occupancy
  Mg  Mg0  1  0.24860200  0.25249800  0.25350300  1
  Mn  Mn1  1  0.04318600  0.64570300  0.65823900  1
  Mn  Mn2  1  0.43962900  0.85897100  0.85136000  1
  Mn  Mn3  1  0.89101400  0.36368800  0.36300500  1
  V  V4  1  0.60716500  0.13013400  0.13152300  1
  Cr  Cr5  1  0.01834700  0.00256600  0.98264600  1
  Cr  Cr6  1  0.48526500  0.50380400  0.50702700  1
  P  P7  1  0.27323100  0.25193100  0.54055500  1
  P  P8  1  0.27605300  0.94517800  0.24167900  1
  P  P9  1  0.25594100  0.54971100  0.94696800  1
  P  P10  1  0.73449300  0.45761700  0.05052600  1
  P  P11  1  0.74156000  0.04970300  0.74982900  1
  P  P12  1  0.72139800  0.74421900  0.47348200  1
  O  O13  1  0.10217100  0.10840500  0.30450200  1
  O  O14  1  0.09371100  0.49092200  0.10268800  1
  O  O15  1  0.10230200  0.31243100  0.49103100  1
  O  O16  1  0.25665600  0.09656800  0.73670400  1
  O  O17  1  0.43851600  0.18580900  0.37440100  1
  O  O18  1  0.29355200  0.41404800  0.54639800  1
  O  O19  1  0.25445000  0.93196900  0.08163800  1
  O  O20  1  0.30303300  0.75280000  0.40031900  1
  O  O21  1  0.56731300  0.60022000  0.98151800  1
  O  O22  1  0.29141400  0.55120400  0.75292500  1
  O  O23  1  0.77632100  0.24699100  0.06432000  1
  O  O24  1  0.58480300  0.98437600  0.83577800  1
  O  O25  1  0.43582900  0.01025400  0.18186500  1
  O  O26  1  0.22110900  0.74723500  0.93534500  1
  O  O27  1  0.68049500  0.44545800  0.25661700  1
  O  O28  1  0.42810800  0.37860600  0.01514100  1
  O  O29  1  0.68809900  0.25768500  0.60727800  1
  O  O30  1  0.77376600  0.06675400  0.90882400  1
  O  O31  1  0.68518800  0.60224000  0.44877400  1
  O  O32  1  0.54549400  0.83055300  0.61210200  1
  O  O33  1  0.74900600  0.90387700  0.27015400  1
  O  O34  1  0.89621100  0.66559900  0.51658200  1
  O  O35  1  0.91134500  0.49041000  0.92562500  1
  O  O36  1  0.92740700  0.91986400  0.66341600  1
