# generated using pymatgen
data_MnZn4Se5
_symmetry_space_group_name_H-M   'P 1'
_cell_length_a   6.98892581
_cell_length_b   6.98892581
_cell_length_c   9.90062705
_cell_angle_alpha   61.97852629
_cell_angle_beta   61.97852629
_cell_angle_gamma   33.53001316
_symmetry_Int_Tables_number   1
_chemical_formula_structural   MnZn4Se5
_chemical_formula_sum   'Mn1 Zn4 Se5'
_cell_volume   232.76114493
_cell_formula_units_Z   1
loop_
 _symmetry_equiv_pos_site_id
 _symmetry_equiv_pos_as_xyz
  1  'x, y, z'
loop_
 _atom_site_type_symbol
 _atom_site_label
 _atom_site_symmetry_multiplicity
 _atom_site_fract_x
 _atom_site_fract_y
 _atom_site_fract_z
 _atom_site_occupancy
  Mn  Mn0  1  0.00096831  0.00096831  0.99853600  1
  Zn  Zn1  1  0.60127009  0.60127009  0.59452579  1
  Zn  Zn2  1  0.19826034  0.19826034  0.20200992  1
  Zn  Zn3  1  0.80221974  0.80221974  0.79859167  1
  Zn  Zn4  1  0.39759123  0.39759123  0.40520199  1
  Se  Se5  1  0.79852659  0.79852659  0.55249831  1
  Se  Se6  1  0.39495177  0.39495177  0.15906644  1
  Se  Se7  1  0.00251285  0.00251285  0.74196377  1
  Se  Se8  1  0.59823199  0.59823199  0.34877839  1
  Se  Se9  1  0.20546908  0.20546908  0.94882472  1
