# generated using pymatgen
data_LiTmO2
_symmetry_space_group_name_H-M   'P 1'
_cell_length_a   6.08391039
_cell_length_b   5.99725680
_cell_length_c   6.06438639
_cell_angle_alpha   61.54478586
_cell_angle_beta   90.00000000
_cell_angle_gamma   90.00000000
_symmetry_Int_Tables_number   1
_chemical_formula_structural   LiTmO2
_chemical_formula_sum   'Li4 Tm4 O8'
_cell_volume   194.53823432
_cell_formula_units_Z   4
loop_
 _symmetry_equiv_pos_site_id
 _symmetry_equiv_pos_as_xyz
  1  'x, y, z'
loop_
 _atom_site_type_symbol
 _atom_site_label
 _atom_site_symmetry_multiplicity
 _atom_site_fract_x
 _atom_site_fract_y
 _atom_site_fract_z
 _atom_site_occupancy
  Li  Li0  1  0.15042932  0.71832623  0.55245810  1
  Li  Li1  1  0.65042932  0.28167377  0.94754190  1
  Li  Li2  1  0.34957068  0.71832623  0.05245810  1
  Li  Li3  1  0.84957068  0.28167377  0.44754190  1
  Tm  Tm4  1  0.87069414  0.76249595  0.98381830  1
  Tm  Tm5  1  0.62930586  0.76249595  0.48381830  1
  Tm  Tm6  1  0.37069414  0.23750405  0.51618170  1
  Tm  Tm7  1  0.12930586  0.23750405  0.01618170  1
  O  O8  1  0.16381549  0.99448552  0.83042451  1
  O  O9  1  0.33618451  0.99448552  0.33042451  1
  O  O10  1  0.88859293  0.54205859  0.76445811  1
  O  O11  1  0.38859293  0.45794141  0.73554189  1
  O  O12  1  0.61140707  0.54205859  0.26445811  1
  O  O13  1  0.11140707  0.45794141  0.23554189  1
  O  O14  1  0.66381549  0.00551448  0.66957549  1
  O  O15  1  0.83618451  0.00551448  0.16957549  1
