# generated using pymatgen
data_Mg14FeNiO16
_symmetry_space_group_name_H-M   'P 1'
_cell_length_a   8.53771812
_cell_length_b   8.50425845
_cell_length_c   4.27229173
_cell_angle_alpha   90.00000000
_cell_angle_beta   90.00000000
_cell_angle_gamma   90.00000000
_symmetry_Int_Tables_number   1
_chemical_formula_structural   Mg14FeNiO16
_chemical_formula_sum   'Mg14 Fe1 Ni1 O16'
_cell_volume   310.19812101
_cell_formula_units_Z   1
loop_
 _symmetry_equiv_pos_site_id
 _symmetry_equiv_pos_as_xyz
  1  'x, y, z'
loop_
 _atom_site_type_symbol
 _atom_site_label
 _atom_site_symmetry_multiplicity
 _atom_site_fract_x
 _atom_site_fract_y
 _atom_site_fract_z
 _atom_site_occupancy
  Mg  Mg0  1  0.50000000  0.00000000  0.00000000  1
  Mg  Mg1  1  0.50000000  0.50000000  0.00000000  1
  Mg  Mg2  1  0.00000000  0.25132549  0.50000000  1
  Mg  Mg3  1  0.00000000  0.74867451  0.50000000  1
  Mg  Mg4  1  0.50000000  0.24979806  0.50000000  1
  Mg  Mg5  1  0.50000000  0.75020194  0.50000000  1
  Mg  Mg6  1  0.24942525  0.00000000  0.50000000  1
  Mg  Mg7  1  0.24906757  0.50000000  0.50000000  1
  Mg  Mg8  1  0.75057475  0.00000000  0.50000000  1
  Mg  Mg9  1  0.75093243  0.50000000  0.50000000  1
  Mg  Mg10  1  0.25071676  0.25046343  0.00000000  1
  Mg  Mg11  1  0.25071676  0.74953657  0.00000000  1
  Mg  Mg12  1  0.74928324  0.25046343  0.00000000  1
  Mg  Mg13  1  0.74928324  0.74953657  0.00000000  1
  Fe  Fe14  1  0.00000000  0.00000000  0.00000000  1
  Ni  Ni15  1  0.00000000  0.50000000  0.00000000  1
  O  O16  1  0.25626942  0.00000000  0.00000000  1
  O  O17  1  0.25034812  0.50000000  0.00000000  1
  O  O18  1  0.74373058  0.00000000  0.00000000  1
  O  O19  1  0.74965188  0.50000000  0.00000000  1
  O  O20  1  0.24891524  0.25046034  0.50000000  1
  O  O21  1  0.24891524  0.74953966  0.50000000  1
  O  O22  1  0.75108476  0.25046034  0.50000000  1
  O  O23  1  0.75108476  0.74953966  0.50000000  1
  O  O24  1  0.00000000  0.00000000  0.50000000  1
  O  O25  1  0.00000000  0.50000000  0.50000000  1
  O  O26  1  0.50000000  0.00000000  0.50000000  1
  O  O27  1  0.50000000  0.50000000  0.50000000  1
  O  O28  1  0.00000000  0.25144250  0.00000000  1
  O  O29  1  0.00000000  0.74855750  0.00000000  1
  O  O30  1  0.50000000  0.25121421  0.00000000  1
  O  O31  1  0.50000000  0.74878579  0.00000000  1
