# generated using pymatgen
data_Li2TiCr(PO4)3
_symmetry_space_group_name_H-M   'P 1'
_cell_length_a   8.52857990
_cell_length_b   8.59584780
_cell_length_c   11.92623202
_cell_angle_alpha   90.00000000
_cell_angle_beta   90.00000000
_cell_angle_gamma   89.99988216
_symmetry_Int_Tables_number   1
_chemical_formula_structural   Li2TiCr(PO4)3
_chemical_formula_sum   'Li8 Ti4 Cr4 P12 O48'
_cell_volume   874.31653899
_cell_formula_units_Z   4
loop_
 _symmetry_equiv_pos_site_id
 _symmetry_equiv_pos_as_xyz
  1  'x, y, z'
loop_
 _atom_site_type_symbol
 _atom_site_label
 _atom_site_symmetry_multiplicity
 _atom_site_fract_x
 _atom_site_fract_y
 _atom_site_fract_z
 _atom_site_occupancy
  Li  Li0  1  0.46653539  0.78242447  0.68406702  1
  Li  Li1  1  0.53198846  0.27733762  0.81852809  1
  Li  Li2  1  0.53346461  0.21757553  0.18406702  1
  Li  Li3  1  0.46801154  0.72266238  0.31852809  1
  Li  Li4  1  0.03199060  0.22266706  0.31853215  1
  Li  Li5  1  0.96656426  0.71756206  0.18406560  1
  Li  Li6  1  0.96800940  0.77733294  0.81853215  1
  Li  Li7  1  0.03343574  0.28243794  0.68406560  1
  Ti  Ti8  1  0.50315816  0.46323501  0.61299299  1
  Ti  Ti9  1  0.49684184  0.53676499  0.11299299  1
  Ti  Ti10  1  0.00316532  0.03675954  0.11299335  1
  Ti  Ti11  1  0.99683468  0.96324046  0.61299335  1
  Cr  Cr12  1  0.49809499  0.96608881  0.88536926  1
  Cr  Cr13  1  0.50190501  0.03391119  0.38536926  1
  Cr  Cr14  1  0.99809336  0.53391287  0.38536994  1
  Cr  Cr15  1  0.00190664  0.46608713  0.88536994  1
  P  P16  1  0.71185024  0.74648082  0.49817773  1
  P  P17  1  0.28814976  0.25351918  0.99817773  1
  P  P18  1  0.78814879  0.24648469  0.49817582  1
  P  P19  1  0.21185121  0.75351531  0.99817582  1
  P  P20  1  0.64617658  0.60838957  0.85309028  1
  P  P21  1  0.35364114  0.10712815  0.64516293  1
  P  P22  1  0.35382342  0.39161043  0.35309028  1
  P  P23  1  0.64635886  0.89287185  0.14516293  1
  P  P24  1  0.85364742  0.39287438  0.14516592  1
  P  P25  1  0.14616729  0.89160896  0.35309255  1
  P  P26  1  0.14635258  0.60712562  0.64516592  1
  P  P27  1  0.85383271  0.10839104  0.85309255  1
  O  O28  1  0.59273490  0.56228168  0.97206619  1
  O  O29  1  0.40186382  0.06569135  0.52798530  1
  O  O30  1  0.40726510  0.43771832  0.47206619  1
  O  O31  1  0.59813618  0.93430865  0.02798530  1
  O  O32  1  0.90187300  0.43431608  0.02798928  1
  O  O33  1  0.09273393  0.93772180  0.47206859  1
  O  O34  1  0.09812700  0.56568392  0.52798928  1
  O  O35  1  0.90726607  0.06227820  0.97206859  1
  O  O36  1  0.60789544  0.66040005  0.58497144  1
  O  O37  1  0.40103646  0.16639869  0.92180764  1
  O  O38  1  0.39210456  0.33959995  0.08497144  1
  O  O39  1  0.59896354  0.83360131  0.42180764  1
  O  O40  1  0.90104368  0.33360295  0.42181011  1
  O  O41  1  0.10790059  0.83959573  0.08497264  1
  O  O42  1  0.09895632  0.66639705  0.92181011  1
  O  O43  1  0.89209941  0.16040427  0.58497264  1
  O  O44  1  0.58432797  0.76882180  0.82215814  1
  O  O45  1  0.40949181  0.27327673  0.67689105  1
  O  O46  1  0.41567203  0.23117820  0.32215814  1
  O  O47  1  0.59050819  0.72672327  0.17689105  1
  O  O48  1  0.90949732  0.22672667  0.17689598  1
  O  O49  1  0.08431462  0.73117697  0.32216106  1
  O  O50  1  0.09050268  0.77327333  0.67689598  1
  O  O51  1  0.91568538  0.26882303  0.82216106  1
  O  O52  1  0.30551680  0.86497946  0.92858200  1
  O  O53  1  0.68617633  0.35771248  0.56754652  1
  O  O54  1  0.69448320  0.13502054  0.42858200  1
  O  O55  1  0.31382367  0.64228752  0.06754652  1
  O  O56  1  0.18618513  0.14228470  0.06754990  1
  O  O57  1  0.80551969  0.63501304  0.42858383  1
  O  O58  1  0.81381487  0.85771530  0.56754990  1
  O  O59  1  0.19448031  0.36498696  0.92858383  1
  O  O60  1  0.42339278  0.98953552  0.72720720  1
  O  O61  1  0.57635616  0.48513589  0.77353532  1
  O  O62  1  0.57660722  0.01046448  0.22720720  1
  O  O63  1  0.42364384  0.51486411  0.27353532  1
  O  O64  1  0.07634361  0.01485849  0.27353462  1
  O  O65  1  0.92339714  0.51046454  0.22721390  1
  O  O66  1  0.92365639  0.98514151  0.77353462  1
  O  O67  1  0.07660286  0.48953546  0.72721390  1
  O  O68  1  0.32656678  0.60668897  0.65629391  1
  O  O69  1  0.67612808  0.10756394  0.84355064  1
  O  O70  1  0.67343322  0.39331103  0.15629391  1
  O  O71  1  0.32387192  0.89243606  0.34355064  1
  O  O72  1  0.17611763  0.39244613  0.34355063  1
  O  O73  1  0.82657427  0.89330573  0.15629251  1
  O  O74  1  0.82388237  0.60755387  0.84355063  1
  O  O75  1  0.17342573  0.10669427  0.65629251  1
