# generated using pymatgen
data_Al2Zn2S5
_symmetry_space_group_name_H-M   'P 1'
_cell_length_a   6.14451460
_cell_length_b   6.50242640
_cell_length_c   9.87956125
_cell_angle_alpha   70.86758228
_cell_angle_beta   90.00000000
_cell_angle_gamma   90.00000000
_symmetry_Int_Tables_number   1
_chemical_formula_structural   Al2Zn2S5
_chemical_formula_sum   'Al4 Zn4 S10'
_cell_volume   372.92701633
_cell_formula_units_Z   2
loop_
 _symmetry_equiv_pos_site_id
 _symmetry_equiv_pos_as_xyz
  1  'x, y, z'
loop_
 _atom_site_type_symbol
 _atom_site_label
 _atom_site_symmetry_multiplicity
 _atom_site_fract_x
 _atom_site_fract_y
 _atom_site_fract_z
 _atom_site_occupancy
  Al  Al0  1  0.87839247  0.16175161  0.49972290  1
  Al  Al1  1  0.87582538  0.37069691  0.10304036  1
  Al  Al2  1  0.37582538  0.62930309  0.89695964  1
  Al  Al3  1  0.37839247  0.83824839  0.50027710  1
  Zn  Zn4  1  0.87926276  0.96912168  0.88860223  1
  Zn  Zn5  1  0.86450251  0.76015842  0.30876057  1
  Zn  Zn6  1  0.37926276  0.03087832  0.11139777  1
  Zn  Zn7  1  0.36450251  0.23984158  0.69123943  1
  S  S8  1  0.49392272  0.96002320  0.90053590  1
  S  S9  1  0.50191150  0.57264699  0.69856918  1
  S  S10  1  0.50885005  0.16384045  0.49538870  1
  S  S11  1  0.49008642  0.75562132  0.30958120  1
  S  S12  1  0.50724618  0.37668862  0.09475613  1
  S  S13  1  0.99392272  0.03997680  0.09946410  1
  S  S14  1  0.00724618  0.62331138  0.90524387  1
  S  S15  1  0.99008642  0.24437868  0.69041880  1
  S  S16  1  0.00885005  0.83615955  0.50461130  1
  S  S17  1  0.00191150  0.42735301  0.30143082  1
