# generated using pymatgen
data_Ca2TaN3
_symmetry_space_group_name_H-M   'P 1'
_cell_length_a   6.27010993
_cell_length_b   6.27010993
_cell_length_c   11.67645637
_cell_angle_alpha   90.00000000
_cell_angle_beta   90.00000000
_cell_angle_gamma   124.79545682
_symmetry_Int_Tables_number   1
_chemical_formula_structural   Ca2TaN3
_chemical_formula_sum   'Ca8 Ta4 N12'
_cell_volume   376.97051470
_cell_formula_units_Z   4
loop_
 _symmetry_equiv_pos_site_id
 _symmetry_equiv_pos_as_xyz
  1  'x, y, z'
loop_
 _atom_site_type_symbol
 _atom_site_label
 _atom_site_symmetry_multiplicity
 _atom_site_fract_x
 _atom_site_fract_y
 _atom_site_fract_z
 _atom_site_occupancy
  Ca  Ca0  1  0.53676385  0.46323615  0.64667684  1
  Ca  Ca1  1  0.46323615  0.53676385  0.35332316  1
  Ca  Ca2  1  0.96323615  0.03676385  0.14667684  1
  Ca  Ca3  1  0.03676385  0.96323615  0.85332316  1
  Ca  Ca4  1  0.87248386  0.12751614  0.57903582  1
  Ca  Ca5  1  0.12751614  0.87248386  0.42096418  1
  Ca  Ca6  1  0.62751614  0.37248386  0.07903582  1
  Ca  Ca7  1  0.37248386  0.62751614  0.92096418  1
  Ta  Ta8  1  0.75231036  0.24768964  0.84129583  1
  Ta  Ta9  1  0.24768964  0.75231036  0.15870417  1
  Ta  Ta10  1  0.74768964  0.25231036  0.34129583  1
  Ta  Ta11  1  0.25231036  0.74768964  0.65870417  1
  N  N12  1  0.84197927  0.15802073  0.97951962  1
  N  N13  1  0.15802073  0.84197927  0.02048038  1
  N  N14  1  0.65802073  0.34197927  0.47951962  1
  N  N15  1  0.34197927  0.65802073  0.52048038  1
  N  N16  1  0.57944508  0.42055492  0.86276560  1
  N  N17  1  0.42055492  0.57944508  0.13723440  1
  N  N18  1  0.92055492  0.07944508  0.36276560  1
  N  N19  1  0.07944508  0.92055492  0.63723440  1
  N  N20  1  0.57027972  0.92972028  0.75000000  1
  N  N21  1  0.92972028  0.57027972  0.25000000  1
  N  N22  1  0.42972028  0.07027972  0.25000000  1
  N  N23  1  0.07027972  0.42972028  0.75000000  1
