# generated using pymatgen
data_BaAl4(SbO6)2
_symmetry_space_group_name_H-M   'P 1'
_cell_length_a   8.25069941
_cell_length_b   8.25069941
_cell_length_c   8.25069941
_cell_angle_alpha   106.44867466
_cell_angle_beta   106.44867466
_cell_angle_gamma   115.70179745
_symmetry_Int_Tables_number   1
_chemical_formula_structural   BaAl4(SbO6)2
_chemical_formula_sum   'Ba2 Al8 Sb4 O24'
_cell_volume   428.48920201
_cell_formula_units_Z   2
loop_
 _symmetry_equiv_pos_site_id
 _symmetry_equiv_pos_as_xyz
  1  'x, y, z'
loop_
 _atom_site_type_symbol
 _atom_site_label
 _atom_site_symmetry_multiplicity
 _atom_site_fract_x
 _atom_site_fract_y
 _atom_site_fract_z
 _atom_site_occupancy
  Ba  Ba0  1  0.21472356  0.21472356  0.00000000  1
  Ba  Ba1  1  0.78527644  0.78527644  0.00000000  1
  Al  Al2  1  0.98465597  0.50055716  0.81601484  1
  Al  Al3  1  0.68454332  0.16864213  0.18398516  1
  Al  Al4  1  0.16864213  0.98465597  0.48409881  1
  Al  Al5  1  0.50055716  0.68454332  0.51590119  1
  Al  Al6  1  0.01534403  0.49944284  0.18398516  1
  Al  Al7  1  0.31545668  0.83135787  0.81601484  1
  Al  Al8  1  0.83135787  0.01534403  0.51590119  1
  Al  Al9  1  0.49944284  0.31545668  0.48409881  1
  Sb  Sb10  1  0.64963338  0.16214978  0.81178416  1
  Sb  Sb11  1  0.35036662  0.83785022  0.18821584  1
  Sb  Sb12  1  0.83785022  0.64963338  0.48748360  1
  Sb  Sb13  1  0.16214978  0.35036662  0.51251640  1
  O  O14  1  0.85061644  0.19956581  0.05018225  1
  O  O15  1  0.14938356  0.80043419  0.94981775  1
  O  O16  1  0.80043419  0.85061644  0.65104963  1
  O  O17  1  0.19956581  0.14938356  0.34895037  1
  O  O18  1  0.17504739  0.53464211  0.04629008  1
  O  O19  1  0.48835303  0.12875831  0.95370992  1
  O  O20  1  0.12875831  0.17504739  0.64040528  1
  O  O21  1  0.53464211  0.48835303  0.35959472  1
  O  O22  1  0.82495261  0.46535789  0.95370992  1
  O  O23  1  0.51164697  0.87124169  0.04629008  1
  O  O24  1  0.87124169  0.82495261  0.35959472  1
  O  O25  1  0.46535789  0.51164697  0.64040528  1
  O  O26  1  0.45236406  0.15773860  0.61010266  1
  O  O27  1  0.54763594  0.84226140  0.38989734  1
  O  O28  1  0.84226140  0.45236406  0.29462546  1
  O  O29  1  0.15773860  0.54763594  0.70537454  1
  O  O30  1  0.78745921  0.49430679  0.63114589  1
  O  O31  1  0.86316090  0.15631332  0.36885411  1
  O  O32  1  0.15631332  0.78745921  0.29315242  1
  O  O33  1  0.49430679  0.86316090  0.70684758  1
  O  O34  1  0.21254079  0.50569321  0.36885411  1
  O  O35  1  0.13683910  0.84368668  0.63114589  1
  O  O36  1  0.84368668  0.21254079  0.70684758  1
  O  O37  1  0.50569321  0.13683910  0.29315242  1
