# generated using pymatgen
data_DyMn2O5
_symmetry_space_group_name_H-M   'P 1'
_cell_length_a   5.67925258
_cell_length_b   7.23778676
_cell_length_c   8.47219179
_cell_angle_alpha   90.00000000
_cell_angle_beta   90.00000000
_cell_angle_gamma   90.00000000
_symmetry_Int_Tables_number   1
_chemical_formula_structural   DyMn2O5
_chemical_formula_sum   'Dy4 Mn8 O20'
_cell_volume   348.25130004
_cell_formula_units_Z   4
loop_
 _symmetry_equiv_pos_site_id
 _symmetry_equiv_pos_as_xyz
  1  'x, y, z'
loop_
 _atom_site_type_symbol
 _atom_site_label
 _atom_site_symmetry_multiplicity
 _atom_site_fract_x
 _atom_site_fract_y
 _atom_site_fract_z
 _atom_site_occupancy
  Dy  Dy0  1  0.00000000  0.36278404  0.67109377  1
  Dy  Dy1  1  0.00000000  0.63721596  0.32890623  1
  Dy  Dy2  1  0.00000000  0.86278404  0.82890623  1
  Dy  Dy3  1  0.00000000  0.13721596  0.17109377  1
  Mn  Mn4  1  0.50000000  0.08807322  0.84918116  1
  Mn  Mn5  1  0.50000000  0.91192678  0.15081884  1
  Mn  Mn6  1  0.50000000  0.58807322  0.65081884  1
  Mn  Mn7  1  0.50000000  0.41192678  0.34918116  1
  Mn  Mn8  1  0.25409818  0.50000000  -0.00000000  1
  Mn  Mn9  1  0.74590182  -0.00000000  0.50000000  1
  Mn  Mn10  1  0.74590182  0.50000000  -0.00000000  1
  Mn  Mn11  1  0.25409818  -0.00000000  0.50000000  1
  O  O12  1  0.24354313  0.89414873  0.29362880  1
  O  O13  1  0.24354313  0.10585127  0.70637120  1
  O  O14  1  0.75645687  0.39414873  0.20637120  1
  O  O15  1  0.75645687  0.60585127  0.79362880  1
  O  O16  1  0.75645687  0.10585127  0.70637120  1
  O  O17  1  0.75645687  0.89414873  0.29362880  1
  O  O18  1  0.24354313  0.60585127  0.79362880  1
  O  O19  1  0.24354313  0.39414873  0.20637120  1
  O  O20  1  0.50000000  0.34691009  0.93315314  1
  O  O21  1  0.50000000  0.65308991  0.06684686  1
  O  O22  1  0.50000000  0.84691009  0.56684686  1
  O  O23  1  0.50000000  0.15308991  0.43315314  1
  O  O24  1  0.27152298  -0.00000000  -0.00000000  1
  O  O25  1  0.72847702  0.50000000  0.50000000  1
  O  O26  1  0.72847702  -0.00000000  -0.00000000  1
  O  O27  1  0.27152298  0.50000000  0.50000000  1
  O  O28  1  0.00000000  0.16339484  0.44372832  1
  O  O29  1  0.00000000  0.83660516  0.55627168  1
  O  O30  1  0.00000000  0.66339484  0.05627168  1
  O  O31  1  0.00000000  0.33660516  0.94372832  1
