# generated using pymatgen
data_Na11B21(BrO18)2
_symmetry_space_group_name_H-M   'P 1'
_cell_length_a   9.04583086
_cell_length_b   9.14925268
_cell_length_c   24.40478295
_cell_angle_alpha   99.50364808
_cell_angle_beta   90.00000000
_cell_angle_gamma   119.62677070
_symmetry_Int_Tables_number   1
_chemical_formula_structural   Na11B21(BrO18)2
_chemical_formula_sum   'Na22 B42 Br4 O72'
_cell_volume   1723.77922480
_cell_formula_units_Z   2
loop_
 _symmetry_equiv_pos_site_id
 _symmetry_equiv_pos_as_xyz
  1  'x, y, z'
loop_
 _atom_site_type_symbol
 _atom_site_label
 _atom_site_symmetry_multiplicity
 _atom_site_fract_x
 _atom_site_fract_y
 _atom_site_fract_z
 _atom_site_occupancy
  Na  Na0  1  0.27713365  0.30490346  0.84246061  1
  Na  Na1  1  0.97223019  0.69509654  0.65753939  1
  Na  Na2  1  0.72286635  0.69509654  0.15753939  1
  Na  Na3  1  0.02776981  0.30490346  0.34246061  1
  Na  Na4  1  0.01024525  0.78308463  0.84305077  1
  Na  Na5  1  0.22716062  0.21691537  0.65694923  1
  Na  Na6  1  0.98975475  0.21691537  0.15694923  1
  Na  Na7  1  0.77283938  0.78308463  0.34305077  1
  Na  Na8  1  0.32708343  0.84725796  0.00409708  1
  Na  Na9  1  0.47982548  0.15274204  0.49590292  1
  Na  Na10  1  0.67291657  0.15274204  0.99590292  1
  Na  Na11  1  0.52017452  0.84725796  0.50409708  1
  Na  Na12  1  0.90791243  0.79746326  0.00983540  1
  Na  Na13  1  0.11044917  0.20253674  0.49016460  1
  Na  Na14  1  0.09208757  0.20253674  0.99016460  1
  Na  Na15  1  0.88955083  0.79746326  0.50983540  1
  Na  Na16  1  0.52471301  0.04677880  0.84207272  1
  Na  Na17  1  0.47793421  0.95322120  0.65792728  1
  Na  Na18  1  0.47528699  0.95322120  0.15792728  1
  Na  Na19  1  0.52206579  0.04677880  0.34207272  1
  Na  Na20  1  0.50000000  0.50000000  0.00000000  1
  Na  Na21  1  0.00000000  0.50000000  0.50000000  1
  B  B22  1  0.88564713  0.22087681  0.89902312  1
  B  B23  1  0.66477032  0.77912319  0.60097688  1
  B  B24  1  0.11435287  0.77912319  0.10097688  1
  B  B25  1  0.33522968  0.22087681  0.39902312  1
  B  B26  1  0.68638237  0.60936368  0.90693449  1
  B  B27  1  0.07701870  0.39063632  0.59306551  1
  B  B28  1  0.31361763  0.39063632  0.09306551  1
  B  B29  1  0.92298130  0.60936368  0.40693449  1
  B  B30  1  0.13176943  0.52561573  0.92253986  1
  B  B31  1  0.60615370  0.47438427  0.57746014  1
  B  B32  1  0.86823057  0.47438427  0.07746014  1
  B  B33  1  0.39384630  0.52561573  0.42253986  1
  B  B34  1  0.44139679  0.66462952  0.89334471  1
  B  B35  1  0.77676728  0.33537048  0.60665529  1
  B  B36  1  0.55860321  0.33537048  0.10665529  1
  B  B37  1  0.22323272  0.66462952  0.39334471  1
  B  B38  1  0.84127654  0.46996519  0.93520157  1
  B  B39  1  0.37131136  0.53003481  0.56479843  1
  B  B40  1  0.15872346  0.53003481  0.06479843  1
  B  B41  1  0.62868864  0.46996519  0.43520157  1
  B  B42  1  0.08464307  0.00000000  0.75000000  1
  B  B43  1  0.91535693  0.00000000  0.25000000  1
  B  B44  1  0.25894222  0.09062435  0.08320466  1
  B  B45  1  0.16831787  0.90937565  0.41679534  1
  B  B46  1  0.74105778  0.90937565  0.91679534  1
  B  B47  1  0.83168213  0.09062435  0.58320466  1
  B  B48  1  0.24969597  0.83987076  0.75160434  1
  B  B49  1  0.40982521  0.16012924  0.74839566  1
  B  B50  1  0.75030403  0.16012924  0.24839566  1
  B  B51  1  0.59017479  0.83987076  0.25160434  1
  B  B52  1  0.65554591  0.43279267  0.80581804  1
  B  B53  1  0.22275325  0.56720733  0.69418196  1
  B  B54  1  0.34445409  0.56720733  0.19418196  1
  B  B55  1  0.77724675  0.43279267  0.30581804  1
  B  B56  1  0.87124302  0.07077813  0.79799739  1
  B  B57  1  0.80046489  0.92922187  0.70200261  1
  B  B58  1  0.12875698  0.92922187  0.20200261  1
  B  B59  1  0.19953511  0.07077813  0.29799739  1
  B  B60  1  0.67580583  0.36424089  0.70707449  1
  B  B61  1  0.31156494  0.63575911  0.79292551  1
  B  B62  1  0.32419417  0.63575911  0.29292551  1
  B  B63  1  0.68843506  0.36424089  0.20707449  1
  Br  Br64  1  0.31281238  0.08509584  0.93938843  1
  Br  Br65  1  0.22771654  0.91490416  0.56061157  1
  Br  Br66  1  0.68718762  0.91490416  0.06061157  1
  Br  Br67  1  0.77228346  0.08509584  0.43938843  1
  O  O68  1  0.75853479  0.00000000  0.75000000  1
  O  O69  1  0.24146521  0.00000000  0.25000000  1
  O  O70  1  0.29861923  0.64967360  0.92767296  1
  O  O71  1  0.64894563  0.35032640  0.57232704  1
  O  O72  1  0.70138077  0.35032640  0.07232704  1
  O  O73  1  0.35105437  0.64967360  0.42767296  1
  O  O74  1  0.73608102  0.53568847  0.95053071  1
  O  O75  1  0.20039255  0.46431153  0.54946929  1
  O  O76  1  0.26391898  0.46431153  0.04946929  1
  O  O77  1  0.79960745  0.53568847  0.45053071  1
  O  O78  1  0.73467663  0.55499512  0.85323420  1
  O  O79  1  0.17968151  0.44500488  0.64676580  1
  O  O80  1  0.26532337  0.44500488  0.14676580  1
  O  O81  1  0.82031849  0.55499512  0.35323420  1
  O  O82  1  0.82324126  0.15063289  0.84097025  1
  O  O83  1  0.67260837  0.84936711  0.65902975  1
  O  O84  1  0.17675874  0.84936711  0.15902975  1
  O  O85  1  0.32739163  0.15063289  0.34097025  1
  O  O86  1  0.40376713  0.00000000  0.75000000  1
  O  O87  1  0.59623287  0.00000000  0.25000000  1
  O  O88  1  0.51125082  0.56458767  0.91160968  1
  O  O89  1  0.94666316  0.43541233  0.58839032  1
  O  O90  1  0.48874918  0.43541233  0.08839032  1
  O  O91  1  0.05333684  0.56458767  0.41160968  1
  O  O92  1  0.50366356  0.28397180  0.80325677  1
  O  O93  1  0.21969176  0.71602820  0.69674323  1
  O  O94  1  0.49633644  0.71602820  0.19674323  1
  O  O95  1  0.78030824  0.28397180  0.30325677  1
  O  O96  1  0.09838398  0.85469117  0.75901744  1
  O  O97  1  0.24369281  0.14530883  0.74098256  1
  O  O98  1  0.90161602  0.14530883  0.24098256  1
  O  O99  1  0.75630719  0.85469117  0.25901744  1
  O  O100  1  0.21910217  0.70204686  0.07751628  1
  O  O101  1  0.51705531  0.29795314  0.42248372  1
  O  O102  1  0.78089783  0.29795314  0.92248372  1
  O  O103  1  0.48294469  0.70204686  0.57751628  1
  O  O104  1  0.01720858  0.58538664  0.93745658  1
  O  O105  1  0.43182195  0.41461336  0.56254342  1
  O  O106  1  0.98279142  0.41461336  0.06254342  1
  O  O107  1  0.56817805  0.58538664  0.43745658  1
  O  O108  1  0.80401359  0.80175628  0.92122217  1
  O  O109  1  0.00225731  0.19824372  0.57877783  1
  O  O110  1  0.19598641  0.19824372  0.07877783  1
  O  O111  1  0.99774269  0.80175628  0.42122217  1
  O  O112  1  0.42797037  0.14808702  0.09775106  1
  O  O113  1  0.27988335  0.85191298  0.40224894  1
  O  O114  1  0.57202963  0.85191298  0.90224894  1
  O  O115  1  0.72011665  0.14808702  0.59775106  1
  O  O116  1  0.01444204  0.05698443  0.80117768  1
  O  O117  1  0.95745761  0.94301557  0.69882232  1
  O  O118  1  0.98555796  0.94301557  0.19882232  1
  O  O119  1  0.04254239  0.05698443  0.30117768  1
  O  O120  1  0.07186086  0.35249479  0.90762334  1
  O  O121  1  0.71936608  0.64750521  0.59237666  1
  O  O122  1  0.92813914  0.64750521  0.09237666  1
  O  O123  1  0.28063392  0.35249479  0.40762334  1
  O  O124  1  0.27852789  0.76871621  0.80008412  1
  O  O125  1  0.50981169  0.23128379  0.69991588  1
  O  O126  1  0.72147211  0.23128379  0.19991588  1
  O  O127  1  0.49018831  0.76871621  0.30008412  1
  O  O128  1  0.74699687  0.46913769  0.75934538  1
  O  O129  1  0.27785918  0.53086231  0.74065462  1
  O  O130  1  0.25300313  0.53086231  0.24065462  1
  O  O131  1  0.72214082  0.46913769  0.25934538  1
  O  O132  1  0.14277498  0.91480729  0.06928477  1
  O  O133  1  0.22796768  0.08519271  0.43071523  1
  O  O134  1  0.85722502  0.08519271  0.93071523  1
  O  O135  1  0.77203232  0.91480729  0.56928477  1
  O  O136  1  0.37331524  0.59235011  0.83463355  1
  O  O137  1  0.78096514  0.40764989  0.66536645  1
  O  O138  1  0.62668476  0.40764989  0.16536645  1
  O  O139  1  0.21903486  0.59235011  0.33463355  1
