# generated using pymatgen
data_P2S3
_symmetry_space_group_name_H-M   'P 1'
_cell_length_a   4.61561025
_cell_length_b   10.62499341
_cell_length_c   25.63834985
_cell_angle_alpha   90.00000000
_cell_angle_beta   90.00000000
_cell_angle_gamma   90.00000000
_symmetry_Int_Tables_number   1
_chemical_formula_structural   P2S3
_chemical_formula_sum   'P4 S6'
_cell_volume   1257.32591774
_cell_formula_units_Z   2
loop_
 _symmetry_equiv_pos_site_id
 _symmetry_equiv_pos_as_xyz
  1  'x, y, z'
loop_
 _atom_site_type_symbol
 _atom_site_label
 _atom_site_symmetry_multiplicity
 _atom_site_fract_x
 _atom_site_fract_y
 _atom_site_fract_z
 _atom_site_occupancy
  P  P0  1  0.66741946  0.85291051  0.47581096  1
  P  P1  1  0.16741946  0.64708949  0.52418904  1
  P  P2  1  0.16741946  0.35291051  0.52418904  1
  P  P3  1  0.66741946  0.14708949  0.47581096  1
  S  S4  1  0.98053651  0.71796914  0.45375913  1
  S  S5  1  0.48053651  0.78203086  0.54624087  1
  S  S6  1  0.48053651  0.21796914  0.54624087  1
  S  S7  1  0.98053651  0.28203086  0.45375913  1
  S  S8  1  0.91319807  0.00000000  0.51151095  1
  S  S9  1  0.41319807  0.50000000  0.48848905  1
