# generated using pymatgen
data_Ba3(AlAs2)2
_symmetry_space_group_name_H-M   'P 1'
_cell_length_a   7.52623309
_cell_length_b   11.90549219
_cell_length_c   11.96024198
_cell_angle_alpha   90.00000000
_cell_angle_beta   90.00000000
_cell_angle_gamma   90.00000000
_symmetry_Int_Tables_number   1
_chemical_formula_structural   Ba3(AlAs2)2
_chemical_formula_sum   'Ba12 Al8 As16'
_cell_volume   1071.67965316
_cell_formula_units_Z   4
loop_
 _symmetry_equiv_pos_site_id
 _symmetry_equiv_pos_as_xyz
  1  'x, y, z'
loop_
 _atom_site_type_symbol
 _atom_site_label
 _atom_site_symmetry_multiplicity
 _atom_site_fract_x
 _atom_site_fract_y
 _atom_site_fract_z
 _atom_site_occupancy
  Ba  Ba0  1  0.58058981  0.07755796  0.36102113  1
  Ba  Ba1  1  0.08058981  0.42244204  0.13897887  1
  Ba  Ba2  1  0.41941019  0.57755796  0.63897887  1
  Ba  Ba3  1  0.91941019  0.92244204  0.86102113  1
  Ba  Ba4  1  0.41941019  0.92244204  0.63897887  1
  Ba  Ba5  1  0.91941019  0.57755796  0.86102113  1
  Ba  Ba6  1  0.58058981  0.42244204  0.36102113  1
  Ba  Ba7  1  0.08058981  0.07755796  0.13897887  1
  Ba  Ba8  1  0.59389436  0.25000000  0.73657588  1
  Ba  Ba9  1  0.09389436  0.25000000  0.76342412  1
  Ba  Ba10  1  0.40610564  0.75000000  0.26342412  1
  Ba  Ba11  1  0.90610564  0.75000000  0.23657588  1
  Al  Al12  1  0.55897151  0.12523314  0.03631290  1
  Al  Al13  1  0.05897151  0.37476686  0.46368710  1
  Al  Al14  1  0.44102849  0.62523314  0.96368710  1
  Al  Al15  1  0.94102849  0.87476686  0.53631290  1
  Al  Al16  1  0.44102849  0.87476686  0.96368710  1
  Al  Al17  1  0.94102849  0.62523314  0.53631290  1
  Al  Al18  1  0.55897151  0.37476686  0.03631290  1
  Al  Al19  1  0.05897151  0.12523314  0.46368710  1
  As  As20  1  0.65694460  0.55796446  0.11300014  1
  As  As21  1  0.15694460  0.94203554  0.38699986  1
  As  As22  1  0.34305540  0.05796446  0.88699986  1
  As  As23  1  0.84305540  0.44203554  0.61300014  1
  As  As24  1  0.34305540  0.44203554  0.88699986  1
  As  As25  1  0.84305540  0.05796446  0.61300014  1
  As  As26  1  0.65694460  0.94203554  0.11300014  1
  As  As27  1  0.15694460  0.55796446  0.38699986  1
  As  As28  1  0.81087452  0.25000000  0.97232119  1
  As  As29  1  0.31087452  0.25000000  0.52767881  1
  As  As30  1  0.18912548  0.75000000  0.02767881  1
  As  As31  1  0.68912548  0.75000000  0.47232119  1
  As  As32  1  0.90973114  0.25000000  0.32832039  1
  As  As33  1  0.40973114  0.25000000  0.17167961  1
  As  As34  1  0.09026886  0.75000000  0.67167961  1
  As  As35  1  0.59026886  0.75000000  0.82832039  1
