# generated using pymatgen
data_KPO3
_symmetry_space_group_name_H-M   'P 1'
_cell_length_a   4.44526820
_cell_length_b   5.81675015
_cell_length_c   12.42586076
_cell_angle_alpha   90.00000000
_cell_angle_beta   90.00000000
_cell_angle_gamma   90.00000000
_symmetry_Int_Tables_number   1
_chemical_formula_structural   KPO3
_chemical_formula_sum   'K4 P4 O12'
_cell_volume   321.29566146
_cell_formula_units_Z   4
loop_
 _symmetry_equiv_pos_site_id
 _symmetry_equiv_pos_as_xyz
  1  'x, y, z'
loop_
 _atom_site_type_symbol
 _atom_site_label
 _atom_site_symmetry_multiplicity
 _atom_site_fract_x
 _atom_site_fract_y
 _atom_site_fract_z
 _atom_site_occupancy
  K  K0  1  0.23203988  0.75000000  0.59251665  1
  K  K1  1  0.73203988  0.75000000  0.90748335  1
  K  K2  1  0.76796012  0.25000000  0.40748335  1
  K  K3  1  0.26796012  0.25000000  0.09251665  1
  P  P4  1  0.68052471  0.25000000  0.67246180  1
  P  P5  1  0.18052471  0.25000000  0.82753820  1
  P  P6  1  0.31947529  0.75000000  0.32753820  1
  P  P7  1  0.81947529  0.75000000  0.17246180  1
  O  O8  1  0.33377649  0.25000000  0.71011884  1
  O  O9  1  0.83377649  0.25000000  0.78988116  1
  O  O10  1  0.66622351  0.75000000  0.28988116  1
  O  O11  1  0.16622351  0.75000000  0.21011884  1
  O  O12  1  0.26012539  0.52972684  0.38389981  1
  O  O13  1  0.76012539  0.97027316  0.11610019  1
  O  O14  1  0.73987461  0.02972684  0.61610019  1
  O  O15  1  0.23987461  0.47027316  0.88389981  1
  O  O16  1  0.76012539  0.52972684  0.11610019  1
  O  O17  1  0.26012539  0.97027316  0.38389981  1
  O  O18  1  0.23987461  0.02972684  0.88389981  1
  O  O19  1  0.73987461  0.47027316  0.61610019  1
