# generated using pymatgen
data_CeHfO4
_symmetry_space_group_name_H-M   'P 1'
_cell_length_a   10.55553525
_cell_length_b   10.55553525
_cell_length_c   10.55553525
_cell_angle_alpha   90.00000000
_cell_angle_beta   90.00000000
_cell_angle_gamma   90.00000000
_symmetry_Int_Tables_number   1
_chemical_formula_structural   CeHfO4
_chemical_formula_sum   'Ce16 Hf16 O64'
_cell_volume   1176.09060638
_cell_formula_units_Z   16
loop_
 _symmetry_equiv_pos_site_id
 _symmetry_equiv_pos_as_xyz
  1  'x, y, z'
loop_
 _atom_site_type_symbol
 _atom_site_label
 _atom_site_symmetry_multiplicity
 _atom_site_fract_x
 _atom_site_fract_y
 _atom_site_fract_z
 _atom_site_occupancy
  Ce  Ce0  1  0.12401032  0.37513055  0.37412260  1
  Ce  Ce1  1  0.12587740  0.87598968  0.87513055  1
  Ce  Ce2  1  0.12486945  0.62587740  0.62401032  1
  Ce  Ce3  1  0.12518340  0.12518340  0.12518340  1
  Ce  Ce4  1  0.37481660  0.87481660  0.62518340  1
  Ce  Ce5  1  0.37513055  0.37412260  0.12401032  1
  Ce  Ce6  1  0.37412260  0.12401032  0.37513055  1
  Ce  Ce7  1  0.37598968  0.62486945  0.87412260  1
  Ce  Ce8  1  0.62401032  0.12486945  0.62587740  1
  Ce  Ce9  1  0.62587740  0.62401032  0.12486945  1
  Ce  Ce10  1  0.62486945  0.87412260  0.37598968  1
  Ce  Ce11  1  0.62518340  0.37481660  0.87481660  1
  Ce  Ce12  1  0.87481660  0.62518340  0.37481660  1
  Ce  Ce13  1  0.87513055  0.12587740  0.87598968  1
  Ce  Ce14  1  0.87412260  0.37598968  0.62486945  1
  Ce  Ce15  1  0.87598968  0.87513055  0.12587740  1
  Hf  Hf16  1  0.12445442  0.62317510  0.12225381  1
  Hf  Hf17  1  0.12225381  0.12445442  0.62317510  1
  Hf  Hf18  1  0.13068421  0.86931579  0.36931579  1
  Hf  Hf19  1  0.12317510  0.37774619  0.87554558  1
  Hf  Hf20  1  0.37682490  0.62225381  0.37554558  1
  Hf  Hf21  1  0.36931579  0.13068421  0.86931579  1
  Hf  Hf22  1  0.37774619  0.87554558  0.12317510  1
  Hf  Hf23  1  0.37554558  0.37682490  0.62225381  1
  Hf  Hf24  1  0.62445442  0.87682490  0.87774619  1
  Hf  Hf25  1  0.62225381  0.37554558  0.37682490  1
  Hf  Hf26  1  0.63068421  0.63068421  0.63068421  1
  Hf  Hf27  1  0.62317510  0.12225381  0.12445442  1
  Hf  Hf28  1  0.87682490  0.87774619  0.62445442  1
  Hf  Hf29  1  0.86931579  0.36931579  0.13068421  1
  Hf  Hf30  1  0.87774619  0.62445442  0.87682490  1
  Hf  Hf31  1  0.87554558  0.12317510  0.37774619  1
  O  O32  1  0.01092905  0.74623025  0.24862168  1
  O  O33  1  0.00139668  0.99655409  0.26408340  1
  O  O34  1  0.00096038  0.74131630  0.99998602  1
  O  O35  1  0.99490597  0.00509403  0.50509403  1
  O  O36  1  0.00122375  0.00122375  0.00122375  1
  O  O37  1  0.99998602  0.00096038  0.74131630  1
  O  O38  1  0.00344591  0.76408340  0.49860332  1
  O  O39  1  0.01237813  0.25108501  0.75006019  1
  O  O40  1  0.24891499  0.24993981  0.51237813  1
  O  O41  1  0.24993981  0.51237813  0.24891499  1
  O  O42  1  0.25184954  0.24815046  0.75184954  1
  O  O43  1  0.24862168  0.01092905  0.74623025  1
  O  O44  1  0.23591660  0.99860332  0.49655409  1
  O  O45  1  0.24131630  0.50001398  0.99903962  1
  O  O46  1  0.25376975  0.74862168  0.48907095  1
  O  O47  1  0.24989984  0.74989984  0.75010016  1
  O  O48  1  0.25010016  0.25010016  0.25010016  1
  O  O49  1  0.24623025  0.25137832  0.98907095  1
  O  O50  1  0.25868370  0.49998602  0.49903962  1
  O  O51  1  0.26408340  0.00139668  0.99655409  1
  O  O52  1  0.25137832  0.98907095  0.24623025  1
  O  O53  1  0.24815046  0.75184954  0.25184954  1
  O  O54  1  0.25006019  0.48762187  0.74891499  1
  O  O55  1  0.25108501  0.75006019  0.01237813  1
  O  O56  1  0.48762187  0.74891499  0.25006019  1
  O  O57  1  0.49877625  0.99877625  0.50122375  1
  O  O58  1  0.50509403  0.99490597  0.00509403  1
  O  O59  1  0.50001398  0.99903962  0.24131630  1
  O  O60  1  0.49655409  0.23591660  0.99860332  1
  O  O61  1  0.49903962  0.25868370  0.49998602  1
  O  O62  1  0.48907095  0.25376975  0.74862168  1
  O  O63  1  0.49860332  0.00344591  0.76408340  1
  O  O64  1  0.50139668  0.50344591  0.73591660  1
  O  O65  1  0.51092905  0.75376975  0.75137832  1
  O  O66  1  0.50096038  0.75868370  0.00001398  1
  O  O67  1  0.49998602  0.49903962  0.25868370  1
  O  O68  1  0.49490597  0.49490597  0.49490597  1
  O  O69  1  0.50122375  0.49877625  0.99877625  1
  O  O70  1  0.50344591  0.73591660  0.50139668  1
  O  O71  1  0.51237813  0.24891499  0.24993981  1
  O  O72  1  0.74891499  0.25006019  0.48762187  1
  O  O73  1  0.74993981  0.98762187  0.75108501  1
  O  O74  1  0.75184954  0.25184954  0.24815046  1
  O  O75  1  0.74862168  0.48907095  0.25376975  1
  O  O76  1  0.73591660  0.50139668  0.50344591  1
  O  O77  1  0.74131630  0.99998602  0.00096038  1
  O  O78  1  0.75376975  0.75137832  0.51092905  1
  O  O79  1  0.74989984  0.75010016  0.24989984  1
  O  O80  1  0.75010016  0.24989984  0.74989984  1
  O  O81  1  0.74623025  0.24862168  0.01092905  1
  O  O82  1  0.75868370  0.00001398  0.50096038  1
  O  O83  1  0.76408340  0.49860332  0.00344591  1
  O  O84  1  0.75137832  0.51092905  0.75376975  1
  O  O85  1  0.74815046  0.74815046  0.74815046  1
  O  O86  1  0.75006019  0.01237813  0.25108501  1
  O  O87  1  0.75108501  0.74993981  0.98762187  1
  O  O88  1  0.98762187  0.75108501  0.74993981  1
  O  O89  1  0.99655409  0.26408340  0.00139668  1
  O  O90  1  0.00509403  0.50509403  0.99490597  1
  O  O91  1  0.00001398  0.50096038  0.75868370  1
  O  O92  1  0.99877625  0.50122375  0.49877625  1
  O  O93  1  0.99903962  0.24131630  0.50001398  1
  O  O94  1  0.98907095  0.24623025  0.25137832  1
  O  O95  1  0.99860332  0.49655409  0.23591660  1
