# generated using pymatgen
data_Ce2Nb2S7O30
_symmetry_space_group_name_H-M   'P 1'
_cell_length_a   7.20443380
_cell_length_b   12.92405787
_cell_length_c   12.92405787
_cell_angle_alpha   90.00000000
_cell_angle_beta   90.00000000
_cell_angle_gamma   90.00000000
_symmetry_Int_Tables_number   1
_chemical_formula_structural   Ce2Nb2S7O30
_chemical_formula_sum   'Ce4 Nb4 S14 O60'
_cell_volume   1203.36574041
_cell_formula_units_Z   2
loop_
 _symmetry_equiv_pos_site_id
 _symmetry_equiv_pos_as_xyz
  1  'x, y, z'
loop_
 _atom_site_type_symbol
 _atom_site_label
 _atom_site_symmetry_multiplicity
 _atom_site_fract_x
 _atom_site_fract_y
 _atom_site_fract_z
 _atom_site_occupancy
  Ce  Ce0  1  0.58981567  0.79818142  0.29818142  1
  Ce  Ce1  1  0.41018433  0.70181858  0.79818142  1
  Ce  Ce2  1  0.58981567  0.20181858  0.70181858  1
  Ce  Ce3  1  0.41018433  0.29818142  0.20181858  1
  Nb  Nb4  1  0.98224116  0.63914619  0.13914619  1
  Nb  Nb5  1  0.01775884  0.86085381  0.63914619  1
  Nb  Nb6  1  0.98224116  0.36085381  0.86085381  1
  Nb  Nb7  1  0.01775884  0.13914619  0.36085381  1
  S  S8  1  0.34233501  0.50000000  -0.00000000  1
  S  S9  1  0.65766499  0.00000000  0.50000000  1
  S  S10  1  0.89525168  0.37711346  0.12288654  1
  S  S11  1  0.10474832  0.12288654  0.62288654  1
  S  S12  1  0.89525168  0.62288654  0.87711346  1
  S  S13  1  0.10474832  0.87711346  0.37711346  1
  S  S14  1  0.29336723  0.56611664  0.32610941  1
  S  S15  1  0.70663277  0.93388336  0.82610941  1
  S  S16  1  0.29336723  0.43388336  0.67389059  1
  S  S17  1  0.70663277  0.06611664  0.17389059  1
  S  S18  1  0.70663277  0.67389059  0.56611664  1
  S  S19  1  0.29336723  0.82610941  0.06611664  1
  S  S20  1  0.70663277  0.32610941  0.43388336  1
  S  S21  1  0.29336723  0.17389059  0.93388336  1
  O  O22  1  0.78531222  0.70121303  0.20121303  1
  O  O23  1  0.21468778  0.79878697  0.70121303  1
  O  O24  1  0.78531222  0.29878697  0.79878697  1
  O  O25  1  0.21468778  0.20121303  0.29878697  1
  O  O26  1  0.45903178  0.56684964  0.93315036  1
  O  O27  1  0.54096822  0.93315036  0.43315036  1
  O  O28  1  0.45903178  0.43315036  0.06684964  1
  O  O29  1  0.54096822  0.06684964  0.56684964  1
  O  O30  1  0.22284171  0.56604393  0.06604393  1
  O  O31  1  0.77715829  0.93395607  0.56604393  1
  O  O32  1  0.22284171  0.43395607  0.93395607  1
  O  O33  1  0.77715829  0.06604393  0.43395607  1
  O  O34  1  0.07634488  0.34195512  0.15804488  1
  O  O35  1  0.92365512  0.15804488  0.65804488  1
  O  O36  1  0.07634488  0.65804488  0.84195512  1
  O  O37  1  0.92365512  0.84195512  0.34195512  1
  O  O38  1  0.74113600  0.32462876  0.17537124  1
  O  O39  1  0.25886400  0.17537124  0.67537124  1
  O  O40  1  0.74113600  0.67537124  0.82462876  1
  O  O41  1  0.25886400  0.82462876  0.32462876  1
  O  O42  1  0.87337914  0.49101345  0.14174730  1
  O  O43  1  0.12662086  0.00898655  0.64174730  1
  O  O44  1  0.87337914  0.50898655  0.85825270  1
  O  O45  1  0.12662086  0.99101345  0.35825270  1
  O  O46  1  0.12662086  0.85825270  0.49101345  1
  O  O47  1  0.87337914  0.64174730  0.99101345  1
  O  O48  1  0.12662086  0.14174730  0.50898655  1
  O  O49  1  0.87337914  0.35825270  0.00898655  1
  O  O50  1  0.44989315  0.63383675  0.29177626  1
  O  O51  1  0.55010685  0.86616325  0.79177626  1
  O  O52  1  0.44989315  0.36616325  0.70822374  1
  O  O53  1  0.55010685  0.13383675  0.20822374  1
  O  O54  1  0.55010685  0.70822374  0.63383675  1
  O  O55  1  0.44989315  0.79177626  0.13383675  1
  O  O56  1  0.55010685  0.29177626  0.36616325  1
  O  O57  1  0.44989315  0.20822374  0.86616325  1
  O  O58  1  0.32915284  0.45952921  0.28785689  1
  O  O59  1  0.67084716  0.04047079  0.78785689  1
  O  O60  1  0.32915284  0.54047079  0.71214311  1
  O  O61  1  0.67084716  0.95952921  0.21214311  1
  O  O62  1  0.67084716  0.71214311  0.45952921  1
  O  O63  1  0.32915284  0.78785689  0.95952921  1
  O  O64  1  0.67084716  0.28785689  0.54047079  1
  O  O65  1  0.32915284  0.21214311  0.04047079  1
  O  O66  1  0.24786947  0.57598744  0.43294057  1
  O  O67  1  0.75213053  0.92401256  0.93294057  1
  O  O68  1  0.24786947  0.42401256  0.56705943  1
  O  O69  1  0.75213053  0.07598744  0.06705943  1
  O  O70  1  0.75213053  0.56705943  0.57598744  1
  O  O71  1  0.24786947  0.93294057  0.07598744  1
  O  O72  1  0.75213053  0.43294057  0.42401256  1
  O  O73  1  0.24786947  0.06705943  0.92401256  1
  O  O74  1  0.11967200  0.60646281  0.26519193  1
  O  O75  1  0.88032800  0.89353719  0.76519193  1
  O  O76  1  0.11967200  0.39353719  0.73480807  1
  O  O77  1  0.88032800  0.10646281  0.23480807  1
  O  O78  1  0.88032800  0.73480807  0.60646281  1
  O  O79  1  0.11967200  0.76519193  0.10646281  1
  O  O80  1  0.88032800  0.26519193  0.39353719  1
  O  O81  1  0.11967200  0.23480807  0.89353719  1
