# generated using pymatgen
data_K4NaCl5
_symmetry_space_group_name_H-M   'P 1'
_cell_length_a   7.55681894
_cell_length_b   7.55675055
_cell_length_c   7.55666359
_cell_angle_alpha   99.72415763
_cell_angle_beta   99.72337103
_cell_angle_gamma   131.46995462
_symmetry_Int_Tables_number   1
_chemical_formula_structural   K4NaCl5
_chemical_formula_sum   'K4 Na1 Cl5'
_cell_volume   294.77166925
_cell_formula_units_Z   1
loop_
 _symmetry_equiv_pos_site_id
 _symmetry_equiv_pos_as_xyz
  1  'x, y, z'
loop_
 _atom_site_type_symbol
 _atom_site_label
 _atom_site_symmetry_multiplicity
 _atom_site_fract_x
 _atom_site_fract_y
 _atom_site_fract_z
 _atom_site_occupancy
  K  K0  1  0.59690312  0.20123168  0.79813328  1
  K  K1  1  0.20123203  0.40309776  0.60432940  1
  K  K2  1  0.79876820  0.59690396  0.39567071  1
  K  K3  1  0.40309610  0.79876549  0.20186658  1
  Na  Na4  1  0.00000022  0.00000021  -0.00000008  1
  Cl  Cl5  1  0.71624870  0.90712603  0.62337443  1
  Cl  Cl6  1  0.28375216  0.09287520  0.37662601  1
  Cl  Cl7  1  0.90712465  0.28375384  0.19087905  1
  Cl  Cl8  1  0.49999983  0.49999983  -0.00000025  1
  Cl  Cl9  1  0.09287501  0.71624600  0.80912087  1
