# generated using pymatgen
data_HoVO4
_symmetry_space_group_name_H-M   'P 1'
_cell_length_a   5.91582302
_cell_length_b   5.91582339
_cell_length_c   5.91582417
_cell_angle_alpha   106.29806356
_cell_angle_beta   106.29806387
_cell_angle_gamma   116.02296135
_symmetry_Int_Tables_number   1
_chemical_formula_structural   HoVO4
_chemical_formula_sum   'Ho2 V2 O8'
_cell_volume   157.79592428
_cell_formula_units_Z   2
loop_
 _symmetry_equiv_pos_site_id
 _symmetry_equiv_pos_as_xyz
  1  'x, y, z'
loop_
 _atom_site_type_symbol
 _atom_site_label
 _atom_site_symmetry_multiplicity
 _atom_site_fract_x
 _atom_site_fract_y
 _atom_site_fract_z
 _atom_site_occupancy
  Ho  Ho0  1  0.12500000  0.87500100  0.25000000  1
  Ho  Ho1  1  0.87500000  0.12500000  0.75000000  1
  V  V2  1  0.37499900  0.62499900  0.74999900  1
  V  V3  1  0.62500000  0.37499900  0.24999900  1
  O  O4  1  0.80050433  0.73588867  0.43538433  1
  O  O5  1  0.36511900  0.80050433  0.56461567  1
  O  O6  1  0.73588967  0.80050433  0.93538533  1
  O  O7  1  0.80050433  0.36511900  0.06461567  1
  O  O8  1  0.63488200  0.19949667  0.43538533  1
  O  O9  1  0.19949567  0.26411233  0.56461467  1
  O  O10  1  0.26411133  0.19949667  0.06461467  1
  O  O11  1  0.19949667  0.63488200  0.93538533  1
