# generated using pymatgen
data_Mg5Sn(BO5)2
_symmetry_space_group_name_H-M   'P 1'
_cell_length_a   9.83946271
_cell_length_b   9.83946271
_cell_length_c   15.51133301
_cell_angle_alpha   55.03324052
_cell_angle_beta   55.03324052
_cell_angle_gamma   36.19989433
_symmetry_Int_Tables_number   1
_chemical_formula_structural   Mg5Sn(BO5)2
_chemical_formula_sum   'Mg20 Sn4 B8 O40'
_cell_volume   707.58141485
_cell_formula_units_Z   4
loop_
 _symmetry_equiv_pos_site_id
 _symmetry_equiv_pos_as_xyz
  1  'x, y, z'
loop_
 _atom_site_type_symbol
 _atom_site_label
 _atom_site_symmetry_multiplicity
 _atom_site_fract_x
 _atom_site_fract_y
 _atom_site_fract_z
 _atom_site_occupancy
  Mg  Mg0  1  0.05803106  0.05803106  0.62056465  1
  Mg  Mg1  1  0.94196894  0.94196894  0.37943535  1
  Mg  Mg2  1  0.82322485  0.82322485  0.11743865  1
  Mg  Mg3  1  0.17677515  0.17677515  0.88256135  1
  Mg  Mg4  1  0.76120110  0.23879890  0.00000000  1
  Mg  Mg5  1  0.23879890  0.76120110  0.00000000  1
  Mg  Mg6  1  0.75891218  0.24108782  0.50000000  1
  Mg  Mg7  1  0.24108782  0.75891218  0.50000000  1
  Mg  Mg8  1  0.61189801  0.10252166  0.28215039  1
  Mg  Mg9  1  0.38810199  0.89747834  0.71784961  1
  Mg  Mg10  1  0.88647906  0.39198427  0.21797255  1
  Mg  Mg11  1  0.11352094  0.60801573  0.78202745  1
  Mg  Mg12  1  0.60801573  0.11352094  0.78202745  1
  Mg  Mg13  1  0.39198427  0.88647906  0.21797255  1
  Mg  Mg14  1  0.10252166  0.61189801  0.28215039  1
  Mg  Mg15  1  0.89747834  0.38810199  0.71784961  1
  Mg  Mg16  1  0.24323042  0.24323042  0.00163045  1
  Mg  Mg17  1  0.75676958  0.75676958  0.99836955  1
  Mg  Mg18  1  0.24484132  0.24484132  0.49977166  1
  Mg  Mg19  1  0.75515868  0.75515868  0.50022834  1
  Sn  Sn20  1  0.32214186  0.32214186  0.11575002  1
  Sn  Sn21  1  0.67785814  0.67785814  0.88424998  1
  Sn  Sn22  1  0.56300968  0.56300968  0.61345653  1
  Sn  Sn23  1  0.43699032  0.43699032  0.38654347  1
  B  B24  1  0.54482726  0.54482726  0.13904076  1
  B  B25  1  0.45517274  0.45517274  0.86095924  1
  B  B26  1  0.18091195  0.18091195  0.36203004  1
  B  B27  1  0.81908805  0.81908805  0.63796996  1
  B  B28  1  0.03983599  0.03983599  0.14119945  1
  B  B29  1  0.96016401  0.96016401  0.85880055  1
  B  B30  1  0.68406826  0.68406826  0.35771521  1
  B  B31  1  0.31593174  0.31593174  0.64228479  1
  O  O32  1  0.61698847  0.61698847  0.14108224  1
  O  O33  1  0.38301153  0.38301153  0.85891776  1
  O  O34  1  0.55272620  0.55272620  0.04390226  1
  O  O35  1  0.44727380  0.44727380  0.95609774  1
  O  O36  1  0.54225972  0.54225972  0.76464369  1
  O  O37  1  0.45774028  0.45774028  0.23535631  1
  O  O38  1  0.09593820  0.09593820  0.45738314  1
  O  O39  1  0.90406180  0.90406180  0.54261686  1
  O  O40  1  0.25736710  0.25736710  0.35607671  1
  O  O41  1  0.74263290  0.74263290  0.64392329  1
  O  O42  1  0.19070625  0.19070625  0.26454024  1
  O  O43  1  0.80929375  0.80929375  0.73545976  1
  O  O44  1  0.04638749  0.04638749  0.76279124  1
  O  O45  1  0.95361251  0.95361251  0.23720876  1
  O  O46  1  0.11232385  0.11232385  0.14477496  1
  O  O47  1  0.88767615  0.88767615  0.85522504  1
  O  O48  1  0.05283616  0.05283616  0.04320842  1
  O  O49  1  0.94716384  0.94716384  0.95679158  1
  O  O50  1  0.69348580  0.69348580  0.26271768  1
  O  O51  1  0.30651420  0.30651420  0.73728232  1
  O  O52  1  0.75746033  0.75746033  0.35864352  1
  O  O53  1  0.24253967  0.24253967  0.64135648  1
  O  O54  1  0.59645982  0.59645982  0.45538063  1
  O  O55  1  0.40354018  0.40354018  0.54461937  1
  O  O56  1  0.62345943  0.13045287  0.14308615  1
  O  O57  1  0.37654057  0.86954713  0.85691385  1
  O  O58  1  0.13045287  0.62345943  0.14308615  1
  O  O59  1  0.86954713  0.37654057  0.85691385  1
  O  O60  1  0.02603764  0.51006301  0.07689995  1
  O  O61  1  0.97396236  0.48993699  0.92310005  1
  O  O62  1  0.51006301  0.02603764  0.07689995  1
  O  O63  1  0.48993699  0.97396236  0.92310005  1
  O  O64  1  0.76669115  0.27315194  0.35702695  1
  O  O65  1  0.23330885  0.72684806  0.64297305  1
  O  O66  1  0.72684806  0.23330885  0.64297305  1
  O  O67  1  0.27315194  0.76669115  0.35702695  1
  O  O68  1  0.58701828  0.10286091  0.42309529  1
  O  O69  1  0.41298172  0.89713909  0.57690471  1
  O  O70  1  0.89713909  0.41298172  0.57690471  1
  O  O71  1  0.10286091  0.58701828  0.42309529  1
