# generated using pymatgen
data_Na5Nd4Si4O16F
_symmetry_space_group_name_H-M   'P 1'
_cell_length_a   8.84880529
_cell_length_b   8.84880529
_cell_length_c   8.84880529
_cell_angle_alpha   95.50028521
_cell_angle_beta   95.50028521
_cell_angle_gamma   143.93003011
_symmetry_Int_Tables_number   1
_chemical_formula_structural   Na5Nd4Si4O16F
_chemical_formula_sum   'Na5 Nd4 Si4 O16 F1'
_cell_volume   387.90173375
_cell_formula_units_Z   1
loop_
 _symmetry_equiv_pos_site_id
 _symmetry_equiv_pos_as_xyz
  1  'x, y, z'
loop_
 _atom_site_type_symbol
 _atom_site_label
 _atom_site_symmetry_multiplicity
 _atom_site_fract_x
 _atom_site_fract_y
 _atom_site_fract_z
 _atom_site_occupancy
  Na  Na0  1  0.10510031  0.41177902  0.48294686  1
  Na  Na1  1  0.92883316  0.62215345  0.51705314  1
  Na  Na2  1  0.37784655  0.89489969  0.30667971  1
  Na  Na3  1  0.58822098  0.07116684  0.69332029  1
  Na  Na4  1  0.50000000  0.50000000  -0.00000000  1
  Nd  Nd5  1  0.13830971  0.83716096  0.93318119  1
  Nd  Nd6  1  0.90397977  0.20512852  0.06681881  1
  Nd  Nd7  1  0.79487148  0.86169029  0.69885125  1
  Nd  Nd8  1  0.16283904  0.09602023  0.30114875  1
  Si  Si9  1  0.24304619  0.59217360  0.85372126  1
  Si  Si10  1  0.73845234  0.38932493  0.14627874  1
  Si  Si11  1  0.61067507  0.75695381  0.34912741  1
  Si  Si12  1  0.40782640  0.26154766  0.65087259  1
  O  O13  1  0.14694411  0.63655623  0.72188549  1
  O  O14  1  0.91467075  0.42505862  0.27811451  1
  O  O15  1  0.57494138  0.85305589  0.48961212  1
  O  O16  1  0.36344377  0.08532925  0.51038788  1
  O  O17  1  0.53931870  0.76858244  0.86253062  1
  O  O18  1  0.90605182  0.67678808  0.13746938  1
  O  O19  1  0.32321192  0.46068130  0.22926374  1
  O  O20  1  0.23141756  0.09394818  0.77073626  1
  O  O21  1  0.02281390  0.27500921  0.82002268  1
  O  O22  1  0.45498653  0.20279122  0.17997732  1
  O  O23  1  0.79720878  0.97718610  0.25219531  1
  O  O24  1  0.72499079  0.54501347  0.74780469  1
  O  O25  1  0.24515782  0.67748601  0.02857710  1
  O  O26  1  0.64890891  0.21658071  0.97142290  1
  O  O27  1  0.78341929  0.75484218  0.43232920  1
  O  O28  1  0.32251399  0.35109109  0.56767080  1
  F  F29  1  0.00000000  0.00000000  -0.00000000  1
