# generated using pymatgen
data_Ca3(GeP2)2
_symmetry_space_group_name_H-M   'P 1'
_cell_length_a   17.50161348
_cell_length_b   7.06065290
_cell_length_c   7.13251705
_cell_angle_alpha   68.24469367
_cell_angle_beta   90.00000000
_cell_angle_gamma   90.00000000
_symmetry_Int_Tables_number   1
_chemical_formula_structural   Ca3(GeP2)2
_chemical_formula_sum   'Ca12 Ge8 P16'
_cell_volume   818.60877196
_cell_formula_units_Z   4
loop_
 _symmetry_equiv_pos_site_id
 _symmetry_equiv_pos_as_xyz
  1  'x, y, z'
loop_
 _atom_site_type_symbol
 _atom_site_label
 _atom_site_symmetry_multiplicity
 _atom_site_fract_x
 _atom_site_fract_y
 _atom_site_fract_z
 _atom_site_occupancy
  Ca  Ca0  1  0.31688489  0.01177689  0.78492367  1
  Ca  Ca1  1  0.81688489  0.48822311  0.21507633  1
  Ca  Ca2  1  0.06067732  0.01177355  0.74274958  1
  Ca  Ca3  1  0.18311511  0.51177689  0.78492367  1
  Ca  Ca4  1  0.43999080  0.99569601  0.26244877  1
  Ca  Ca5  1  0.93999080  0.50430399  0.73755123  1
  Ca  Ca6  1  0.56000920  0.00430399  0.73755123  1
  Ca  Ca7  1  0.06000920  0.49569601  0.26244877  1
  Ca  Ca8  1  0.43932268  0.51177355  0.74274958  1
  Ca  Ca9  1  0.93932268  0.98822645  0.25725042  1
  Ca  Ca10  1  0.56067732  0.48822645  0.25725042  1
  Ca  Ca11  1  0.68311511  0.98822311  0.21507633  1
  Ge  Ge12  1  0.87406855  0.02985364  0.79057955  1
  Ge  Ge13  1  0.12593145  0.97014636  0.20942045  1
  Ge  Ge14  1  0.62593145  0.52985364  0.79057955  1
  Ge  Ge15  1  0.24198908  0.08430643  0.31898480  1
  Ge  Ge16  1  0.74198908  0.41569357  0.68101520  1
  Ge  Ge17  1  0.75801092  0.91569357  0.68101520  1
  Ge  Ge18  1  0.25801092  0.58430643  0.31898480  1
  Ge  Ge19  1  0.37406855  0.47014636  0.20942045  1
  P  P20  1  0.43374524  0.25540096  0.49971090  1
  P  P21  1  0.68530741  0.72338789  0.96260525  1
  P  P22  1  0.81469259  0.22338789  0.96260525  1
  P  P23  1  0.31469259  0.27661211  0.03739475  1
  P  P24  1  0.30246847  0.77310182  0.50962422  1
  P  P25  1  0.80246847  0.72689818  0.49037578  1
  P  P26  1  0.69753153  0.22689818  0.49037578  1
  P  P27  1  0.19753153  0.27310182  0.50962422  1
  P  P28  1  0.05916790  0.24969627  0.00511492  1
  P  P29  1  0.18530741  0.77661211  0.03739475  1
  P  P30  1  0.55916790  0.25030373  0.99488508  1
  P  P31  1  0.94083210  0.75030373  0.99488508  1
  P  P32  1  0.93374524  0.24459904  0.50028910  1
  P  P33  1  0.56625476  0.74459904  0.50028910  1
  P  P34  1  0.06625476  0.75540096  0.49971090  1
  P  P35  1  0.44083210  0.74969627  0.00511492  1
