# generated using pymatgen
data_MgV12Zn6O24
_symmetry_space_group_name_H-M   'P 1'
_cell_length_a   6.06026470
_cell_length_b   6.11680874
_cell_length_c   18.16246534
_cell_angle_alpha   62.68192124
_cell_angle_beta   60.04744952
_cell_angle_gamma   59.96160286
_symmetry_Int_Tables_number   1
_chemical_formula_structural   MgV12Zn6O24
_chemical_formula_sum   'Mg1 V12 Zn6 O24'
_cell_volume   485.00031149
_cell_formula_units_Z   1
loop_
 _symmetry_equiv_pos_site_id
 _symmetry_equiv_pos_as_xyz
  1  'x, y, z'
loop_
 _atom_site_type_symbol
 _atom_site_label
 _atom_site_symmetry_multiplicity
 _atom_site_fract_x
 _atom_site_fract_y
 _atom_site_fract_z
 _atom_site_occupancy
  Mg  Mg0  1  0.02689288  0.45312011  0.00139715  1
  V  V1  1  0.03103127  0.42649880  0.17281728  1
  V  V2  1  0.52856378  0.42488055  0.17269886  1
  V  V3  1  0.00260778  0.50019365  0.49920416  1
  V  V4  1  0.52983566  0.94749456  0.16685111  1
  V  V5  1  0.51803148  0.46911308  0.33365448  1
  V  V6  1  0.49912532  0.50094537  0.49925480  1
  V  V7  1  0.97898435  0.57013162  0.82297646  1
  V  V8  1  0.49879307  0.00204688  0.49956725  1
  V  V9  1  0.47721474  0.05746826  0.83086787  1
  V  V10  1  0.49057754  0.52818775  0.66230344  1
  V  V11  1  0.47520335  0.57363120  0.82221161  1
  V  V12  1  0.79103073  0.99328863  0.97226536  1
  Zn  Zn13  1  0.09838014  0.97405454  0.11360185  1
  Zn  Zn14  1  0.13589383  0.10166551  0.37670182  1
  Zn  Zn15  1  0.48103451  0.58304124  0.98415457  1
  Zn  Zn16  1  0.10852067  0.16600202  0.70523467  1
  Zn  Zn17  1  0.89211285  0.82198037  0.29978330  1
  Zn  Zn18  1  0.86611839  0.90127442  0.62082478  1
  O  O19  1  0.28578131  0.20832225  0.07819043  1
  O  O20  1  0.27843927  0.21622010  0.24373275  1
  O  O21  1  0.28199318  0.63572467  0.09972207  1
  O  O22  1  0.77691096  0.20884903  0.07980142  1
  O  O23  1  0.30471710  0.68434088  0.24752545  1
  O  O24  1  0.27628046  0.24636280  0.41804048  1
  O  O25  1  0.77048873  0.21804552  0.24968440  1
  O  O26  1  0.78312441  0.65494155  0.09339715  1
  O  O27  1  0.26290721  0.70441686  0.42076072  1
  O  O28  1  0.25495345  0.26991336  0.57072293  1
  O  O29  1  0.77036732  0.68204958  0.24965627  1
  O  O30  1  0.72542628  0.25305654  0.42090356  1
  O  O31  1  0.27499322  0.75050248  0.57608290  1
  O  O32  1  0.25728755  0.30088458  0.74641560  1
  O  O33  1  0.74083245  0.29698041  0.57571237  1
  O  O34  1  0.74478750  0.72997637  0.42931371  1
  O  O35  1  0.23203656  0.34096147  0.89385255  1
  O  O36  1  0.24057564  0.77059171  0.74435440  1
  O  O37  1  0.72691108  0.75610574  0.57941452  1
  O  O38  1  0.70102104  0.31188567  0.74948109  1
  O  O39  1  0.22554382  0.79382088  0.91199761  1
  O  O40  1  0.71610568  0.80233530  0.75466856  1
  O  O41  1  0.72368219  0.37166472  0.89594890  1
  O  O42  1  0.71487328  0.81786398  0.91067533  1
