# generated using pymatgen
data_AgIO3
_symmetry_space_group_name_H-M   'P 1'
_cell_length_a   5.71481035
_cell_length_b   5.98186524
_cell_length_c   17.24873905
_cell_angle_alpha   90.00000000
_cell_angle_beta   90.00000000
_cell_angle_gamma   90.00000000
_symmetry_Int_Tables_number   1
_chemical_formula_structural   AgIO3
_chemical_formula_sum   'Ag8 I8 O24'
_cell_volume   589.65203205
_cell_formula_units_Z   8
loop_
 _symmetry_equiv_pos_site_id
 _symmetry_equiv_pos_as_xyz
  1  'x, y, z'
loop_
 _atom_site_type_symbol
 _atom_site_label
 _atom_site_symmetry_multiplicity
 _atom_site_fract_x
 _atom_site_fract_y
 _atom_site_fract_z
 _atom_site_occupancy
  Ag  Ag0  1  0.52201236  0.29045564  0.53754933  1
  Ag  Ag1  1  0.47798764  0.79045564  0.96245067  1
  Ag  Ag2  1  0.97798764  0.70954436  0.03754933  1
  Ag  Ag3  1  0.02201236  0.20954436  0.46245067  1
  Ag  Ag4  1  0.47798764  0.70954436  0.46245067  1
  Ag  Ag5  1  0.52201236  0.20954436  0.03754933  1
  Ag  Ag6  1  0.02201236  0.29045564  0.96245067  1
  Ag  Ag7  1  0.97798764  0.79045564  0.53754933  1
  I  I8  1  0.00769233  0.31475511  0.66506870  1
  I  I9  1  0.99230767  0.81475511  0.83493130  1
  I  I10  1  0.49230767  0.68524489  0.16506870  1
  I  I11  1  0.50769233  0.18524489  0.33493130  1
  I  I12  1  0.99230767  0.68524489  0.33493130  1
  I  I13  1  0.00769233  0.18524489  0.16506870  1
  I  I14  1  0.50769233  0.31475511  0.83493130  1
  I  I15  1  0.49230767  0.81475511  0.66506870  1
  O  O16  1  0.13543885  0.40414379  0.57191921  1
  O  O17  1  0.86456115  0.90414379  0.92808079  1
  O  O18  1  0.36456115  0.59585621  0.07191921  1
  O  O19  1  0.63543885  0.09585621  0.42808079  1
  O  O20  1  0.86456115  0.59585621  0.42808079  1
  O  O21  1  0.13543885  0.09585621  0.07191921  1
  O  O22  1  0.63543885  0.40414379  0.92808079  1
  O  O23  1  0.36456115  0.90414379  0.57191921  1
  O  O24  1  0.24904888  0.15719574  0.70802850  1
  O  O25  1  0.75095112  0.65719574  0.79197150  1
  O  O26  1  0.25095112  0.84280426  0.20802850  1
  O  O27  1  0.74904888  0.34280426  0.29197150  1
  O  O28  1  0.75095112  0.84280426  0.29197150  1
  O  O29  1  0.24904888  0.34280426  0.20802850  1
  O  O30  1  0.74904888  0.15719574  0.79197150  1
  O  O31  1  0.25095112  0.65719574  0.70802850  1
  O  O32  1  0.83992259  0.08492274  0.61938392  1
  O  O33  1  0.16007741  0.58492274  0.88061608  1
  O  O34  1  0.66007741  0.91507726  0.11938392  1
  O  O35  1  0.33992259  0.41507726  0.38061608  1
  O  O36  1  0.16007741  0.91507726  0.38061608  1
  O  O37  1  0.83992259  0.41507726  0.11938392  1
  O  O38  1  0.33992259  0.08492274  0.88061608  1
  O  O39  1  0.66007741  0.58492274  0.61938392  1
