# generated using pymatgen
data_PrScS3
_symmetry_space_group_name_H-M   'P 1'
_cell_length_a   6.52742262
_cell_length_b   7.18798791
_cell_length_c   9.61925523
_cell_angle_alpha   90.00000000
_cell_angle_beta   90.00000000
_cell_angle_gamma   90.00000000
_symmetry_Int_Tables_number   1
_chemical_formula_structural   PrScS3
_chemical_formula_sum   'Pr4 Sc4 S12'
_cell_volume   451.32617162
_cell_formula_units_Z   4
loop_
 _symmetry_equiv_pos_site_id
 _symmetry_equiv_pos_as_xyz
  1  'x, y, z'
loop_
 _atom_site_type_symbol
 _atom_site_label
 _atom_site_symmetry_multiplicity
 _atom_site_fract_x
 _atom_site_fract_y
 _atom_site_fract_z
 _atom_site_occupancy
  Pr  Pr0  1  0.53628223  0.40359330  0.75000000  1
  Pr  Pr1  1  0.46371777  0.59640670  0.25000000  1
  Pr  Pr2  1  0.03628223  0.09640670  0.25000000  1
  Pr  Pr3  1  0.96371777  0.90359330  0.75000000  1
  Sc  Sc4  1  0.00000000  0.50000000  0.00000000  1
  Sc  Sc5  1  0.00000000  0.50000000  0.50000000  1
  Sc  Sc6  1  0.50000000  0.00000000  0.50000000  1
  Sc  Sc7  1  0.50000000  0.00000000  0.00000000  1
  S  S8  1  0.82068338  0.18784988  0.56100426  1
  S  S9  1  0.17931662  0.81215012  0.06100426  1
  S  S10  1  0.32068338  0.31215012  0.06100426  1
  S  S11  1  0.67931662  0.68784988  0.56100426  1
  S  S12  1  0.82068338  0.18784988  0.93899574  1
  S  S13  1  0.17931662  0.81215012  0.43899574  1
  S  S14  1  0.32068338  0.31215012  0.43899574  1
  S  S15  1  0.67931662  0.68784988  0.93899574  1
  S  S16  1  0.87490828  0.46413575  0.25000000  1
  S  S17  1  0.12509172  0.53586425  0.75000000  1
  S  S18  1  0.37490828  0.03586425  0.75000000  1
  S  S19  1  0.62509172  0.96413575  0.25000000  1
