# generated using pymatgen
data_GdZr6(PO4)9
_symmetry_space_group_name_H-M   'P 1'
_cell_length_a   8.93087980
_cell_length_b   8.93087980
_cell_length_c   23.13728797
_cell_angle_alpha   90.00000000
_cell_angle_beta   90.00000000
_cell_angle_gamma   120.00000221
_symmetry_Int_Tables_number   1
_chemical_formula_structural   GdZr6(PO4)9
_chemical_formula_sum   'Gd2 Zr12 P18 O72'
_cell_volume   1598.20160448
_cell_formula_units_Z   2
loop_
 _symmetry_equiv_pos_site_id
 _symmetry_equiv_pos_as_xyz
  1  'x, y, z'
loop_
 _atom_site_type_symbol
 _atom_site_label
 _atom_site_symmetry_multiplicity
 _atom_site_fract_x
 _atom_site_fract_y
 _atom_site_fract_z
 _atom_site_occupancy
  Gd  Gd0  1  -0.00000000  -0.00000000  -0.00000000  1
  Gd  Gd1  1  -0.00000000  -0.00000000  0.50000000  1
  Zr  Zr2  1  0.66666700  0.33333300  0.97359597  1
  Zr  Zr3  1  0.33333300  0.66666700  0.02640403  1
  Zr  Zr4  1  0.33333300  0.66666700  0.52640403  1
  Zr  Zr5  1  0.66666700  0.33333300  0.47359597  1
  Zr  Zr6  1  -0.00000000  -0.00000000  0.85016391  1
  Zr  Zr7  1  -0.00000000  -0.00000000  0.14983609  1
  Zr  Zr8  1  -0.00000000  -0.00000000  0.64983609  1
  Zr  Zr9  1  -0.00000000  -0.00000000  0.35016391  1
  Zr  Zr10  1  0.66666700  0.33333300  0.68699121  1
  Zr  Zr11  1  0.33333300  0.66666700  0.31300879  1
  Zr  Zr12  1  0.33333300  0.66666700  0.81300879  1
  Zr  Zr13  1  0.66666700  0.33333300  0.18699121  1
  P  P14  1  0.62638988  0.94730100  0.92082252  1
  P  P15  1  0.37361012  0.05269900  0.07917748  1
  P  P16  1  0.32091112  0.37361012  0.92082252  1
  P  P17  1  0.67908888  0.05269900  0.57917748  1
  P  P18  1  0.67908888  0.62638988  0.07917748  1
  P  P19  1  0.32091112  0.94730100  0.42082252  1
  P  P20  1  0.05269900  0.67908888  0.92082252  1
  P  P21  1  0.94730100  0.62638988  0.57917748  1
  P  P22  1  0.94730100  0.32091112  0.07917748  1
  P  P23  1  0.05269900  0.37361012  0.42082252  1
  P  P24  1  0.37361012  0.32091112  0.57917748  1
  P  P25  1  0.62638988  0.67908888  0.42082252  1
  P  P26  1  0.70763913  0.70763913  0.75000000  1
  P  P27  1  0.29236087  0.29236087  0.25000000  1
  P  P28  1  0.00000000  0.29236087  0.75000000  1
  P  P29  1  1.00000000  0.70763913  0.25000000  1
  P  P30  1  0.29236087  0.00000000  0.75000000  1
  P  P31  1  0.70763913  1.00000000  0.25000000  1
  O  O32  1  0.54725818  0.82779237  0.97327783  1
  O  O33  1  0.45274182  0.17220763  0.02672217  1
  O  O34  1  0.28053419  0.45274182  0.97327783  1
  O  O35  1  0.71946581  0.17220763  0.52672217  1
  O  O36  1  0.71946581  0.54725818  0.02672217  1
  O  O37  1  0.28053419  0.82779237  0.47327783  1
  O  O38  1  0.17220763  0.71946581  0.97327783  1
  O  O39  1  0.82779237  0.54725818  0.52672217  1
  O  O40  1  0.82779237  0.28053419  0.02672217  1
  O  O41  1  0.17220763  0.45274182  0.47327783  1
  O  O42  1  0.45274182  0.28053419  0.52672217  1
  O  O43  1  0.54725818  0.71946581  0.47327783  1
  O  O44  1  0.62335109  0.11649066  0.92728201  1
  O  O45  1  0.37664891  0.88350934  0.07271799  1
  O  O46  1  0.49313958  0.37664891  0.92728201  1
  O  O47  1  0.50686042  0.88350934  0.57271799  1
  O  O48  1  0.50686042  0.62335109  0.07271799  1
  O  O49  1  0.49313958  0.11649066  0.42728201  1
  O  O50  1  0.88350934  0.50686042  0.92728201  1
  O  O51  1  0.11649066  0.62335109  0.57271799  1
  O  O52  1  0.11649066  0.49313958  0.07271799  1
  O  O53  1  0.88350934  0.37664891  0.42728201  1
  O  O54  1  0.37664891  0.49313958  0.57271799  1
  O  O55  1  0.62335109  0.50686042  0.42728201  1
  O  O56  1  0.82316030  0.99356251  0.92018620  1
  O  O57  1  0.17683970  0.00643749  0.07981380  1
  O  O58  1  0.17040221  0.17683970  0.92018620  1
  O  O59  1  0.82959779  0.00643749  0.57981380  1
  O  O60  1  0.82959779  0.82316030  0.07981380  1
  O  O61  1  0.17040221  0.99356251  0.42018620  1
  O  O62  1  0.00643749  0.82959779  0.92018620  1
  O  O63  1  0.99356251  0.82316030  0.57981380  1
  O  O64  1  0.99356251  0.17040221  0.07981380  1
  O  O65  1  0.00643749  0.17683970  0.42018620  1
  O  O66  1  0.17683970  0.17040221  0.57981380  1
  O  O67  1  0.82316030  0.82959779  0.42018620  1
  O  O68  1  0.96965510  0.17450980  0.80366623  1
  O  O69  1  0.03034490  0.82549020  0.19633377  1
  O  O70  1  0.20485470  0.03034490  0.80366623  1
  O  O71  1  0.79514530  0.82549020  0.69633377  1
  O  O72  1  0.79514530  0.96965510  0.19633377  1
  O  O73  1  0.20485470  0.17450980  0.30366623  1
  O  O74  1  0.82549020  0.79514530  0.80366623  1
  O  O75  1  0.17450980  0.96965510  0.69633377  1
  O  O76  1  0.17450980  0.20485470  0.19633377  1
  O  O77  1  0.82549020  0.03034490  0.30366623  1
  O  O78  1  0.03034490  0.20485470  0.69633377  1
  O  O79  1  0.96965510  0.79514530  0.30366623  1
  O  O80  1  0.53532682  0.85688035  0.86466270  1
  O  O81  1  0.46467318  0.14311965  0.13533730  1
  O  O82  1  0.32155353  0.46467317  0.86466270  1
  O  O83  1  0.67844647  0.14311965  0.63533730  1
  O  O84  1  0.67844647  0.53532683  0.13533730  1
  O  O85  1  0.32155353  0.85688035  0.36466270  1
  O  O86  1  0.14311965  0.67844647  0.86466270  1
  O  O87  1  0.85688035  0.53532682  0.63533730  1
  O  O88  1  0.85688035  0.32155353  0.13533730  1
  O  O89  1  0.14311965  0.46467318  0.36466270  1
  O  O90  1  0.46467317  0.32155353  0.63533730  1
  O  O91  1  0.53532683  0.67844647  0.36466270  1
  O  O92  1  0.53149808  0.69081305  0.76013800  1
  O  O93  1  0.46850192  0.30918695  0.23986200  1
  O  O94  1  0.15931498  0.46850192  0.76013800  1
  O  O95  1  0.84068502  0.30918695  0.73986200  1
  O  O96  1  0.84068502  0.53149808  0.23986200  1
  O  O97  1  0.15931498  0.69081305  0.26013800  1
  O  O98  1  0.30918695  0.84068502  0.76013800  1
  O  O99  1  0.69081305  0.53149808  0.73986200  1
  O  O100  1  0.69081305  0.15931498  0.23986200  1
  O  O101  1  0.30918695  0.46850192  0.26013800  1
  O  O102  1  0.46850192  0.15931498  0.73986200  1
  O  O103  1  0.53149808  0.84068502  0.26013800  1
