# generated using pymatgen
data_Ca4As3
_symmetry_space_group_name_H-M   'P 1'
_cell_length_a   10.39259284
_cell_length_b   11.55199636
_cell_length_c   12.11048522
_cell_angle_alpha   90.00000000
_cell_angle_beta   90.00000000
_cell_angle_gamma   90.00000000
_symmetry_Int_Tables_number   1
_chemical_formula_structural   Ca4As3
_chemical_formula_sum   'Ca32 As24'
_cell_volume   1453.92666050
_cell_formula_units_Z   8
loop_
 _symmetry_equiv_pos_site_id
 _symmetry_equiv_pos_as_xyz
  1  'x, y, z'
loop_
 _atom_site_type_symbol
 _atom_site_label
 _atom_site_symmetry_multiplicity
 _atom_site_fract_x
 _atom_site_fract_y
 _atom_site_fract_z
 _atom_site_occupancy
  Ca  Ca0  1  0.27322687  0.59462830  0.26403946  1
  Ca  Ca1  1  0.27322687  0.40537170  0.73596054  1
  Ca  Ca2  1  0.72677313  0.09462830  0.23596054  1
  Ca  Ca3  1  0.72677313  0.90537170  0.76403946  1
  Ca  Ca4  1  0.72677313  0.40537170  0.73596054  1
  Ca  Ca5  1  0.72677313  0.59462830  0.26403946  1
  Ca  Ca6  1  0.27322687  0.90537170  0.76403946  1
  Ca  Ca7  1  0.27322687  0.09462830  0.23596054  1
  Ca  Ca8  1  0.32382769  0.82439736  0.06670857  1
  Ca  Ca9  1  0.32382769  0.17560264  0.93329143  1
  Ca  Ca10  1  0.67617231  0.32439736  0.43329143  1
  Ca  Ca11  1  0.67617231  0.67560264  0.56670857  1
  Ca  Ca12  1  0.67617231  0.17560264  0.93329143  1
  Ca  Ca13  1  0.67617231  0.82439736  0.06670857  1
  Ca  Ca14  1  0.32382769  0.67560264  0.56670857  1
  Ca  Ca15  1  0.32382769  0.32439736  0.43329143  1
  Ca  Ca16  1  0.50000000  0.87632481  0.36519816  1
  Ca  Ca17  1  0.50000000  0.12367519  0.63480184  1
  Ca  Ca18  1  0.50000000  0.37632481  0.13480184  1
  Ca  Ca19  1  0.50000000  0.62367519  0.86519816  1
  Ca  Ca20  1  -0.00000000  0.72628055  0.42376374  1
  Ca  Ca21  1  -0.00000000  0.27371945  0.57623626  1
  Ca  Ca22  1  -0.00000000  0.22628055  0.07623626  1
  Ca  Ca23  1  -0.00000000  0.77371945  0.92376374  1
  Ca  Ca24  1  -0.00000000  0.89798358  0.20674383  1
  Ca  Ca25  1  -0.00000000  0.10201642  0.79325617  1
  Ca  Ca26  1  -0.00000000  0.39798358  0.29325617  1
  Ca  Ca27  1  -0.00000000  0.60201642  0.70674383  1
  Ca  Ca28  1  0.18432761  0.50000000  -0.00000000  1
  Ca  Ca29  1  0.81567239  0.00000000  0.50000000  1
  Ca  Ca30  1  0.81567239  0.50000000  -0.00000000  1
  Ca  Ca31  1  0.18432761  0.00000000  0.50000000  1
  As  As32  1  0.23353103  0.83744785  0.32356238  1
  As  As33  1  0.23353103  0.16255215  0.67643762  1
  As  As34  1  0.76646897  0.33744785  0.17643762  1
  As  As35  1  0.76646897  0.66255215  0.82356238  1
  As  As36  1  0.76646897  0.16255215  0.67643762  1
  As  As37  1  0.76646897  0.83744785  0.32356238  1
  As  As38  1  0.23353103  0.66255215  0.82356238  1
  As  As39  1  0.23353103  0.33744785  0.17643762  1
  As  As40  1  0.50000000  0.53835466  0.40285557  1
  As  As41  1  0.50000000  0.46164534  0.59714443  1
  As  As42  1  0.50000000  0.03835466  0.09714443  1
  As  As43  1  0.50000000  0.96164534  0.90285557  1
  As  As44  1  0.50000000  0.63599186  0.11344612  1
  As  As45  1  0.50000000  0.36400814  0.88655388  1
  As  As46  1  0.50000000  0.13599186  0.38655388  1
  As  As47  1  0.50000000  0.86400814  0.61344612  1
  As  As48  1  -0.00000000  0.63925108  0.14237371  1
  As  As49  1  -0.00000000  0.36074892  0.85762629  1
  As  As50  1  -0.00000000  0.13925108  0.35762629  1
  As  As51  1  -0.00000000  0.86074892  0.64237371  1
  As  As52  1  0.12137381  0.50000000  0.50000000  1
  As  As53  1  0.87862619  0.00000000  -0.00000000  1
  As  As54  1  0.87862619  0.50000000  0.50000000  1
  As  As55  1  0.12137381  0.00000000  -0.00000000  1
