# generated using pymatgen
data_KMnSn3O8
_symmetry_space_group_name_H-M   'P 1'
_cell_length_a   6.40026708
_cell_length_b   7.52676865
_cell_length_c   7.46958046
_cell_angle_alpha   91.97258399
_cell_angle_beta   76.57842114
_cell_angle_gamma   100.26877048
_symmetry_Int_Tables_number   1
_chemical_formula_structural   KMnSn3O8
_chemical_formula_sum   'K2 Mn2 Sn6 O16'
_cell_volume   344.39156342
_cell_formula_units_Z   2
loop_
 _symmetry_equiv_pos_site_id
 _symmetry_equiv_pos_as_xyz
  1  'x, y, z'
loop_
 _atom_site_type_symbol
 _atom_site_label
 _atom_site_symmetry_multiplicity
 _atom_site_fract_x
 _atom_site_fract_y
 _atom_site_fract_z
 _atom_site_occupancy
  K  K0  1  0.25843888  0.99127210  0.98176122  1
  K  K1  1  0.75844175  0.99118593  0.98163629  1
  Mn  Mn2  1  0.32117895  0.81700476  0.51463406  1
  Mn  Mn3  1  0.82117855  0.81700522  0.51460800  1
  Sn  Sn4  1  0.17601872  0.16989098  0.48645489  1
  Sn  Sn5  1  0.67602253  0.16988615  0.48644574  1
  Sn  Sn6  1  0.91986958  0.49368501  0.80923639  1
  Sn  Sn7  1  0.41987885  0.49369346  0.80922513  1
  Sn  Sn8  1  0.57182058  0.52182389  0.19377832  1
  Sn  Sn9  1  0.07182272  0.52182265  0.19377430  1
  O  O10  1  0.22789339  0.62778582  0.70080547  1
  O  O11  1  0.72790569  0.62780147  0.70081442  1
  O  O12  1  0.26466315  0.37243410  0.29360765  1
  O  O13  1  0.76466039  0.37242453  0.29360096  1
  O  O14  1  0.91935811  0.29264558  0.62163899  1
  O  O15  1  0.41937118  0.29265134  0.62162586  1
  O  O16  1  0.56098210  0.70903925  0.38671143  1
  O  O17  1  0.06097725  0.70904713  0.38669772  1
  O  O18  1  0.93268264  0.04072570  0.35525331  1
  O  O19  1  0.43265885  0.04069793  0.35527697  1
  O  O20  1  0.60678774  0.95005926  0.65426654  1
  O  O21  1  0.10677346  0.95005582  0.65427300  1
  O  O22  1  0.38710538  0.65007107  0.04937131  1
  O  O23  1  0.88710261  0.65006171  0.04937153  1
  O  O24  1  0.10321211  0.36361326  0.95256044  1
  O  O25  1  0.60319685  0.36361188  0.95256904  1
