# generated using pymatgen
data_Li4Zn(PS4)2
_symmetry_space_group_name_H-M   'P 1'
_cell_length_a   9.56214885
_cell_length_b   11.50389286
_cell_length_c   22.95510412
_cell_angle_alpha   90.14683763
_cell_angle_beta   90.12437352
_cell_angle_gamma   89.94082360
_symmetry_Int_Tables_number   1
_chemical_formula_structural   Li4Zn(PS4)2
_chemical_formula_sum   'Li32 Zn8 P16 S64'
_cell_volume   2525.09031698
_cell_formula_units_Z   8
loop_
 _symmetry_equiv_pos_site_id
 _symmetry_equiv_pos_as_xyz
  1  'x, y, z'
loop_
 _atom_site_type_symbol
 _atom_site_label
 _atom_site_symmetry_multiplicity
 _atom_site_fract_x
 _atom_site_fract_y
 _atom_site_fract_z
 _atom_site_occupancy
  Li  Li0  1  0.74815541  0.24144962  0.00175594  1
  Li  Li1  1  0.74917201  0.75035097  0.74777324  1
  Li  Li2  1  0.74268117  0.25299314  0.74487411  1
  Li  Li3  1  0.25314995  0.50970228  0.87152985  1
  Li  Li4  1  0.24874218  0.99169531  0.87350511  1
  Li  Li5  1  0.24898478  0.99597376  0.62983247  1
  Li  Li6  1  0.74800572  0.25535198  0.24626534  1
  Li  Li7  1  0.25151140  0.50163397  0.37409427  1
  Li  Li8  1  0.99156306  0.75111750  0.87613876  1
  Li  Li9  1  0.99998466  0.74778395  0.62431271  1
  Li  Li10  1  0.99893648  0.25352224  0.62364210  1
  Li  Li11  1  0.49063773  0.50279742  0.74846551  1
  Li  Li12  1  0.50108401  0.00051560  0.74999732  1
  Li  Li13  1  0.01587316  0.25019350  0.12520981  1
  Li  Li14  1  0.49927372  0.50237591  0.24900384  1
  Li  Li15  1  0.49994945  0.99645980  0.00060750  1
  Li  Li16  1  0.00261664  0.00090766  0.00447085  1
  Li  Li17  1  0.00103138  0.50424703  0.00035241  1
  Li  Li18  1  0.99750595  0.99676568  0.74964708  1
  Li  Li19  1  0.00063902  0.49846950  0.74715747  1
  Li  Li20  1  0.50973340  0.75271951  0.87732607  1
  Li  Li21  1  0.50058048  0.24866842  0.87457792  1
  Li  Li22  1  0.99722380  0.00079290  0.49858826  1
  Li  Li23  1  0.99984471  0.50122601  0.50381694  1
  Li  Li24  1  0.49630477  0.74646946  0.62433645  1
  Li  Li25  1  0.49436747  0.25304212  0.62410041  1
  Li  Li26  1  0.00527618  0.99718914  0.25064230  1
  Li  Li27  1  0.00071312  0.49990546  0.24756468  1
  Li  Li28  1  0.51085221  0.75042215  0.37316524  1
  Li  Li29  1  0.50826444  0.24731404  0.37583820  1
  Li  Li30  1  0.50140982  0.75131538  0.12593644  1
  Li  Li31  1  0.48405720  0.25073100  0.12538979  1
  Zn  Zn32  1  0.00040198  0.24854832  0.87403617  1
  Zn  Zn33  1  0.99363594  0.75036391  0.37354444  1
  Zn  Zn34  1  0.00137718  0.25003437  0.37708610  1
  Zn  Zn35  1  0.50757649  0.50048775  0.50205319  1
  Zn  Zn36  1  0.50624333  0.99672556  0.49912130  1
  Zn  Zn37  1  0.99834791  0.74985570  0.12503359  1
  Zn  Zn38  1  0.49197652  0.00143538  0.25045897  1
  Zn  Zn39  1  0.50011971  0.50095729  0.00057479  1
  P  P40  1  0.75387385  0.00398210  0.87680967  1
  P  P41  1  0.74661517  0.49247900  0.87292375  1
  P  P42  1  0.74916677  0.00442085  0.62494008  1
  P  P43  1  0.74853096  0.50523486  0.62569554  1
  P  P44  1  0.24621630  0.75204335  0.75144991  1
  P  P45  1  0.25188091  0.24274428  0.75127736  1
  P  P46  1  0.74813124  0.00002911  0.37396179  1
  P  P47  1  0.75421395  0.49375042  0.37569088  1
  P  P48  1  0.25692305  0.75451781  0.49821116  1
  P  P49  1  0.24792191  0.25362880  0.49870525  1
  P  P50  1  0.74964387  0.99689935  0.12405299  1
  P  P51  1  0.74983905  0.50333661  0.12660395  1
  P  P52  1  0.24591871  0.75091622  0.25323963  1
  P  P53  1  0.25298648  0.24554036  0.25077348  1
  P  P54  1  0.24979032  0.74349871  0.99750574  1
  P  P55  1  0.25000925  0.25628580  0.99885235  1
  S  S56  1  0.63268839  0.89469474  0.07248642  1
  S  S57  1  0.63214096  0.39408215  0.06986813  1
  S  S58  1  0.63629248  0.89951724  0.82268651  1
  S  S59  1  0.62539092  0.39082757  0.81996034  1
  S  S60  1  0.12983120  0.64069148  0.94400164  1
  S  S61  1  0.13285038  0.14562071  0.94333494  1
  S  S62  1  0.62738641  0.89636995  0.57211532  1
  S  S63  1  0.62972581  0.39614320  0.57243574  1
  S  S64  1  0.12978030  0.64786504  0.69944142  1
  S  S65  1  0.12521676  0.14306395  0.69845777  1
  S  S66  1  0.63878607  0.89700020  0.31673872  1
  S  S67  1  0.63462279  0.39286247  0.32088423  1
  S  S68  1  0.13096186  0.64895865  0.44419815  1
  S  S69  1  0.14088885  0.14437633  0.44268962  1
  S  S70  1  0.13520508  0.64699452  0.19602711  1
  S  S71  1  0.13129444  0.14345960  0.20031537  1
  S  S72  1  0.86868176  0.59929072  0.82314531  1
  S  S73  1  0.86739656  0.11398956  0.82025528  1
  S  S74  1  0.86276313  0.60773906  0.57282812  1
  S  S75  1  0.86936466  0.10477665  0.57299621  1
  S  S76  1  0.36468898  0.35016212  0.70063540  1
  S  S77  1  0.37009344  0.85560742  0.69877239  1
  S  S78  1  0.86612081  0.60567514  0.32268801  1
  S  S79  1  0.86860766  0.11186834  0.32240407  1
  S  S80  1  0.37546181  0.35983446  0.44641970  1
  S  S81  1  0.37220898  0.86037256  0.44429333  1
  S  S82  1  0.86713288  0.60854191  0.07276018  1
  S  S83  1  0.86663007  0.11066593  0.07500371  1
  S  S84  1  0.36310750  0.35671981  0.20068548  1
  S  S85  1  0.36017643  0.86002814  0.20019225  1
  S  S86  1  0.37013946  0.36416950  0.94393888  1
  S  S87  1  0.36566295  0.85489902  0.94698820  1
  S  S88  1  0.62889812  0.10728268  0.92846468  1
  S  S89  1  0.63746321  0.59877094  0.92946999  1
  S  S90  1  0.62556499  0.10858268  0.67747379  1
  S  S91  1  0.62786793  0.60800190  0.67957538  1
  S  S92  1  0.12615879  0.85699112  0.80503661  1
  S  S93  1  0.12899240  0.35358692  0.80464470  1
  S  S94  1  0.64021206  0.10484837  0.43093998  1
  S  S95  1  0.63751960  0.60033316  0.42953928  1
  S  S96  1  0.13640264  0.85599283  0.55154395  1
  S  S97  1  0.14264297  0.35672967  0.55369374  1
  S  S98  1  0.62922817  0.10446437  0.18069439  1
  S  S99  1  0.63275149  0.60512426  0.17837905  1
  S  S100  1  0.13160106  0.85694444  0.30812813  1
  S  S101  1  0.13172408  0.35426126  0.30708225  1
  S  S102  1  0.13683306  0.84796031  0.05409831  1
  S  S103  1  0.12986721  0.35787572  0.04967869  1
  S  S104  1  0.87611880  0.90413097  0.92776644  1
  S  S105  1  0.86968019  0.38706567  0.92766419  1
  S  S106  1  0.86370777  0.89291630  0.67714710  1
  S  S107  1  0.86312465  0.39297706  0.67742401  1
  S  S108  1  0.37369412  0.65052544  0.80414033  1
  S  S109  1  0.36666023  0.13787641  0.80580662  1
  S  S110  1  0.86144751  0.88906884  0.42611262  1
  S  S111  1  0.86986891  0.38776915  0.42999885  1
  S  S112  1  0.36333064  0.63897418  0.55033017  1
  S  S113  1  0.37009394  0.14041225  0.54926867  1
  S  S114  1  0.86993642  0.89256442  0.17777738  1
  S  S115  1  0.86810584  0.39035565  0.17598125  1
  S  S116  1  0.36571642  0.64240835  0.30429339  1
  S  S117  1  0.36805049  0.13926870  0.30629628  1
  S  S118  1  0.36852757  0.63914638  0.05170152  1
  S  S119  1  0.36744159  0.14809117  0.04767482  1
