# generated using pymatgen
data_CeRh2O5
_symmetry_space_group_name_H-M   'P 1'
_cell_length_a   5.13972500
_cell_length_b   7.20323790
_cell_length_c   9.82987707
_cell_angle_alpha   90.00000000
_cell_angle_beta   90.00000000
_cell_angle_gamma   90.00000000
_symmetry_Int_Tables_number   1
_chemical_formula_structural   CeRh2O5
_chemical_formula_sum   'Ce4 Rh8 O20'
_cell_volume   363.92821543
_cell_formula_units_Z   4
loop_
 _symmetry_equiv_pos_site_id
 _symmetry_equiv_pos_as_xyz
  1  'x, y, z'
loop_
 _atom_site_type_symbol
 _atom_site_label
 _atom_site_symmetry_multiplicity
 _atom_site_fract_x
 _atom_site_fract_y
 _atom_site_fract_z
 _atom_site_occupancy
  Ce  Ce0  1  0.29871707  0.76400479  0.25000000  1
  Ce  Ce1  1  0.20128293  0.26400479  0.25000000  1
  Ce  Ce2  1  0.70128293  0.23599521  0.75000000  1
  Ce  Ce3  1  0.79871707  0.73599521  0.75000000  1
  Rh  Rh4  1  0.25034104  0.91719297  0.55894274  1
  Rh  Rh5  1  0.24965896  0.41719297  0.94105726  1
  Rh  Rh6  1  0.74965896  0.08280703  0.05894274  1
  Rh  Rh7  1  0.75034104  0.58280703  0.44105726  1
  Rh  Rh8  1  0.74965896  0.08280703  0.44105726  1
  Rh  Rh9  1  0.75034104  0.58280703  0.05894274  1
  Rh  Rh10  1  0.25034104  0.91719297  0.94105726  1
  Rh  Rh11  1  0.24965896  0.41719297  0.55894274  1
  O  O12  1  0.56652291  0.83361755  0.44449855  1
  O  O13  1  0.93347709  0.33361755  0.05550145  1
  O  O14  1  0.43347709  0.16638245  0.94449855  1
  O  O15  1  0.06652291  0.66638245  0.55550145  1
  O  O16  1  0.43347709  0.16638245  0.55550145  1
  O  O17  1  0.06652291  0.66638245  0.94449855  1
  O  O18  1  0.56652291  0.83361755  0.05550145  1
  O  O19  1  0.93347709  0.33361755  0.44449855  1
  O  O20  1  0.40536694  0.48349471  0.37796942  1
  O  O21  1  0.09463306  0.98349471  0.12203058  1
  O  O22  1  0.59463306  0.51650529  0.87796942  1
  O  O23  1  0.90536694  0.01650529  0.62203058  1
  O  O24  1  0.59463306  0.51650529  0.62203058  1
  O  O25  1  0.90536694  0.01650529  0.87796942  1
  O  O26  1  0.40536694  0.48349471  0.12203058  1
  O  O27  1  0.09463306  0.98349471  0.37796942  1
  O  O28  1  0.58180108  0.12213225  0.25000000  1
  O  O29  1  0.91819892  0.62213225  0.25000000  1
  O  O30  1  0.41819892  0.87786775  0.75000000  1
  O  O31  1  0.08180108  0.37786775  0.75000000  1
