# generated using pymatgen
data_CrPb2F7
_symmetry_space_group_name_H-M   'P 1'
_cell_length_a   11.19085830
_cell_length_b   5.45284273
_cell_length_c   9.51439593
_cell_angle_alpha   88.81504643
_cell_angle_beta   90.00000000
_cell_angle_gamma   90.00000000
_symmetry_Int_Tables_number   1
_chemical_formula_structural   CrPb2F7
_chemical_formula_sum   'Cr4 Pb8 F28'
_cell_volume   580.46321721
_cell_formula_units_Z   4
loop_
 _symmetry_equiv_pos_site_id
 _symmetry_equiv_pos_as_xyz
  1  'x, y, z'
loop_
 _atom_site_type_symbol
 _atom_site_label
 _atom_site_symmetry_multiplicity
 _atom_site_fract_x
 _atom_site_fract_y
 _atom_site_fract_z
 _atom_site_occupancy
  Cr  Cr0  1  0.13296815  0.69983857  0.20665333  1
  Cr  Cr1  1  0.63296815  0.30016143  0.29334667  1
  Cr  Cr2  1  0.86703185  0.30016143  0.79334667  1
  Cr  Cr3  1  0.36703185  0.69983857  0.70665333  1
  Pb  Pb4  1  0.81307859  0.77822238  0.05560790  1
  Pb  Pb5  1  0.31307859  0.22177762  0.44439210  1
  Pb  Pb6  1  0.18692141  0.22177762  0.94439210  1
  Pb  Pb7  1  0.68692141  0.77822238  0.55560790  1
  Pb  Pb8  1  0.43797718  0.75914485  0.13614713  1
  Pb  Pb9  1  0.93797718  0.24085515  0.36385287  1
  Pb  Pb10  1  0.56202282  0.24085515  0.86385287  1
  Pb  Pb11  1  0.06202282  0.75914485  0.63614713  1
  F  F12  1  0.61343931  0.87985219  0.00457833  1
  F  F13  1  0.11343931  0.12014781  0.49542167  1
  F  F14  1  0.38656069  0.12014781  0.99542167  1
  F  F15  1  0.88656069  0.87985219  0.50457833  1
  F  F16  1  0.03236778  0.44553239  0.14395690  1
  F  F17  1  0.53236778  0.55446761  0.35604310  1
  F  F18  1  0.96763222  0.55446761  0.85604310  1
  F  F19  1  0.46763222  0.44553239  0.64395690  1
  F  F20  1  0.09436615  0.59889160  0.39491207  1
  F  F21  1  0.59436615  0.40110840  0.10508793  1
  F  F22  1  0.90563385  0.40110840  0.60508793  1
  F  F23  1  0.40563385  0.59889160  0.89491207  1
  F  F24  1  0.17561958  0.78850313  0.01819878  1
  F  F25  1  0.67561958  0.21149687  0.48180122  1
  F  F26  1  0.82438042  0.21149687  0.98180122  1
  F  F27  1  0.32438042  0.78850313  0.51819878  1
  F  F28  1  0.99838097  0.91864715  0.19588754  1
  F  F29  1  0.49838097  0.08135285  0.30411246  1
  F  F30  1  0.00161903  0.08135285  0.80411246  1
  F  F31  1  0.50161903  0.91864715  0.69588754  1
  F  F32  1  0.26297595  0.46759637  0.21433444  1
  F  F33  1  0.76297595  0.53240363  0.28566556  1
  F  F34  1  0.73702405  0.53240363  0.78566556  1
  F  F35  1  0.23702405  0.46759637  0.71433444  1
  F  F36  1  0.24207956  0.95864527  0.25883323  1
  F  F37  1  0.74207956  0.04135473  0.24116677  1
  F  F38  1  0.75792044  0.04135473  0.74116677  1
  F  F39  1  0.25792044  0.95864527  0.75883323  1
