# generated using pymatgen
data_BaNaAlMo6(H13O17)2
_symmetry_space_group_name_H-M   'P 1'
_cell_length_a   11.32175401
_cell_length_b   11.55881397
_cell_length_c   13.32409529
_cell_angle_alpha   115.70616425
_cell_angle_beta   95.12096319
_cell_angle_gamma   90.00000000
_symmetry_Int_Tables_number   1
_chemical_formula_structural   BaNaAlMo6(H13O17)2
_chemical_formula_sum   'Ba2 Na2 Al2 Mo12 H52 O68'
_cell_volume   1563.37315898
_cell_formula_units_Z   2
loop_
 _symmetry_equiv_pos_site_id
 _symmetry_equiv_pos_as_xyz
  1  'x, y, z'
loop_
 _atom_site_type_symbol
 _atom_site_label
 _atom_site_symmetry_multiplicity
 _atom_site_fract_x
 _atom_site_fract_y
 _atom_site_fract_z
 _atom_site_occupancy
  Ba  Ba0  1  0.25000000  0.34519998  1.00000000  1
  Ba  Ba1  1  0.75000000  0.65480002  0.00000000  1
  Na  Na2  1  0.25000000  0.95751750  1.00000000  1
  Na  Na3  1  0.75000000  0.04248250  0.00000000  1
  Al  Al4  1  0.50000000  0.00000000  0.50000000  1
  Al  Al5  1  -0.00000000  0.50000000  0.50000000  1
  Mo  Mo6  1  0.27962899  0.96620838  0.63781523  1
  Mo  Mo7  1  0.22037101  0.32839315  0.36218477  1
  Mo  Mo8  1  0.72037101  0.03379162  0.36218477  1
  Mo  Mo9  1  0.77962899  0.67160685  0.63781523  1
  Mo  Mo10  1  0.25105642  0.83203502  0.35731647  1
  Mo  Mo11  1  0.24894358  0.47471856  0.64268353  1
  Mo  Mo12  1  0.74894358  0.16796498  0.64268353  1
  Mo  Mo13  1  0.75105642  0.52528144  0.35731647  1
  Mo  Mo14  1  0.47032824  0.86538425  0.21639241  1
  Mo  Mo15  1  0.02967176  0.64899185  0.78360759  1
  Mo  Mo16  1  0.52967176  0.13461575  0.78360759  1
  Mo  Mo17  1  0.97032824  0.35100815  0.21639241  1
  H  H18  1  0.62639561  0.80957985  0.37643694  1
  H  H19  1  0.87360439  0.43314291  0.62356306  1
  H  H20  1  0.37360439  0.19042015  0.62356306  1
  H  H21  1  0.12639561  0.56685709  0.37643694  1
  H  H22  1  0.56999584  0.22155603  0.51037086  1
  H  H23  1  0.93000416  0.71118517  0.48962914  1
  H  H24  1  0.43000416  0.77844397  0.48962914  1
  H  H25  1  0.06999584  0.28881483  0.51037086  1
  H  H26  1  0.65071190  0.92808280  0.62065145  1
  H  H27  1  0.84928810  0.30743135  0.37934855  1
  H  H28  1  0.34928810  0.07191720  0.37934855  1
  H  H29  1  0.15071190  0.69256865  0.62065145  1
  H  H30  1  0.34761672  0.21409679  0.14635066  1
  H  H31  1  0.15238328  0.06774612  0.85364934  1
  H  H32  1  0.65238328  0.78590321  0.85364934  1
  H  H33  1  0.84761672  0.93225388  0.14635066  1
  H  H34  1  0.45433045  0.14885893  0.08058400  1
  H  H35  1  0.04566955  0.06827493  0.91941600  1
  H  H36  1  0.54566955  0.85114107  0.91941600  1
  H  H37  1  0.95433045  0.93172507  0.08058400  1
  H  H38  1  0.30560947  0.56602349  0.90571486  1
  H  H39  1  0.19439053  0.66030862  0.09428514  1
  H  H40  1  0.69439053  0.43397651  0.09428514  1
  H  H41  1  0.80560947  0.33969138  0.90571486  1
  H  H42  1  0.43040486  0.50969256  0.90561278  1
  H  H43  1  0.06959514  0.60407978  0.09438722  1
  H  H44  1  0.56959514  0.49030744  0.09438722  1
  H  H45  1  0.93040486  0.39592022  0.90561278  1
  H  H46  1  0.04033509  0.25367957  0.77469922  1
  H  H47  1  0.45966491  0.47898035  0.22530078  1
  H  H48  1  0.95966491  0.74632043  0.22530078  1
  H  H49  1  0.54033509  0.52101965  0.77469922  1
  H  H50  1  0.08617045  0.39188956  0.79886224  1
  H  H51  1  0.41382955  0.59302732  0.20113776  1
  H  H52  1  0.91382955  0.60811044  0.20113776  1
  H  H53  1  0.58617045  0.40697268  0.79886224  1
  H  H54  1  0.37232654  0.77507172  0.81858303  1
  H  H55  1  0.12767346  0.95648868  0.18141697  1
  H  H56  1  0.62767346  0.22492828  0.18141697  1
  H  H57  1  0.87232654  0.04351132  0.81858303  1
  H  H58  1  0.41120795  0.90787019  0.82350465  1
  H  H59  1  0.08879205  0.08436554  0.17649535  1
  H  H60  1  0.58879205  0.09212981  0.17649535  1
  H  H61  1  0.91120795  0.91563446  0.82350465  1
  H  H62  1  0.40054651  0.58170998  0.47326609  1
  H  H63  1  0.09945349  0.10844390  0.52673391  1
  H  H64  1  0.59945349  0.41829002  0.52673391  1
  H  H65  1  0.90054651  0.89155610  0.47326609  1
  H  H66  1  0.53776366  0.60797960  0.47851621  1
  H  H67  1  0.96223634  0.12946339  0.52148379  1
  H  H68  1  0.46223634  0.39202040  0.52148379  1
  H  H69  1  0.03776366  0.87053661  0.47851621  1
  O  O70  1  0.59048975  0.89012330  0.38058086  1
  O  O71  1  0.90951025  0.50954244  0.61941914  1
  O  O72  1  0.40951025  0.10987670  0.61941914  1
  O  O73  1  0.09048975  0.49045756  0.38058086  1
  O  O74  1  0.60012737  0.13552617  0.50303722  1
  O  O75  1  0.89987263  0.63248896  0.49696278  1
  O  O76  1  0.39987263  0.86447383  0.49696278  1
  O  O77  1  0.10012737  0.36751104  0.50303722  1
  O  O78  1  0.61350948  0.00589490  0.61917215  1
  O  O79  1  0.88649052  0.38672275  0.38082785  1
  O  O80  1  0.38649052  0.99410510  0.38082785  1
  O  O81  1  0.11350948  0.61327725  0.61917215  1
  O  O82  1  0.42499156  0.98054826  0.73488486  1
  O  O83  1  0.07500844  0.24566340  0.26511514  1
  O  O84  1  0.57500844  0.01945174  0.26511514  1
  O  O85  1  0.92499156  0.75433660  0.73488486  1
  O  O86  1  0.22233630  0.82224550  0.63093971  1
  O  O87  1  0.27766370  0.19130580  0.36906029  1
  O  O88  1  0.77766370  0.17775450  0.36906029  1
  O  O89  1  0.72233630  0.80869420  0.63093971  1
  O  O90  1  0.20129494  0.08757599  0.73423756  1
  O  O91  1  0.29870506  0.35333843  0.26576244  1
  O  O92  1  0.79870506  0.91242401  0.26576244  1
  O  O93  1  0.70129494  0.64666157  0.73423756  1
  O  O94  1  0.19478607  0.96125827  0.49972155  1
  O  O95  1  0.30521393  0.46153672  0.50027845  1
  O  O96  1  0.80521393  0.03874173  0.50027845  1
  O  O97  1  0.69478607  0.53846328  0.49972155  1
  O  O98  1  0.19459290  0.69337243  0.36008967  1
  O  O99  1  0.30540710  0.33328276  0.63991033  1
  O  O100  1  0.80540710  0.30662757  0.63991033  1
  O  O101  1  0.69459290  0.66671724  0.36008967  1
  O  O102  1  0.15093693  0.86671614  0.26728912  1
  O  O103  1  0.34906307  0.59942702  0.73271088  1
  O  O104  1  0.84906307  0.13328386  0.73271088  1
  O  O105  1  0.65093693  0.40057298  0.26728912  1
  O  O106  1  0.37365296  0.75238726  0.25619622  1
  O  O107  1  0.12634704  0.49619105  0.74380378  1
  O  O108  1  0.62634704  0.24761274  0.74380378  1
  O  O109  1  0.87365296  0.50380895  0.25619622  1
  O  O110  1  0.36683043  0.89592099  0.12797676  1
  O  O111  1  0.13316957  0.76794423  0.87202324  1
  O  O112  1  0.63316957  0.10407901  0.87202324  1
  O  O113  1  0.86683043  0.23205577  0.12797676  1
  O  O114  1  0.56099473  0.75146266  0.12855765  1
  O  O115  1  0.93900527  0.62290501  0.87144235  1
  O  O116  1  0.43900527  0.24853734  0.87144235  1
  O  O117  1  0.06099473  0.37709499  0.12855765  1
  O  O118  1  0.36762185  0.16069136  0.06946723  1
  O  O119  1  0.13237815  0.09122414  0.93053277  1
  O  O120  1  0.63237815  0.83930864  0.93053277  1
  O  O121  1  0.86762185  0.90877586  0.06946723  1
  O  O122  1  0.35473836  0.52210423  0.94068272  1
  O  O123  1  0.14526164  0.58142151  0.05931728  1
  O  O124  1  0.64526164  0.47789577  0.05931728  1
  O  O125  1  0.85473836  0.41857849  0.94068272  1
  O  O126  1  0.06408152  0.33764154  0.83599540  1
  O  O127  1  0.43591848  0.50164614  0.16400460  1
  O  O128  1  0.93591848  0.66235846  0.16400460  1
  O  O129  1  0.56408152  0.49835386  0.83599540  1
  O  O130  1  0.39931936  0.86365935  0.87134298  1
  O  O131  1  0.10068064  0.99231637  0.12865702  1
  O  O132  1  0.60068064  0.13634065  0.12865702  1
  O  O133  1  0.89931936  0.00768363  0.87134298  1
  O  O134  1  0.45966008  0.63152319  0.45631477  1
  O  O135  1  0.04033992  0.17520842  0.54368523  1
  O  O136  1  0.54033992  0.36847681  0.54368523  1
  O  O137  1  0.95966008  0.82479158  0.45631477  1
