# generated using pymatgen
data_Na5Li(Mo3O10)3
_symmetry_space_group_name_H-M   'P 1'
_cell_length_a   7.40857509
_cell_length_b   9.88753962
_cell_length_c   19.31966642
_cell_angle_alpha   85.88074808
_cell_angle_beta   78.94585123
_cell_angle_gamma   67.99781243
_symmetry_Int_Tables_number   1
_chemical_formula_structural   Na5Li(Mo3O10)3
_chemical_formula_sum   'Na10 Li2 Mo18 O60'
_cell_volume   1287.79964605
_cell_formula_units_Z   2
loop_
 _symmetry_equiv_pos_site_id
 _symmetry_equiv_pos_as_xyz
  1  'x, y, z'
loop_
 _atom_site_type_symbol
 _atom_site_label
 _atom_site_symmetry_multiplicity
 _atom_site_fract_x
 _atom_site_fract_y
 _atom_site_fract_z
 _atom_site_occupancy
  Na  Na0  1  0.56215479  0.10197582  0.30396472  1
  Na  Na1  1  0.33586939  0.10197582  0.69603528  1
  Na  Na2  1  0.28190467  0.60197582  0.80396472  1
  Na  Na3  1  0.11611950  0.60197582  0.19603528  1
  Na  Na4  1  0.64406369  0.10632738  0.09332280  1
  Na  Na5  1  0.24960894  0.10632738  0.90667720  1
  Na  Na6  1  0.40628614  0.60632738  0.59332280  1
  Na  Na7  1  0.98738649  0.60632738  0.40667720  1
  Na  Na8  1  0.20079442  0.59841116  -0.00000000  1
  Na  Na9  1  0.45079442  0.09841116  0.50000000  1
  Li  Li10  1  0.79496904  0.41006191  0.00000000  1
  Li  Li11  1  0.04496904  0.91006191  0.50000000  1
  Mo  Mo12  1  0.10405403  0.28818017  0.09250056  1
  Mo  Mo13  1  0.60776580  0.28818017  0.90749944  1
  Mo  Mo14  1  0.76526524  0.78818017  0.59250056  1
  Mo  Mo15  1  0.44655459  0.78818017  0.40749944  1
  Mo  Mo16  1  0.10955753  0.91212416  0.30014876  1
  Mo  Mo17  1  0.97831831  0.91212416  0.69985124  1
  Mo  Mo18  1  0.92816955  0.41212416  0.80014876  1
  Mo  Mo19  1  0.65970629  0.41212416  0.19985124  1
  Mo  Mo20  1  0.56173628  0.78709029  0.20074992  1
  Mo  Mo21  1  0.65117343  0.78709029  0.79925008  1
  Mo  Mo22  1  0.70042351  0.28709029  0.70074992  1
  Mo  Mo23  1  0.01248620  0.28709029  0.29925008  1
  Mo  Mo24  1  0.20259365  0.93233768  0.09673022  1
  Mo  Mo25  1  0.86506866  0.93233768  0.90326978  1
  Mo  Mo26  1  0.01833845  0.43233768  0.59673022  1
  Mo  Mo27  1  0.54932387  0.43233768  0.40326978  1
  Mo  Mo28  1  0.62777259  0.74445482  -0.00000000  1
  Mo  Mo29  1  0.87777259  0.24445482  0.50000000  1
  O  O30  1  0.33307037  0.92313888  0.00500487  1
  O  O31  1  0.74379075  0.92313888  0.99499513  1
  O  O32  1  0.98878588  0.42313888  0.50500487  1
  O  O33  1  0.58807524  0.42313888  0.49499513  1
  O  O34  1  0.01722191  0.77506384  0.29696598  1
  O  O35  1  0.20771425  0.77506384  0.70303402  1
  O  O36  1  0.16074826  0.27506384  0.79696598  1
  O  O37  1  0.56418790  0.27506384  0.20303402  1
  O  O38  1  0.64718754  0.92867681  0.20070154  1
  O  O39  1  0.42413565  0.92867681  0.79929846  1
  O  O40  1  0.47343410  0.42867681  0.70070154  1
  O  O41  1  0.09788908  0.42867681  0.29929846  1
  O  O42  1  0.97186269  0.29388829  0.20407268  1
  O  O43  1  0.73424901  0.29388829  0.79592732  1
  O  O44  1  0.78017633  0.79388829  0.70407268  1
  O  O45  1  0.42593537  0.79388829  0.29592732  1
  O  O46  1  0.18877516  0.42909167  0.10071128  1
  O  O47  1  0.38213317  0.42909167  0.89928872  1
  O  O48  1  0.53142190  0.92909167  0.60071128  1
  O  O49  1  0.53948644  0.92909167  0.39928872  1
  O  O50  1  0.79598715  0.39893011  0.10644359  1
  O  O51  1  0.80508274  0.39893011  0.89355641  1
  O  O52  1  0.94863915  0.89893011  0.60644359  1
  O  O53  1  0.15243075  0.89893011  0.39355641  1
  O  O54  1  0.09849910  0.28424484  0.00130189  1
  O  O55  1  0.61725606  0.28424484  0.99869811  1
  O  O56  1  0.86595417  0.78424484  0.50130189  1
  O  O57  1  0.34980099  0.78424484  0.49869811  1
  O  O58  1  0.97597047  0.08526334  0.10040072  1
  O  O59  1  0.93876619  0.08526334  0.89959928  1
  O  O60  1  0.08836547  0.58526334  0.60040072  1
  O  O61  1  0.32637119  0.58526334  0.39959928  1
  O  O62  1  0.89899199  0.07700753  0.30046405  1
  O  O63  1  0.02400048  0.07700753  0.69953595  1
  O  O64  1  0.97353643  0.57700753  0.80046405  1
  O  O65  1  0.44945604  0.57700753  0.19953595  1
  O  O66  1  0.12885536  0.78187322  0.10067829  1
  O  O67  1  0.08927142  0.78187322  0.89932171  1
  O  O68  1  0.23859313  0.28187322  0.60067829  1
  O  O69  1  0.47953365  0.28187322  0.39932171  1
  O  O70  1  0.52635857  0.79644376  0.10144088  1
  O  O71  1  0.67719767  0.79644376  0.89855912  1
  O  O72  1  0.82575679  0.29644376  0.60144088  1
  O  O73  1  0.87779945  0.29644376  0.39855912  1
  O  O74  1  0.24636341  0.90763185  0.20009696  1
  O  O75  1  0.84600474  0.90763185  0.79990304  1
  O  O76  1  0.89590778  0.40763185  0.70009696  1
  O  O77  1  0.69646037  0.40763185  0.29990304  1
  O  O78  1  0.22728069  0.12850707  0.30006043  1
  O  O79  1  0.64421224  0.12850707  0.69993957  1
  O  O80  1  0.59415181  0.62850707  0.80006043  1
  O  O81  1  0.77734112  0.62850707  0.19993957  1
  O  O82  1  0.30831129  0.12104564  0.10718103  1
  O  O83  1  0.57064307  0.12104564  0.89281897  1
  O  O84  1  0.71346205  0.62104564  0.60718103  1
  O  O85  1  0.66549231  0.62104564  0.39281897  1
  O  O86  1  0.51367074  0.62130570  0.99238910  1
  O  O87  1  0.86502356  0.62130570  0.00761090  1
  O  O88  1  0.12263446  0.12130570  0.49238910  1
  O  O89  1  0.75605984  0.12130570  0.50761090  1
