# generated using pymatgen
data_NaBi3(BrO2)2
_symmetry_space_group_name_H-M   'P 1'
_cell_length_a   6.91444853
_cell_length_b   6.91444853
_cell_length_c   5.56301591
_cell_angle_alpha   90.00000000
_cell_angle_beta   90.00000000
_cell_angle_gamma   132.50106206
_symmetry_Int_Tables_number   1
_chemical_formula_structural   NaBi3(BrO2)2
_chemical_formula_sum   'Na1 Bi3 Br2 O4'
_cell_volume   196.08704675
_cell_formula_units_Z   1
loop_
 _symmetry_equiv_pos_site_id
 _symmetry_equiv_pos_as_xyz
  1  'x, y, z'
loop_
 _atom_site_type_symbol
 _atom_site_label
 _atom_site_symmetry_multiplicity
 _atom_site_fract_x
 _atom_site_fract_y
 _atom_site_fract_z
 _atom_site_occupancy
  Na  Na0  1  0.34419684  0.65580316  0.50000000  1
  Bi  Bi1  1  0.83954536  0.16045464  -0.00000000  1
  Bi  Bi2  1  0.16296705  0.83703295  -0.00000000  1
  Bi  Bi3  1  0.66221282  0.33778718  0.50000000  1
  Br  Br4  1  0.49468164  0.50531836  -0.00000000  1
  Br  Br5  1  0.00316893  0.99683107  0.50000000  1
  O  O6  1  0.50642521  0.00981104  0.75744487  1
  O  O7  1  0.99018896  0.49357479  0.24255513  1
  O  O8  1  0.99018896  0.49357479  0.75744487  1
  O  O9  1  0.50642521  0.00981104  0.24255513  1
