# generated using pymatgen
data_K2Hg3Se4
_symmetry_space_group_name_H-M   'P 1'
_cell_length_a   6.92442670
_cell_length_b   11.00248167
_cell_length_c   14.19869861
_cell_angle_alpha   90.00000000
_cell_angle_beta   90.00000000
_cell_angle_gamma   90.00000000
_symmetry_Int_Tables_number   1
_chemical_formula_structural   K2Hg3Se4
_chemical_formula_sum   'K8 Hg12 Se16'
_cell_volume   1081.74031782
_cell_formula_units_Z   4
loop_
 _symmetry_equiv_pos_site_id
 _symmetry_equiv_pos_as_xyz
  1  'x, y, z'
loop_
 _atom_site_type_symbol
 _atom_site_label
 _atom_site_symmetry_multiplicity
 _atom_site_fract_x
 _atom_site_fract_y
 _atom_site_fract_z
 _atom_site_occupancy
  K  K0  1  0.73076330  0.88069271  0.50111553  1
  K  K1  1  0.26923670  0.11930729  0.49888447  1
  K  K2  1  0.76923670  0.61930729  0.00111553  1
  K  K3  1  0.73076330  0.11930729  0.99888447  1
  K  K4  1  0.23076330  0.38069271  0.99888447  1
  K  K5  1  0.26923670  0.88069271  0.00111553  1
  K  K6  1  0.76923670  0.38069271  0.49888447  1
  K  K7  1  0.23076330  0.61930729  0.50111553  1
  Hg  Hg8  1  0.58971562  0.50000000  0.75000000  1
  Hg  Hg9  1  0.41028438  0.50000000  0.25000000  1
  Hg  Hg10  1  0.91028438  -0.00000000  0.25000000  1
  Hg  Hg11  1  0.08971562  -0.00000000  0.75000000  1
  Hg  Hg12  1  0.59056634  0.84265494  0.75838871  1
  Hg  Hg13  1  0.40943366  0.15734506  0.24161129  1
  Hg  Hg14  1  0.90943366  0.65734506  0.25838871  1
  Hg  Hg15  1  0.59056634  0.15734506  0.74161129  1
  Hg  Hg16  1  0.09056634  0.34265494  0.74161129  1
  Hg  Hg17  1  0.40943366  0.84265494  0.25838871  1
  Hg  Hg18  1  0.90943366  0.34265494  0.24161129  1
  Hg  Hg19  1  0.09056634  0.65734506  0.75838871  1
  Se  Se20  1  0.82951314  0.63373007  0.63778886  1
  Se  Se21  1  0.17048686  0.36626993  0.36221114  1
  Se  Se22  1  0.67048686  0.86626993  0.13778886  1
  Se  Se23  1  0.82951314  0.36626993  0.86221114  1
  Se  Se24  1  0.32951314  0.13373007  0.86221114  1
  Se  Se25  1  0.17048686  0.63373007  0.13778886  1
  Se  Se26  1  0.67048686  0.13373007  0.36221114  1
  Se  Se27  1  0.32951314  0.86626993  0.63778886  1
  Se  Se28  1  0.86672185  0.87151353  0.87083846  1
  Se  Se29  1  0.13327815  0.12848647  0.12916154  1
  Se  Se30  1  0.63327815  0.62848647  0.37083846  1
  Se  Se31  1  0.86672185  0.12848647  0.62916154  1
  Se  Se32  1  0.36672185  0.37151353  0.62916154  1
  Se  Se33  1  0.13327815  0.87151353  0.37083846  1
  Se  Se34  1  0.63327815  0.37151353  0.12916154  1
  Se  Se35  1  0.36672185  0.62848647  0.87083846  1
