# generated using pymatgen
data_K3SbSe3
_symmetry_space_group_name_H-M   'P 1'
_cell_length_a   9.83847406
_cell_length_b   9.83847406
_cell_length_c   9.83847406
_cell_angle_alpha   90.00000000
_cell_angle_beta   90.00000000
_cell_angle_gamma   90.00000000
_symmetry_Int_Tables_number   1
_chemical_formula_structural   K3SbSe3
_chemical_formula_sum   'K12 Sb4 Se12'
_cell_volume   952.32072257
_cell_formula_units_Z   4
loop_
 _symmetry_equiv_pos_site_id
 _symmetry_equiv_pos_as_xyz
  1  'x, y, z'
loop_
 _atom_site_type_symbol
 _atom_site_label
 _atom_site_symmetry_multiplicity
 _atom_site_fract_x
 _atom_site_fract_y
 _atom_site_fract_z
 _atom_site_occupancy
  K  K0  1  0.81825377  0.18174623  0.68174623  1
  K  K1  1  0.18711714  0.31288286  0.68711714  1
  K  K2  1  0.31288286  0.68711714  0.18711714  1
  K  K3  1  0.68711714  0.18711714  0.31288286  1
  K  K4  1  0.81288286  0.81288286  0.81288286  1
  K  K5  1  0.42222304  0.07777696  0.92222304  1
  K  K6  1  0.07777696  0.92222304  0.42222304  1
  K  K7  1  0.92222304  0.42222304  0.07777696  1
  K  K8  1  0.57777696  0.57777696  0.57777696  1
  K  K9  1  0.68174623  0.81825377  0.18174623  1
  K  K10  1  0.18174623  0.68174623  0.81825377  1
  K  K11  1  0.31825377  0.31825377  0.31825377  1
  Sb  Sb12  1  0.02888172  0.02888172  0.02888172  1
  Sb  Sb13  1  0.47111828  0.97111828  0.52888172  1
  Sb  Sb14  1  0.52888172  0.47111828  0.97111828  1
  Sb  Sb15  1  0.97111828  0.52888172  0.47111828  1
  Se  Se16  1  0.22124715  0.60290960  0.49724172  1
  Se  Se17  1  0.77875285  0.10290960  0.00275828  1
  Se  Se18  1  0.99724172  0.27875285  0.39709040  1
  Se  Se19  1  0.72124715  0.89709040  0.50275828  1
  Se  Se20  1  0.10290960  0.00275828  0.77875285  1
  Se  Se21  1  0.50275828  0.72124715  0.89709040  1
  Se  Se22  1  0.00275828  0.77875285  0.10290960  1
  Se  Se23  1  0.39709040  0.99724172  0.27875285  1
  Se  Se24  1  0.49724172  0.22124715  0.60290960  1
  Se  Se25  1  0.89709040  0.50275828  0.72124715  1
  Se  Se26  1  0.60290960  0.49724172  0.22124715  1
  Se  Se27  1  0.27875285  0.39709040  0.99724172  1
