# generated using pymatgen
data_FeTeAs
_symmetry_space_group_name_H-M   'P 1'
_cell_length_a   6.09569328
_cell_length_b   6.19396907
_cell_length_c   6.22593960
_cell_angle_alpha   114.08063088
_cell_angle_beta   90.00000000
_cell_angle_gamma   90.00000000
_symmetry_Int_Tables_number   1
_chemical_formula_structural   FeTeAs
_chemical_formula_sum   'Fe4 Te4 As4'
_cell_volume   214.61228479
_cell_formula_units_Z   4
loop_
 _symmetry_equiv_pos_site_id
 _symmetry_equiv_pos_as_xyz
  1  'x, y, z'
loop_
 _atom_site_type_symbol
 _atom_site_label
 _atom_site_symmetry_multiplicity
 _atom_site_fract_x
 _atom_site_fract_y
 _atom_site_fract_z
 _atom_site_occupancy
  Fe  Fe0  1  0.50927553  0.71471371  0.20755301  1
  Fe  Fe1  1  0.00927553  0.28528629  0.29244699  1
  Fe  Fe2  1  0.49072447  0.28528629  0.79244699  1
  Fe  Fe3  1  0.99072447  0.71471371  0.70755301  1
  Te  Te4  1  0.12869178  0.84623742  0.13336223  1
  Te  Te5  1  0.62869178  0.15376258  0.36663777  1
  Te  Te6  1  0.87130822  0.15376258  0.86663777  1
  Te  Te7  1  0.37130822  0.84623742  0.63336223  1
  As  As8  1  0.85206036  0.64307802  0.33755655  1
  As  As9  1  0.35206036  0.35692198  0.16244345  1
  As  As10  1  0.14793964  0.35692198  0.66244345  1
  As  As11  1  0.64793964  0.64307802  0.83755655  1
