# generated using pymatgen
data_Na2ZnSiO4
_symmetry_space_group_name_H-M   'P 1'
_cell_length_a   5.21160092
_cell_length_b   7.04738132
_cell_length_c   10.80950953
_cell_angle_alpha   90.00000000
_cell_angle_beta   90.00000000
_cell_angle_gamma   90.00000000
_symmetry_Int_Tables_number   1
_chemical_formula_structural   Na2ZnSiO4
_chemical_formula_sum   'Na8 Zn4 Si4 O16'
_cell_volume   397.01316823
_cell_formula_units_Z   4
loop_
 _symmetry_equiv_pos_site_id
 _symmetry_equiv_pos_as_xyz
  1  'x, y, z'
loop_
 _atom_site_type_symbol
 _atom_site_label
 _atom_site_symmetry_multiplicity
 _atom_site_fract_x
 _atom_site_fract_y
 _atom_site_fract_z
 _atom_site_occupancy
  Na  Na0  1  0.25160565  0.49819710  0.09095101  1
  Na  Na1  1  0.71148488  0.74536957  0.15776297  1
  Na  Na2  1  0.21148488  0.24536957  0.34223703  1
  Na  Na3  1  0.78851512  0.74536957  0.65776297  1
  Na  Na4  1  0.74839435  0.99819710  0.90904899  1
  Na  Na5  1  0.24839435  0.49819710  0.59095101  1
  Na  Na6  1  0.75160565  0.99819710  0.40904899  1
  Na  Na7  1  0.28851512  0.24536957  0.84223703  1
  Zn  Zn8  1  0.70341212  0.24779081  0.15673157  1
  Zn  Zn9  1  0.29658788  0.74779081  0.84326843  1
  Zn  Zn10  1  0.79658788  0.24779081  0.65673157  1
  Zn  Zn11  1  0.20341212  0.74779081  0.34326843  1
  Si  Si12  1  0.19784437  0.99607191  0.09384872  1
  Si  Si13  1  0.30215563  0.99607191  0.59384872  1
  Si  Si14  1  0.80215563  0.49607191  0.90615128  1
  Si  Si15  1  0.69784437  0.49607191  0.40615128  1
  O  O16  1  0.26612177  0.97180183  0.94679228  1
  O  O17  1  0.73387823  0.47180183  0.05320772  1
  O  O18  1  0.23387823  0.97180183  0.44679228  1
  O  O19  1  0.76612177  0.47180183  0.55320772  1
  O  O20  1  0.71866438  0.30365039  0.83107409  1
  O  O21  1  0.28133562  0.80365039  0.16892591  1
  O  O22  1  0.78133562  0.30365039  0.33107509  1
  O  O23  1  0.21866438  0.80365039  0.66892591  1
  O  O24  1  0.88712308  0.02232558  0.10816408  1
  O  O25  1  0.11287692  0.52232558  0.89183592  1
  O  O26  1  0.61287692  0.02232558  0.60816408  1
  O  O27  1  0.16482722  0.18779480  0.64621930  1
  O  O28  1  0.66482722  0.68779480  0.85378070  1
  O  O29  1  0.33517278  0.18779480  0.14621930  1
  O  O30  1  0.83517278  0.68779480  0.35378070  1
  O  O31  1  0.38712308  0.52232558  0.39183592  1
