# generated using pymatgen
data_Ba10Nb3Bi7O30
_symmetry_space_group_name_H-M   'P 1'
_cell_length_a   6.15798357
_cell_length_b   13.74341692
_cell_length_c   10.53967089
_cell_angle_alpha   96.94834199
_cell_angle_beta   73.02730506
_cell_angle_gamma   77.04995249
_symmetry_Int_Tables_number   1
_chemical_formula_structural   Ba10Nb3Bi7O30
_chemical_formula_sum   'Ba10 Nb3 Bi7 O30'
_cell_volume   814.64719860
_cell_formula_units_Z   1
loop_
 _symmetry_equiv_pos_site_id
 _symmetry_equiv_pos_as_xyz
  1  'x, y, z'
loop_
 _atom_site_type_symbol
 _atom_site_label
 _atom_site_symmetry_multiplicity
 _atom_site_fract_x
 _atom_site_fract_y
 _atom_site_fract_z
 _atom_site_occupancy
  Ba  Ba0  1  0.95202672  0.64724525  0.44582883  1
  Ba  Ba1  1  0.34673332  0.45134001  0.85028257  1
  Ba  Ba2  1  0.74874317  0.25436917  0.25077487  1
  Ba  Ba3  1  0.15185999  0.05179300  0.64948816  1
  Ba  Ba4  1  0.55444006  0.84660216  0.04678324  1
  Ba  Ba5  1  0.25125683  0.74563083  0.74922513  1
  Ba  Ba6  1  0.65326668  0.54865999  0.14971743  1
  Ba  Ba7  1  0.04797328  0.35275475  0.55417117  1
  Ba  Ba8  1  0.44555994  0.15339784  0.95321676  1
  Ba  Ba9  1  0.84814001  0.94820700  0.35051184  1
  Nb  Nb10  1  0.89725501  0.30005081  0.90109650  1
  Nb  Nb11  1  0.50000000  0.50000000  0.50000000  1
  Nb  Nb12  1  0.10274499  0.69994919  0.09890350  1
  Bi  Bi13  1  0.40251498  0.79661621  0.39714918  1
  Bi  Bi14  1  0.80024165  0.59701261  0.80058903  1
  Bi  Bi15  1  0.19975835  0.40298739  0.19941097  1
  Bi  Bi16  1  0.59748502  0.20338379  0.60285082  1
  Bi  Bi17  1  -0.00000000  -0.00000000  0.00000000  1
  Bi  Bi18  1  0.70110952  0.89949162  0.69926118  1
  Bi  Bi19  1  0.29889048  0.10050838  0.30073882  1
  O  O20  1  0.02575597  0.82782682  0.53917204  1
  O  O21  1  0.62443966  0.02883109  0.14115900  1
  O  O22  1  0.20984024  0.23753465  0.75197121  1
  O  O23  1  0.81446413  0.43746906  0.35181894  1
  O  O24  1  0.41412664  0.63191774  0.95077249  1
  O  O25  1  0.51222794  0.87296446  0.56341580  1
  O  O26  1  0.10560767  0.07604930  0.16720846  1
  O  O27  1  0.71860890  0.27889873  0.77232249  1
  O  O28  1  0.32924029  0.47557850  0.36715290  1
  O  O29  1  0.92989153  0.67054038  0.96822567  1
  O  O30  1  0.70668326  0.04533350  0.65149986  1
  O  O31  1  0.30695198  0.24438383  0.24763254  1
  O  O32  1  0.90550622  0.43911214  0.85113654  1
  O  O33  1  0.50484738  0.63835631  0.45435900  1
  O  O34  1  0.10680340  0.83683330  0.05263172  1
  O  O35  1  0.37556034  0.97116891  0.85884100  1
  O  O36  1  0.97424403  0.17217318  0.46082796  1
  O  O37  1  0.58587336  0.36808226  0.04922751  1
  O  O38  1  0.18553587  0.56253094  0.64818106  1
  O  O39  1  0.79015976  0.76246535  0.24802879  1
  O  O40  1  0.89439233  0.92395070  0.83279154  1
  O  O41  1  0.48777206  0.12703554  0.43658420  1
  O  O42  1  0.07010847  0.32945962  0.03177433  1
  O  O43  1  0.67075971  0.52442150  0.63284710  1
  O  O44  1  0.28139110  0.72110127  0.22767751  1
  O  O45  1  0.69304802  0.75561617  0.75236746  1
  O  O46  1  0.29331674  0.95466650  0.34850014  1
  O  O47  1  0.89319660  0.16316670  0.94736828  1
  O  O48  1  0.49515262  0.36164369  0.54564100  1
  O  O49  1  0.09449378  0.56088786  0.14886346  1
