# generated using pymatgen
data_Ba(HoS2)2
_symmetry_space_group_name_H-M   'P 1'
_cell_length_a   4.02783459
_cell_length_b   12.27445145
_cell_length_c   14.47674458
_cell_angle_alpha   90.00000000
_cell_angle_beta   90.00000000
_cell_angle_gamma   90.00000000
_symmetry_Int_Tables_number   1
_chemical_formula_structural   Ba(HoS2)2
_chemical_formula_sum   'Ba4 Ho8 S16'
_cell_volume   715.72243638
_cell_formula_units_Z   4
loop_
 _symmetry_equiv_pos_site_id
 _symmetry_equiv_pos_as_xyz
  1  'x, y, z'
loop_
 _atom_site_type_symbol
 _atom_site_label
 _atom_site_symmetry_multiplicity
 _atom_site_fract_x
 _atom_site_fract_y
 _atom_site_fract_z
 _atom_site_occupancy
  Ba  Ba0  1  0.25000000  0.75699365  0.33857099  1
  Ba  Ba1  1  0.25000000  0.25699365  0.16142901  1
  Ba  Ba2  1  0.75000000  0.24300635  0.66142901  1
  Ba  Ba3  1  0.75000000  0.74300635  0.83857099  1
  Ho  Ho4  1  0.25000000  0.43251826  0.39134781  1
  Ho  Ho5  1  0.25000000  0.93251826  0.10865219  1
  Ho  Ho6  1  0.75000000  0.56748174  0.60865219  1
  Ho  Ho7  1  0.75000000  0.06748174  0.89134781  1
  Ho  Ho8  1  0.25000000  0.42195309  0.89811488  1
  Ho  Ho9  1  0.25000000  0.92195309  0.60188512  1
  Ho  Ho10  1  0.75000000  0.57804691  0.10188512  1
  Ho  Ho11  1  0.75000000  0.07804691  0.39811488  1
  S  S12  1  0.25000000  0.20791043  0.83876564  1
  S  S13  1  0.25000000  0.70791043  0.66123436  1
  S  S14  1  0.75000000  0.79208957  0.16123436  1
  S  S15  1  0.75000000  0.29208957  0.33876564  1
  S  S16  1  0.25000000  0.12305418  0.52250549  1
  S  S17  1  0.25000000  0.62305418  0.97749451  1
  S  S18  1  0.75000000  0.87694582  0.47749451  1
  S  S19  1  0.75000000  0.37694582  0.02250549  1
  S  S20  1  0.25000000  0.02167515  0.28297486  1
  S  S21  1  0.25000000  0.52167515  0.21702514  1
  S  S22  1  0.75000000  0.97832485  0.71702514  1
  S  S23  1  0.75000000  0.47832485  0.78297486  1
  S  S24  1  0.25000000  0.41989259  0.57659809  1
  S  S25  1  0.25000000  0.91989259  0.92340191  1
  S  S26  1  0.75000000  0.58010741  0.42340191  1
  S  S27  1  0.75000000  0.08010741  0.07659809  1
