# generated using pymatgen
data_Ca4CrN4
_symmetry_space_group_name_H-M   'P 1'
_cell_length_a   11.09933907
_cell_length_b   4.91635346
_cell_length_c   10.94414639
_cell_angle_alpha   90.00000000
_cell_angle_beta   90.00000000
_cell_angle_gamma   90.00000000
_symmetry_Int_Tables_number   1
_chemical_formula_structural   Ca4CrN4
_chemical_formula_sum   'Ca16 Cr4 N16'
_cell_volume   597.20317935
_cell_formula_units_Z   4
loop_
 _symmetry_equiv_pos_site_id
 _symmetry_equiv_pos_as_xyz
  1  'x, y, z'
loop_
 _atom_site_type_symbol
 _atom_site_label
 _atom_site_symmetry_multiplicity
 _atom_site_fract_x
 _atom_site_fract_y
 _atom_site_fract_z
 _atom_site_occupancy
  Ca  Ca0  1  0.09213495  0.25000000  0.18446454  1
  Ca  Ca1  1  0.59213495  0.25000000  0.31553546  1
  Ca  Ca2  1  0.90786505  0.75000000  0.81553546  1
  Ca  Ca3  1  0.40786505  0.75000000  0.68446454  1
  Ca  Ca4  1  0.77262736  0.25000000  0.97642267  1
  Ca  Ca5  1  0.27262736  0.25000000  0.52357733  1
  Ca  Ca6  1  0.22737264  0.75000000  0.02357733  1
  Ca  Ca7  1  0.72737264  0.75000000  0.47642267  1
  Ca  Ca8  1  0.44160781  0.25000000  0.88776535  1
  Ca  Ca9  1  0.94160781  0.25000000  0.61223465  1
  Ca  Ca10  1  0.55839219  0.75000000  0.11223465  1
  Ca  Ca11  1  0.05839219  0.75000000  0.38776535  1
  Ca  Ca12  1  0.12885695  0.25000000  0.84092507  1
  Ca  Ca13  1  0.62885695  0.25000000  0.65907493  1
  Ca  Ca14  1  0.87114305  0.75000000  0.15907493  1
  Ca  Ca15  1  0.37114305  0.75000000  0.34092507  1
  Cr  Cr16  1  0.36836011  0.25000000  0.14817830  1
  Cr  Cr17  1  0.86836011  0.25000000  0.35182170  1
  Cr  Cr18  1  0.63163989  0.75000000  0.85182170  1
  Cr  Cr19  1  0.13163989  0.75000000  0.64817830  1
  N  N20  1  0.83418563  0.25000000  0.19881219  1
  N  N21  1  0.33418563  0.25000000  0.30118781  1
  N  N22  1  0.16581437  0.75000000  0.80118781  1
  N  N23  1  0.66581437  0.75000000  0.69881219  1
  N  N24  1  0.92358071  0.25000000  0.82993160  1
  N  N25  1  0.42358071  0.25000000  0.67006840  1
  N  N26  1  0.07641929  0.75000000  0.17006840  1
  N  N27  1  0.57641929  0.75000000  0.32993160  1
  N  N28  1  0.26264404  0.25000000  0.02968658  1
  N  N29  1  0.76264404  0.25000000  0.47031342  1
  N  N30  1  0.73735596  0.75000000  0.97031342  1
  N  N31  1  0.23735596  0.75000000  0.52968658  1
  N  N32  1  0.51492251  0.25000000  0.10561999  1
  N  N33  1  0.01492251  0.25000000  0.39438001  1
  N  N34  1  0.48507749  0.75000000  0.89438001  1
  N  N35  1  0.98507749  0.75000000  0.60561999  1
