# generated using pymatgen
data_Rb2UCr2O10
_symmetry_space_group_name_H-M   'P 1'
_cell_length_a   8.09576164
_cell_length_b   10.34807702
_cell_length_c   13.73558792
_cell_angle_alpha   102.73145455
_cell_angle_beta   106.52911867
_cell_angle_gamma   94.05676866
_symmetry_Int_Tables_number   1
_chemical_formula_structural   Rb2UCr2O10
_chemical_formula_sum   'Rb8 U4 Cr8 O40'
_cell_volume   1065.01865791
_cell_formula_units_Z   4
loop_
 _symmetry_equiv_pos_site_id
 _symmetry_equiv_pos_as_xyz
  1  'x, y, z'
loop_
 _atom_site_type_symbol
 _atom_site_label
 _atom_site_symmetry_multiplicity
 _atom_site_fract_x
 _atom_site_fract_y
 _atom_site_fract_z
 _atom_site_occupancy
  Rb  Rb0  1  0.94291932  0.50426386  0.66874659  1
  Rb  Rb1  1  0.05708068  0.49573614  0.33125341  1
  Rb  Rb2  1  0.36934036  0.24016438  0.49241241  1
  Rb  Rb3  1  0.63065964  0.75983562  0.50758759  1
  Rb  Rb4  1  0.05376313  0.31640826  0.97233560  1
  Rb  Rb5  1  0.94623687  0.68359174  0.02766440  1
  Rb  Rb6  1  0.65590022  0.95564129  0.85879402  1
  Rb  Rb7  1  0.34409978  0.04435871  0.14120598  1
  U  U8  1  0.17583071  0.89509131  0.57965932  1
  U  U9  1  0.82416929  0.10490869  0.42034068  1
  U  U10  1  0.39174747  0.65509262  0.94530238  1
  U  U11  1  0.60825253  0.34490738  0.05469762  1
  Cr  Cr12  1  0.11385582  0.90257950  0.84393857  1
  Cr  Cr13  1  0.88614418  0.09742050  0.15606143  1
  Cr  Cr14  1  0.39406090  0.61387971  0.65506498  1
  Cr  Cr15  1  0.60593910  0.38612029  0.34493502  1
  Cr  Cr16  1  0.38880294  0.63566605  0.17174324  1
  Cr  Cr17  1  0.61119706  0.36433395  0.82825676  1
  Cr  Cr18  1  0.12514120  0.85366798  0.33670723  1
  Cr  Cr19  1  0.87485880  0.14633202  0.66329277  1
  O  O20  1  0.24473613  0.78219990  0.42592646  1
  O  O21  1  0.75526387  0.21780010  0.57407354  1
  O  O22  1  0.34187005  0.75602874  0.10777582  1
  O  O23  1  0.65812995  0.24397126  0.89222418  1
  O  O24  1  0.39213934  0.77013996  0.63784956  1
  O  O25  1  0.60786066  0.22986004  0.36215044  1
  O  O26  1  0.17680203  0.55967731  0.90917202  1
  O  O27  1  0.82319797  0.44032269  0.09082798  1
  O  O28  1  0.48042478  0.54082348  0.08814024  1
  O  O29  1  0.51957522  0.45917652  0.91185976  1
  O  O30  1  0.27539194  0.84613975  0.92514572  1
  O  O31  1  0.72460806  0.15386025  0.07485428  1
  O  O32  1  0.00503972  0.75810515  0.55493260  1
  O  O33  1  0.99496028  0.24189485  0.44506740  1
  O  O34  1  0.18958631  0.94373256  0.75091307  1
  O  O35  1  0.81041369  0.05626744  0.24908693  1
  O  O36  1  0.60469740  0.75344684  0.98200934  1
  O  O37  1  0.39530260  0.24655316  0.01799066  1
  O  O38  1  0.02854469  0.95218381  0.41492527  1
  O  O39  1  0.97145531  0.04781619  0.58507473  1
  O  O40  1  0.34631226  0.02882558  0.60022081  1
  O  O41  1  0.65368774  0.97117442  0.39977919  1
  O  O42  1  0.05860379  0.03112540  0.91119946  1
  O  O43  1  0.94139621  0.96887460  0.08880054  1
  O  O44  1  0.57617519  0.56749177  0.64632456  1
  O  O45  1  0.42382481  0.43250823  0.35367544  1
  O  O46  1  0.36979812  0.62054079  0.77446700  1
  O  O47  1  0.63020188  0.37945921  0.22553300  1
  O  O48  1  0.23538659  0.51305013  0.56518701  1
  O  O49  1  0.76461341  0.48694987  0.43481299  1
  O  O50  1  0.21140475  0.55193225  0.16976358  1
  O  O51  1  0.78859525  0.44806775  0.83023642  1
  O  O52  1  0.52044627  0.68914776  0.28770218  1
  O  O53  1  0.47955373  0.31085224  0.71229782  1
  O  O54  1  0.94700638  0.78715230  0.79187030  1
  O  O55  1  0.05299362  0.21284770  0.20812970  1
  O  O56  1  0.98470715  0.74249440  0.24416920  1
  O  O57  1  0.01529285  0.25750560  0.75583080  1
  O  O58  1  0.24197692  0.94479812  0.29326470  1
  O  O59  1  0.75802308  0.05520188  0.70673530  1
