# generated using pymatgen
data_MgTl2Pb16(Br9O4)2
_symmetry_space_group_name_H-M   'P 1'
_cell_length_a   8.49002708
_cell_length_b   12.68706910
_cell_length_c   12.87443272
_cell_angle_alpha   90.90034775
_cell_angle_beta   88.51604514
_cell_angle_gamma   89.82944738
_symmetry_Int_Tables_number   1
_chemical_formula_structural   MgTl2Pb16(Br9O4)2
_chemical_formula_sum   'Mg1 Tl2 Pb16 Br18 O8'
_cell_volume   1386.10679345
_cell_formula_units_Z   1
loop_
 _symmetry_equiv_pos_site_id
 _symmetry_equiv_pos_as_xyz
  1  'x, y, z'
loop_
 _atom_site_type_symbol
 _atom_site_label
 _atom_site_symmetry_multiplicity
 _atom_site_fract_x
 _atom_site_fract_y
 _atom_site_fract_z
 _atom_site_occupancy
  Mg  Mg0  1  0.67499744  0.78614780  0.63978814  1
  Tl  Tl1  1  0.63905988  0.73606925  0.85642429  1
  Tl  Tl2  1  0.33462038  0.24726594  0.25258597  1
  Pb  Pb3  1  0.81426260  0.33213266  0.97614446  1
  Pb  Pb4  1  0.35428880  0.19453211  0.61420272  1
  Pb  Pb5  1  0.17568001  0.65579311  0.03380026  1
  Pb  Pb6  1  0.64254614  0.38655673  0.69413724  1
  Pb  Pb7  1  0.64018800  0.11720015  0.79960123  1
  Pb  Pb8  1  0.65094777  0.81070303  0.36710669  1
  Pb  Pb9  1  0.18541353  0.84336525  0.46596469  1
  Pb  Pb10  1  0.82201682  0.98262911  0.16031822  1
  Pb  Pb11  1  0.36269701  0.61544942  0.30282934  1
  Pb  Pb12  1  0.18178066  0.48260568  0.66324327  1
  Pb  Pb13  1  0.81583895  0.17110838  0.51054063  1
  Pb  Pb14  1  0.36400860  0.87739085  0.18132695  1
  Pb  Pb15  1  0.34647868  0.30878136  0.88219395  1
  Pb  Pb16  1  0.16275406  0.03182561  0.83327093  1
  Pb  Pb17  1  0.66741812  0.68664800  0.09297586  1
  Pb  Pb18  1  0.81727726  0.52423384  0.32935504  1
  Br  Br19  1  0.91038181  0.87424029  0.96481525  1
  Br  Br20  1  0.11403649  0.14534712  0.03088409  1
  Br  Br21  1  0.11111131  0.45516508  0.13499608  1
  Br  Br22  1  0.60091415  0.43295880  0.13374056  1
  Br  Br23  1  0.36794506  0.56024005  0.86286080  1
  Br  Br24  1  0.40138927  0.63402669  0.56634202  1
  Br  Br25  1  0.11071493  0.36240158  0.46597548  1
  Br  Br26  1  0.12061678  0.04299660  0.35940408  1
  Br  Br27  1  0.60250102  0.07553913  0.36061811  1
  Br  Br28  1  0.01090173  0.75593589  0.25522461  1
  Br  Br29  1  0.87163924  0.95461716  0.61804440  1
  Br  Br30  1  0.42777126  0.92605504  0.61586985  1
  Br  Br31  1  0.88887880  0.53151700  0.87104232  1
  Br  Br32  1  0.61721942  0.36621745  0.43497653  1
  Br  Br33  1  0.36514289  0.88367325  0.92913088  1
  Br  Br34  1  0.88146498  0.65566043  0.54035050  1
  Br  Br35  1  0.60760200  0.12943461  0.06063549  1
  Br  Br36  1  0.99102187  0.25022542  0.74470069  1
  O  O37  1  0.62627768  0.20568842  0.63945173  1
  O  O38  1  0.36935558  0.14414145  0.79204235  1
  O  O39  1  0.38716138  0.69528900  0.13680731  1
  O  O40  1  0.62434683  0.64013625  0.31370245  1
  O  O41  1  0.63451375  0.85462527  0.18865419  1
  O  O42  1  0.36993698  0.35818950  0.69998597  1
  O  O43  1  0.61955400  0.29844572  0.85502665  1
  O  O44  1  0.37938807  0.79971155  0.34703270  1
