# generated using pymatgen
data_Gd2MgPtO6
_symmetry_space_group_name_H-M   'P 1'
_cell_length_a   5.69632434
_cell_length_b   5.36737122
_cell_length_c   9.36950648
_cell_angle_alpha   55.38702234
_cell_angle_beta   90.00000000
_cell_angle_gamma   90.00000000
_symmetry_Int_Tables_number   1
_chemical_formula_structural   Gd2MgPtO6
_chemical_formula_sum   'Gd4 Mg2 Pt2 O12'
_cell_volume   235.76371860
_cell_formula_units_Z   2
loop_
 _symmetry_equiv_pos_site_id
 _symmetry_equiv_pos_as_xyz
  1  'x, y, z'
loop_
 _atom_site_type_symbol
 _atom_site_label
 _atom_site_symmetry_multiplicity
 _atom_site_fract_x
 _atom_site_fract_y
 _atom_site_fract_z
 _atom_site_occupancy
  Gd  Gd0  1  0.43078487  0.23108594  0.74920212  1
  Gd  Gd1  1  0.56921513  0.76891406  0.25079788  1
  Gd  Gd2  1  0.93078487  0.76891406  0.75079788  1
  Gd  Gd3  1  0.06921513  0.23108594  0.24920212  1
  Mg  Mg4  1  0.00000000  0.50000000  0.50000000  1
  Mg  Mg5  1  0.50000000  0.50000000  -0.00000000  1
  Pt  Pt6  1  0.00000000  0.00000000  -0.00000000  1
  Pt  Pt7  1  0.50000000  0.00000000  0.50000000  1
  O  O8  1  0.03957245  0.35956405  0.75163347  1
  O  O9  1  0.96042755  0.64043595  0.24836653  1
  O  O10  1  0.53957245  0.64043595  0.74836653  1
  O  O11  1  0.46042755  0.35956405  0.25163347  1
  O  O12  1  0.69948712  0.86792600  0.94322701  1
  O  O13  1  0.30051288  0.13207400  0.05677299  1
  O  O14  1  0.19948712  0.13207400  0.55677299  1
  O  O15  1  0.80051288  0.86792600  0.44322701  1
  O  O16  1  0.19611920  0.74868802  0.94458935  1
  O  O17  1  0.80388080  0.25131198  0.05541065  1
  O  O18  1  0.69611920  0.25131198  0.55541065  1
  O  O19  1  0.30388080  0.74868802  0.44458935  1
