# generated using pymatgen
data_Nd3Se3N
_symmetry_space_group_name_H-M   'P 1'
_cell_length_a   4.12623011
_cell_length_b   12.87252530
_cell_length_c   13.52119705
_cell_angle_alpha   90.00000000
_cell_angle_beta   90.00000000
_cell_angle_gamma   90.00000000
_symmetry_Int_Tables_number   1
_chemical_formula_structural   Nd3Se3N
_chemical_formula_sum   'Nd12 Se12 N4'
_cell_volume   718.17840138
_cell_formula_units_Z   4
loop_
 _symmetry_equiv_pos_site_id
 _symmetry_equiv_pos_as_xyz
  1  'x, y, z'
loop_
 _atom_site_type_symbol
 _atom_site_label
 _atom_site_symmetry_multiplicity
 _atom_site_fract_x
 _atom_site_fract_y
 _atom_site_fract_z
 _atom_site_occupancy
  Nd  Nd0  1  0.25000000  0.70992279  0.86237476  1
  Nd  Nd1  1  0.75000000  0.29007721  0.13762524  1
  Nd  Nd2  1  0.75000000  0.79007721  0.36237476  1
  Nd  Nd3  1  0.25000000  0.20992279  0.63762524  1
  Nd  Nd4  1  0.25000000  0.57070347  0.63158098  1
  Nd  Nd5  1  0.75000000  0.42929653  0.36841902  1
  Nd  Nd6  1  0.75000000  0.92929653  0.13158098  1
  Nd  Nd7  1  0.25000000  0.07070347  0.86841902  1
  Nd  Nd8  1  0.25000000  0.54074234  0.15212187  1
  Nd  Nd9  1  0.75000000  0.45925766  0.84787813  1
  Nd  Nd10  1  0.75000000  0.95925766  0.65212187  1
  Nd  Nd11  1  0.25000000  0.04074234  0.34787813  1
  Se  Se12  1  0.25000000  0.77411533  0.19045251  1
  Se  Se13  1  0.75000000  0.22588467  0.80954749  1
  Se  Se14  1  0.75000000  0.72588467  0.69045251  1
  Se  Se15  1  0.25000000  0.27411533  0.30954749  1
  Se  Se16  1  0.25000000  0.09155079  0.10740075  1
  Se  Se17  1  0.75000000  0.90844921  0.89259925  1
  Se  Se18  1  0.75000000  0.40844921  0.60740075  1
  Se  Se19  1  0.25000000  0.59155079  0.39259925  1
  Se  Se20  1  0.25000000  0.86812589  0.49621545  1
  Se  Se21  1  0.75000000  0.13187411  0.50378455  1
  Se  Se22  1  0.75000000  0.63187411  -0.00378455  1
  Se  Se23  1  0.25000000  0.36812589  0.00378455  1
  N  N24  1  0.25000000  0.54203519  0.79694567  1
  N  N25  1  0.75000000  0.45796481  0.20305433  1
  N  N26  1  0.75000000  0.95796481  0.29694567  1
  N  N27  1  0.25000000  0.04203519  0.70305433  1
