# generated using pymatgen
data_KGd2Cl7
_symmetry_space_group_name_H-M   'P 1'
_cell_length_a   12.75745695
_cell_length_b   6.98446060
_cell_length_c   12.88930568
_cell_angle_alpha   91.27647944
_cell_angle_beta   90.00000000
_cell_angle_gamma   90.00000000
_symmetry_Int_Tables_number   1
_chemical_formula_structural   KGd2Cl7
_chemical_formula_sum   'K4 Gd8 Cl28'
_cell_volume   1148.20310817
_cell_formula_units_Z   4
loop_
 _symmetry_equiv_pos_site_id
 _symmetry_equiv_pos_as_xyz
  1  'x, y, z'
loop_
 _atom_site_type_symbol
 _atom_site_label
 _atom_site_symmetry_multiplicity
 _atom_site_fract_x
 _atom_site_fract_y
 _atom_site_fract_z
 _atom_site_occupancy
  K  K0  1  0.20887822  0.79368942  0.03424515  1
  K  K1  1  0.79112178  0.20631058  0.96575485  1
  K  K2  1  0.70887822  0.20631058  0.46575485  1
  K  K3  1  0.29112178  0.79368942  0.53424515  1
  Gd  Gd4  1  0.53559145  0.77704034  0.23730041  1
  Gd  Gd5  1  0.46440855  0.22295966  0.76269959  1
  Gd  Gd6  1  0.03559145  0.22295966  0.26269959  1
  Gd  Gd7  1  0.96440855  0.77704034  0.73730041  1
  Gd  Gd8  1  0.83862972  0.71957081  0.24600998  1
  Gd  Gd9  1  0.16137028  0.28042919  0.75399002  1
  Gd  Gd10  1  0.33862972  0.28042919  0.25399002  1
  Gd  Gd11  1  0.66137028  0.71957081  0.74600998  1
  Cl  Cl12  1  0.97432502  0.93252331  0.12943810  1
  Cl  Cl13  1  0.02567498  0.06747669  0.87056190  1
  Cl  Cl14  1  0.47432502  0.06747669  0.37056190  1
  Cl  Cl15  1  0.52567498  0.93252331  0.62943810  1
  Cl  Cl16  1  0.68432743  0.75030646  0.39575633  1
  Cl  Cl17  1  0.31567257  0.24969354  0.60424367  1
  Cl  Cl18  1  0.18432743  0.24969354  0.10424367  1
  Cl  Cl19  1  0.81567257  0.75030646  0.89575633  1
  Cl  Cl20  1  0.67448410  0.50796971  0.16835677  1
  Cl  Cl21  1  0.32551590  0.49203029  0.83164323  1
  Cl  Cl22  1  0.17448410  0.49203029  0.33164323  1
  Cl  Cl23  1  0.82551590  0.50796971  0.66835677  1
  Cl  Cl24  1  0.92468164  0.97781241  0.38294321  1
  Cl  Cl25  1  0.07531836  0.02218759  0.61705679  1
  Cl  Cl26  1  0.42468164  0.02218759  0.11705679  1
  Cl  Cl27  1  0.57531836  0.97781241  0.88294321  1
  Cl  Cl28  1  0.93777102  0.44831327  0.12366825  1
  Cl  Cl29  1  0.06222898  0.55168673  0.87633175  1
  Cl  Cl30  1  0.43777102  0.55168673  0.37633175  1
  Cl  Cl31  1  0.56222898  0.44831327  0.62366825  1
  Cl  Cl32  1  0.70332066  -0.00465674  0.17448513  1
  Cl  Cl33  1  0.29667934  0.00465674  0.82551487  1
  Cl  Cl34  1  0.20332066  0.00465674  0.32551487  1
  Cl  Cl35  1  0.79667934  -0.00465674  0.67448513  1
  Cl  Cl36  1  0.90688348  0.45625639  0.38147839  1
  Cl  Cl37  1  0.09311652  0.54374361  0.61852161  1
  Cl  Cl38  1  0.40688348  0.54374361  0.11852161  1
  Cl  Cl39  1  0.59311652  0.45625639  0.88147839  1
