# generated using pymatgen
data_K2LaBr5
_symmetry_space_group_name_H-M   'P 1'
_cell_length_a   8.49832049
_cell_length_b   9.29437595
_cell_length_c   13.43874097
_cell_angle_alpha   90.00000000
_cell_angle_beta   90.00000000
_cell_angle_gamma   90.00000000
_symmetry_Int_Tables_number   1
_chemical_formula_structural   K2LaBr5
_chemical_formula_sum   'K8 La4 Br20'
_cell_volume   1061.48026368
_cell_formula_units_Z   4
loop_
 _symmetry_equiv_pos_site_id
 _symmetry_equiv_pos_as_xyz
  1  'x, y, z'
loop_
 _atom_site_type_symbol
 _atom_site_label
 _atom_site_symmetry_multiplicity
 _atom_site_fract_x
 _atom_site_fract_y
 _atom_site_fract_z
 _atom_site_occupancy
  K  K0  1  0.94831884  0.00442432  0.82786131  1
  K  K1  1  0.05168116  0.99557568  0.17213869  1
  K  K2  1  0.44831884  0.99557568  0.67213869  1
  K  K3  1  0.05168116  0.50442432  0.17213869  1
  K  K4  1  0.55168116  0.00442432  0.32786131  1
  K  K5  1  0.94831884  0.49557568  0.82786131  1
  K  K6  1  0.55168116  0.49557568  0.32786131  1
  K  K7  1  0.44831884  0.50442432  0.67213869  1
  La  La8  1  0.92086824  0.75000000  0.50672364  1
  La  La9  1  0.07913176  0.25000000  0.49327636  1
  La  La10  1  0.42086824  0.25000000  0.99327636  1
  La  La11  1  0.57913176  0.75000000  0.00672364  1
  Br  Br12  1  0.13221385  0.75000000  0.68317680  1
  Br  Br13  1  0.86778615  0.25000000  0.31682320  1
  Br  Br14  1  0.63221385  0.25000000  0.81682320  1
  Br  Br15  1  0.36778615  0.75000000  0.18317680  1
  Br  Br16  1  0.83187996  0.04530118  0.58029886  1
  Br  Br17  1  0.16812004  0.95469882  0.41970114  1
  Br  Br18  1  0.33187996  0.95469882  0.91970114  1
  Br  Br19  1  0.16812004  0.54530118  0.41970114  1
  Br  Br20  1  0.66812004  0.04530118  0.08029886  1
  Br  Br21  1  0.83187996  0.45469882  0.58029886  1
  Br  Br22  1  0.66812004  0.45469882  0.08029886  1
  Br  Br23  1  0.33187996  0.54530118  0.91970114  1
  Br  Br24  1  0.56643630  0.75000000  0.50655558  1
  Br  Br25  1  0.43356370  0.25000000  0.49344442  1
  Br  Br26  1  0.06643630  0.25000000  0.99344442  1
  Br  Br27  1  0.93356370  0.75000000  0.00655558  1
  Br  Br28  1  0.66819867  0.75000000  0.79069394  1
  Br  Br29  1  0.33180133  0.25000000  0.20930606  1
  Br  Br30  1  0.16819867  0.25000000  0.70930606  1
  Br  Br31  1  0.83180133  0.75000000  0.29069394  1
