# generated using pymatgen
data_KRbMg14O15
_symmetry_space_group_name_H-M   'P 1'
_cell_length_a   8.60222017
_cell_length_b   8.94134231
_cell_length_c   4.48366134
_cell_angle_alpha   90.00000000
_cell_angle_beta   90.00000000
_cell_angle_gamma   90.00000000
_symmetry_Int_Tables_number   1
_chemical_formula_structural   KRbMg14O15
_chemical_formula_sum   'K1 Rb1 Mg14 O15'
_cell_volume   344.86258376
_cell_formula_units_Z   1
loop_
 _symmetry_equiv_pos_site_id
 _symmetry_equiv_pos_as_xyz
  1  'x, y, z'
loop_
 _atom_site_type_symbol
 _atom_site_label
 _atom_site_symmetry_multiplicity
 _atom_site_fract_x
 _atom_site_fract_y
 _atom_site_fract_z
 _atom_site_occupancy
  K  K0  1  0.98240346  0.00000000  0.00000000  1
  Rb  Rb1  1  0.11046381  0.50000000  0.00000000  1
  Mg  Mg2  1  0.49605633  0.00000000  0.00000000  1
  Mg  Mg3  1  0.51880929  0.50000000  0.00000000  1
  Mg  Mg4  1  0.99584299  0.24907530  0.50000000  1
  Mg  Mg5  1  0.99584299  0.75092470  0.50000000  1
  Mg  Mg6  1  0.49590273  0.25458866  0.50000000  1
  Mg  Mg7  1  0.49590273  0.74541134  0.50000000  1
  Mg  Mg8  1  0.24666577  0.00000000  0.50000000  1
  Mg  Mg9  1  0.25341632  0.50000000  0.50000000  1
  Mg  Mg10  1  0.74018933  0.00000000  0.50000000  1
  Mg  Mg11  1  0.76921320  0.50000000  0.50000000  1
  Mg  Mg12  1  0.24065809  0.21592188  -0.00000000  1
  Mg  Mg13  1  0.24065809  0.78407812  0.00000000  1
  Mg  Mg14  1  0.75852853  0.26137606  0.00000000  1
  Mg  Mg15  1  0.75852853  0.73862394  0.00000000  1
  O  O16  1  0.27116559  0.00000000  0.00000000  1
  O  O17  1  0.71443843  0.00000000  0.00000000  1
  O  O18  1  0.74174744  0.50000000  0.00000000  1
  O  O19  1  0.24638269  0.26040017  0.50000000  1
  O  O20  1  0.24638269  0.73959983  0.50000000  1
  O  O21  1  0.74403216  0.25252732  0.50000000  1
  O  O22  1  0.74403216  0.74747268  0.50000000  1
  O  O23  1  0.01136380  0.00000000  0.50000000  1
  O  O24  1  0.00443741  0.50000000  0.50000000  1
  O  O25  1  0.49002401  0.00000000  0.50000000  1
  O  O26  1  0.48418166  0.50000000  0.50000000  1
  O  O27  1  0.99921568  0.25899667  0.00000000  1
  O  O28  1  0.99921568  0.74100333  -0.00000000  1
  O  O29  1  0.47714920  0.27025139  0.00000000  1
  O  O30  1  0.47714920  0.72974861  0.00000000  1
