# generated using pymatgen
data_Na3PO4
_symmetry_space_group_name_H-M   'P 1'
_cell_length_a   6.79119010
_cell_length_b   5.39509988
_cell_length_c   5.85404953
_cell_angle_alpha   89.91869927
_cell_angle_beta   90.00000000
_cell_angle_gamma   90.00000000
_symmetry_Int_Tables_number   1
_chemical_formula_structural   Na3PO4
_chemical_formula_sum   'Na6 P2 O8'
_cell_volume   214.48717653
_cell_formula_units_Z   2
loop_
 _symmetry_equiv_pos_site_id
 _symmetry_equiv_pos_as_xyz
  1  'x, y, z'
loop_
 _atom_site_type_symbol
 _atom_site_label
 _atom_site_symmetry_multiplicity
 _atom_site_fract_x
 _atom_site_fract_y
 _atom_site_fract_z
 _atom_site_occupancy
  Na  Na0  1  0.24314344  0.49256454  0.06797644  1
  Na  Na1  1  0.50000000  0.49098979  0.59806144  1
  Na  Na2  1  0.25649700  0.99285702  0.42652667  1
  Na  Na3  1  0.74350300  0.99285702  0.42652667  1
  Na  Na4  1  0.75685656  0.49256454  0.06797644  1
  Na  Na5  1  0.00000000  0.99021261  0.89560472  1
  P  P6  1  0.50000000  0.00191136  0.92932391  1
  P  P7  1  0.00000000  0.50165839  0.56562583  1
  O  O8  1  0.00000000  0.41032414  0.81608198  1
  O  O9  1  0.50000000  0.28727072  0.93375987  1
  O  O10  1  0.81305585  0.40638360  0.44203585  1
  O  O11  1  0.18694415  0.40638360  0.44203585  1
  O  O12  1  0.50000000  0.91073984  0.67903934  1
  O  O13  1  0.31300096  0.90648869  0.05316920  1
  O  O14  1  0.68699904  0.90648869  0.05316920  1
  O  O15  1  0.00000000  0.78697344  0.56079057  1
