# generated using pymatgen
data_CsSm2Cl7
_symmetry_space_group_name_H-M   'P 1'
_cell_length_a   7.13295995
_cell_length_b   12.95875715
_cell_length_c   13.49727318
_cell_angle_alpha   90.00000000
_cell_angle_beta   90.00000000
_cell_angle_gamma   90.00000000
_symmetry_Int_Tables_number   1
_chemical_formula_structural   CsSm2Cl7
_chemical_formula_sum   'Cs4 Sm8 Cl28'
_cell_volume   1247.61094098
_cell_formula_units_Z   4
loop_
 _symmetry_equiv_pos_site_id
 _symmetry_equiv_pos_as_xyz
  1  'x, y, z'
loop_
 _atom_site_type_symbol
 _atom_site_label
 _atom_site_symmetry_multiplicity
 _atom_site_fract_x
 _atom_site_fract_y
 _atom_site_fract_z
 _atom_site_occupancy
  Cs  Cs0  1  0.25000000  0.80256351  0.04112503  1
  Cs  Cs1  1  0.75000000  0.19743649  0.95887497  1
  Cs  Cs2  1  0.75000000  0.30256351  0.45887497  1
  Cs  Cs3  1  0.25000000  0.69743649  0.54112503  1
  Sm  Sm4  1  0.25000000  0.45856879  0.23739056  1
  Sm  Sm5  1  0.75000000  0.54143121  0.76260944  1
  Sm  Sm6  1  0.75000000  0.95856879  0.26260944  1
  Sm  Sm7  1  0.25000000  0.04143121  0.73739056  1
  Sm  Sm8  1  0.25000000  0.15429482  0.24783531  1
  Sm  Sm9  1  0.75000000  0.84570518  0.75216469  1
  Sm  Sm10  1  0.75000000  0.65429482  0.25216469  1
  Sm  Sm11  1  0.25000000  0.34570518  0.74783531  1
  Cl  Cl12  1  0.00914922  0.30488835  0.17523123  1
  Cl  Cl13  1  0.99085078  0.69511165  0.82476877  1
  Cl  Cl14  1  0.99085078  0.80488835  0.32476877  1
  Cl  Cl15  1  0.50914922  0.69511165  0.82476877  1
  Cl  Cl16  1  0.00914922  0.19511165  0.67523123  1
  Cl  Cl17  1  0.49085078  0.30488835  0.17523123  1
  Cl  Cl18  1  0.49085078  0.19511165  0.67523123  1
  Cl  Cl19  1  0.50914922  0.80488835  0.32476877  1
  Cl  Cl20  1  0.00950352  0.57514152  0.12229060  1
  Cl  Cl21  1  0.99049648  0.42485848  0.87770940  1
  Cl  Cl22  1  0.99049648  0.07514152  0.37770940  1
  Cl  Cl23  1  0.50950352  0.42485848  0.87770940  1
  Cl  Cl24  1  0.00950352  0.92485848  0.62229060  1
  Cl  Cl25  1  0.49049648  0.57514152  0.12229060  1
  Cl  Cl26  1  0.49049648  0.92485848  0.62229060  1
  Cl  Cl27  1  0.50950352  0.07514152  0.37770940  1
  Cl  Cl28  1  0.00967584  0.03803381  0.13091615  1
  Cl  Cl29  1  0.99032416  0.96196619  0.86908385  1
  Cl  Cl30  1  0.99032416  0.53803381  0.36908385  1
  Cl  Cl31  1  0.50967584  0.96196619  0.86908385  1
  Cl  Cl32  1  0.00967584  0.46196619  0.63091615  1
  Cl  Cl33  1  0.49032416  0.03803381  0.13091615  1
  Cl  Cl34  1  0.49032416  0.46196619  0.63091615  1
  Cl  Cl35  1  0.50967584  0.53803381  0.36908385  1
  Cl  Cl36  1  0.25000000  0.30975943  0.39106911  1
  Cl  Cl37  1  0.75000000  0.69024057  0.60893089  1
  Cl  Cl38  1  0.75000000  0.80975943  0.10893089  1
  Cl  Cl39  1  0.25000000  0.19024057  0.89106911  1
