# generated using pymatgen
data_B
_symmetry_space_group_name_H-M   'P 1'
_cell_length_a   5.03164439
_cell_length_b   5.59965214
_cell_length_c   6.93884639
_cell_angle_alpha   90.00000000
_cell_angle_beta   90.00000000
_cell_angle_gamma   90.00000000
_symmetry_Int_Tables_number   1
_chemical_formula_structural   B
_chemical_formula_sum   B28
_cell_volume   195.50517695
_cell_formula_units_Z   28
loop_
 _symmetry_equiv_pos_site_id
 _symmetry_equiv_pos_as_xyz
  1  'x, y, z'
loop_
 _atom_site_type_symbol
 _atom_site_label
 _atom_site_symmetry_multiplicity
 _atom_site_fract_x
 _atom_site_fract_y
 _atom_site_fract_z
 _atom_site_occupancy
  B  B0  1  0.65312716  0.90709990  0.29187771  1
  B  B1  1  0.34687284  0.09290010  0.29187771  1
  B  B2  1  0.15312716  0.59290010  0.20812229  1
  B  B3  1  0.84687284  0.40709990  0.20812229  1
  B  B4  1  0.34687284  0.09290010  0.70812229  1
  B  B5  1  0.65312716  0.90709990  0.70812229  1
  B  B6  1  0.84687284  0.40709990  0.79187771  1
  B  B7  1  0.15312716  0.59290010  0.79187771  1
  B  B8  1  0.14799076  0.77096325  0.00000000  1
  B  B9  1  0.85200924  0.22903675  0.00000000  1
  B  B10  1  0.64799076  0.72903675  0.50000000  1
  B  B11  1  0.35200924  0.27096325  0.50000000  1
  B  B12  1  0.83580325  0.99228561  0.50000000  1
  B  B13  1  0.16419675  0.00771439  0.50000000  1
  B  B14  1  0.33580325  0.50771439  0.00000000  1
  B  B15  1  0.66419675  0.49228561  0.00000000  1
  B  B16  1  0.33932555  0.78075240  0.37467403  1
  B  B17  1  0.66067445  0.21924760  0.37467403  1
  B  B18  1  0.83932555  0.71924760  0.12532597  1
  B  B19  1  0.16067445  0.28075240  0.12532597  1
  B  B20  1  0.66067445  0.21924760  0.62532597  1
  B  B21  1  0.33932555  0.78075240  0.62532597  1
  B  B22  1  0.16067445  0.28075240  0.87467403  1
  B  B23  1  0.83932555  0.71924760  0.87467403  1
  B  B24  1  0.16993238  0.51952589  0.50000000  1
  B  B25  1  0.83006762  0.48047411  0.50000000  1
  B  B26  1  0.66993238  0.98047411  0.00000000  1
  B  B27  1  0.33006762  0.01952589  0.00000000  1
