# generated using pymatgen
data_Na5CoSO2
_symmetry_space_group_name_H-M   'P 1'
_cell_length_a   6.41076827
_cell_length_b   6.41072839
_cell_length_c   8.02648213
_cell_angle_alpha   90.05817857
_cell_angle_beta   90.04275133
_cell_angle_gamma   89.99778737
_symmetry_Int_Tables_number   1
_chemical_formula_structural   Na5CoSO2
_chemical_formula_sum   'Na10 Co2 S2 O4'
_cell_volume   329.86964514
_cell_formula_units_Z   2
loop_
 _symmetry_equiv_pos_site_id
 _symmetry_equiv_pos_as_xyz
  1  'x, y, z'
loop_
 _atom_site_type_symbol
 _atom_site_label
 _atom_site_symmetry_multiplicity
 _atom_site_fract_x
 _atom_site_fract_y
 _atom_site_fract_z
 _atom_site_occupancy
  Na  Na0  1  0.99999992  0.00000036  0.49999911  1
  Na  Na1  1  0.50000017  0.50000040  0.49999935  1
  Na  Na2  1  0.24975199  0.24962681  0.25562895  1
  Na  Na3  1  0.74973392  0.74960886  0.25576179  1
  Na  Na4  1  0.24962118  0.74952578  0.25522407  1
  Na  Na5  1  0.74959576  0.24950920  0.25615894  1
  Na  Na6  1  0.25026541  0.25039199  0.74422415  1
  Na  Na7  1  0.75024880  0.75037487  0.74435672  1
  Na  Na8  1  0.25040320  0.75049110  0.74385010  1
  Na  Na9  1  0.75037850  0.25047352  0.74478647  1
  Co  Co10  1  0.49999970  0.49999761  -0.00000569  1
  Co  Co11  1  -0.00000002  0.99999764  -0.00001195  1
  S  S12  1  0.50000015  0.00000032  0.49999780  1
  S  S13  1  -0.00000006  0.50000029  0.49999775  1
  O  O14  1  0.99930046  0.00012340  0.78064077  1
  O  O15  1  0.50030706  0.49936747  0.78066380  1
  O  O16  1  0.00070001  0.99987707  0.21937985  1
  O  O17  1  0.49969386  0.50063331  0.21934802  1
