# generated using pymatgen
data_K3AuSe2
_symmetry_space_group_name_H-M   'P 1'
_cell_length_a   7.96144052
_cell_length_b   7.96143897
_cell_length_c   7.96143907
_cell_angle_alpha   68.31472091
_cell_angle_beta   68.31472001
_cell_angle_gamma   68.31472733
_symmetry_Int_Tables_number   1
_chemical_formula_structural   K3AuSe2
_chemical_formula_sum   'K6 Au2 Se4'
_cell_volume   419.57168515
_cell_formula_units_Z   2
loop_
 _symmetry_equiv_pos_site_id
 _symmetry_equiv_pos_as_xyz
  1  'x, y, z'
loop_
 _atom_site_type_symbol
 _atom_site_label
 _atom_site_symmetry_multiplicity
 _atom_site_fract_x
 _atom_site_fract_y
 _atom_site_fract_z
 _atom_site_occupancy
  K  K0  1  0.95908304  0.54091696  0.25000000  1
  K  K1  1  0.25000000  0.95908304  0.54091696  1
  K  K2  1  0.54091696  0.25000000  0.95908304  1
  K  K3  1  0.04091696  0.45908304  0.75000000  1
  K  K4  1  0.75000000  0.04091696  0.45908304  1
  K  K5  1  0.45908304  0.75000000  0.04091696  1
  Au  Au6  1  0.50000000  0.50000000  0.50000000  1
  Au  Au7  1  -0.00000000  0.00000000  0.00000000  1
  Se  Se8  1  0.63377607  0.63377607  0.63377607  1
  Se  Se9  1  0.86622393  0.86622393  0.86622393  1
  Se  Se10  1  0.13377607  0.13377607  0.13377607  1
  Se  Se11  1  0.36622393  0.36622393  0.36622393  1
