# generated using pymatgen
data_K3VSe4
_symmetry_space_group_name_H-M   'P 1'
_cell_length_a   8.16426716
_cell_length_b   8.16426716
_cell_length_c   8.16426716
_cell_angle_alpha   129.17028381
_cell_angle_beta   129.17028381
_cell_angle_gamma   74.73673384
_symmetry_Int_Tables_number   1
_chemical_formula_structural   K3VSe4
_chemical_formula_sum   'K3 V1 Se4'
_cell_volume   318.63942228
_cell_formula_units_Z   1
loop_
 _symmetry_equiv_pos_site_id
 _symmetry_equiv_pos_as_xyz
  1  'x, y, z'
loop_
 _atom_site_type_symbol
 _atom_site_label
 _atom_site_symmetry_multiplicity
 _atom_site_fract_x
 _atom_site_fract_y
 _atom_site_fract_z
 _atom_site_occupancy
  K  K0  1  0.50000000  0.50000000  0.00000000  1
  K  K1  1  0.75000000  0.25000000  0.50000000  1
  K  K2  1  0.25000000  0.75000000  0.50000000  1
  V  V3  1  -0.00000000  0.00000000  0.00000000  1
  Se  Se4  1  0.28921586  0.90979079  -0.00000000  1
  Se  Se5  1  0.90979079  0.28921586  -0.00000000  1
  Se  Se6  1  0.71078414  0.71078414  0.62057493  1
  Se  Se7  1  0.09020921  0.09020921  0.37942507  1
