# generated using pymatgen
data_Ba3Ho4O9
_symmetry_space_group_name_H-M   'P 1'
_cell_length_a   9.13592375
_cell_length_b   9.13592374
_cell_length_c   9.13592379
_cell_angle_alpha   38.86391169
_cell_angle_beta   38.86391171
_cell_angle_gamma   38.86391393
_symmetry_Int_Tables_number   1
_chemical_formula_structural   Ba3Ho4O9
_chemical_formula_sum   'Ba3 Ho4 O9'
_cell_volume   269.92825612
_cell_formula_units_Z   1
loop_
 _symmetry_equiv_pos_site_id
 _symmetry_equiv_pos_as_xyz
  1  'x, y, z'
loop_
 _atom_site_type_symbol
 _atom_site_label
 _atom_site_symmetry_multiplicity
 _atom_site_fract_x
 _atom_site_fract_y
 _atom_site_fract_z
 _atom_site_occupancy
  Ba  Ba0  1  0.00100271  0.00100271  0.00100271  1
  Ba  Ba1  1  0.83654435  0.83654435  0.83654435  1
  Ba  Ba2  1  0.42319305  0.42319305  0.42319305  1
  Ho  Ho3  1  0.57531582  0.57531582  0.57531582  1
  Ho  Ho4  1  0.13635893  0.13635893  0.13635893  1
  Ho  Ho5  1  0.26188925  0.26188925  0.26188925  1
  Ho  Ho6  1  0.70028294  0.70028294  0.70028294  1
  O  O7  1  0.95971349  0.53906212  0.42278924  1
  O  O8  1  0.53906212  0.42278924  0.95971349  1
  O  O9  1  0.42278924  0.95971349  0.53906212  1
  O  O10  1  0.87276263  0.40316928  0.30836437  1
  O  O11  1  0.40316928  0.30836437  0.87276263  1
  O  O12  1  0.30836437  0.87276263  0.40316928  1
  O  O13  1  0.86236246  0.97332438  0.41996298  1
  O  O14  1  0.41996298  0.86236246  0.97332438  1
  O  O15  1  0.97332438  0.41996298  0.86236246  1
