# generated using pymatgen
data_Li3Lu(NO3)6
_symmetry_space_group_name_H-M   'P 1'
_cell_length_a   7.56761855
_cell_length_b   7.81839670
_cell_length_c   24.07430633
_cell_angle_alpha   91.24838433
_cell_angle_beta   90.00000000
_cell_angle_gamma   90.00000000
_symmetry_Int_Tables_number   1
_chemical_formula_structural   Li3Lu(NO3)6
_chemical_formula_sum   'Li12 Lu4 N24 O72'
_cell_volume   1424.05781715
_cell_formula_units_Z   4
loop_
 _symmetry_equiv_pos_site_id
 _symmetry_equiv_pos_as_xyz
  1  'x, y, z'
loop_
 _atom_site_type_symbol
 _atom_site_label
 _atom_site_symmetry_multiplicity
 _atom_site_fract_x
 _atom_site_fract_y
 _atom_site_fract_z
 _atom_site_occupancy
  Li  Li0  1  0.81576705  0.70626887  0.63398544  1
  Li  Li1  1  0.18423295  0.29373113  0.36601456  1
  Li  Li2  1  0.31576705  0.79373113  0.86601456  1
  Li  Li3  1  0.68423295  0.20626887  0.13398544  1
  Li  Li4  1  0.55792528  0.00101569  0.74532046  1
  Li  Li5  1  0.44207472  0.99898431  0.25467954  1
  Li  Li6  1  0.05792528  0.49898431  0.75467954  1
  Li  Li7  1  0.94207472  0.50101569  0.24532046  1
  Li  Li8  1  0.28992606  0.74258545  0.52598274  1
  Li  Li9  1  0.71007394  0.25741455  0.47401726  1
  Li  Li10  1  0.78992606  0.75741455  0.97401726  1
  Li  Li11  1  0.21007394  0.24258545  0.02598274  1
  Lu  Lu12  1  0.30603458  0.24271307  0.60968068  1
  Lu  Lu13  1  0.69396542  0.75728693  0.39031932  1
  Lu  Lu14  1  0.80603458  0.25728693  0.89031932  1
  Lu  Lu15  1  0.19396542  0.74271307  0.10968068  1
  N  N16  1  0.79819464  0.73531130  0.73536826  1
  N  N17  1  0.20180536  0.26468870  0.26463174  1
  N  N18  1  0.29819464  0.76468870  0.76463174  1
  N  N19  1  0.70180536  0.23531130  0.23536826  1
  N  N20  1  0.30203233  0.26096634  0.72924391  1
  N  N21  1  0.69796767  0.73903366  0.27075609  1
  N  N22  1  0.80203233  0.23903366  0.77075609  1
  N  N23  1  0.19796767  0.76096634  0.22924391  1
  N  N24  1  0.49423142  0.14581211  0.94556148  1
  N  N25  1  0.50576858  0.85418789  0.05443852  1
  N  N26  1  0.99423142  0.35418789  0.55443852  1
  N  N27  1  0.00576858  0.64581211  0.44556148  1
  N  N28  1  0.12741122  0.40016203  0.93571022  1
  N  N29  1  0.87258878  0.59983797  0.06428978  1
  N  N30  1  0.62741122  0.09983797  0.56428978  1
  N  N31  1  0.37258878  0.90016203  0.43571022  1
  N  N32  1  0.11513764  0.92706678  0.60663759  1
  N  N33  1  0.88486236  0.07293322  0.39336241  1
  N  N34  1  0.61513764  0.57293322  0.89336241  1
  N  N35  1  0.38486236  0.42706678  0.10663759  1
  N  N36  1  0.00630773  0.94776988  0.90240620  1
  N  N37  1  0.99369227  0.05223012  0.09759380  1
  N  N38  1  0.50630773  0.55223012  0.59759380  1
  N  N39  1  0.49369227  0.44776988  0.40240620  1
  O  O40  1  0.39691025  0.15318108  0.70089259  1
  O  O41  1  0.60308975  0.84681892  0.29910741  1
  O  O42  1  0.89691025  0.34681892  0.79910741  1
  O  O43  1  0.10308975  0.65318108  0.20089259  1
  O  O44  1  0.52538263  0.09218268  0.89621577  1
  O  O45  1  0.47461737  0.90781732  0.10378423  1
  O  O46  1  0.02538263  0.40781732  0.60378423  1
  O  O47  1  0.97461737  0.59218268  0.39621577  1
  O  O48  1  0.60968825  0.24698206  0.96749100  1
  O  O49  1  0.39031175  0.75301794  0.03250900  1
  O  O50  1  0.10968825  0.25301794  0.53250900  1
  O  O51  1  0.89031175  0.74698206  0.46749100  1
  O  O52  1  0.30026849  0.26890742  0.78002441  1
  O  O53  1  0.69973151  0.73109258  0.21997559  1
  O  O54  1  0.80026849  0.23109258  0.71997559  1
  O  O55  1  0.19973151  0.76890742  0.28002441  1
  O  O56  1  0.26323167  0.45671320  0.95760664  1
  O  O57  1  0.73676833  0.54328680  0.04239336  1
  O  O58  1  0.76323167  0.04328680  0.54239336  1
  O  O59  1  0.23676833  0.95671320  0.45760664  1
  O  O60  1  0.04795066  0.05932507  0.86712050  1
  O  O61  1  0.95204934  0.94067493  0.13287950  1
  O  O62  1  0.54795066  0.44067493  0.63287950  1
  O  O63  1  0.45204934  0.55932507  0.36712050  1
  O  O64  1  0.35882008  0.10201504  0.97099708  1
  O  O65  1  0.64117992  0.89798496  0.02900292  1
  O  O66  1  0.85882008  0.39798496  0.52900292  1
  O  O67  1  0.14117992  0.60201504  0.47099708  1
  O  O68  1  0.29624489  0.75459971  0.71328816  1
  O  O69  1  0.70375511  0.24540029  0.28671184  1
  O  O70  1  0.79624489  0.74540029  0.78671184  1
  O  O71  1  0.20375511  0.25459971  0.21328816  1
  O  O72  1  0.63915887  0.47434526  0.42924090  1
  O  O73  1  0.36084113  0.52565474  0.57075910  1
  O  O74  1  0.13915887  0.02565474  0.07075910  1
  O  O75  1  0.86084113  0.97434526  0.92924090  1
  O  O76  1  0.03352835  0.79116597  0.59922133  1
  O  O77  1  0.96647165  0.20883403  0.40077867  1
  O  O78  1  0.53352835  0.70883403  0.90077867  1
  O  O79  1  0.46647165  0.29116597  0.09922133  1
  O  O80  1  0.01972013  0.30280446  0.96418105  1
  O  O81  1  0.98027987  0.69719554  0.03581895  1
  O  O82  1  0.51972013  0.19719554  0.53581895  1
  O  O83  1  0.48027987  0.80280446  0.46418105  1
  O  O84  1  0.08165905  0.42694221  0.88634925  1
  O  O85  1  0.91834095  0.57305779  0.11365075  1
  O  O86  1  0.58165905  0.07305779  0.61365075  1
  O  O87  1  0.41834095  0.92694221  0.38634925  1
  O  O88  1  0.20817847  0.36089697  0.69887726  1
  O  O89  1  0.79182153  0.63910303  0.30112274  1
  O  O90  1  0.70817847  0.13910303  0.80112274  1
  O  O91  1  0.29182153  0.86089697  0.19887726  1
  O  O92  1  0.59782767  0.67978367  0.58814510  1
  O  O93  1  0.40217233  0.32021633  0.41185490  1
  O  O94  1  0.09782767  0.82021633  0.91185490  1
  O  O95  1  0.90217233  0.17978367  0.08814510  1
  O  O96  1  0.06426325  0.04968011  0.63780336  1
  O  O97  1  0.93573675  0.95031989  0.36219664  1
  O  O98  1  0.56426325  0.45031989  0.86219664  1
  O  O99  1  0.43573675  0.54968011  0.13780336  1
  O  O100  1  0.26287124  0.94935831  0.58074139  1
  O  O101  1  0.73712876  0.05064169  0.41925861  1
  O  O102  1  0.76287124  0.55064169  0.91925861  1
  O  O103  1  0.23712876  0.44935831  0.08074139  1
  O  O104  1  0.39159964  0.87693759  0.79118026  1
  O  O105  1  0.60840036  0.12306241  0.20881974  1
  O  O106  1  0.89159964  0.62306241  0.70881974  1
  O  O107  1  0.10840036  0.37693759  0.29118026  1
  O  O108  1  0.70818299  0.83538079  0.70476831  1
  O  O109  1  0.29181701  0.16461921  0.29523169  1
  O  O110  1  0.20818299  0.66461921  0.79523169  1
  O  O111  1  0.79181701  0.33538079  0.20476831  1
