# generated using pymatgen
data_Na2Ge2Se5
_symmetry_space_group_name_H-M   'P 1'
_cell_length_a   6.19714026
_cell_length_b   11.21003368
_cell_length_c   14.08299227
_cell_angle_alpha   90.00000000
_cell_angle_beta   90.00000000
_cell_angle_gamma   90.00000000
_symmetry_Int_Tables_number   1
_chemical_formula_structural   Na2Ge2Se5
_chemical_formula_sum   'Na8 Ge8 Se20'
_cell_volume   978.34760001
_cell_formula_units_Z   4
loop_
 _symmetry_equiv_pos_site_id
 _symmetry_equiv_pos_as_xyz
  1  'x, y, z'
loop_
 _atom_site_type_symbol
 _atom_site_label
 _atom_site_symmetry_multiplicity
 _atom_site_fract_x
 _atom_site_fract_y
 _atom_site_fract_z
 _atom_site_occupancy
  Na  Na0  1  0.99105922  0.49421929  0.05776562  1
  Na  Na1  1  0.00894078  0.99421929  0.94223438  1
  Na  Na2  1  0.50894078  0.49421929  0.55776562  1
  Na  Na3  1  0.49105922  0.99421929  0.44223438  1
  Na  Na4  1  0.99948994  0.24893346  0.46239536  1
  Na  Na5  1  0.00051006  0.74893346  0.53760464  1
  Na  Na6  1  0.50051006  0.24893346  0.96239536  1
  Na  Na7  1  0.49948994  0.74893346  0.03760464  1
  Ge  Ge8  1  0.53395516  0.39362137  0.20567572  1
  Ge  Ge9  1  0.46604484  0.89362137  0.79432428  1
  Ge  Ge10  1  0.96604484  0.39362137  0.70567572  1
  Ge  Ge11  1  0.03395516  0.89362137  0.29432428  1
  Ge  Ge12  1  0.04149021  0.20131649  0.15468397  1
  Ge  Ge13  1  0.95850979  0.70131649  0.84531603  1
  Ge  Ge14  1  0.45850979  0.20131649  0.65468397  1
  Ge  Ge15  1  0.54149021  0.70131649  0.34531603  1
  Se  Se16  1  0.39426689  0.50462242  0.33664277  1
  Se  Se17  1  0.60573311  0.00462242  0.66335723  1
  Se  Se18  1  0.10573311  0.50462242  0.83664277  1
  Se  Se19  1  0.89426689  0.00462242  0.16335723  1
  Se  Se20  1  0.90111896  0.69255124  0.28525639  1
  Se  Se21  1  0.09888104  0.19255124  0.71474361  1
  Se  Se22  1  0.59888104  0.69255124  0.78525639  1
  Se  Se23  1  0.40111896  0.19255124  0.21474361  1
  Se  Se24  1  0.39861741  0.85394279  0.24318697  1
  Se  Se25  1  0.60138259  0.35394279  0.75681303  1
  Se  Se26  1  0.10138259  0.85394279  0.74318697  1
  Se  Se27  1  0.89861741  0.35394279  0.25681303  1
  Se  Se28  1  0.50051706  0.74470366  0.50341401  1
  Se  Se29  1  0.49948294  0.24470366  0.49658599  1
  Se  Se30  1  0.99948294  0.74470366  0.00341401  1
  Se  Se31  1  0.00051706  0.24470366  0.99658599  1
  Se  Se32  1  0.49616785  0.48328928  0.06082389  1
  Se  Se33  1  0.50383215  0.98328928  0.93917611  1
  Se  Se34  1  0.00383215  0.48328928  0.56082389  1
  Se  Se35  1  0.99616785  0.98328928  0.43917611  1
