# generated using pymatgen
data_Dy6Mg(Sb5O12)2
_symmetry_space_group_name_H-M   'P 1'
_cell_length_a   9.33210524
_cell_length_b   9.41413939
_cell_length_c   9.41413939
_cell_angle_alpha   108.29600115
_cell_angle_beta   109.11074367
_cell_angle_gamma   109.11074367
_symmetry_Int_Tables_number   1
_chemical_formula_structural   Dy6Mg(Sb5O12)2
_chemical_formula_sum   'Dy6 Mg1 Sb10 O24'
_cell_volume   651.11652007
_cell_formula_units_Z   1
loop_
 _symmetry_equiv_pos_site_id
 _symmetry_equiv_pos_as_xyz
  1  'x, y, z'
loop_
 _atom_site_type_symbol
 _atom_site_label
 _atom_site_symmetry_multiplicity
 _atom_site_fract_x
 _atom_site_fract_y
 _atom_site_fract_z
 _atom_site_occupancy
  Dy  Dy0  1  0.75036254  0.25854556  0.50960106  1
  Dy  Dy1  1  0.75036254  0.50960106  0.25854556  1
  Dy  Dy2  1  0.50478154  0.26687097  0.75290527  1
  Dy  Dy3  1  0.50478154  0.75290527  0.26687097  1
  Dy  Dy4  1  0.26839382  0.75819221  0.51281667  1
  Dy  Dy5  1  0.26839382  0.51281667  0.75819221  1
  Mg  Mg6  1  0.67301916  0.69896532  0.69896532  1
  Sb  Sb7  1  0.52434538  0.01182344  0.01182344  1
  Sb  Sb8  1  0.27167609  0.99399495  0.28234001  1
  Sb  Sb9  1  0.27167609  0.28234001  0.99399495  1
  Sb  Sb10  1  0.75384596  0.05230951  0.76101880  1
  Sb  Sb11  1  0.75384596  0.76101880  0.05230951  1
  Sb  Sb12  1  0.99897684  0.52929895  0.00400981  1
  Sb  Sb13  1  0.99897684  0.00400981  0.52929895  1
  Sb  Sb14  1  0.42244704  0.42038752  0.42038752  1
  Sb  Sb15  1  0.98968286  0.28407370  0.28407370  1
  Sb  Sb16  1  0.03204234  0.73141112  0.73141112  1
  O  O17  1  0.47004730  0.99325191  0.19821153  1
  O  O18  1  0.47004730  0.19821153  0.99325191  1
  O  O19  1  0.70579712  0.52325506  0.00622844  1
  O  O20  1  0.70579712  0.00622844  0.52325506  1
  O  O21  1  0.78383729  0.29602000  0.29602000  1
  O  O22  1  0.48444168  0.48738990  0.19258131  1
  O  O23  1  0.48444168  0.19258131  0.48738990  1
  O  O24  1  0.51524495  0.71465295  0.01108272  1
  O  O25  1  0.51524495  0.01108272  0.71465295  1
  O  O26  1  0.68330945  0.50791056  0.50791056  1
  O  O27  1  0.78920653  0.31066880  0.79549973  1
  O  O28  1  0.78920653  0.79549973  0.31066880  1
  O  O29  1  0.19553542  0.48194934  0.99810205  1
  O  O30  1  0.19553542  0.99810205  0.48194934  1
  O  O31  1  0.47842631  0.67018049  0.48466746  1
  O  O32  1  0.47842631  0.48466746  0.67018049  1
  O  O33  1  0.98098024  0.47149835  0.18881034  1
  O  O34  1  0.98098024  0.18881034  0.47149835  1
  O  O35  1  0.29121551  0.79585287  0.29949370  1
  O  O36  1  0.29121551  0.29949370  0.79585287  1
  O  O37  1  0.18164606  0.49294796  0.49294796  1
  O  O38  1  0.00379543  0.70232261  0.50615053  1
  O  O39  1  0.00379543  0.50615053  0.70232261  1
  O  O40  1  0.29135890  0.80342051  0.80342051  1
