# generated using pymatgen
data_CaY4(BiO3)4
_symmetry_space_group_name_H-M   'P 1'
_cell_length_a   6.76808691
_cell_length_b   6.34332941
_cell_length_c   8.11888700
_cell_angle_alpha   90.00008613
_cell_angle_beta   89.99994555
_cell_angle_gamma   92.19649340
_symmetry_Int_Tables_number   1
_chemical_formula_structural   CaY4(BiO3)4
_chemical_formula_sum   'Ca1 Y4 Bi4 O12'
_cell_volume   348.30561820
_cell_formula_units_Z   1
loop_
 _symmetry_equiv_pos_site_id
 _symmetry_equiv_pos_as_xyz
  1  'x, y, z'
loop_
 _atom_site_type_symbol
 _atom_site_label
 _atom_site_symmetry_multiplicity
 _atom_site_fract_x
 _atom_site_fract_y
 _atom_site_fract_z
 _atom_site_occupancy
  Ca  Ca0  1  0.82508200  0.56290000  0.25000000  1
  Y  Y1  1  0.97266400  0.97566700  0.75000100  1
  Y  Y2  1  0.39422900  0.52944600  0.25000000  1
  Y  Y3  1  0.54490700  0.48710200  0.75000000  1
  Y  Y4  1  0.06145900  0.03547700  0.24999900  1
  Bi  Bi5  1  0.05420800  0.44931500  0.56851600  1
  Bi  Bi6  1  0.54546100  0.02051200  0.49025900  1
  Bi  Bi7  1  0.54546100  0.02051200  0.00974100  1
  Bi  Bi8  1  0.05420800  0.44931500  0.93148400  1
  O  O9  1  0.61008500  0.34919600  0.41936700  1
  O  O10  1  0.15186400  0.11779300  0.53774600  1
  O  O11  1  0.82105300  0.87812900  0.08224500  1
  O  O12  1  0.34290400  0.61413800  0.95249700  1
  O  O13  1  0.34290500  0.61413700  0.54750300  1
  O  O14  1  0.82105200  0.87812900  0.41775500  1
  O  O15  1  0.15186300  0.11779200  0.96225400  1
  O  O16  1  0.61008500  0.34919600  0.08063300  1
  O  O17  1  0.10977500  0.38242200  0.25000100  1
  O  O18  1  0.71147300  0.17257900  0.75000000  1
  O  O19  1  0.37249600  0.89760900  0.25000000  1
  O  O20  1  0.81092900  0.67155400  0.75000000  1
