# generated using pymatgen
data_CaLa2Co2Sb2(PbO6)2
_symmetry_space_group_name_H-M   'P 1'
_cell_length_a   5.88230725
_cell_length_b   5.79348092
_cell_length_c   9.10300405
_cell_angle_alpha   89.19307235
_cell_angle_beta   84.54048735
_cell_angle_gamma   93.95967124
_symmetry_Int_Tables_number   1
_chemical_formula_structural   CaLa2Co2Sb2(PbO6)2
_chemical_formula_sum   'Ca1 La2 Co2 Sb2 Pb2 O12'
_cell_volume   308.01052698
_cell_formula_units_Z   1
loop_
 _symmetry_equiv_pos_site_id
 _symmetry_equiv_pos_as_xyz
  1  'x, y, z'
loop_
 _atom_site_type_symbol
 _atom_site_label
 _atom_site_symmetry_multiplicity
 _atom_site_fract_x
 _atom_site_fract_y
 _atom_site_fract_z
 _atom_site_occupancy
  Ca  Ca0  1  0.15201900  0.44322800  0.55245100  1
  La  La1  1  0.55589200  0.43479300  0.79982500  1
  La  La2  1  0.08565500  0.03865400  0.24617800  1
  Co  Co3  1  0.77795600  0.56559500  0.42361600  1
  Co  Co4  1  0.52420000  0.98851600  0.00820300  1
  Sb  Sb5  1  0.02304500  0.49962300  0.00906900  1
  Sb  Sb6  1  0.52384800  0.00842500  0.50111400  1
  Pb  Pb7  1  0.48300700  0.57177700  0.21540100  1
  Pb  Pb8  1  0.98272600  0.94803400  0.77285400  1
  O  O9  1  0.72073800  0.89967800  0.32774900  1
  O  O10  1  0.13029100  0.54660500  0.79271300  1
  O  O11  1  0.34845400  0.13700400  0.67737900  1
  O  O12  1  0.95458800  0.44721600  0.23137500  1
  O  O13  1  0.25785600  0.79762700  0.43923200  1
  O  O14  1  0.75262100  0.68799900  0.97525100  1
  O  O15  1  0.78325200  0.24589800  0.55106000  1
  O  O16  1  0.29334400  0.30389600  0.02463700  1
  O  O17  1  0.36903600  0.24159700  0.38194500  1
  O  O18  1  0.80910000  0.21760300  0.96047500  1
  O  O19  1  0.63846400  0.73349900  0.61020300  1
  O  O20  1  0.21485900  0.80523500  0.04093600  1
