# generated using pymatgen
data_Er3Ga5O12
_symmetry_space_group_name_H-M   'P 1'
_cell_length_a   10.58208774
_cell_length_b   10.58208704
_cell_length_c   10.58208773
_cell_angle_alpha   109.47112718
_cell_angle_beta   109.47113131
_cell_angle_gamma   109.47112828
_symmetry_Int_Tables_number   1
_chemical_formula_structural   Er3Ga5O12
_chemical_formula_sum   'Er12 Ga20 O48'
_cell_volume   912.20747908
_cell_formula_units_Z   4
loop_
 _symmetry_equiv_pos_site_id
 _symmetry_equiv_pos_as_xyz
  1  'x, y, z'
loop_
 _atom_site_type_symbol
 _atom_site_label
 _atom_site_symmetry_multiplicity
 _atom_site_fract_x
 _atom_site_fract_y
 _atom_site_fract_z
 _atom_site_occupancy
  Er  Er0  1  0.87499980  0.62500034  0.25000007  1
  Er  Er1  1  0.62500011  0.25000007  0.87499972  1
  Er  Er2  1  0.87500020  0.74999997  0.62499992  1
  Er  Er3  1  0.74999996  0.62499996  0.87500003  1
  Er  Er4  1  0.24999989  0.87499979  0.62500039  1
  Er  Er5  1  0.62499999  0.87500021  0.75000019  1
  Er  Er6  1  0.12500012  0.37499976  0.74999990  1
  Er  Er7  1  0.37499965  0.74999986  0.12500025  1
  Er  Er8  1  0.12499973  0.25000007  0.37500013  1
  Er  Er9  1  0.25000005  0.37500026  0.12500007  1
  Er  Er10  1  0.75000012  0.12500028  0.37499979  1
  Er  Er11  1  0.37500020  0.12499995  0.25000017  1
  Ga  Ga12  1  0.12499875  0.87499906  0.24999914  1
  Ga  Ga13  1  0.87500128  0.12500107  0.75000078  1
  Ga  Ga14  1  0.25000076  0.62500120  0.37500147  1
  Ga  Ga15  1  0.37500105  0.25000066  0.62500089  1
  Ga  Ga16  1  0.75000087  0.87500143  0.12500124  1
  Ga  Ga17  1  0.12500112  0.75000078  0.87500121  1
  Ga  Ga18  1  0.37499881  0.62499860  0.74999913  1
  Ga  Ga19  1  0.62499870  0.74999910  0.37499898  1
  Ga  Ga20  1  0.87499915  0.24999926  0.12499876  1
  Ga  Ga21  1  0.24999915  0.12499894  0.87499910  1
  Ga  Ga22  1  0.74999917  0.37499913  0.62499885  1
  Ga  Ga23  1  0.62500118  0.37500138  0.25000085  1
  Ga  Ga24  1  0.50000001  0.50000001  0.50000005  1
  Ga  Ga25  1  0.50000000  -0.00000002  0.49999998  1
  Ga  Ga26  1  -0.00000008  0.49999993  0.49999998  1
  Ga  Ga27  1  0.50000005  0.50000002  -0.00000009  1
  Ga  Ga28  1  -0.00000004  -0.00000001  0.49999998  1
  Ga  Ga29  1  0.00000007  0.50000009  0.00000006  1
  Ga  Ga30  1  0.49999998  -0.00000002  -0.00000001  1
  Ga  Ga31  1  0.00000000  -0.00000010  -0.00000002  1
  O  O32  1  0.46996885  0.37642507  0.29290100  1
  O  O33  1  0.32293192  0.90645566  0.03003077  1
  O  O34  1  0.59354375  0.91647652  0.12357533  1
  O  O35  1  0.58352363  0.17706771  0.20709964  1
  O  O36  1  0.12357492  0.03003120  0.20709901  1
  O  O37  1  0.17706758  0.20709973  0.58352354  1
  O  O38  1  0.17706815  0.46996948  0.59354448  1
  O  O39  1  0.20709974  0.58352337  0.17706754  1
  O  O40  1  0.37642464  0.58352348  0.90645604  1
  O  O41  1  0.91647673  0.29290014  0.32293259  1
  O  O42  1  0.29290028  0.32293247  0.91647650  1
  O  O43  1  0.20709895  0.12357496  0.03003123  1
  O  O44  1  0.46996942  0.59354442  0.17706827  1
  O  O45  1  0.90645623  0.37642450  0.58352355  1
  O  O46  1  0.03003122  0.20709906  0.12357484  1
  O  O47  1  0.59354419  0.17706808  0.46996913  1
  O  O48  1  0.58352327  0.90645615  0.37642432  1
  O  O49  1  0.03003077  0.32293185  0.90645558  1
  O  O50  1  0.91647654  0.12357539  0.59354388  1
  O  O51  1  0.62357537  0.41647640  0.09354387  1
  O  O52  1  0.12357547  0.59354382  0.91647647  1
  O  O53  1  0.29290084  0.46996851  0.37642483  1
  O  O54  1  0.90645571  0.03003073  0.32293185  1
  O  O55  1  0.32293225  0.91647641  0.29290041  1
  O  O56  1  0.53003121  0.62357489  0.70709902  1
  O  O57  1  0.67706802  0.09354419  0.96996928  1
  O  O58  1  0.40645606  0.08352329  0.87642435  1
  O  O59  1  0.41647635  0.82293227  0.79290037  1
  O  O60  1  0.87642500  0.96996868  0.79290087  1
  O  O61  1  0.82293250  0.79290021  0.41647646  1
  O  O62  1  0.82293184  0.53003065  0.40645561  1
  O  O63  1  0.79290036  0.41647652  0.82293245  1
  O  O64  1  0.67706768  0.08352362  0.70709959  1
  O  O65  1  0.09354446  0.96996902  0.67706804  1
  O  O66  1  0.70709915  0.53003135  0.62357497  1
  O  O67  1  0.62357509  0.70709905  0.53003142  1
  O  O68  1  0.87642458  0.40645626  0.08352354  1
  O  O69  1  0.08352354  0.87642469  0.40645610  1
  O  O70  1  0.96996947  0.67706818  0.09354441  1
  O  O71  1  0.41647643  0.09354386  0.62357526  1
  O  O72  1  0.40645568  0.82293207  0.53003086  1
  O  O73  1  0.96996830  0.79290077  0.87642469  1
  O  O74  1  0.09354375  0.62357550  0.41647657  1
  O  O75  1  0.53003096  0.40645571  0.82293199  1
  O  O76  1  0.79290090  0.87642499  0.96996863  1
  O  O77  1  0.70709991  0.67706759  0.08352360  1
  O  O78  1  0.08352360  0.70709969  0.67706769  1
  O  O79  1  0.37642493  0.29290085  0.46996864  1
