# generated using pymatgen
data_Lu2(MoO4)3
_symmetry_space_group_name_H-M   'P 1'
_cell_length_a   9.81993324
_cell_length_b   9.91335899
_cell_length_c   13.62708256
_cell_angle_alpha   90.00000000
_cell_angle_beta   90.00000000
_cell_angle_gamma   90.00000000
_symmetry_Int_Tables_number   1
_chemical_formula_structural   Lu2(MoO4)3
_chemical_formula_sum   'Lu8 Mo12 O48'
_cell_volume   1326.57636636
_cell_formula_units_Z   4
loop_
 _symmetry_equiv_pos_site_id
 _symmetry_equiv_pos_as_xyz
  1  'x, y, z'
loop_
 _atom_site_type_symbol
 _atom_site_label
 _atom_site_symmetry_multiplicity
 _atom_site_fract_x
 _atom_site_fract_y
 _atom_site_fract_z
 _atom_site_occupancy
  Lu  Lu0  1  0.25080705  0.46622835  0.11892644  1
  Lu  Lu1  1  0.74919295  0.53377165  0.88107356  1
  Lu  Lu2  1  0.24919295  0.96622835  0.38107356  1
  Lu  Lu3  1  0.25080705  0.03377165  0.88107356  1
  Lu  Lu4  1  0.75080705  0.03377165  0.61892644  1
  Lu  Lu5  1  0.74919295  0.96622835  0.11892644  1
  Lu  Lu6  1  0.24919295  0.53377165  0.61892644  1
  Lu  Lu7  1  0.75080705  0.46622835  0.38107356  1
  Mo  Mo8  1  0.52640582  0.25000000  0.00000000  1
  Mo  Mo9  1  0.47359418  0.75000000  0.00000000  1
  Mo  Mo10  1  0.97359418  0.75000000  0.50000000  1
  Mo  Mo11  1  0.02640582  0.25000000  0.50000000  1
  Mo  Mo12  1  0.10468621  0.11759929  0.14396769  1
  Mo  Mo13  1  0.89531379  0.88240071  0.85603231  1
  Mo  Mo14  1  0.39531379  0.61759929  0.35603231  1
  Mo  Mo15  1  0.10468621  0.38240071  0.85603231  1
  Mo  Mo16  1  0.60468621  0.38240071  0.64396769  1
  Mo  Mo17  1  0.89531379  0.61759929  0.14396769  1
  Mo  Mo18  1  0.39531379  0.88240071  0.64396769  1
  Mo  Mo19  1  0.60468621  0.11759929  0.35603231  1
  O  O20  1  0.17512518  0.07415132  0.02959316  1
  O  O21  1  0.82487482  0.92584868  0.97040684  1
  O  O22  1  0.32487482  0.57415132  0.47040684  1
  O  O23  1  0.17512518  0.42584868  0.97040684  1
  O  O24  1  0.67512518  0.42584868  0.52959316  1
  O  O25  1  0.82487482  0.57415132  0.02959316  1
  O  O26  1  0.32487482  0.92584868  0.52959316  1
  O  O27  1  0.67512518  0.07415132  0.47040684  1
  O  O28  1  0.17748302  0.01546072  0.23576837  1
  O  O29  1  0.82251698  0.98453928  0.76423163  1
  O  O30  1  0.32251698  0.51546072  0.26423163  1
  O  O31  1  0.17748302  0.48453928  0.76423163  1
  O  O32  1  0.67748302  0.48453928  0.73576837  1
  O  O33  1  0.82251698  0.51546072  0.23576837  1
  O  O34  1  0.32251698  0.98453928  0.73576837  1
  O  O35  1  0.67748302  0.01546072  0.26423163  1
  O  O36  1  0.12952495  0.13189871  0.43866537  1
  O  O37  1  0.87047505  0.86810129  0.56133463  1
  O  O38  1  0.37047505  0.63189871  0.06133463  1
  O  O39  1  0.12952495  0.36810129  0.56133463  1
  O  O40  1  0.62952495  0.36810129  0.93866537  1
  O  O41  1  0.87047505  0.63189871  0.43866537  1
  O  O42  1  0.37047505  0.86810129  0.93866537  1
  O  O43  1  0.62952495  0.13189871  0.06133463  1
  O  O44  1  0.13888840  0.28882351  0.16817311  1
  O  O45  1  0.86111160  0.71117649  0.83182689  1
  O  O46  1  0.36111160  0.78882351  0.33182689  1
  O  O47  1  0.13888840  0.21117649  0.83182689  1
  O  O48  1  0.63888840  0.21117649  0.66817311  1
  O  O49  1  0.86111160  0.78882351  0.16817311  1
  O  O50  1  0.36111160  0.71117649  0.66817311  1
  O  O51  1  0.63888840  0.28882351  0.33182689  1
  O  O52  1  0.42227649  0.33328975  0.08598295  1
  O  O53  1  0.57772351  0.66671025  0.91401705  1
  O  O54  1  0.07772351  0.83328975  0.41401705  1
  O  O55  1  0.42227649  0.16671025  0.91401705  1
  O  O56  1  0.92227649  0.16671025  0.58598295  1
  O  O57  1  0.57772351  0.83328975  0.08598295  1
  O  O58  1  0.07772351  0.66671025  0.58598295  1
  O  O59  1  0.92227649  0.33328975  0.41401705  1
  O  O60  1  0.42728207  0.09205590  0.35882626  1
  O  O61  1  0.57271793  0.90794410  0.64117374  1
  O  O62  1  0.07271793  0.59205590  0.14117374  1
  O  O63  1  0.42728207  0.40794410  0.64117374  1
  O  O64  1  0.92728207  0.40794410  0.85882626  1
  O  O65  1  0.57271793  0.59205590  0.35882626  1
  O  O66  1  0.07271793  0.90794410  0.85882626  1
  O  O67  1  0.92728207  0.09205590  0.14117374  1
