# generated using pymatgen
data_Mg6BCO8
_symmetry_space_group_name_H-M   'P 1'
_cell_length_a   8.31524611
_cell_length_b   4.23620933
_cell_length_c   4.23620933
_cell_angle_alpha   90.00000000
_cell_angle_beta   90.00000000
_cell_angle_gamma   90.00000000
_symmetry_Int_Tables_number   1
_chemical_formula_structural   Mg6BCO8
_chemical_formula_sum   'Mg6 B1 C1 O8'
_cell_volume   149.22099535
_cell_formula_units_Z   1
loop_
 _symmetry_equiv_pos_site_id
 _symmetry_equiv_pos_as_xyz
  1  'x, y, z'
loop_
 _atom_site_type_symbol
 _atom_site_label
 _atom_site_symmetry_multiplicity
 _atom_site_fract_x
 _atom_site_fract_y
 _atom_site_fract_z
 _atom_site_occupancy
  Mg  Mg0  1  0.00000000  0.50000000  0.50000000  1
  Mg  Mg1  1  0.50000000  0.50000000  0.50000000  1
  Mg  Mg2  1  0.24350763  0.00000000  0.50000000  1
  Mg  Mg3  1  0.75649237  -0.00000000  0.50000000  1
  Mg  Mg4  1  0.24350763  0.50000000  -0.00000000  1
  Mg  Mg5  1  0.75649237  0.50000000  0.00000000  1
  B  B6  1  -0.00000000  0.00000000  -0.00000000  1
  C  C7  1  0.50000000  -0.00000000  -0.00000000  1
  O  O8  1  0.17141215  -0.00000000  0.00000000  1
  O  O9  1  0.82858785  0.00000000  -0.00000000  1
  O  O10  1  0.25310513  0.50000000  0.50000000  1
  O  O11  1  0.74689487  0.50000000  0.50000000  1
  O  O12  1  -0.00000000  0.00000000  0.50000000  1
  O  O13  1  0.50000000  0.00000000  0.50000000  1
  O  O14  1  -0.00000000  0.50000000  -0.00000000  1
  O  O15  1  0.50000000  0.50000000  -0.00000000  1
