# generated using pymatgen
data_Na5SrTaP4
_symmetry_space_group_name_H-M   'P 1'
_cell_length_a   9.27545768
_cell_length_b   9.27545768
_cell_length_c   7.34801931
_cell_angle_alpha   90.06249096
_cell_angle_beta   90.06249096
_cell_angle_gamma   119.88959534
_symmetry_Int_Tables_number   1
_chemical_formula_structural   Na5SrTaP4
_chemical_formula_sum   'Na10 Sr2 Ta2 P8'
_cell_volume   548.09099993
_cell_formula_units_Z   2
loop_
 _symmetry_equiv_pos_site_id
 _symmetry_equiv_pos_as_xyz
  1  'x, y, z'
loop_
 _atom_site_type_symbol
 _atom_site_label
 _atom_site_symmetry_multiplicity
 _atom_site_fract_x
 _atom_site_fract_y
 _atom_site_fract_z
 _atom_site_occupancy
  Na  Na0  1  0.53899039  0.47314977  0.61211438  1
  Na  Na1  1  0.93424990  0.47153118  0.61151108  1
  Na  Na2  1  0.47314977  0.53899039  0.11211438  1
  Na  Na3  1  0.47153118  0.93424990  0.11151108  1
  Na  Na4  1  0.13529987  0.85522068  0.77919525  1
  Na  Na5  1  0.71013423  0.84694520  0.79576956  1
  Na  Na6  1  0.14803248  0.28992804  0.77030761  1
  Na  Na7  1  0.85522068  0.13529987  0.27919525  1
  Na  Na8  1  0.28992804  0.14803248  0.27030761  1
  Na  Na9  1  0.84694520  0.71013423  0.29576956  1
  Sr  Sr10  1  0.53301252  0.06276509  0.60775714  1
  Sr  Sr11  1  0.06276509  0.53301252  0.10775714  1
  Ta  Ta12  1  0.33222281  0.66144017  0.50149294  1
  Ta  Ta13  1  0.66144017  0.33222281  0.00149294  1
  P  P14  1  0.80836966  0.19454855  0.89702994  1
  P  P15  1  0.38347353  0.19150863  0.89238224  1
  P  P16  1  0.80892657  0.61489169  0.90365731  1
  P  P17  1  0.19454855  0.80836966  0.39702994  1
  P  P18  1  0.61489169  0.80892657  0.40365731  1
  P  P19  1  0.19150863  0.38347353  0.39238224  1
  P  P20  1  0.33453915  0.67081988  0.82588255  1
  P  P21  1  0.67081988  0.33453915  0.32588255  1
