# generated using pymatgen
data_La2HfS5
_symmetry_space_group_name_H-M   'P 1'
_cell_length_a   7.40986905
_cell_length_b   8.22028470
_cell_length_c   11.48751454
_cell_angle_alpha   90.00000000
_cell_angle_beta   90.00000000
_cell_angle_gamma   90.00000000
_symmetry_Int_Tables_number   1
_chemical_formula_structural   La2HfS5
_chemical_formula_sum   'La8 Hf4 S20'
_cell_volume   699.71867681
_cell_formula_units_Z   4
loop_
 _symmetry_equiv_pos_site_id
 _symmetry_equiv_pos_as_xyz
  1  'x, y, z'
loop_
 _atom_site_type_symbol
 _atom_site_label
 _atom_site_symmetry_multiplicity
 _atom_site_fract_x
 _atom_site_fract_y
 _atom_site_fract_z
 _atom_site_occupancy
  La  La0  1  0.56233805  0.99799711  0.32969726  1
  La  La1  1  0.93766195  0.50200289  0.82969726  1
  La  La2  1  0.43766195  0.49799711  0.67030274  1
  La  La3  1  0.06233805  0.00200289  0.17030274  1
  La  La4  1  0.43766195  0.00200289  0.67030274  1
  La  La5  1  0.06233805  0.49799711  0.17030274  1
  La  La6  1  0.56233805  0.50200289  0.32969726  1
  La  La7  1  0.93766195  0.99799711  0.82969726  1
  Hf  Hf8  1  0.07012195  0.75000000  0.49100470  1
  Hf  Hf9  1  0.42987805  0.75000000  0.99100470  1
  Hf  Hf10  1  0.92987805  0.25000000  0.50899530  1
  Hf  Hf11  1  0.57012195  0.25000000  0.00899530  1
  S  S12  1  0.82239529  0.53356251  0.57073045  1
  S  S13  1  0.67760471  0.96643749  0.07073045  1
  S  S14  1  0.17760471  0.03356251  0.42926955  1
  S  S15  1  0.32239529  0.46643749  0.92926955  1
  S  S16  1  0.17760471  0.46643749  0.42926955  1
  S  S17  1  0.32239529  0.03356251  0.92926955  1
  S  S18  1  0.82239529  0.96643749  0.57073045  1
  S  S19  1  0.67760471  0.53356251  0.07073045  1
  S  S20  1  0.86628948  0.75000000  0.30765460  1
  S  S21  1  0.63371052  0.75000000  0.80765460  1
  S  S22  1  0.13371052  0.25000000  0.69234540  1
  S  S23  1  0.36628948  0.25000000  0.19234540  1
  S  S24  1  0.43815452  0.75000000  0.49461747  1
  S  S25  1  0.06184548  0.75000000  0.99461747  1
  S  S26  1  0.56184548  0.25000000  0.50538253  1
  S  S27  1  0.93815452  0.25000000  0.00538253  1
  S  S28  1  0.15452397  0.75000000  0.70635268  1
  S  S29  1  0.34547603  0.75000000  0.20635268  1
  S  S30  1  0.84547603  0.25000000  0.29364732  1
  S  S31  1  0.65452397  0.25000000  0.79364732  1
