# generated using pymatgen
data_Na2SrMg(PO4)2
_symmetry_space_group_name_H-M   'P 1'
_cell_length_a   5.24764277
_cell_length_b   9.15184237
_cell_length_c   13.40775753
_cell_angle_alpha   90.03851440
_cell_angle_beta   90.00000000
_cell_angle_gamma   90.00000000
_symmetry_Int_Tables_number   1
_chemical_formula_structural   Na2SrMg(PO4)2
_chemical_formula_sum   'Na8 Sr4 Mg4 P8 O32'
_cell_volume   643.91544737
_cell_formula_units_Z   4
loop_
 _symmetry_equiv_pos_site_id
 _symmetry_equiv_pos_as_xyz
  1  'x, y, z'
loop_
 _atom_site_type_symbol
 _atom_site_label
 _atom_site_symmetry_multiplicity
 _atom_site_fract_x
 _atom_site_fract_y
 _atom_site_fract_z
 _atom_site_occupancy
  Na  Na0  1  0.98623035  0.67629522  0.08773369  1
  Na  Na1  1  0.48623035  0.82370478  0.91226631  1
  Na  Na2  1  0.01376965  0.32370478  0.91226631  1
  Na  Na3  1  0.51376965  0.17629522  0.08773369  1
  Na  Na4  1  0.98836471  0.65532434  0.58774761  1
  Na  Na5  1  0.48836471  0.84467566  0.41225239  1
  Na  Na6  1  0.01163529  0.34467566  0.41225239  1
  Na  Na7  1  0.51163529  0.15532434  0.58774761  1
  Sr  Sr8  1  0.46098201  0.53103202  0.24978204  1
  Sr  Sr9  1  0.96098201  0.96896798  0.75021796  1
  Sr  Sr10  1  0.53901799  0.46896798  0.75021796  1
  Sr  Sr11  1  0.03901799  0.03103202  0.24978204  1
  Mg  Mg12  1  0.50000000  0.50000000  0.50000000  1
  Mg  Mg13  1  0.00000000  -0.00000000  0.50000000  1
  Mg  Mg14  1  0.50000000  0.50000000  -0.00000000  1
  Mg  Mg15  1  0.00000000  -0.00000000  -0.00000000  1
  P  P16  1  0.97989040  0.67758409  0.36675997  1
  P  P17  1  0.47989040  0.82241591  0.63324003  1
  P  P18  1  0.02010960  0.32241591  0.63324003  1
  P  P19  1  0.52010960  0.17758409  0.36675997  1
  P  P20  1  0.01005264  0.65588815  0.86705571  1
  P  P21  1  0.51005264  0.84411185  0.13294429  1
  P  P22  1  0.98994736  0.34411185  0.13294429  1
  P  P23  1  0.48994736  0.15588815  0.86705571  1
  O  O24  1  0.98558104  0.64694431  0.25553151  1
  O  O25  1  0.48558104  0.85305569  0.74446849  1
  O  O26  1  0.01441896  0.35305569  0.74446849  1
  O  O27  1  0.51441896  0.14694431  0.25553151  1
  O  O28  1  0.99744226  0.84234624  0.38952433  1
  O  O29  1  0.49744226  0.65765376  0.61047567  1
  O  O30  1  0.00255774  0.15765376  0.61047567  1
  O  O31  1  0.50255774  0.34234624  0.38952433  1
  O  O32  1  0.20335492  0.59811997  0.41903777  1
  O  O33  1  0.70335492  0.90188003  0.58096223  1
  O  O34  1  0.79664508  0.40188003  0.58096223  1
  O  O35  1  0.29664508  0.09811997  0.41903777  1
  O  O36  1  0.72999324  0.61964045  0.41198396  1
  O  O37  1  0.22999324  0.88035955  0.58801604  1
  O  O38  1  0.27000676  0.38035955  0.58801604  1
  O  O39  1  0.77000676  0.11964045  0.41198396  1
  O  O40  1  0.96498118  0.67869103  0.75624783  1
  O  O41  1  0.46498118  0.82130897  0.24375217  1
  O  O42  1  0.03501882  0.32130897  0.24375217  1
  O  O43  1  0.53501882  0.17869103  0.75624783  1
  O  O44  1  0.00225982  0.80539585  0.92095407  1
  O  O45  1  0.50225982  0.69460415  0.07904593  1
  O  O46  1  0.99774018  0.19460415  0.07904593  1
  O  O47  1  0.49774018  0.30539585  0.92095407  1
  O  O48  1  0.27123506  0.58559602  0.88851862  1
  O  O49  1  0.77123506  0.91440398  0.11148138  1
  O  O50  1  0.72876494  0.41440398  0.11148138  1
  O  O51  1  0.22876494  0.08559602  0.88851862  1
  O  O52  1  0.80043677  0.55769361  0.91156905  1
  O  O53  1  0.30043677  0.94230639  0.08843095  1
  O  O54  1  0.19956323  0.44230639  0.08843095  1
  O  O55  1  0.69956323  0.05769361  0.91156905  1
