# generated using pymatgen
data_Na12DyY3H48(CO5)12
_symmetry_space_group_name_H-M   'P 1'
_cell_length_a   11.74961211
_cell_length_b   11.72903202
_cell_length_c   13.13260943
_cell_angle_alpha   63.46899013
_cell_angle_beta   63.42728422
_cell_angle_gamma   89.99698538
_symmetry_Int_Tables_number   1
_chemical_formula_structural   Na12DyY3H48(CO5)12
_chemical_formula_sum   'Na12 Dy1 Y3 H48 C12 O60'
_cell_volume   1402.33936470
_cell_formula_units_Z   1
loop_
 _symmetry_equiv_pos_site_id
 _symmetry_equiv_pos_as_xyz
  1  'x, y, z'
loop_
 _atom_site_type_symbol
 _atom_site_label
 _atom_site_symmetry_multiplicity
 _atom_site_fract_x
 _atom_site_fract_y
 _atom_site_fract_z
 _atom_site_occupancy
  Na  Na0  1  0.00925778  0.90147536  0.36202548  1
  Na  Na1  1  0.00899756  0.40156385  0.36236391  1
  Na  Na2  1  0.62870503  0.57791978  0.00926466  1
  Na  Na3  1  0.62864749  0.07828083  0.00902102  1
  Na  Na4  1  0.36208466  0.76825089  0.62870269  1
  Na  Na5  1  0.36234524  0.26856226  0.62860633  1
  Na  Na6  1  0.99067887  0.51385611  0.63791269  1
  Na  Na7  1  0.99077168  0.01368610  0.63794756  1
  Na  Na8  1  0.37131141  0.83724678  0.99074723  1
  Na  Na9  1  0.37134712  0.33746255  0.99071533  1
  Na  Na10  1  0.63785457  0.64709439  0.37142332  1
  Na  Na11  1  0.63787997  0.14692771  0.37133029  1
  Dy  Dy12  1  0.66671839  0.62007092  0.66667716  1
  Y  Y13  1  0.33330178  0.53695238  0.33333680  1
  Y  Y14  1  0.33330466  0.03695309  0.33333132  1
  Y  Y15  1  0.66670269  0.11997350  0.66662758  1
  H  H16  1  0.13803718  0.96502120  0.09640265  1
  H  H17  1  0.13796664  0.46515466  0.09663424  1
  H  H18  1  0.76543373  0.94448420  0.13792696  1
  H  H19  1  0.76555970  0.44422669  0.13801338  1
  H  H20  1  0.09651321  0.63054422  0.76553458  1
  H  H21  1  0.09660513  0.13074292  0.76543435  1
  H  H22  1  0.86160582  0.31169212  0.90352139  1
  H  H23  1  0.86192412  0.81146543  0.90360392  1
  H  H24  1  0.23486941  0.33266690  0.86158647  1
  H  H25  1  0.23447125  0.83226641  0.86197417  1
  H  H26  1  0.90346715  0.64604039  0.23485583  1
  H  H27  1  0.90354522  0.14606426  0.23443311  1
  H  H28  1  0.99851849  0.40137817  0.13176975  1
  H  H29  1  0.99852643  0.90108974  0.13175117  1
  H  H30  1  0.86973196  0.46776543  0.99849266  1
  H  H31  1  0.86970264  0.96799530  0.99846257  1
  H  H32  1  0.13186212  0.03240193  0.86966639  1
  H  H33  1  0.13186154  0.53213520  0.86967615  1
  H  H34  1  0.00104815  0.28294895  0.86828238  1
  H  H35  1  0.00146068  0.78297629  0.86825905  1
  H  H36  1  0.13055346  0.21669829  0.00107462  1
  H  H37  1  0.13030324  0.71626071  0.00148109  1
  H  H38  1  0.86826495  0.65197529  0.13057803  1
  H  H39  1  0.86818735  0.15185673  0.13030679  1
  H  H40  1  0.71466410  0.42168750  0.50226661  1
  H  H41  1  0.71474544  0.92115523  0.50270493  1
  H  H42  1  0.78304850  0.31548037  0.71468230  1
  H  H43  1  0.78252123  0.81516280  0.71476367  1
  H  H44  1  0.50234594  0.28136244  0.78305307  1
  H  H45  1  0.50280181  0.78133137  0.78253804  1
  H  H46  1  0.28519432  0.17416137  0.49781343  1
  H  H47  1  0.28521908  0.67410312  0.49778232  1
  H  H48  1  0.21693909  0.28041248  0.28527015  1
  H  H49  1  0.21702173  0.78045423  0.28510733  1
  H  H50  1  0.49780180  0.31453097  0.21701815  1
  H  H51  1  0.49772553  0.81466088  0.21690247  1
  H  H52  1  0.67587679  0.35443347  0.43287106  1
  H  H53  1  0.67536180  0.85407226  0.43367055  1
  H  H54  1  0.89127853  0.23300321  0.67584556  1
  H  H55  1  0.89099513  0.73331591  0.67531992  1
  H  H56  1  0.43293858  0.12532695  0.89121218  1
  H  H57  1  0.43374448  0.62552196  0.89096549  1
  H  H58  1  0.32404813  0.03754602  0.56709796  1
  H  H59  1  0.32426652  0.53761635  0.56711478  1
  H  H60  1  0.10880308  0.15903458  0.32406985  1
  H  H61  1  0.10860681  0.65906012  0.32428189  1
  H  H62  1  0.56711183  0.26687574  0.10868005  1
  H  H63  1  0.56709560  0.76668414  0.10885637  1
  C  C64  1  0.31985476  0.02332255  0.12406363  1
  C  C65  1  0.31976536  0.52318708  0.12423091  1
  C  C66  1  0.55602338  0.92543969  0.31977819  1
  C  C67  1  0.55602887  0.42539997  0.31989193  1
  C  C68  1  0.12420771  0.80733765  0.55598205  1
  C  C69  1  0.12414700  0.30741362  0.55605987  1
  C  C70  1  0.68013890  0.39770418  0.87546388  1
  C  C71  1  0.68016624  0.89716945  0.87593536  1
  C  C72  1  0.44450980  0.49547955  0.68012290  1
  C  C73  1  0.44398108  0.99515454  0.68012956  1
  C  C74  1  0.87530670  0.61310092  0.44456082  1
  C  C75  1  0.87583553  0.11307287  0.44396711  1
  O  O76  1  0.40123536  0.12075141  0.09665842  1
  O  O77  1  0.40128900  0.62053178  0.09679104  1
  O  O78  1  0.50193749  0.96831621  0.40131149  1
  O  O79  1  0.50201956  0.46843075  0.40128409  1
  O  O80  1  0.09677358  0.91801325  0.50195149  1
  O  O81  1  0.09667358  0.41807156  0.50209396  1
  O  O82  1  0.59893801  0.46802595  0.90252002  1
  O  O83  1  0.59877899  0.96724796  0.90323828  1
  O  O84  1  0.49867436  0.61993469  0.59890399  1
  O  O85  1  0.49804180  0.11954719  0.59872248  1
  O  O86  1  0.90242420  0.66986149  0.49865119  1
  O  O87  1  0.90320463  0.16976554  0.49799056  1
  O  O88  1  0.69166420  0.33637234  0.50757952  1
  O  O89  1  0.69113674  0.83579859  0.50838710  1
  O  O90  1  0.80083032  0.24444152  0.69152184  1
  O  O91  1  0.80053617  0.74454863  0.69102000  1
  O  O92  1  0.50770457  0.18986895  0.80075673  1
  O  O93  1  0.50854493  0.68984235  0.80053572  1
  O  O94  1  0.30839044  0.09428615  0.49233438  1
  O  O95  1  0.30842318  0.59419039  0.49241217  1
  O  O96  1  0.19921666  0.18621856  0.30839954  1
  O  O97  1  0.19910697  0.68619451  0.30847828  1
  O  O98  1  0.49232908  0.24089293  0.19915171  1
  O  O99  1  0.49224997  0.74088329  0.19922445  1
  O  O100  1  0.04297467  0.96000071  0.14419285  1
  O  O101  1  0.04289117  0.46016735  0.14436907  1
  O  O102  1  0.81277745  0.01092461  0.04288213  1
  O  O103  1  0.81281638  0.51065690  0.04297917  1
  O  O104  1  0.14423544  0.62576900  0.81284601  1
  O  O105  1  0.14436847  0.12601585  0.81270333  1
  O  O106  1  0.95671010  0.35436710  0.85577861  1
  O  O107  1  0.95697048  0.85430012  0.85585956  1
  O  O108  1  0.18747499  0.30402916  0.95664588  1
  O  O109  1  0.18715798  0.80366492  0.95700787  1
  O  O110  1  0.85579919  0.68865272  0.18747265  1
  O  O111  1  0.85586967  0.18868908  0.18707969  1
  O  O112  1  0.24262731  0.93753614  0.24930780  1
  O  O113  1  0.24244480  0.43750541  0.24949427  1
  O  O114  1  0.50808856  0.94111904  0.24244594  1
  O  O115  1  0.50803138  0.44087899  0.24265731  1
  O  O116  1  0.24944837  0.80821651  0.50801024  1
  O  O117  1  0.24937251  0.30828798  0.50809563  1
  O  O118  1  0.75732817  0.43694148  0.75030049  1
  O  O119  1  0.75736174  0.93648713  0.75073624  1
  O  O120  1  0.49240908  0.43353486  0.75738303  1
  O  O121  1  0.49195182  0.93325700  0.75735167  1
  O  O122  1  0.75016344  0.56580965  0.49249896  1
  O  O123  1  0.75062672  0.06582079  0.49198313  1
  O  O124  1  0.31308457  0.00985766  0.03454781  1
  O  O125  1  0.31300061  0.50979234  0.03468276  1
  O  O126  1  0.65229224  0.87060684  0.31304174  1
  O  O127  1  0.65232418  0.37057058  0.31312929  1
  O  O128  1  0.03464162  0.70097366  0.65231780  1
  O  O129  1  0.03462288  0.20097485  0.65237807  1
  O  O130  1  0.68672838  0.29479844  0.96521089  1
  O  O131  1  0.68692967  0.79426629  0.96554321  1
  O  O132  1  0.34822209  0.43417180  0.68664287  1
  O  O133  1  0.34758562  0.93364105  0.68691169  1
  O  O134  1  0.96507615  0.60322163  0.34819010  1
  O  O135  1  0.96541862  0.10315287  0.34757442  1
