# generated using pymatgen
data_Ho2(MoO4)3
_symmetry_space_group_name_H-M   'P 1'
_cell_length_a   7.32039913
_cell_length_b   7.32039913
_cell_length_c   10.50925143
_cell_angle_alpha   90.00000000
_cell_angle_beta   90.00000000
_cell_angle_gamma   90.00000000
_symmetry_Int_Tables_number   1
_chemical_formula_structural   Ho2(MoO4)3
_chemical_formula_sum   'Ho4 Mo6 O24'
_cell_volume   563.17232382
_cell_formula_units_Z   2
loop_
 _symmetry_equiv_pos_site_id
 _symmetry_equiv_pos_as_xyz
  1  'x, y, z'
loop_
 _atom_site_type_symbol
 _atom_site_label
 _atom_site_symmetry_multiplicity
 _atom_site_fract_x
 _atom_site_fract_y
 _atom_site_fract_z
 _atom_site_occupancy
  Ho  Ho0  1  0.18592207  0.68592207  0.73883975  1
  Ho  Ho1  1  0.81407793  0.31407793  0.73883975  1
  Ho  Ho2  1  0.68592207  0.81407793  0.26116025  1
  Ho  Ho3  1  0.31407793  0.18592207  0.26116025  1
  Mo  Mo4  1  0.20661012  0.70661012  0.35553445  1
  Mo  Mo5  1  0.79338988  0.29338988  0.35553445  1
  Mo  Mo6  1  0.70661012  0.79338988  0.64446555  1
  Mo  Mo7  1  0.29338988  0.20661012  0.64446555  1
  Mo  Mo8  1  -0.00000000  -0.00000000  -0.00000000  1
  Mo  Mo9  1  0.50000000  0.50000000  -0.00000000  1
  O  O10  1  0.00559523  0.22464933  0.29534678  1
  O  O11  1  0.99440477  0.77535067  0.29534678  1
  O  O12  1  0.22464933  0.99440477  0.70465322  1
  O  O13  1  0.49440477  0.72464933  0.70465322  1
  O  O14  1  0.77535067  0.00559523  0.70465322  1
  O  O15  1  0.50559523  0.27535067  0.70465322  1
  O  O16  1  0.27535067  0.49440477  0.29534678  1
  O  O17  1  0.72464933  0.50559523  0.29534678  1
  O  O18  1  0.19159017  0.04040212  0.09705955  1
  O  O19  1  0.80840983  0.95959788  0.09705955  1
  O  O20  1  0.04040212  0.80840983  0.90294045  1
  O  O21  1  0.30840983  0.54040212  0.90294045  1
  O  O22  1  0.95959788  0.19159017  0.90294045  1
  O  O23  1  0.69159017  0.45959788  0.90294045  1
  O  O24  1  0.45959788  0.30840983  0.09705955  1
  O  O25  1  0.54040212  0.69159017  0.09705955  1
  O  O26  1  0.62582773  0.12582773  0.30946392  1
  O  O27  1  0.37417227  0.87417227  0.30946392  1
  O  O28  1  0.12582773  0.37417227  0.69053608  1
  O  O29  1  0.87417227  0.62582773  0.69053608  1
  O  O30  1  0.19386411  0.69386411  0.52171885  1
  O  O31  1  0.80613589  0.30613589  0.52171885  1
  O  O32  1  0.69386411  0.80613589  0.47828115  1
  O  O33  1  0.30613589  0.19386411  0.47828115  1
