# generated using pymatgen
data_CaTlBr3
_symmetry_space_group_name_H-M   'P 1'
_cell_length_a   7.40600247
_cell_length_b   7.40600247
_cell_length_c   10.87564125
_cell_angle_alpha   90.00000000
_cell_angle_beta   90.00000000
_cell_angle_gamma   146.57036326
_symmetry_Int_Tables_number   1
_chemical_formula_structural   CaTlBr3
_chemical_formula_sum   'Ca2 Tl2 Br6'
_cell_volume   328.62848411
_cell_formula_units_Z   2
loop_
 _symmetry_equiv_pos_site_id
 _symmetry_equiv_pos_as_xyz
  1  'x, y, z'
loop_
 _atom_site_type_symbol
 _atom_site_label
 _atom_site_symmetry_multiplicity
 _atom_site_fract_x
 _atom_site_fract_y
 _atom_site_fract_z
 _atom_site_occupancy
  Ca  Ca0  1  0.00000000  -0.00000000  0.00000000  1
  Ca  Ca1  1  0.00000000  -0.00000000  0.50000000  1
  Tl  Tl2  1  0.25667947  0.74332053  0.25000000  1
  Tl  Tl3  1  0.74332053  0.25667947  0.75000000  1
  Br  Br4  1  0.63487640  0.36512360  0.05078735  1
  Br  Br5  1  0.36512360  0.63487640  0.94921265  1
  Br  Br6  1  0.36512360  0.63487640  0.55078735  1
  Br  Br7  1  0.63487640  0.36512360  0.44921265  1
  Br  Br8  1  0.93220806  0.06779194  0.25000000  1
  Br  Br9  1  0.06779194  0.93220806  0.75000000  1
