# generated using pymatgen
data_MgVCr2Fe3(PO4)6
_symmetry_space_group_name_H-M   'P 1'
_cell_length_a   8.60647732
_cell_length_b   8.66624782
_cell_length_c   8.67221951
_cell_angle_alpha   59.97012782
_cell_angle_beta   59.90736713
_cell_angle_gamma   59.87183147
_symmetry_Int_Tables_number   1
_chemical_formula_structural   MgVCr2Fe3(PO4)6
_chemical_formula_sum   'Mg1 V1 Cr2 Fe3 P6 O24'
_cell_volume   456.50671580
_cell_formula_units_Z   1
loop_
 _symmetry_equiv_pos_site_id
 _symmetry_equiv_pos_as_xyz
  1  'x, y, z'
loop_
 _atom_site_type_symbol
 _atom_site_label
 _atom_site_symmetry_multiplicity
 _atom_site_fract_x
 _atom_site_fract_y
 _atom_site_fract_z
 _atom_site_occupancy
  Mg  Mg0  1  0.74982700  0.74979900  0.75003400  1
  V  V1  1  0.56253900  0.14404400  0.14558800  1
  Cr  Cr2  1  0.98870000  0.00479600  0.00257500  1
  Cr  Cr3  1  0.51304400  0.49523500  0.49581700  1
  Fe  Fe4  1  0.11402600  0.62867400  0.62885100  1
  Fe  Fe5  1  0.38559500  0.87193600  0.87160000  1
  Fe  Fe6  1  0.94798400  0.35126100  0.35063100  1
  P  P7  1  0.24963900  0.25044200  0.54220000  1
  P  P8  1  0.24907300  0.95819100  0.25037000  1
  P  P9  1  0.25018000  0.54191500  0.95810800  1
  P  P10  1  0.74891100  0.44890500  0.05290200  1
  P  P11  1  0.75126800  0.05196500  0.74818200  1
  P  P12  1  0.74874600  0.74918200  0.44935900  1
  O  O13  1  0.07551000  0.09543700  0.34885700  1
  O  O14  1  0.07567900  0.48004200  0.09465800  1
  O  O15  1  0.07399500  0.35043600  0.48157500  1
  O  O16  1  0.19000200  0.10986100  0.75013100  1
  O  O17  1  0.42153700  0.15078100  0.40717100  1
  O  O18  1  0.30831300  0.39156800  0.55007300  1
  O  O19  1  0.19006700  0.95136400  0.10934500  1
  O  O20  1  0.30863600  0.75155000  0.39138700  1
  O  O21  1  0.57547600  0.61311800  0.00121400  1
  O  O22  1  0.30825700  0.55027200  0.75092900  1
  O  O23  1  0.77499900  0.24761900  0.07070200  1
  O  O24  1  0.57741900  0.00040800  0.80954200  1
  O  O25  1  0.42443600  0.01883400  0.15042900  1
  O  O26  1  0.19104300  0.74869200  0.95201000  1
  O  O27  1  0.72396300  0.43041800  0.25311200  1
  O  O28  1  0.42479400  0.40421400  0.01825100  1
  O  O29  1  0.72492200  0.25281100  0.59185900  1
  O  O30  1  0.77879200  0.06908100  0.90483400  1
  O  O31  1  0.72415700  0.59258700  0.43002100  1
  O  O32  1  0.57575200  0.80884700  0.61373800  1
  O  O33  1  0.77366900  0.90769100  0.24834400  1
  O  O34  1  0.92266000  0.69092900  0.49910900  1
  O  O35  1  0.92228900  0.49976300  0.88801200  1
  O  O36  1  0.92410100  0.88733100  0.68847900  1
