# generated using pymatgen
data_BaSn2S5
_symmetry_space_group_name_H-M   'P 1'
_cell_length_a   6.70628813
_cell_length_b   10.75741299
_cell_length_c   11.60311401
_cell_angle_alpha   90.00000000
_cell_angle_beta   90.00000000
_cell_angle_gamma   90.00000000
_symmetry_Int_Tables_number   1
_chemical_formula_structural   BaSn2S5
_chemical_formula_sum   'Ba4 Sn8 S20'
_cell_volume   837.07545999
_cell_formula_units_Z   4
loop_
 _symmetry_equiv_pos_site_id
 _symmetry_equiv_pos_as_xyz
  1  'x, y, z'
loop_
 _atom_site_type_symbol
 _atom_site_label
 _atom_site_symmetry_multiplicity
 _atom_site_fract_x
 _atom_site_fract_y
 _atom_site_fract_z
 _atom_site_occupancy
  Ba  Ba0  1  0.25000000  0.25000000  0.80026255  1
  Ba  Ba1  1  0.75000000  0.75000000  0.69973745  1
  Ba  Ba2  1  0.75000000  0.75000000  0.19973745  1
  Ba  Ba3  1  0.25000000  0.25000000  0.30026255  1
  Sn  Sn4  1  0.24653787  0.55922894  0.52673125  1
  Sn  Sn5  1  0.25346213  0.94077106  0.52673125  1
  Sn  Sn6  1  0.74653787  0.44077106  0.97326875  1
  Sn  Sn7  1  0.75346213  0.05922894  0.97326875  1
  Sn  Sn8  1  0.75346213  0.44077106  0.47326875  1
  Sn  Sn9  1  0.74653787  0.05922894  0.47326875  1
  Sn  Sn10  1  0.25346213  0.55922894  0.02673125  1
  Sn  Sn11  1  0.24653787  0.94077106  0.02673125  1
  S  S12  1  0.07079697  0.13369892  0.56424347  1
  S  S13  1  0.42920303  0.36630108  0.56424347  1
  S  S14  1  0.57079697  0.86630108  0.93575653  1
  S  S15  1  0.92920303  0.63369892  0.93575653  1
  S  S16  1  0.92920303  0.86630108  0.43575653  1
  S  S17  1  0.57079697  0.63369892  0.43575653  1
  S  S18  1  0.42920303  0.13369892  0.06424347  1
  S  S19  1  0.07079697  0.36630108  0.06424347  1
  S  S20  1  0.04984699  0.97217453  0.85264698  1
  S  S21  1  0.45015301  0.52782547  0.85264698  1
  S  S22  1  0.54984699  0.02782547  0.64735302  1
  S  S23  1  0.95015301  0.47217453  0.64735302  1
  S  S24  1  0.95015301  0.02782547  0.14735302  1
  S  S25  1  0.54984699  0.47217453  0.14735302  1
  S  S26  1  0.45015301  0.97217453  0.35264698  1
  S  S27  1  0.04984699  0.52782547  0.35264698  1
  S  S28  1  0.75000000  0.25000000  0.84950059  1
  S  S29  1  0.25000000  0.75000000  0.65049941  1
  S  S30  1  0.25000000  0.75000000  0.15049941  1
  S  S31  1  0.75000000  0.25000000  0.34950059  1
