# generated using pymatgen
data_Cs8Fe2O7
_symmetry_space_group_name_H-M   'P 1'
_cell_length_a   18.03418400
_cell_length_b   7.22128342
_cell_length_c   7.39003308
_cell_angle_alpha   61.03007559
_cell_angle_beta   90.00000000
_cell_angle_gamma   90.00000000
_symmetry_Int_Tables_number   1
_chemical_formula_structural   Cs8Fe2O7
_chemical_formula_sum   'Cs16 Fe4 O14'
_cell_volume   841.98201550
_cell_formula_units_Z   2
loop_
 _symmetry_equiv_pos_site_id
 _symmetry_equiv_pos_as_xyz
  1  'x, y, z'
loop_
 _atom_site_type_symbol
 _atom_site_label
 _atom_site_symmetry_multiplicity
 _atom_site_fract_x
 _atom_site_fract_y
 _atom_site_fract_z
 _atom_site_occupancy
  Cs  Cs0  1  0.99238836  0.23123251  0.22861652  1
  Cs  Cs1  1  0.49238836  0.26876749  0.77138348  1
  Cs  Cs2  1  0.00761164  0.76876749  0.77138348  1
  Cs  Cs3  1  0.50761164  0.73123251  0.22861652  1
  Cs  Cs4  1  0.19219510  0.23626298  0.21839285  1
  Cs  Cs5  1  0.69219510  0.26373702  0.78160715  1
  Cs  Cs6  1  0.80780490  0.76373702  0.78160715  1
  Cs  Cs7  1  0.30780490  0.73626298  0.21839285  1
  Cs  Cs8  1  0.78589291  0.21038964  0.24592158  1
  Cs  Cs9  1  0.28589291  0.28961036  0.75407842  1
  Cs  Cs10  1  0.21410709  0.78961036  0.75407842  1
  Cs  Cs11  1  0.71410709  0.71038964  0.24592158  1
  Cs  Cs12  1  0.91713560  0.35383297  0.63968372  1
  Cs  Cs13  1  0.41713560  0.14616703  0.36031628  1
  Cs  Cs14  1  0.08286440  0.64616703  0.36031628  1
  Cs  Cs15  1  0.58286440  0.85383297  0.63968372  1
  Fe  Fe16  1  0.59482503  0.36151946  0.13836116  1
  Fe  Fe17  1  0.09482503  0.13848054  0.86163884  1
  Fe  Fe18  1  0.40517497  0.63848054  0.86163884  1
  Fe  Fe19  1  0.90517497  0.86151946  0.13836116  1
  O  O20  1  0.50000000  0.50000000  0.00000000  1
  O  O21  1  -0.00000000  0.00000000  0.00000000  1
  O  O22  1  0.59833815  0.33815129  0.40331480  1
  O  O23  1  0.09833815  0.16184871  0.59668520  1
  O  O24  1  0.40166185  0.66184871  0.59668520  1
  O  O25  1  0.90166185  0.83815129  0.40331480  1
  O  O26  1  0.32710461  0.46022999  0.02885183  1
  O  O27  1  0.82710461  0.03977001  0.97114817  1
  O  O28  1  0.67289539  0.53977001  0.97114817  1
  O  O29  1  0.17289539  0.96022999  0.02885183  1
  O  O30  1  0.60532948  0.09498410  0.15156763  1
  O  O31  1  0.10532948  0.40501590  0.84843237  1
  O  O32  1  0.39467052  0.90501590  0.84843237  1
  O  O33  1  0.89467052  0.59498410  0.15156763  1
