# generated using pymatgen
data_KCaNi2H3(SeO5)2
_symmetry_space_group_name_H-M   'P 1'
_cell_length_a   5.70451066
_cell_length_b   5.80732637
_cell_length_c   9.36159098
_cell_angle_alpha   83.89093875
_cell_angle_beta   75.76432811
_cell_angle_gamma   64.96323154
_symmetry_Int_Tables_number   1
_chemical_formula_structural   KCaNi2H3(SeO5)2
_chemical_formula_sum   'K1 Ca1 Ni2 H3 Se2 O10'
_cell_volume   272.35992190
_cell_formula_units_Z   1
loop_
 _symmetry_equiv_pos_site_id
 _symmetry_equiv_pos_as_xyz
  1  'x, y, z'
loop_
 _atom_site_type_symbol
 _atom_site_label
 _atom_site_symmetry_multiplicity
 _atom_site_fract_x
 _atom_site_fract_y
 _atom_site_fract_z
 _atom_site_occupancy
  K  K0  1  0.44352300  0.48300400  0.51395300  1
  Ca  Ca1  1  0.06242100  0.02203100  0.13245200  1
  Ni  Ni2  1  0.00890300  0.60729400  0.92959300  1
  Ni  Ni3  1  0.56973200  0.07055000  0.92549400  1
  H  H4  1  0.67733000  0.67950400  0.77636100  1
  H  H5  1  0.29389000  0.50628100  0.13193500  1
  H  H6  1  0.47927200  0.54135700  0.96531700  1
  Se  Se7  1  0.85040400  0.78033900  0.39196900  1
  Se  Se8  1  0.09837200  0.07501200  0.73815100  1
  O  O9  1  0.90137900  0.72018400  0.56321100  1
  O  O10  1  0.25822800  0.12405300  0.57669500  1
  O  O11  1  0.18014400  0.64962000  0.27315400  1
  O  O12  1  0.80063200  0.09535800  0.35530900  1
  O  O13  1  0.76705200  0.21194200  0.75658700  1
  O  O14  1  0.21146100  0.76057700  0.77075200  1
  O  O15  1  0.65518200  0.70316300  0.88210600  1
  O  O16  1  0.36053200  0.45086300  0.01932100  1
  O  O17  1  0.80943100  0.90999000  0.05173600  1
  O  O18  1  0.16987500  0.20664200  0.87690200  1
