# generated using pymatgen
data_CsTh2(PO4)3
_symmetry_space_group_name_H-M   'P 1'
_cell_length_a   9.63811912
_cell_length_b   9.63811912
_cell_length_c   8.17159341
_cell_angle_alpha   77.84138862
_cell_angle_beta   77.84138862
_cell_angle_gamma   42.47818344
_symmetry_Int_Tables_number   1
_chemical_formula_structural   CsTh2(PO4)3
_chemical_formula_sum   'Cs2 Th4 P6 O24'
_cell_volume   499.35943489
_cell_formula_units_Z   2
loop_
 _symmetry_equiv_pos_site_id
 _symmetry_equiv_pos_as_xyz
  1  'x, y, z'
loop_
 _atom_site_type_symbol
 _atom_site_label
 _atom_site_symmetry_multiplicity
 _atom_site_fract_x
 _atom_site_fract_y
 _atom_site_fract_z
 _atom_site_occupancy
  Cs  Cs0  1  0.41105182  0.58894818  0.75000000  1
  Cs  Cs1  1  0.58894818  0.41105182  0.25000000  1
  Th  Th2  1  0.93850715  0.75176459  0.53206212  1
  Th  Th3  1  0.24823541  0.06149285  0.96793788  1
  Th  Th4  1  0.06149285  0.24823541  0.46793788  1
  Th  Th5  1  0.75176459  0.93850715  0.03206212  1
  P  P6  1  0.78453592  0.60129295  0.82087050  1
  P  P7  1  0.39870705  0.21546408  0.67912950  1
  P  P8  1  0.21546408  0.39870705  0.17912950  1
  P  P9  1  0.60129295  0.78453592  0.32087050  1
  P  P10  1  0.90968030  0.09031970  0.75000000  1
  P  P11  1  0.09031970  0.90968030  0.25000000  1
  O  O12  1  0.95750254  0.89906950  0.74235128  1
  O  O13  1  0.10093050  0.04249746  0.75764872  1
  O  O14  1  0.04249746  0.10093050  0.25764872  1
  O  O15  1  0.89906950  0.95750254  0.24235128  1
  O  O16  1  0.82002873  0.23461999  0.58923872  1
  O  O17  1  0.76538001  0.17997127  0.91076128  1
  O  O18  1  0.17997127  0.76538001  0.41076128  1
  O  O19  1  0.23461999  0.82002873  0.08923872  1
  O  O20  1  0.83054908  0.72357439  0.83086118  1
  O  O21  1  0.27642561  0.16945092  0.66913882  1
  O  O22  1  0.16945092  0.27642561  0.16913882  1
  O  O23  1  0.72357439  0.83054908  0.33086118  1
  O  O24  1  0.55421070  0.74091744  0.85495089  1
  O  O25  1  0.25908256  0.44578930  0.64504911  1
  O  O26  1  0.44578930  0.25908256  0.14504911  1
  O  O27  1  0.74091744  0.55421070  0.35495089  1
  O  O28  1  0.85616664  0.55244240  0.63302245  1
  O  O29  1  0.44755760  0.14383336  0.86697755  1
  O  O30  1  0.14383336  0.44755760  0.36697755  1
  O  O31  1  0.55244240  0.85616664  0.13302245  1
  O  O32  1  0.91186597  0.40014614  0.93161594  1
  O  O33  1  0.59985386  0.08813403  0.56838406  1
  O  O34  1  0.08813403  0.59985386  0.06838406  1
  O  O35  1  0.40014614  0.91186597  0.43161594  1
