# generated using pymatgen
data_PdC9N3Cl5
_symmetry_space_group_name_H-M   'P 1'
_cell_length_a   10.99997003
_cell_length_b   11.30429778
_cell_length_c   15.26535527
_cell_angle_alpha   90.00000000
_cell_angle_beta   90.00000000
_cell_angle_gamma   90.00000000
_symmetry_Int_Tables_number   1
_chemical_formula_structural   PdC9N3Cl5
_chemical_formula_sum   'Pd4 C36 N12 Cl20'
_cell_volume   1898.20016684
_cell_formula_units_Z   4
loop_
 _symmetry_equiv_pos_site_id
 _symmetry_equiv_pos_as_xyz
  1  'x, y, z'
loop_
 _atom_site_type_symbol
 _atom_site_label
 _atom_site_symmetry_multiplicity
 _atom_site_fract_x
 _atom_site_fract_y
 _atom_site_fract_z
 _atom_site_occupancy
  Pd  Pd0  1  0.72850467  0.25000000  0.10808778  1
  Pd  Pd1  1  0.22850467  0.25000000  0.39191222  1
  Pd  Pd2  1  0.27149533  0.75000000  0.89191222  1
  Pd  Pd3  1  0.77149533  0.75000000  0.60808778  1
  C  C4  1  0.17277794  0.25000000  0.91337333  1
  C  C5  1  0.67277794  0.25000000  0.58662667  1
  C  C6  1  0.82722206  0.75000000  0.08662667  1
  C  C7  1  0.32722206  0.75000000  0.41337333  1
  C  C8  1  0.93391578  0.31243285  0.92503136  1
  C  C9  1  0.43391578  0.18756715  0.57496864  1
  C  C10  1  0.06608422  0.81243285  0.07496864  1
  C  C11  1  0.56608422  0.68756715  0.42503136  1
  C  C12  1  0.06608422  0.68756715  0.07496864  1
  C  C13  1  0.56608422  0.81243285  0.42503136  1
  C  C14  1  0.93391578  0.18756715  0.92503136  1
  C  C15  1  0.43391578  0.31243285  0.57496864  1
  C  C16  1  0.96882954  0.49019945  0.35712566  1
  C  C17  1  0.46882954  0.00980055  0.14287434  1
  C  C18  1  0.03117046  0.99019945  0.64287434  1
  C  C19  1  0.53117046  0.50980055  0.85712566  1
  C  C20  1  0.03117046  0.50980055  0.64287434  1
  C  C21  1  0.53117046  0.99019945  0.85712566  1
  C  C22  1  0.96882954  0.00980055  0.35712566  1
  C  C23  1  0.46882954  0.49019945  0.14287434  1
  C  C24  1  0.07936990  0.49488635  0.35893871  1
  C  C25  1  0.57936990  0.00511365  0.14106129  1
  C  C26  1  0.92063010  0.99488635  0.64106129  1
  C  C27  1  0.42063010  0.50511365  0.85893871  1
  C  C28  1  0.92063010  0.50511365  0.64106129  1
  C  C29  1  0.42063010  0.99488635  0.85893871  1
  C  C30  1  0.07936990  0.00511365  0.35893871  1
  C  C31  1  0.57936990  0.49488635  0.14106129  1
  C  C32  1  0.74546434  0.45796141  0.35990699  1
  C  C33  1  0.24546434  0.04203859  0.14009301  1
  C  C34  1  0.25453566  0.95796141  0.64009301  1
  C  C35  1  0.75453566  0.54203859  0.85990699  1
  C  C36  1  0.25453566  0.54203859  0.64009301  1
  C  C37  1  0.75453566  0.95796141  0.85990699  1
  C  C38  1  0.74546434  0.04203859  0.35990699  1
  C  C39  1  0.24546434  0.45796141  0.14009301  1
  N  N40  1  0.06351427  0.25000000  0.91740951  1
  N  N41  1  0.56351427  0.25000000  0.58259049  1
  N  N42  1  0.93648573  0.75000000  0.08259049  1
  N  N43  1  0.43648573  0.75000000  0.41740951  1
  N  N44  1  0.85170662  0.48029052  0.35744240  1
  N  N45  1  0.35170662  0.01970948  0.14255760  1
  N  N46  1  0.14829338  0.98029052  0.64255760  1
  N  N47  1  0.64829338  0.51970948  0.85744240  1
  N  N48  1  0.14829338  0.51970948  0.64255760  1
  N  N49  1  0.64829338  0.98029052  0.85744240  1
  N  N50  1  0.85170662  0.01970948  0.35744240  1
  N  N51  1  0.35170662  0.48029052  0.14255760  1
  Cl  Cl52  1  0.54653170  0.25000000  0.03390420  1
  Cl  Cl53  1  0.04653170  0.25000000  0.46609580  1
  Cl  Cl54  1  0.45346830  0.75000000  0.96609580  1
  Cl  Cl55  1  0.95346830  0.75000000  0.53390420  1
  Cl  Cl56  1  0.92046076  0.25000000  0.16745595  1
  Cl  Cl57  1  0.42046076  0.25000000  0.33254405  1
  Cl  Cl58  1  0.07953924  0.75000000  0.83254405  1
  Cl  Cl59  1  0.57953924  0.75000000  0.66745595  1
  Cl  Cl60  1  0.72260752  0.46167636  0.12975785  1
  Cl  Cl61  1  0.22260752  0.03832364  0.37024215  1
  Cl  Cl62  1  0.27739248  0.96167636  0.87024215  1
  Cl  Cl63  1  0.77739248  0.53832364  0.62975785  1
  Cl  Cl64  1  0.27739248  0.53832364  0.87024215  1
  Cl  Cl65  1  0.77739248  0.96167636  0.62975785  1
  Cl  Cl66  1  0.72260752  0.03832364  0.12975785  1
  Cl  Cl67  1  0.22260752  0.46167636  0.37024215  1
  Cl  Cl68  1  0.37615341  0.25000000  0.68817375  1
  Cl  Cl69  1  0.87615341  0.25000000  0.81182625  1
  Cl  Cl70  1  0.62384659  0.75000000  0.31182625  1
  Cl  Cl71  1  0.12384659  0.75000000  0.18817375  1
