# generated using pymatgen
data_Rb2WS4
_symmetry_space_group_name_H-M   'P 1'
_cell_length_a   7.09106448
_cell_length_b   9.77580850
_cell_length_c   12.58855994
_cell_angle_alpha   90.00000000
_cell_angle_beta   90.00000000
_cell_angle_gamma   90.00000000
_symmetry_Int_Tables_number   1
_chemical_formula_structural   Rb2WS4
_chemical_formula_sum   'Rb8 W4 S16'
_cell_volume   872.65015894
_cell_formula_units_Z   4
loop_
 _symmetry_equiv_pos_site_id
 _symmetry_equiv_pos_as_xyz
  1  'x, y, z'
loop_
 _atom_site_type_symbol
 _atom_site_label
 _atom_site_symmetry_multiplicity
 _atom_site_fract_x
 _atom_site_fract_y
 _atom_site_fract_z
 _atom_site_occupancy
  Rb  Rb0  1  0.25000000  0.65591076  0.39288403  1
  Rb  Rb1  1  0.75000000  0.34408924  0.60711597  1
  Rb  Rb2  1  0.25000000  0.15591076  0.10711597  1
  Rb  Rb3  1  0.75000000  0.84408924  0.89288403  1
  Rb  Rb4  1  0.25000000  0.45986254  0.83148496  1
  Rb  Rb5  1  0.75000000  0.54013746  0.16851504  1
  Rb  Rb6  1  0.25000000  0.95986254  0.66851504  1
  Rb  Rb7  1  0.75000000  0.04013746  0.33148496  1
  W  W8  1  0.25000000  0.24621521  0.42827120  1
  W  W9  1  0.75000000  0.75378479  0.57172880  1
  W  W10  1  0.25000000  0.74621521  0.07172880  1
  W  W11  1  0.75000000  0.25378479  0.92827120  1
  S  S12  1  0.25000000  0.02505589  0.39453309  1
  S  S13  1  0.75000000  0.97494411  0.60546691  1
  S  S14  1  0.25000000  0.52505589  0.10546691  1
  S  S15  1  0.75000000  0.47494411  0.89453309  1
  S  S16  1  0.49985150  0.65872422  0.64169418  1
  S  S17  1  0.99985150  0.34127578  0.35830582  1
  S  S18  1  0.00014850  0.15872422  0.85830582  1
  S  S19  1  0.50014850  0.84127578  0.14169418  1
  S  S20  1  0.50014850  0.34127578  0.35830582  1
  S  S21  1  0.00014850  0.65872422  0.64169418  1
  S  S22  1  0.99985150  0.84127578  0.14169418  1
  S  S23  1  0.49985150  0.15872422  0.85830582  1
  S  S24  1  0.75000000  0.21550378  0.10009817  1
  S  S25  1  0.25000000  0.78449622  0.89990183  1
  S  S26  1  0.75000000  0.71550378  0.39990183  1
  S  S27  1  0.25000000  0.28449622  0.60009817  1
