# generated using pymatgen
data_KCaCeNbO6
_symmetry_space_group_name_H-M   'P 1'
_cell_length_a   8.35807469
_cell_length_b   8.33224427
_cell_length_c   8.34480276
_cell_angle_alpha   90.00000000
_cell_angle_beta   90.00000000
_cell_angle_gamma   90.00000000
_symmetry_Int_Tables_number   1
_chemical_formula_structural   KCaCeNbO6
_chemical_formula_sum   'K4 Ca4 Ce4 Nb4 O24'
_cell_volume   581.14474784
_cell_formula_units_Z   4
loop_
 _symmetry_equiv_pos_site_id
 _symmetry_equiv_pos_as_xyz
  1  'x, y, z'
loop_
 _atom_site_type_symbol
 _atom_site_label
 _atom_site_symmetry_multiplicity
 _atom_site_fract_x
 _atom_site_fract_y
 _atom_site_fract_z
 _atom_site_occupancy
  K  K0  1  0.00000000  0.50000000  0.50000000  1
  K  K1  1  0.50000000  0.00000000  0.50000000  1
  K  K2  1  0.50000000  0.00000000  0.00000000  1
  K  K3  1  0.00000000  0.50000000  0.00000000  1
  Ca  Ca4  1  0.50000000  0.50000000  0.00000000  1
  Ca  Ca5  1  0.00000000  0.00000000  0.50000000  1
  Ca  Ca6  1  0.00000000  0.00000000  0.00000000  1
  Ca  Ca7  1  0.50000000  0.50000000  0.50000000  1
  Ce  Ce8  1  0.75000000  0.75000000  0.75000000  1
  Ce  Ce9  1  0.25000000  0.25000000  0.75000000  1
  Ce  Ce10  1  0.25000000  0.75000000  0.25000000  1
  Ce  Ce11  1  0.75000000  0.25000000  0.25000000  1
  Nb  Nb12  1  0.25000000  0.25000000  0.25000000  1
  Nb  Nb13  1  0.75000000  0.75000000  0.25000000  1
  Nb  Nb14  1  0.75000000  0.25000000  0.75000000  1
  Nb  Nb15  1  0.25000000  0.75000000  0.75000000  1
  O  O16  1  0.01486183  0.20700719  0.29715543  1
  O  O17  1  0.98513817  0.79299281  0.29715543  1
  O  O18  1  0.98513817  0.20700719  0.70284457  1
  O  O19  1  0.01486183  0.79299281  0.70284457  1
  O  O20  1  0.27930276  0.01333997  0.28485864  1
  O  O21  1  0.27930276  0.98666003  0.71514136  1
  O  O22  1  0.72069724  0.98666003  0.28485864  1
  O  O23  1  0.72069724  0.01333997  0.71514136  1
  O  O24  1  0.20514992  0.20419682  0.01403622  1
  O  O25  1  0.79485008  0.20419682  0.98596378  1
  O  O26  1  0.20514992  0.79580318  0.98596378  1
  O  O27  1  0.79485008  0.79580318  0.01403622  1
  O  O28  1  0.48513817  0.29299281  0.20284457  1
  O  O29  1  0.51486183  0.70700719  0.20284457  1
  O  O30  1  0.51486183  0.29299281  0.79715543  1
  O  O31  1  0.48513817  0.70700719  0.79715543  1
  O  O32  1  0.22069724  0.48666003  0.21514136  1
  O  O33  1  0.22069724  0.51333997  0.78485864  1
  O  O34  1  0.77930276  0.51333997  0.21514136  1
  O  O35  1  0.77930276  0.48666003  0.78485864  1
  O  O36  1  0.29485008  0.29580318  0.48596378  1
  O  O37  1  0.70514992  0.29580318  0.51403622  1
  O  O38  1  0.29485008  0.70419682  0.51403622  1
  O  O39  1  0.70514992  0.70419682  0.48596378  1
