# generated using pymatgen
data_Na2Mg3Zn2(Si2O5)6
_symmetry_space_group_name_H-M   'P 1'
_cell_length_a   10.28942330
_cell_length_b   10.28869863
_cell_length_c   14.41248082
_cell_angle_alpha   90.00001628
_cell_angle_beta   90.00473829
_cell_angle_gamma   119.99768508
_symmetry_Int_Tables_number   1
_chemical_formula_structural   Na2Mg3Zn2(Si2O5)6
_chemical_formula_sum   'Na4 Mg6 Zn4 Si24 O60'
_cell_volume   1321.38989914
_cell_formula_units_Z   2
loop_
 _symmetry_equiv_pos_site_id
 _symmetry_equiv_pos_as_xyz
  1  'x, y, z'
loop_
 _atom_site_type_symbol
 _atom_site_label
 _atom_site_symmetry_multiplicity
 _atom_site_fract_x
 _atom_site_fract_y
 _atom_site_fract_z
 _atom_site_occupancy
  Na  Na0  1  0.66666586  0.33327841  0.49999572  1
  Na  Na1  1  0.33340178  0.66667944  0.00000407  1
  Na  Na2  1  0.00000357  0.99992872  0.24999962  1
  Na  Na3  1  0.00000071  0.99997839  0.74999936  1
  Mg  Mg4  1  0.66696860  0.33365486  0.24618490  1
  Mg  Mg5  1  0.66666875  0.33333524  0.75360901  1
  Mg  Mg6  1  0.33334036  0.66667911  0.74639781  1
  Mg  Mg7  1  0.33303996  0.66668994  0.25381598  1
  Mg  Mg8  1  0.50046189  0.00002060  0.24996987  1
  Mg  Mg9  1  0.49954378  0.49955791  0.25003120  1
  Zn  Zn10  1  0.00000630  0.49958696  0.24999897  1
  Zn  Zn11  1  0.49948994  0.00000242  0.74998806  1
  Zn  Zn12  1  0.50050776  0.50050444  0.75000978  1
  Zn  Zn13  1  0.00000562  0.49951678  0.74999996  1
  Si  Si14  1  0.23786727  0.88560701  0.38994967  1
  Si  Si15  1  0.64765344  0.76215439  0.38994599  1
  Si  Si16  1  0.11374540  0.35137773  0.39003564  1
  Si  Si17  1  0.23790103  0.88639231  0.61012093  1
  Si  Si18  1  0.64849646  0.76206926  0.61011156  1
  Si  Si19  1  0.11357802  0.35150675  0.61010639  1
  Si  Si20  1  0.35150318  0.11357603  0.88988970  1
  Si  Si21  1  0.88642857  0.23793191  0.88989388  1
  Si  Si22  1  0.76210060  0.64849013  0.88987827  1
  Si  Si23  1  0.35234880  0.11450504  0.11005373  1
  Si  Si24  1  0.88626101  0.23763698  0.10996470  1
  Si  Si25  1  0.76213641  0.64774060  0.11004933  1
  Si  Si26  1  0.76335447  0.11278230  0.61071645  1
  Si  Si27  1  0.34943195  0.23664059  0.61069795  1
  Si  Si28  1  0.88724018  0.65057311  0.61066852  1
  Si  Si29  1  0.76339906  0.11345942  0.38942675  1
  Si  Si30  1  0.35008980  0.23646370  0.38943105  1
  Si  Si31  1  0.88698698  0.65066844  0.38942679  1
  Si  Si32  1  0.64991585  0.88637808  0.11056970  1
  Si  Si33  1  0.11301748  0.76368562  0.11057276  1
  Si  Si34  1  0.23660692  0.35006614  0.11057221  1
  Si  Si35  1  0.65057356  0.88721250  0.88930097  1
  Si  Si36  1  0.11276302  0.76333697  0.88933248  1
  Si  Si37  1  0.23665043  0.34943330  0.88928412  1
  O  O38  1  0.26383670  0.87174594  0.49999053  1
  O  O39  1  0.60804489  0.73629419  0.49997475  1
  O  O40  1  0.12816219  0.39202750  0.49994661  1
  O  O41  1  0.39195517  0.12824948  0.00002527  1
  O  O42  1  0.87183691  0.26386466  0.00005345  1
  O  O43  1  0.73616166  0.60790963  0.00000880  1
  O  O44  1  0.73655482  0.13498561  0.50004269  1
  O  O45  1  0.39828755  0.26338479  0.50003673  1
  O  O46  1  0.86518138  0.60168777  0.49996057  1
  O  O47  1  0.60171879  0.86510181  -0.00003690  1
  O  O48  1  0.13482197  0.73650878  0.00003956  1
  O  O49  1  0.26344913  0.39843718  -0.00004302  1
  O  O50  1  0.34049614  0.84540607  0.32637792  1
  O  O51  1  0.50484811  0.65953450  0.32633471  1
  O  O52  1  0.15605609  0.49576961  0.32682603  1
  O  O53  1  0.33984984  0.84392359  0.67318293  1
  O  O54  1  0.50409976  0.66015059  0.67316498  1
  O  O55  1  0.15605482  0.49594928  0.67314058  1
  O  O56  1  0.49590341  0.15605457  0.82683926  1
  O  O57  1  0.84395984  0.33990193  0.82685787  1
  O  O58  1  0.66015594  0.50407154  0.82681611  1
  O  O59  1  0.49515850  0.15469469  0.17366179  1
  O  O60  1  0.84395759  0.33972128  0.17317623  1
  O  O61  1  0.65951310  0.50490992  0.17362075  1
  O  O62  1  0.65944670  0.15796707  0.67016601  1
  O  O63  1  0.49850737  0.34055309  0.67015747  1
  O  O64  1  0.84205311  0.50145239  0.67011979  1
  O  O65  1  0.65858706  0.15628333  0.32947779  1
  O  O66  1  0.49768466  0.34145806  0.32951055  1
  O  O67  1  0.84201193  0.50153480  0.32989143  1
  O  O68  1  0.50232013  0.84378161  0.17048851  1
  O  O69  1  0.15799886  0.65953314  0.17010906  1
  O  O70  1  0.34142102  0.49770072  0.17052207  1
  O  O71  1  0.50149628  0.84205465  0.82984455  1
  O  O72  1  0.15795716  0.65940981  0.82988001  1
  O  O73  1  0.34056008  0.49852512  0.82983422  1
  O  O74  1  0.05771710  0.78420050  0.36608447  1
  O  O75  1  0.72542022  0.94217128  0.36579109  1
  O  O76  1  0.21692499  0.27469354  0.36574488  1
  O  O77  1  0.05795044  0.78407458  0.63402568  1
  O  O78  1  0.72615907  0.94204688  0.63407436  1
  O  O79  1  0.21590110  0.27389087  0.63400935  1
  O  O80  1  0.27384275  0.21589096  0.86592519  1
  O  O81  1  0.78410300  0.05799311  0.86599022  1
  O  O82  1  0.94205198  0.72612533  0.86597507  1
  O  O83  1  0.27458204  0.21675429  0.13420841  1
  O  O84  1  0.78307981  0.05777227  0.13425480  1
  O  O85  1  0.94228644  0.72648563  0.13391451  1
  O  O86  1  0.94236429  0.21553848  0.63406850  1
  O  O87  1  0.27315336  0.05766217  0.63414350  1
  O  O88  1  0.78449519  0.72680289  0.63409741  1
  O  O89  1  0.94251772  0.21546331  0.36599592  1
  O  O90  1  0.27391178  0.05753089  0.36577899  1
  O  O91  1  0.78346610  0.72608137  0.36576253  1
  O  O92  1  0.72608879  0.78361859  0.13422053  1
  O  O93  1  0.21653673  0.94261923  0.13423740  1
  O  O94  1  0.05748750  0.27294773  0.13400366  1
  O  O95  1  0.72684788  0.78450849  0.86585625  1
  O  O96  1  0.21550746  0.94231076  0.86590210  1
  O  O97  1  0.05764085  0.27317656  0.86593166  1
