# generated using pymatgen
data_BiPO4
_symmetry_space_group_name_H-M   'P 1'
_cell_length_a   6.93890082
_cell_length_b   6.46709732
_cell_length_c   8.14845672
_cell_angle_alpha   53.50627981
_cell_angle_beta   90.00000000
_cell_angle_gamma   90.00000000
_symmetry_Int_Tables_number   1
_chemical_formula_structural   BiPO4
_chemical_formula_sum   'Bi4 P4 O16'
_cell_volume   293.96077292
_cell_formula_units_Z   4
loop_
 _symmetry_equiv_pos_site_id
 _symmetry_equiv_pos_as_xyz
  1  'x, y, z'
loop_
 _atom_site_type_symbol
 _atom_site_label
 _atom_site_symmetry_multiplicity
 _atom_site_fract_x
 _atom_site_fract_y
 _atom_site_fract_z
 _atom_site_occupancy
  Bi  Bi0  1  0.35580469  0.80326010  0.78461650  1
  Bi  Bi1  1  0.14419531  0.80326010  0.28461650  1
  Bi  Bi2  1  0.64419531  0.19673990  0.21538350  1
  Bi  Bi3  1  0.85580469  0.19673990  0.71538350  1
  P  P4  1  0.33818300  0.31472637  0.79848700  1
  P  P5  1  0.16181700  0.31472637  0.29848700  1
  P  P6  1  0.66181700  0.68527363  0.20151300  1
  P  P7  1  0.83818300  0.68527363  0.70151300  1
  O  O8  1  0.49430947  0.18164602  0.76039983  1
  O  O9  1  0.00569053  0.18164602  0.26039983  1
  O  O10  1  0.50569053  0.81835398  0.23960017  1
  O  O11  1  0.99430947  0.81835398  0.73960017  1
  O  O12  1  0.15856273  0.13997321  0.87755339  1
  O  O13  1  0.34143727  0.13997321  0.37755339  1
  O  O14  1  0.84143727  0.86002679  0.12244661  1
  O  O15  1  0.65856273  0.86002679  0.62244661  1
  O  O16  1  0.39863737  0.35406146  0.96262619  1
  O  O17  1  0.10136263  0.35406146  0.46262619  1
  O  O18  1  0.60136263  0.64593854  0.03737381  1
  O  O19  1  0.89863737  0.64593854  0.53737381  1
  O  O20  1  0.29558969  0.59274847  0.61527124  1
  O  O21  1  0.20441031  0.59274847  0.11527124  1
  O  O22  1  0.70441031  0.40725153  0.38472876  1
  O  O23  1  0.79558969  0.40725153  0.88472876  1
