# generated using pymatgen
data_MgTi3V5O16
_symmetry_space_group_name_H-M   'P 1'
_cell_length_a   5.92684016
_cell_length_b   5.91217695
_cell_length_c   9.41454795
_cell_angle_alpha   91.08274104
_cell_angle_beta   89.57586270
_cell_angle_gamma   119.92432761
_symmetry_Int_Tables_number   1
_chemical_formula_structural   MgTi3V5O16
_chemical_formula_sum   'Mg1 Ti3 V5 O16'
_cell_volume   285.85952182
_cell_formula_units_Z   1
loop_
 _symmetry_equiv_pos_site_id
 _symmetry_equiv_pos_as_xyz
  1  'x, y, z'
loop_
 _atom_site_type_symbol
 _atom_site_label
 _atom_site_symmetry_multiplicity
 _atom_site_fract_x
 _atom_site_fract_y
 _atom_site_fract_z
 _atom_site_occupancy
  Mg  Mg0  1  0.82396400  0.63621300  0.44944100  1
  Ti  Ti1  1  0.16357900  0.82098800  0.18438900  1
  Ti  Ti2  1  0.17628400  0.32465800  0.21914400  1
  Ti  Ti3  1  0.32062500  0.12301900  0.70843900  1
  V  V4  1  0.34458200  0.67631300  0.48656900  1
  V  V5  1  0.66833400  0.85591300  0.20993000  1
  V  V6  1  0.67371200  0.32512000  0.98768100  1
  V  V7  1  0.85866400  0.19453000  0.70274000  1
  V  V8  1  0.77765000  0.65623200  0.74614100  1
  O  O9  1  0.14795900  0.82584700  0.59277900  1
  O  O10  1  0.05265600  0.53607100  0.33667700  1
  O  O11  1  0.33513600  0.65761000  0.10233500  1
  O  O12  1  0.00549700  0.99247000  0.31685700  1
  O  O13  1  0.00335800  0.01339100  0.81240700  1
  O  O14  1  0.15994400  0.34139700  0.60485700  1
  O  O15  1  0.49862600  0.96059900  0.32966300  1
  O  O16  1  0.49255200  0.52596200  0.33918400  1
  O  O17  1  0.33770400  0.16330800  0.10606800  1
  O  O18  1  0.67804300  0.83405100  0.59959300  1
  O  O19  1  0.50246400  0.47465700  0.84926600  1
  O  O20  1  0.52322100  0.04084000  0.82053600  1
  O  O21  1  0.66478700  0.35732400  0.60607700  1
  O  O22  1  0.83068600  0.66814400  0.10645800  1
  O  O23  1  0.94244000  0.48257200  0.83994700  1
  O  O24  1  0.85086600  0.17963500  0.10854300  1
