# generated using pymatgen
data_CsTlO2
_symmetry_space_group_name_H-M   'P 1'
_cell_length_a   3.55718816
_cell_length_b   3.55718172
_cell_length_c   13.38652266
_cell_angle_alpha   89.99916881
_cell_angle_beta   90.00033432
_cell_angle_gamma   120.00066804
_symmetry_Int_Tables_number   1
_chemical_formula_structural   CsTlO2
_chemical_formula_sum   'Cs2 Tl2 O4'
_cell_volume   146.69265710
_cell_formula_units_Z   2
loop_
 _symmetry_equiv_pos_site_id
 _symmetry_equiv_pos_as_xyz
  1  'x, y, z'
loop_
 _atom_site_type_symbol
 _atom_site_label
 _atom_site_symmetry_multiplicity
 _atom_site_fract_x
 _atom_site_fract_y
 _atom_site_fract_z
 _atom_site_occupancy
  Cs  Cs0  1  0.33330401  0.66656959  0.74999783  1
  Cs  Cs1  1  0.66669946  0.33324833  0.24998832  1
  Tl  Tl2  1  0.99999683  -0.00000789  -0.00002675  1
  Tl  Tl3  1  0.00000182  0.00006753  0.50002047  1
  O  O4  1  0.33334812  0.66675840  0.41406342  1
  O  O5  1  0.33334294  0.66663308  0.08596045  1
  O  O6  1  0.66665819  0.33341395  0.58596326  1
  O  O7  1  0.66664963  0.33331600  0.91403300  1
