# generated using pymatgen
data_Fe(BO2)2
_symmetry_space_group_name_H-M   'P 1'
_cell_length_a   4.42432487
_cell_length_b   9.13841401
_cell_length_c   5.62321665
_cell_angle_alpha   90.00049574
_cell_angle_beta   90.00023423
_cell_angle_gamma   99.49599198
_symmetry_Int_Tables_number   1
_chemical_formula_structural   Fe(BO2)2
_chemical_formula_sum   'Fe4 B8 O16'
_cell_volume   224.23862963
_cell_formula_units_Z   4
loop_
 _symmetry_equiv_pos_site_id
 _symmetry_equiv_pos_as_xyz
  1  'x, y, z'
loop_
 _atom_site_type_symbol
 _atom_site_label
 _atom_site_symmetry_multiplicity
 _atom_site_fract_x
 _atom_site_fract_y
 _atom_site_fract_z
 _atom_site_occupancy
  Fe  Fe0  1  0.74993540  0.00000574  0.34881600  1
  Fe  Fe1  1  0.74993975  0.50000629  0.15117894  1
  Fe  Fe2  1  0.24993551  0.50000275  0.84882335  1
  Fe  Fe3  1  0.24994426  0.00000297  0.65117942  1
  B  B4  1  0.31164291  0.18639223  0.10773037  1
  B  B5  1  0.81166244  0.68637869  0.60771852  1
  B  B6  1  0.18837484  0.81360484  0.10775050  1
  B  B7  1  0.68834705  0.31361912  0.60772067  1
  B  B8  1  0.68836474  0.81361490  0.89229078  1
  B  B9  1  0.18835617  0.31361446  0.39225743  1
  B  B10  1  0.81165028  0.18638865  0.89227146  1
  B  B11  1  0.31165577  0.68638591  0.39226022  1
  O  O12  1  0.83442031  0.35314941  0.84771670  1
  O  O13  1  0.33444504  0.85315762  0.34772839  1
  O  O14  1  0.66561412  0.64684378  0.84775887  1
  O  O15  1  0.16559174  0.14683582  0.34774751  1
  O  O16  1  0.16560551  0.64683793  0.15225124  1
  O  O17  1  0.66559927  0.14683960  0.65223957  1
  O  O18  1  0.33442845  0.35315407  0.15227570  1
  O  O19  1  0.83443295  0.85315110  0.65228424  1
  O  O20  1  0.60548396  0.13925039  0.08665739  1
  O  O21  1  0.10547779  0.63925468  0.58668370  1
  O  O22  1  0.89452805  0.86075608  0.08668258  1
  O  O23  1  0.39452364  0.36074816  0.58668666  1
  O  O24  1  0.39454879  0.86075121  0.91330813  1
  O  O25  1  0.89451466  0.36075402  0.41331664  1
  O  O26  1  0.10547489  0.13925115  0.91331942  1
  O  O27  1  0.60549972  0.63924743  0.41334558  1
