# generated using pymatgen
data_BaMg14CoO16
_symmetry_space_group_name_H-M   'P 1'
_cell_length_a   8.78081909
_cell_length_b   8.69130482
_cell_length_c   4.50325049
_cell_angle_alpha   90.00000000
_cell_angle_beta   90.00000000
_cell_angle_gamma   90.00000000
_symmetry_Int_Tables_number   1
_chemical_formula_structural   BaMg14CoO16
_chemical_formula_sum   'Ba1 Mg14 Co1 O16'
_cell_volume   343.67355568
_cell_formula_units_Z   1
loop_
 _symmetry_equiv_pos_site_id
 _symmetry_equiv_pos_as_xyz
  1  'x, y, z'
loop_
 _atom_site_type_symbol
 _atom_site_label
 _atom_site_symmetry_multiplicity
 _atom_site_fract_x
 _atom_site_fract_y
 _atom_site_fract_z
 _atom_site_occupancy
  Ba  Ba0  1  0.00000000  0.50000000  0.00000000  1
  Mg  Mg1  1  0.50000000  -0.00000000  0.00000000  1
  Mg  Mg2  1  0.50000000  0.50000000  0.00000000  1
  Mg  Mg3  1  0.00000000  0.23613433  0.50000000  1
  Mg  Mg4  1  0.00000000  0.76386567  0.50000000  1
  Mg  Mg5  1  0.50000000  0.24699775  0.50000000  1
  Mg  Mg6  1  0.50000000  0.75300225  0.50000000  1
  Mg  Mg7  1  0.25153279  -0.00000000  0.50000000  1
  Mg  Mg8  1  0.26470397  0.50000000  0.50000000  1
  Mg  Mg9  1  0.74846721  -0.00000000  0.50000000  1
  Mg  Mg10  1  0.73529603  0.50000000  0.50000000  1
  Mg  Mg11  1  0.25970522  0.24069247  -0.00000000  1
  Mg  Mg12  1  0.25970522  0.75930753  0.00000000  1
  Mg  Mg13  1  0.74029478  0.24069247  -0.00000000  1
  Mg  Mg14  1  0.74029478  0.75930753  0.00000000  1
  Co  Co15  1  0.00000000  -0.00000000  0.00000000  1
  O  O16  1  0.26296653  -0.00000000  0.00000000  1
  O  O17  1  0.28054354  0.50000000  -0.00000000  1
  O  O18  1  0.73703347  -0.00000000  -0.00000000  1
  O  O19  1  0.71945646  0.50000000  0.00000000  1
  O  O20  1  0.24948134  0.24962805  0.50000000  1
  O  O21  1  0.24948134  0.75037195  0.50000000  1
  O  O22  1  0.75051866  0.24962805  0.50000000  1
  O  O23  1  0.75051866  0.75037195  0.50000000  1
  O  O24  1  0.00000000  -0.00000000  0.50000000  1
  O  O25  1  0.00000000  0.50000000  0.50000000  1
  O  O26  1  0.50000000  -0.00000000  0.50000000  1
  O  O27  1  0.50000000  0.50000000  0.50000000  1
  O  O28  1  0.00000000  0.21931618  -0.00000000  1
  O  O29  1  0.00000000  0.78068382  0.00000000  1
  O  O30  1  0.50000000  0.24403216  0.00000000  1
  O  O31  1  0.50000000  0.75596784  -0.00000000  1
