# generated using pymatgen
data_Na6B18Se17
_symmetry_space_group_name_H-M   'P 1'
_cell_length_a   12.26004336
_cell_length_b   12.26031294
_cell_length_c   11.34860056
_cell_angle_alpha   88.95028794
_cell_angle_beta   88.95807678
_cell_angle_gamma   84.91469171
_symmetry_Int_Tables_number   1
_chemical_formula_structural   Na6B18Se17
_chemical_formula_sum   'Na12 B36 Se34'
_cell_volume   1698.59601096
_cell_formula_units_Z   2
loop_
 _symmetry_equiv_pos_site_id
 _symmetry_equiv_pos_as_xyz
  1  'x, y, z'
loop_
 _atom_site_type_symbol
 _atom_site_label
 _atom_site_symmetry_multiplicity
 _atom_site_fract_x
 _atom_site_fract_y
 _atom_site_fract_z
 _atom_site_occupancy
  Na  Na0  1  0.85654479  0.63123617  0.95663404  1
  Na  Na1  1  0.36836817  0.14711242  0.54121918  1
  Na  Na2  1  0.14711252  0.36841682  0.04125827  1
  Na  Na3  1  0.63125890  0.85656483  0.45663759  1
  Na  Na4  1  0.00296358  0.00022929  0.00052767  1
  Na  Na5  1  0.00025760  0.00297387  0.50054263  1
  Na  Na6  1  0.73957991  0.30384629  0.92845061  1
  Na  Na7  1  0.68576462  0.25929788  0.57610384  1
  Na  Na8  1  0.25929171  0.68577187  0.07608078  1
  Na  Na9  1  0.30387793  0.73950575  0.42839507  1
  Na  Na10  1  0.59008412  0.47483239  0.28314405  1
  Na  Na11  1  0.47483981  0.59010444  0.78317998  1
  B  B12  1  0.49285030  0.87985319  0.07275916  1
  B  B13  1  0.12127389  0.50618827  0.42738416  1
  B  B14  1  0.50618370  0.12128757  0.92739273  1
  B  B15  1  0.87985130  0.49282959  0.57273573  1
  B  B16  1  0.49476125  0.00521517  0.14816808  1
  B  B17  1  0.99581947  0.50388082  0.35194676  1
  B  B18  1  0.50388516  0.99584584  0.85196286  1
  B  B19  1  0.00522290  0.49474234  0.64815514  1
  B  B20  1  0.56928182  0.88950470  0.94031512  1
  B  B21  1  0.11210068  0.42902962  0.55952315  1
  B  B22  1  0.42903868  0.11210736  0.05952593  1
  B  B23  1  0.88947677  0.56926479  0.44028361  1
  B  B24  1  0.31420417  0.97712932  0.32211359  1
  B  B25  1  0.02262378  0.68519378  0.17835645  1
  B  B26  1  0.68518863  0.02266259  0.67839518  1
  B  B27  1  0.97713638  0.31414832  0.82209443  1
  B  B28  1  0.37837547  0.97990128  0.06813998  1
  B  B29  1  0.02107495  0.62036714  0.43219528  1
  B  B30  1  0.62037827  0.02110714  0.93222038  1
  B  B31  1  0.97990596  0.37835688  0.56813018  1
  B  B32  1  0.61346682  0.95002970  0.07000611  1
  B  B33  1  0.05066052  0.38532921  0.43010753  1
  B  B34  1  0.38532931  0.05066504  0.93010864  1
  B  B35  1  0.95003301  0.61343873  0.56995300  1
  B  B36  1  0.77768107  0.06068818  0.18839032  1
  B  B37  1  0.93927251  0.22099944  0.31048874  1
  B  B38  1  0.22101682  0.93926788  0.81048074  1
  B  B39  1  0.06067971  0.77770265  0.68831030  1
  B  B40  1  0.57419592  0.09118935  0.06245249  1
  B  B41  1  0.90965983  0.42446904  0.43813198  1
  B  B42  1  0.42448119  0.90966442  0.93814622  1
  B  B43  1  0.09120107  0.57419856  0.56243139  1
  B  B44  1  0.60099017  0.65737421  0.02450536  1
  B  B45  1  0.34377162  0.39904491  0.47404817  1
  B  B46  1  0.39905856  0.34379161  0.97400048  1
  B  B47  1  0.65735842  0.60102039  0.52450841  1
  Se  Se48  1  0.49793053  0.72824629  0.14324880  1
  Se  Se49  1  0.27153746  0.50129178  0.35460502  1
  Se  Se50  1  0.50130099  0.27154024  0.85457768  1
  Se  Se51  1  0.72827495  0.49795091  0.64326810  1
  Se  Se52  1  0.66454338  0.51129141  0.04509574  1
  Se  Se53  1  0.48837472  0.33243608  0.44683685  1
  Se  Se54  1  0.33243216  0.48838195  0.94679212  1
  Se  Se55  1  0.51133176  0.66466304  0.54519242  1
  Se  Se56  1  0.23933234  0.96947181  0.47101235  1
  Se  Se57  1  0.03061495  0.76066889  0.02988835  1
  Se  Se58  1  0.76071892  0.03057114  0.52995081  1
  Se  Se59  1  0.96956696  0.23925379  0.97102307  1
  Se  Se60  1  0.75137129  0.90963981  0.15876972  1
  Se  Se61  1  0.09003262  0.24761014  0.34026231  1
  Se  Se62  1  0.24762113  0.09002646  0.84024026  1
  Se  Se63  1  0.90962144  0.75139124  0.65862006  1
  Se  Se64  1  0.67382301  0.18382404  0.14726585  1
  Se  Se65  1  0.81617569  0.32387486  0.35665673  1
  Se  Se66  1  0.32388492  0.81618118  0.85667337  1
  Se  Se67  1  0.18384797  0.67388044  0.64715103  1
  Se  Se68  1  0.92546879  0.07360241  0.24930352  1
  Se  Se69  1  0.07361372  0.92546919  0.74928420  1
  Se  Se70  1  0.24635561  0.95386663  0.16857678  1
  Se  Se71  1  0.04548142  0.75299843  0.33198860  1
  Se  Se72  1  0.75298487  0.04562847  0.83201130  1
  Se  Se73  1  0.95386231  0.24634016  0.66856516  1
  Se  Se74  1  0.47012314  0.00691999  0.32232563  1
  Se  Se75  1  0.99365344  0.52890936  0.17774033  1
  Se  Se76  1  0.52888777  0.99371546  0.67775883  1
  Se  Se77  1  0.00690865  0.47008178  0.82231229  1
  Se  Se78  1  0.64076942  0.74601287  0.88468543  1
  Se  Se79  1  0.25671920  0.35959349  0.61420530  1
  Se  Se80  1  0.35962938  0.25672484  0.11420491  1
  Se  Se81  1  0.74597035  0.64075937  0.38466660  1
