# generated using pymatgen
data_Be2CoCu
_symmetry_space_group_name_H-M   'P 1'
_cell_length_a   9.12734127
_cell_length_b   9.12734127
_cell_length_c   9.12734127
_cell_angle_alpha   123.32694566
_cell_angle_beta   119.57304931
_cell_angle_gamma   87.53846647
_symmetry_Int_Tables_number   1
_chemical_formula_structural   Be2CoCu
_chemical_formula_sum   'Be2 Co1 Cu1'
_cell_volume   524.61771003
_cell_formula_units_Z   1
loop_
 _symmetry_equiv_pos_site_id
 _symmetry_equiv_pos_as_xyz
  1  'x, y, z'
loop_
 _atom_site_type_symbol
 _atom_site_label
 _atom_site_symmetry_multiplicity
 _atom_site_fract_x
 _atom_site_fract_y
 _atom_site_fract_z
 _atom_site_occupancy
  Be  Be0  1  0.00000000  0.25224160  0.25224160  1
  Be  Be1  1  -0.00000000  0.74775840  0.74775840  1
  Co  Co2  1  0.00000000  -0.00000000  -0.00000000  1
  Cu  Cu3  1  0.00000000  0.50000000  0.50000000  1
