# generated using pymatgen
data_Na4FeNi(PO4)3
_symmetry_space_group_name_H-M   'P 1'
_cell_length_a   8.67102139
_cell_length_b   8.67102139
_cell_length_c   8.67102165
_cell_angle_alpha   61.52780764
_cell_angle_beta   61.52780764
_cell_angle_gamma   61.52781003
_symmetry_Int_Tables_number   1
_chemical_formula_structural   Na4FeNi(PO4)3
_chemical_formula_sum   'Na8 Fe2 Ni2 P6 O24'
_cell_volume   476.80144605
_cell_formula_units_Z   2
loop_
 _symmetry_equiv_pos_site_id
 _symmetry_equiv_pos_as_xyz
  1  'x, y, z'
loop_
 _atom_site_type_symbol
 _atom_site_label
 _atom_site_symmetry_multiplicity
 _atom_site_fract_x
 _atom_site_fract_y
 _atom_site_fract_z
 _atom_site_occupancy
  Na  Na0  1  0.49790695  0.49790695  0.49790695  1
  Na  Na1  1  0.99790695  0.99790695  0.99790695  1
  Na  Na2  1  0.74296443  0.11537064  0.38567743  1
  Na  Na3  1  0.38567743  0.74296443  0.11537064  1
  Na  Na4  1  0.11537064  0.38567743  0.74296443  1
  Na  Na5  1  0.88567743  0.61537064  0.24296443  1
  Na  Na6  1  0.24296443  0.88567743  0.61537064  1
  Na  Na7  1  0.61537064  0.24296443  0.88567743  1
  Fe  Fe8  1  0.64765264  0.64765264  0.64765264  1
  Fe  Fe9  1  0.14765264  0.14765264  0.14765264  1
  Ni  Ni10  1  0.35398479  0.35398479  0.35398479  1
  Ni  Ni11  1  0.85398479  0.85398479  0.85398479  1
  P  P12  1  0.75379866  0.45321495  0.04607849  1
  P  P13  1  0.04607849  0.75379866  0.45321495  1
  P  P14  1  0.45321495  0.04607849  0.75379866  1
  P  P15  1  0.54607849  0.95321495  0.25379866  1
  P  P16  1  0.25379866  0.54607849  0.95321495  1
  P  P17  1  0.95321495  0.25379866  0.54607849  1
  O  O18  1  0.11262075  0.30473301  0.51489625  1
  O  O19  1  0.51489625  0.11262075  0.30473301  1
  O  O20  1  0.30473301  0.51489625  0.11262075  1
  O  O21  1  0.01489625  0.80473301  0.61262075  1
  O  O22  1  0.61262075  0.01489625  0.80473301  1
  O  O23  1  0.80473301  0.61262075  0.01489625  1
  O  O24  1  0.87896163  0.70635619  0.48777115  1
  O  O25  1  0.48777115  0.87896163  0.70635619  1
  O  O26  1  0.70635619  0.48777115  0.87896163  1
  O  O27  1  0.98777115  0.20635619  0.37896163  1
  O  O28  1  0.37896163  0.98777115  0.20635619  1
  O  O29  1  0.20635619  0.37896163  0.98777115  1
  O  O30  1  0.22772146  0.59202018  0.43134529  1
  O  O31  1  0.43134529  0.22772146  0.59202018  1
  O  O32  1  0.59202018  0.43134529  0.22772146  1
  O  O33  1  0.93134529  0.09202018  0.72772146  1
  O  O34  1  0.72772146  0.93134529  0.09202018  1
  O  O35  1  0.09202018  0.72772146  0.93134529  1
  O  O36  1  0.76866372  0.41729570  0.56103068  1
  O  O37  1  0.56103068  0.76866372  0.41729570  1
  O  O38  1  0.41729570  0.56103068  0.76866372  1
  O  O39  1  0.06103068  0.91729570  0.26866372  1
  O  O40  1  0.26866372  0.06103068  0.91729570  1
  O  O41  1  0.91729570  0.26866372  0.06103068  1
