# generated using pymatgen
data_CaVFe(P2O7)2
_symmetry_space_group_name_H-M   'P 1'
_cell_length_a   4.98698429
_cell_length_b   8.34878000
_cell_length_c   7.07289213
_cell_angle_alpha   88.93795263
_cell_angle_beta   106.50002105
_cell_angle_gamma   90.12174908
_symmetry_Int_Tables_number   1
_chemical_formula_structural   CaVFe(P2O7)2
_chemical_formula_sum   'Ca1 V1 Fe1 P4 O14'
_cell_volume   282.30464647
_cell_formula_units_Z   1
loop_
 _symmetry_equiv_pos_site_id
 _symmetry_equiv_pos_as_xyz
  1  'x, y, z'
loop_
 _atom_site_type_symbol
 _atom_site_label
 _atom_site_symmetry_multiplicity
 _atom_site_fract_x
 _atom_site_fract_y
 _atom_site_fract_z
 _atom_site_occupancy
  Ca  Ca0  1  0.67088800  0.88421100  0.83903700  1
  V  V1  1  0.20972200  0.49755800  0.72617600  1
  Fe  Fe2  1  0.79766400  0.01582800  0.29313900  1
  P  P3  1  0.38147500  0.19526300  0.50055500  1
  P  P4  1  0.24318400  0.77361400  0.10593000  1
  P  P5  1  0.76251000  0.27491300  0.89837100  1
  P  P6  1  0.61984100  0.68078500  0.48807900  1
  O  O7  1  0.01834200  0.32624200  0.83757900  1
  O  O8  1  0.13657200  0.68473500  0.91211800  1
  O  O9  1  0.16014800  0.06347100  0.47966000  1
  O  O10  1  0.27838900  0.36396800  0.50653400  1
  O  O11  1  0.44657900  0.67339800  0.63878800  1
  O  O12  1  0.56998500  0.41179500  0.91439500  1
  O  O13  1  0.58627300  0.15157100  0.72385200  1
  O  O14  1  0.41250100  0.64873600  0.27255400  1
  O  O15  1  0.44958900  0.90680500  0.08634200  1
  O  O16  1  0.56174800  0.17668700  0.36081700  1
  O  O17  1  0.72448100  0.85610900  0.49773600  1
  O  O18  1  0.85045800  0.55794400  0.52283300  1
  O  O19  1  0.83943100  0.15155900  0.06784900  1
  O  O20  1  0.98860300  0.83804500  0.16084100  1
