# generated using pymatgen
data_MgZn3S4
_symmetry_space_group_name_H-M   'P 1'
_cell_length_a   3.85446654
_cell_length_b   6.31228017
_cell_length_c   6.69321852
_cell_angle_alpha   89.95487729
_cell_angle_beta   90.00000000
_cell_angle_gamma   90.00000000
_symmetry_Int_Tables_number   1
_chemical_formula_structural   MgZn3S4
_chemical_formula_sum   'Mg1 Zn3 S4'
_cell_volume   162.84911990
_cell_formula_units_Z   1
loop_
 _symmetry_equiv_pos_site_id
 _symmetry_equiv_pos_as_xyz
  1  'x, y, z'
loop_
 _atom_site_type_symbol
 _atom_site_label
 _atom_site_symmetry_multiplicity
 _atom_site_fract_x
 _atom_site_fract_y
 _atom_site_fract_z
 _atom_site_occupancy
  Mg  Mg0  1  0.00000000  0.50036641  0.33346099  1
  Zn  Zn1  1  0.50000000  0.49957969  0.83328654  1
  Zn  Zn2  1  0.50000000  0.99926586  0.16347546  1
  Zn  Zn3  1  -0.00000000  0.99868500  0.67020412  1
  S  S4  1  0.00000000  0.11304079  0.33458206  1
  S  S5  1  0.50000000  0.12705943  0.83257001  1
  S  S6  1  0.50000000  0.63032256  0.15652868  1
  S  S7  1  0.00000000  0.62767926  0.67589115  1
