# generated using pymatgen
data_Ba2Ge2Te5
_symmetry_space_group_name_H-M   'P 1'
_cell_length_a   9.33584056
_cell_length_b   10.07829695
_cell_length_c   13.61773952
_cell_angle_alpha   90.00000000
_cell_angle_beta   90.00000000
_cell_angle_gamma   90.00000000
_symmetry_Int_Tables_number   1
_chemical_formula_structural   Ba2Ge2Te5
_chemical_formula_sum   'Ba8 Ge8 Te20'
_cell_volume   1281.28457913
_cell_formula_units_Z   4
loop_
 _symmetry_equiv_pos_site_id
 _symmetry_equiv_pos_as_xyz
  1  'x, y, z'
loop_
 _atom_site_type_symbol
 _atom_site_label
 _atom_site_symmetry_multiplicity
 _atom_site_fract_x
 _atom_site_fract_y
 _atom_site_fract_z
 _atom_site_occupancy
  Ba  Ba0  1  0.60369305  0.91922053  0.33477104  1
  Ba  Ba1  1  0.39630695  0.41922053  0.66522896  1
  Ba  Ba2  1  0.89630695  0.91922053  0.83477104  1
  Ba  Ba3  1  0.10369305  0.41922053  0.16522896  1
  Ba  Ba4  1  0.56092855  0.43709966  0.31835506  1
  Ba  Ba5  1  0.43907145  0.93709966  0.68164494  1
  Ba  Ba6  1  0.93907145  0.43709966  0.81835506  1
  Ba  Ba7  1  0.06092855  0.93709966  0.18164494  1
  Ge  Ge8  1  0.17815734  0.72930391  0.52210728  1
  Ge  Ge9  1  0.82184266  0.22930391  0.47789272  1
  Ge  Ge10  1  0.32184266  0.72930391  0.02210728  1
  Ge  Ge11  1  0.67815734  0.22930391  0.97789272  1
  Ge  Ge12  1  0.02593541  0.56352412  0.43631701  1
  Ge  Ge13  1  0.97406459  0.06352412  0.56368299  1
  Ge  Ge14  1  0.47406459  0.56352412  0.93631701  1
  Ge  Ge15  1  0.52593541  0.06352412  0.06368299  1
  Te  Te16  1  0.20082921  0.36699738  0.41664303  1
  Te  Te17  1  0.79917079  0.86699738  0.58335697  1
  Te  Te18  1  0.29917079  0.36699738  0.91664303  1
  Te  Te19  1  0.70082921  0.86699738  0.08335697  1
  Te  Te20  1  0.17466697  0.97086149  0.44733738  1
  Te  Te21  1  0.82533303  0.47086149  0.55266262  1
  Te  Te22  1  0.32533303  0.97086149  0.94733738  1
  Te  Te23  1  0.67466697  0.47086149  0.05266262  1
  Te  Te24  1  0.87894536  0.65646989  0.28964339  1
  Te  Te25  1  0.12105464  0.15646989  0.71035661  1
  Te  Te26  1  0.62105464  0.65646989  0.78964339  1
  Te  Te27  1  0.37894536  0.15646989  0.21035661  1
  Te  Te28  1  0.15670967  0.70087101  0.71236798  1
  Te  Te29  1  0.84329033  0.20087101  0.28763202  1
  Te  Te30  1  0.34329033  0.70087101  0.21236798  1
  Te  Te31  1  0.65670967  0.20087101  0.78763202  1
  Te  Te32  1  0.45127701  0.68315102  0.49582120  1
  Te  Te33  1  0.54872299  0.18315102  0.50417880  1
  Te  Te34  1  0.04872299  0.68315102  0.99582120  1
  Te  Te35  1  0.95127701  0.18315102  0.00417880  1
