# generated using pymatgen
data_Na9Fe(MoO4)6
_symmetry_space_group_name_H-M   'P 1'
_cell_length_a   10.88922519
_cell_length_b   10.88922519
_cell_length_c   10.88922493
_cell_angle_alpha   87.81806014
_cell_angle_beta   87.81806014
_cell_angle_gamma   87.81805684
_symmetry_Int_Tables_number   1
_chemical_formula_structural   Na9Fe(MoO4)6
_chemical_formula_sum   'Na18 Fe2 Mo12 O48'
_cell_volume   1288.45319661
_cell_formula_units_Z   2
loop_
 _symmetry_equiv_pos_site_id
 _symmetry_equiv_pos_as_xyz
  1  'x, y, z'
loop_
 _atom_site_type_symbol
 _atom_site_label
 _atom_site_symmetry_multiplicity
 _atom_site_fract_x
 _atom_site_fract_y
 _atom_site_fract_z
 _atom_site_occupancy
  Na  Na0  1  0.53096989  0.97770585  0.73952158  1
  Na  Na1  1  0.97770585  0.73952158  0.53096989  1
  Na  Na2  1  0.73952158  0.53096989  0.97770585  1
  Na  Na3  1  0.46903011  0.02229415  0.26047842  1
  Na  Na4  1  0.02229415  0.26047842  0.46903011  1
  Na  Na5  1  0.26047842  0.46903011  0.02229415  1
  Na  Na6  1  0.73139537  0.17949220  0.93634105  1
  Na  Na7  1  0.17949220  0.93634105  0.73139537  1
  Na  Na8  1  0.93634105  0.73139537  0.17949220  1
  Na  Na9  1  0.26860463  0.82050780  0.06365895  1
  Na  Na10  1  0.82050780  0.06365895  0.26860463  1
  Na  Na11  1  0.06365895  0.26860463  0.82050780  1
  Na  Na12  1  0.32765797  0.79053237  0.53167868  1
  Na  Na13  1  0.79053237  0.53167868  0.32765797  1
  Na  Na14  1  0.53167868  0.32765797  0.79053237  1
  Na  Na15  1  0.67234203  0.20946763  0.46832132  1
  Na  Na16  1  0.20946763  0.46832132  0.67234203  1
  Na  Na17  1  0.46832132  0.67234203  0.20946763  1
  Fe  Fe18  1  0.74640458  0.74640458  0.74640458  1
  Fe  Fe19  1  0.25359542  0.25359542  0.25359542  1
  Mo  Mo20  1  0.64112582  0.83039998  0.44823579  1
  Mo  Mo21  1  0.83039998  0.44823579  0.64112582  1
  Mo  Mo22  1  0.44823579  0.64112582  0.83039998  1
  Mo  Mo23  1  0.35887418  0.16960002  0.55176421  1
  Mo  Mo24  1  0.16960002  0.55176421  0.35887418  1
  Mo  Mo25  1  0.55176421  0.35887418  0.16960002  1
  Mo  Mo26  1  0.34192455  0.12749740  0.96254352  1
  Mo  Mo27  1  0.12749740  0.96254352  0.34192455  1
  Mo  Mo28  1  0.96254352  0.34192455  0.12749740  1
  Mo  Mo29  1  0.65807545  0.87250260  0.03745648  1
  Mo  Mo30  1  0.87250260  0.03745648  0.65807545  1
  Mo  Mo31  1  0.03745648  0.65807545  0.87250260  1
  O  O32  1  0.77166587  0.74922638  0.38566581  1
  O  O33  1  0.74922638  0.38566581  0.77166587  1
  O  O34  1  0.38566581  0.77166587  0.74922638  1
  O  O35  1  0.22833413  0.25077362  0.61433419  1
  O  O36  1  0.25077362  0.61433419  0.22833413  1
  O  O37  1  0.61433419  0.22833413  0.25077362  1
  O  O38  1  0.50326490  0.77215675  0.39155019  1
  O  O39  1  0.77215675  0.39155019  0.50326490  1
  O  O40  1  0.39155019  0.50326490  0.77215675  1
  O  O41  1  0.49673510  0.22784325  0.60844981  1
  O  O42  1  0.22784325  0.60844981  0.49673510  1
  O  O43  1  0.60844981  0.49673510  0.22784325  1
  O  O44  1  0.64473000  0.98998194  0.39905626  1
  O  O45  1  0.98998194  0.39905626  0.64473000  1
  O  O46  1  0.39905626  0.64473000  0.98998194  1
  O  O47  1  0.35527000  0.01001806  0.60094374  1
  O  O48  1  0.01001806  0.60094374  0.35527000  1
  O  O49  1  0.60094374  0.35527000  0.01001806  1
  O  O50  1  0.63106188  0.81674386  0.61672156  1
  O  O51  1  0.81674386  0.61672156  0.63106188  1
  O  O52  1  0.61672156  0.63106188  0.81674386  1
  O  O53  1  0.36893812  0.18325614  0.38327844  1
  O  O54  1  0.18325614  0.38327844  0.36893812  1
  O  O55  1  0.38327844  0.36893812  0.18325614  1
  O  O56  1  0.27193141  0.26257894  0.89580334  1
  O  O57  1  0.26257894  0.89580334  0.27193141  1
  O  O58  1  0.89580334  0.27193141  0.26257894  1
  O  O59  1  0.72806859  0.73742106  0.10419666  1
  O  O60  1  0.73742106  0.10419666  0.72806859  1
  O  O61  1  0.10419666  0.72806859  0.73742106  1
  O  O62  1  0.26582686  0.99583158  0.91479695  1
  O  O63  1  0.99583158  0.91479695  0.26582686  1
  O  O64  1  0.91479695  0.26582686  0.99583158  1
  O  O65  1  0.73417314  0.00416842  0.08520305  1
  O  O66  1  0.00416842  0.08520305  0.73417314  1
  O  O67  1  0.08520305  0.73417314  0.00416842  1
  O  O68  1  0.49905465  0.12095345  0.90490947  1
  O  O69  1  0.12095345  0.90490947  0.49905465  1
  O  O70  1  0.90490947  0.49905465  0.12095345  1
  O  O71  1  0.50094535  0.87904655  0.09509053  1
  O  O72  1  0.87904655  0.09509053  0.50094535  1
  O  O73  1  0.09509053  0.50094535  0.87904655  1
  O  O74  1  0.32911023  0.13434189  0.13138914  1
  O  O75  1  0.13434189  0.13138914  0.32911023  1
  O  O76  1  0.13138914  0.32911023  0.13434189  1
  O  O77  1  0.67088977  0.86565811  0.86861086  1
  O  O78  1  0.86565811  0.86861086  0.67088977  1
  O  O79  1  0.86861086  0.67088977  0.86565811  1
