# generated using pymatgen
data_Nb2O5
_symmetry_space_group_name_H-M   'P 1'
_cell_length_a   3.86188500
_cell_length_b   14.71473807
_cell_length_c   15.43641314
_cell_angle_alpha   73.15199910
_cell_angle_beta   82.81351527
_cell_angle_gamma   82.47339414
_symmetry_Int_Tables_number   1
_chemical_formula_structural   Nb2O5
_chemical_formula_sum   'Nb16 O40'
_cell_volume   828.79677420
_cell_formula_units_Z   8
loop_
 _symmetry_equiv_pos_site_id
 _symmetry_equiv_pos_as_xyz
  1  'x, y, z'
loop_
 _atom_site_type_symbol
 _atom_site_label
 _atom_site_symmetry_multiplicity
 _atom_site_fract_x
 _atom_site_fract_y
 _atom_site_fract_z
 _atom_site_occupancy
  Nb  Nb0  1  0.83036300  0.24707400  0.90357200  1
  Nb  Nb1  1  0.69419700  0.51187300  0.90244300  1
  Nb  Nb2  1  0.03889700  0.02300300  0.10119700  1
  Nb  Nb3  1  0.67092100  0.32896400  0.62887800  1
  Nb  Nb4  1  0.36373900  0.67209000  0.37108200  1
  Nb  Nb5  1  0.17192400  0.75351300  0.09687600  1
  Nb  Nb6  1  0.46773400  0.40899800  0.36809800  1
  Nb  Nb7  1  0.21718000  0.93991200  0.37141400  1
  Nb  Nb8  1  0.30624200  0.48834800  0.09817600  1
  Nb  Nb9  1  0.96145200  0.97800400  0.89906400  1
  Nb  Nb10  1  0.78056500  0.06097500  0.62901800  1
  Nb  Nb11  1  0.44221600  0.21661200  0.10042600  1
  Nb  Nb12  1  0.38456000  0.86213900  0.63439400  1
  Nb  Nb13  1  0.61262100  0.13862400  0.36614700  1
  Nb  Nb14  1  0.53459200  0.59216100  0.63192900  1
  Nb  Nb15  1  0.55930200  0.78359800  0.90039400  1
  O  O16  1  0.35779300  0.23252500  0.94493300  1
  O  O17  1  0.37185600  0.34407100  0.08994500  1
  O  O18  1  0.70202500  0.09206900  0.49858400  1
  O  O19  1  0.87118400  0.89744400  0.64197200  1
  O  O20  1  0.51342600  0.06051000  0.08723200  1
  O  O21  1  0.61225100  0.54890900  0.77961700  1
  O  O22  1  0.47292700  0.83428100  0.77767500  1
  O  O23  1  0.94444000  0.18621600  0.07419300  1
  O  O24  1  0.87957700  0.01796200  0.77645400  1
  O  O25  1  0.24499600  0.72936500  0.21740400  1
  O  O26  1  0.75826600  0.27178300  0.78276000  1
  O  O27  1  0.22746100  0.62636200  0.08203800  1
  O  O28  1  0.05681700  0.81441200  0.92629600  1
  O  O29  1  0.54645500  0.26527200  0.35457800  1
  O  O30  1  0.92544800  0.09066700  0.93869000  1
  O  O31  1  0.41297400  0.54151600  0.36268500  1
  O  O32  1  0.98481900  0.39570200  0.35851600  1
  O  O33  1  0.69146700  0.97916700  0.36106400  1
  O  O34  1  0.52813900  0.16525000  0.22315900  1
  O  O35  1  0.38873500  0.45126000  0.22102500  1
  O  O36  1  0.72108700  0.18315100  0.63665000  1
  O  O37  1  0.58642400  0.45957500  0.63726100  1
  O  O38  1  0.16818600  0.31444100  0.64892200  1
  O  O39  1  0.62871900  0.65595800  0.91170200  1
  O  O40  1  0.01688700  0.60491700  0.64246000  1
  O  O41  1  0.11941700  0.98415700  0.22387000  1
  O  O42  1  0.78879000  0.48601800  0.06307200  1
  O  O43  1  0.27526200  0.81812200  0.36291500  1
  O  O44  1  0.57558700  0.35847600  0.49983700  1
  O  O45  1  0.21204900  0.51386500  0.93801000  1
  O  O46  1  0.43015600  0.64293300  0.50025600  1
  O  O47  1  0.29685800  0.90814600  0.50200300  1
  O  O48  1  0.30721100  0.02135800  0.63981100  1
  O  O49  1  0.12728200  0.10314600  0.35913700  1
  O  O50  1  0.48701100  0.94047900  0.91277700  1
  O  O51  1  0.64387900  0.76837400  0.05559900  1
  O  O52  1  0.77350500  0.37402800  0.91888200  1
  O  O53  1  0.45235500  0.73543900  0.64563800  1
  O  O54  1  0.83469000  0.68579700  0.35131300  1
  O  O55  1  0.07576300  0.91032500  0.06155200  1
