# generated using pymatgen
data_KNb4Ag(PS10)2
_symmetry_space_group_name_H-M   'P 1'
_cell_length_a   7.25383303
_cell_length_b   7.32646246
_cell_length_c   13.03494439
_cell_angle_alpha   89.92277116
_cell_angle_beta   76.45638177
_cell_angle_gamma   89.32821845
_symmetry_Int_Tables_number   1
_chemical_formula_structural   KNb4Ag(PS10)2
_chemical_formula_sum   'K1 Nb4 Ag1 P2 S20'
_cell_volume   673.43048668
_cell_formula_units_Z   1
loop_
 _symmetry_equiv_pos_site_id
 _symmetry_equiv_pos_as_xyz
  1  'x, y, z'
loop_
 _atom_site_type_symbol
 _atom_site_label
 _atom_site_symmetry_multiplicity
 _atom_site_fract_x
 _atom_site_fract_y
 _atom_site_fract_z
 _atom_site_occupancy
  K  K0  1  0.58410988  0.49866728  0.40973088  1
  Nb  Nb1  1  0.00170621  0.06735069  0.89539558  1
  Nb  Nb2  1  0.99641393  0.93584771  0.10465425  1
  Nb  Nb3  1  0.00086747  0.06503586  0.60601223  1
  Nb  Nb4  1  0.99875372  0.93303679  0.39693309  1
  Ag  Ag5  1  0.50911409  0.50088561  0.99830836  1
  P  P6  1  0.79064001  0.38521637  0.77714152  1
  P  P7  1  0.20441157  0.61674186  0.22125740  1
  S  S8  1  0.24937309  0.10809712  0.71784586  1
  S  S9  1  0.74820318  0.89591583  0.28296779  1
  S  S10  1  0.74294689  0.10512726  0.78394705  1
  S  S11  1  0.25587448  0.89473807  0.21679826  1
  S  S12  1  0.71909138  0.08249188  0.04993735  1
  S  S13  1  0.27891454  0.91985874  0.95095843  1
  S  S14  1  0.12606714  0.85791513  0.73469881  1
  S  S15  1  0.87432057  0.14448581  0.26862246  1
  S  S16  1  0.78328669  0.82716533  0.99133308  1
  S  S17  1  0.21513823  0.17540015  0.00908913  1
  S  S18  1  0.55649304  0.53971138  0.80769308  1
  S  S19  1  0.43918413  0.45997269  0.18973725  1
  S  S20  1  0.95157725  0.41710617  0.88508902  1
  S  S21  1  0.04136165  0.58406230  0.11561635  1
  S  S22  1  0.77881504  0.82468806  0.56626688  1
  S  S23  1  0.22218955  0.16926466  0.43599390  1
  S  S24  1  0.72258681  0.08134346  0.52298678  1
  S  S25  1  0.27605214  0.91283071  0.48074229  1
  S  S26  1  0.94447476  0.41621554  0.62524543  1
  S  S27  1  0.05663356  0.58062959  0.37469551  1
