# generated using pymatgen
data_Cs3Sm7Se12
_symmetry_space_group_name_H-M   'P 1'
_cell_length_a   4.26144220
_cell_length_b   13.05817583
_cell_length_c   26.76286729
_cell_angle_alpha   90.00000000
_cell_angle_beta   90.00000000
_cell_angle_gamma   90.00000000
_symmetry_Int_Tables_number   1
_chemical_formula_structural   Cs3Sm7Se12
_chemical_formula_sum   'Cs6 Sm14 Se24'
_cell_volume   1489.26421785
_cell_formula_units_Z   2
loop_
 _symmetry_equiv_pos_site_id
 _symmetry_equiv_pos_as_xyz
  1  'x, y, z'
loop_
 _atom_site_type_symbol
 _atom_site_label
 _atom_site_symmetry_multiplicity
 _atom_site_fract_x
 _atom_site_fract_y
 _atom_site_fract_z
 _atom_site_occupancy
  Cs  Cs0  1  0.50000000  0.53329695  0.12925321  1
  Cs  Cs1  1  0.50000000  0.96005927  0.86322989  1
  Cs  Cs2  1  -0.00000000  0.03994073  0.36322989  1
  Cs  Cs3  1  -0.00000000  0.46670305  0.62925321  1
  Cs  Cs4  1  0.50000000  0.80507209  0.47300743  1
  Cs  Cs5  1  0.00000000  0.19492791  0.97300743  1
  Sm  Sm6  1  0.50000000  0.46587678  0.41800851  1
  Sm  Sm7  1  0.50000000  0.03086578  0.58453246  1
  Sm  Sm8  1  0.00000000  0.96913422  0.08453246  1
  Sm  Sm9  1  -0.00000000  0.53412322  0.91800851  1
  Sm  Sm10  1  0.00000000  0.24554945  0.49942707  1
  Sm  Sm11  1  0.50000000  0.75445055  0.99942707  1
  Sm  Sm12  1  0.50000000  0.33027685  0.81728455  1
  Sm  Sm13  1  0.50000000  0.17409245  0.18185520  1
  Sm  Sm14  1  0.00000000  0.82590755  0.68185520  1
  Sm  Sm15  1  0.00000000  0.66972315  0.31728455  1
  Sm  Sm16  1  0.50000000  0.65652753  0.78800263  1
  Sm  Sm17  1  0.50000000  0.84219766  0.21198493  1
  Sm  Sm18  1  0.00000000  0.15780234  0.71198493  1
  Sm  Sm19  1  0.00000000  0.34347247  0.28800263  1
  Se  Se20  1  0.50000000  0.39484253  0.51848861  1
  Se  Se21  1  0.50000000  0.09248709  0.48088129  1
  Se  Se22  1  0.00000000  0.90751291  0.98088129  1
  Se  Se23  1  0.00000000  0.60515747  0.01848861  1
  Se  Se24  1  0.50000000  0.30387264  0.71105146  1
  Se  Se25  1  0.50000000  0.19740143  0.28851680  1
  Se  Se26  1  0.00000000  0.80259857  0.78851680  1
  Se  Se27  1  0.00000000  0.69612736  0.21105146  1
  Se  Se28  1  0.50000000  0.67787737  0.67979404  1
  Se  Se29  1  0.50000000  0.81979651  0.32242137  1
  Se  Se30  1  -0.00000000  0.18020349  0.82242137  1
  Se  Se31  1  0.00000000  0.32212263  0.17979404  1
  Se  Se32  1  0.50000000  0.38258627  0.92219754  1
  Se  Se33  1  0.50000000  0.12077674  0.07725148  1
  Se  Se34  1  0.00000000  0.87922326  0.57725148  1
  Se  Se35  1  -0.00000000  0.61741373  0.42219754  1
  Se  Se36  1  0.50000000  0.50468802  0.30434883  1
  Se  Se37  1  0.50000000  0.99466004  0.69664527  1
  Se  Se38  1  -0.00000000  0.00533996  0.19664527  1
  Se  Se39  1  0.00000000  0.49531198  0.80434883  1
  Se  Se40  1  0.50000000  0.68251192  0.89666495  1
  Se  Se41  1  0.50000000  0.81947695  0.10361448  1
  Se  Se42  1  0.00000000  0.18052305  0.60361448  1
  Se  Se43  1  -0.00000000  0.31748808  0.39666495  1
