# generated using pymatgen
data_CsMoN3O11
_symmetry_space_group_name_H-M   'P 1'
_cell_length_a   7.68315736
_cell_length_b   7.68315736
_cell_length_c   9.97661932
_cell_angle_alpha   69.60367550
_cell_angle_beta   69.60367550
_cell_angle_gamma   65.25461986
_symmetry_Int_Tables_number   1
_chemical_formula_structural   CsMoN3O11
_chemical_formula_sum   'Cs2 Mo2 N6 O22'
_cell_volume   486.90841066
_cell_formula_units_Z   2
loop_
 _symmetry_equiv_pos_site_id
 _symmetry_equiv_pos_as_xyz
  1  'x, y, z'
loop_
 _atom_site_type_symbol
 _atom_site_label
 _atom_site_symmetry_multiplicity
 _atom_site_fract_x
 _atom_site_fract_y
 _atom_site_fract_z
 _atom_site_occupancy
  Cs  Cs0  1  -0.00086420  0.00086420  0.00000000  1
  Cs  Cs1  1  0.60811528  0.39188472  0.50000000  1
  Mo  Mo2  1  0.69269957  0.70057016  0.78593935  1
  Mo  Mo3  1  0.29942984  0.30730043  0.21406065  1
  N  N4  1  0.07685433  0.68184074  0.71556442  1
  N  N5  1  0.31815926  0.92314567  0.28443558  1
  N  N6  1  0.79126212  0.86156822  0.45371811  1
  N  N7  1  0.13843178  0.20873788  0.54628189  1
  N  N8  1  0.78547672  0.52341791  0.08317126  1
  N  N9  1  0.47658209  0.21452328  0.91682874  1
  O  O10  1  0.47384579  0.83492208  0.87543936  1
  O  O11  1  0.16507792  0.52615421  0.12456064  1
  O  O12  1  0.64646068  0.54066682  0.73526572  1
  O  O13  1  0.45933318  0.35353932  0.26473428  1
  O  O14  1  0.92672718  0.78526495  0.80023106  1
  O  O15  1  0.21473505  0.07327282  0.19976894  1
  O  O16  1  0.03644032  0.57055493  0.67066774  1
  O  O17  1  0.42944507  0.96355968  0.32933226  1
  O  O18  1  0.23901503  0.69621127  0.68356095  1
  O  O19  1  0.30378873  0.76098497  0.31643905  1
  O  O20  1  0.72072184  0.89882181  0.59155808  1
  O  O21  1  0.10117819  0.27927816  0.40844192  1
  O  O22  1  0.82193143  0.69817811  0.44206258  1
  O  O23  1  0.30182189  0.17806857  0.55793742  1
  O  O24  1  0.81557090  0.00354889  0.35471299  1
  O  O25  1  0.99645111  0.18442910  0.64528701  1
  O  O26  1  0.78805953  0.48452450  0.95989776  1
  O  O27  1  0.51547550  0.21194047  0.04010224  1
  O  O28  1  0.71406950  0.69472606  0.09414894  1
  O  O29  1  0.30527394  0.28593050  0.90585106  1
  O  O30  1  0.85538069  0.37722627  0.17380982  1
  O  O31  1  0.62277373  0.14461931  0.82619018  1
