# generated using pymatgen
data_K2CoF6
_symmetry_space_group_name_H-M   'P 1'
_cell_length_a   5.64829012
_cell_length_b   5.64829012
_cell_length_c   5.69522738
_cell_angle_alpha   59.72472473
_cell_angle_beta   59.72472473
_cell_angle_gamma   60.55055053
_symmetry_Int_Tables_number   1
_chemical_formula_structural   K2CoF6
_chemical_formula_sum   'K2 Co1 F6'
_cell_volume   128.46048927
_cell_formula_units_Z   1
loop_
 _symmetry_equiv_pos_site_id
 _symmetry_equiv_pos_as_xyz
  1  'x, y, z'
loop_
 _atom_site_type_symbol
 _atom_site_label
 _atom_site_symmetry_multiplicity
 _atom_site_fract_x
 _atom_site_fract_y
 _atom_site_fract_z
 _atom_site_occupancy
  K  K0  1  0.25000000  0.25000000  0.25000000  1
  K  K1  1  0.75000000  0.75000000  0.75000000  1
  Co  Co2  1  0.00000000  -0.00000000  -0.00000000  1
  F  F3  1  0.77708319  0.22291681  0.22291681  1
  F  F4  1  0.22291681  0.77708319  0.77708319  1
  F  F5  1  0.22291681  0.77708319  0.22291681  1
  F  F6  1  0.77708319  0.22291681  0.77708319  1
  F  F7  1  0.22414526  0.22414526  0.77585474  1
  F  F8  1  0.77585474  0.77585474  0.22414526  1
