# generated using pymatgen
data_Ba7GeB3ClO13
_symmetry_space_group_name_H-M   'P 1'
_cell_length_a   7.51125050
_cell_length_b   11.29895293
_cell_length_c   20.64050957
_cell_angle_alpha   90.00000000
_cell_angle_beta   90.00000000
_cell_angle_gamma   90.00000000
_symmetry_Int_Tables_number   1
_chemical_formula_structural   Ba7GeB3ClO13
_chemical_formula_sum   'Ba28 Ge4 B12 Cl4 O52'
_cell_volume   1751.74489387
_cell_formula_units_Z   4
loop_
 _symmetry_equiv_pos_site_id
 _symmetry_equiv_pos_as_xyz
  1  'x, y, z'
loop_
 _atom_site_type_symbol
 _atom_site_label
 _atom_site_symmetry_multiplicity
 _atom_site_fract_x
 _atom_site_fract_y
 _atom_site_fract_z
 _atom_site_occupancy
  Ba  Ba0  1  0.87969334  0.00000000  0.63149245  1
  Ba  Ba1  1  0.12030666  0.00000000  0.36850755  1
  Ba  Ba2  1  0.62030666  0.00000000  0.13149245  1
  Ba  Ba3  1  0.37969334  0.00000000  0.86850755  1
  Ba  Ba4  1  0.63348576  0.50000000  0.58378146  1
  Ba  Ba5  1  0.36651424  0.50000000  0.41621854  1
  Ba  Ba6  1  0.86651424  0.50000000  0.08378146  1
  Ba  Ba7  1  0.13348576  0.50000000  0.91621854  1
  Ba  Ba8  1  0.97054824  0.50000000  0.72529713  1
  Ba  Ba9  1  0.02945176  0.50000000  0.27470287  1
  Ba  Ba10  1  0.52945176  0.50000000  0.22529713  1
  Ba  Ba11  1  0.47054824  0.50000000  0.77470287  1
  Ba  Ba12  1  0.50000000  0.18713354  0.50000000  1
  Ba  Ba13  1  -0.00000000  0.81286646  0.00000000  1
  Ba  Ba14  1  0.50000000  0.81286646  0.50000000  1
  Ba  Ba15  1  -0.00000000  0.18713354  0.00000000  1
  Ba  Ba16  1  0.30046871  0.23216914  0.68431621  1
  Ba  Ba17  1  0.69953129  0.23216914  0.31568379  1
  Ba  Ba18  1  0.19953129  0.76783086  0.18431621  1
  Ba  Ba19  1  0.80046871  0.76783086  0.81568379  1
  Ba  Ba20  1  0.69953129  0.76783086  0.31568379  1
  Ba  Ba21  1  0.30046871  0.76783086  0.68431621  1
  Ba  Ba22  1  0.80046871  0.23216914  0.81568379  1
  Ba  Ba23  1  0.19953129  0.23216914  0.18431621  1
  Ba  Ba24  1  -0.00000000  0.26549828  0.50000000  1
  Ba  Ba25  1  0.50000000  0.73450172  0.00000000  1
  Ba  Ba26  1  -0.00000000  0.73450172  0.50000000  1
  Ba  Ba27  1  0.50000000  0.26549828  0.00000000  1
  Ge  Ge28  1  0.20886046  0.50000000  0.58266547  1
  Ge  Ge29  1  0.79113954  0.50000000  0.41733453  1
  Ge  Ge30  1  0.29113954  0.50000000  0.08266547  1
  Ge  Ge31  1  0.70886046  0.50000000  0.91733453  1
  B  B32  1  0.77433579  0.27662782  0.66054007  1
  B  B33  1  0.22566421  0.27662782  0.33945993  1
  B  B34  1  0.72566421  0.72337218  0.16054007  1
  B  B35  1  0.27433579  0.72337218  0.83945993  1
  B  B36  1  0.22566421  0.72337218  0.33945993  1
  B  B37  1  0.77433579  0.72337218  0.66054007  1
  B  B38  1  0.27433579  0.27662782  0.83945993  1
  B  B39  1  0.72566421  0.27662782  0.16054007  1
  B  B40  1  0.21620557  0.00000000  0.54855972  1
  B  B41  1  0.78379443  0.00000000  0.45144028  1
  B  B42  1  0.28379443  0.00000000  0.04855972  1
  B  B43  1  0.71620557  0.00000000  0.95144028  1
  Cl  Cl44  1  0.55048664  0.00000000  0.72303150  1
  Cl  Cl45  1  0.44951336  0.00000000  0.27696850  1
  Cl  Cl46  1  0.94951336  0.00000000  0.22303150  1
  Cl  Cl47  1  0.05048664  0.00000000  0.77696850  1
  O  O48  1  0.28670342  0.50000000  0.66457901  1
  O  O49  1  0.71329658  0.50000000  0.33542099  1
  O  O50  1  0.21329658  0.50000000  0.16457901  1
  O  O51  1  0.78670342  0.50000000  0.83542099  1
  O  O52  1  0.73104407  0.00000000  0.51595139  1
  O  O53  1  0.26895593  0.00000000  0.48404861  1
  O  O54  1  0.76895593  0.00000000  0.01595139  1
  O  O55  1  0.23104407  0.00000000  0.98404861  1
  O  O56  1  0.93553097  0.23962248  0.68695487  1
  O  O57  1  0.06446903  0.23962248  0.31304513  1
  O  O58  1  0.56446903  0.76037752  0.18695487  1
  O  O59  1  0.43553097  0.76037752  0.81304513  1
  O  O60  1  0.06446903  0.76037752  0.31304513  1
  O  O61  1  0.93553097  0.76037752  0.68695487  1
  O  O62  1  0.43553097  0.23962248  0.81304513  1
  O  O63  1  0.56446903  0.23962248  0.18695487  1
  O  O64  1  0.16843705  0.64571649  0.80259269  1
  O  O65  1  0.83156295  0.64571649  0.19740731  1
  O  O66  1  0.33156295  0.35428351  0.30259269  1
  O  O67  1  0.66843705  0.35428351  0.69740731  1
  O  O68  1  0.83156295  0.35428351  0.19740731  1
  O  O69  1  0.16843705  0.35428351  0.80259269  1
  O  O70  1  0.66843705  0.64571649  0.69740731  1
  O  O71  1  0.33156295  0.64571649  0.30259269  1
  O  O72  1  0.18903960  0.10693605  0.58057636  1
  O  O73  1  0.81096040  0.10693605  0.41942364  1
  O  O74  1  0.31096040  0.89306395  0.08057636  1
  O  O75  1  0.68903960  0.89306395  0.91942364  1
  O  O76  1  0.81096040  0.89306395  0.41942364  1
  O  O77  1  0.18903960  0.89306395  0.58057636  1
  O  O78  1  0.68903960  0.10693605  0.91942364  1
  O  O79  1  0.31096040  0.10693605  0.08057636  1
  O  O80  1  0.97510607  0.50000000  0.58146537  1
  O  O81  1  0.02489393  0.50000000  0.41853463  1
  O  O82  1  0.52489393  0.50000000  0.08146537  1
  O  O83  1  0.47510607  0.50000000  0.91853463  1
  O  O84  1  0.30575286  0.37399754  0.54477779  1
  O  O85  1  0.69424714  0.37399754  0.45522221  1
  O  O86  1  0.19424714  0.62600246  0.04477779  1
  O  O87  1  0.80575286  0.62600246  0.95522221  1
  O  O88  1  0.69424714  0.62600246  0.45522221  1
  O  O89  1  0.30575286  0.62600246  0.54477779  1
  O  O90  1  0.80575286  0.37399754  0.95522221  1
  O  O91  1  0.19424714  0.37399754  0.04477779  1
  O  O92  1  0.71712766  0.24109165  0.59967150  1
  O  O93  1  0.28287234  0.24109165  0.40032850  1
  O  O94  1  0.78287234  0.75890835  0.09967150  1
  O  O95  1  0.21712766  0.75890835  0.90032850  1
  O  O96  1  0.28287234  0.75890835  0.40032850  1
  O  O97  1  0.71712766  0.75890835  0.59967150  1
  O  O98  1  0.21712766  0.24109165  0.90032850  1
  O  O99  1  0.78287234  0.24109165  0.09967150  1
