# generated using pymatgen
data_Ba10MgAs6(ClO12)2
_symmetry_space_group_name_H-M   'P 1'
_cell_length_a   11.13649135
_cell_length_b   10.74776646
_cell_length_c   7.89551799
_cell_angle_alpha   90.13706753
_cell_angle_beta   89.26125783
_cell_angle_gamma   120.11188854
_symmetry_Int_Tables_number   1
_chemical_formula_structural   Ba10MgAs6(ClO12)2
_chemical_formula_sum   'Ba10 Mg1 As6 Cl2 O24'
_cell_volume   817.42174417
_cell_formula_units_Z   1
loop_
 _symmetry_equiv_pos_site_id
 _symmetry_equiv_pos_as_xyz
  1  'x, y, z'
loop_
 _atom_site_type_symbol
 _atom_site_label
 _atom_site_symmetry_multiplicity
 _atom_site_fract_x
 _atom_site_fract_y
 _atom_site_fract_z
 _atom_site_occupancy
  Ba  Ba0  1  0.65233326  0.31472994  0.49677200  1
  Ba  Ba1  1  0.38593226  0.65180144  0.48955550  1
  Ba  Ba2  1  0.99601559  0.26504145  0.25540474  1
  Ba  Ba3  1  0.30886519  0.66953661  0.02548663  1
  Ba  Ba4  1  0.75985929  0.75065517  0.25213985  1
  Ba  Ba5  1  0.25305744  0.98991606  0.25681030  1
  Ba  Ba6  1  0.73599619  0.00391609  0.74532647  1
  Ba  Ba7  1  0.95644167  0.75929945  0.79130834  1
  Ba  Ba8  1  0.65511333  0.32372851  0.00180637  1
  Ba  Ba9  1  0.25551617  0.25463414  0.75623277  1
  Mg  Mg10  1  0.12653509  0.70814789  0.49666130  1
  As  As11  1  0.96605244  0.58141878  0.19294712  1
  As  As12  1  0.61000851  0.62584108  0.75642487  1
  As  As13  1  0.34965875  0.95461154  0.75843028  1
  As  As14  1  0.39946414  0.36250371  0.24619325  1
  As  As15  1  0.02590352  0.41380087  0.73776632  1
  As  As16  1  0.63396643  0.02508102  0.24070929  1
  Cl  Cl17  1  0.01478227  0.02055218  0.02721284  1
  Cl  Cl18  1  0.98917231  0.01005470  0.52768818  1
  O  O19  1  0.70309680  0.75384205  0.90680314  1
  O  O20  1  0.31484200  0.45962091  0.23394816  1
  O  O21  1  0.34750318  0.25584777  0.42664922  1
  O  O22  1  0.43293325  0.53851116  0.79145149  1
  O  O23  1  0.10422117  0.37280175  0.57387848  1
  O  O24  1  0.67120690  0.50739748  0.73665105  1
  O  O25  1  0.84683005  0.31614782  0.73681844  1
  O  O26  1  0.08354131  0.59754444  0.71321445  1
  O  O27  1  0.57796115  0.46841704  0.26084221  1
  O  O28  1  0.73922512  0.10203997  0.06412480  1
  O  O29  1  0.09363796  0.39138618  0.92306593  1
  O  O30  1  0.84998922  0.39997044  0.26083824  1
  O  O31  1  0.44396430  0.86723232  0.73485952  1
  O  O32  1  0.85338046  0.60911270  0.05967180  1
  O  O33  1  0.96017720  0.68193086  0.37971986  1
  O  O34  1  0.45877513  0.13809380  0.74907154  1
  O  O35  1  0.36847986  0.25504266  0.07054559  1
  O  O36  1  0.73552479  0.08864379  0.41947104  1
  O  O37  1  0.25288152  0.73422820  0.31912128  1
  O  O38  1  0.25483731  0.89401437  0.94415801  1
  O  O39  1  0.55662919  0.84077517  0.22920744  1
  O  O40  1  0.22186676  0.90545618  0.60563801  1
  O  O41  1  0.64788271  0.72745474  0.57236888  1
  O  O42  1  0.52468882  0.09671757  0.24967202  1
