# generated using pymatgen
data_Cs2HoCl5
_symmetry_space_group_name_H-M   'P 1'
_cell_length_a   7.46882168
_cell_length_b   9.53086750
_cell_length_c   15.29706475
_cell_angle_alpha   90.00000000
_cell_angle_beta   90.00000000
_cell_angle_gamma   90.00000000
_symmetry_Int_Tables_number   1
_chemical_formula_structural   Cs2HoCl5
_chemical_formula_sum   'Cs8 Ho4 Cl20'
_cell_volume   1088.91160828
_cell_formula_units_Z   4
loop_
 _symmetry_equiv_pos_site_id
 _symmetry_equiv_pos_as_xyz
  1  'x, y, z'
loop_
 _atom_site_type_symbol
 _atom_site_label
 _atom_site_symmetry_multiplicity
 _atom_site_fract_x
 _atom_site_fract_y
 _atom_site_fract_z
 _atom_site_occupancy
  Cs  Cs0  1  0.25000000  0.66602678  0.91637549  1
  Cs  Cs1  1  0.75000000  0.33397322  0.08362451  1
  Cs  Cs2  1  0.75000000  0.83397322  0.41637549  1
  Cs  Cs3  1  0.25000000  0.16602678  0.58362451  1
  Cs  Cs4  1  0.25000000  0.97334604  0.21086473  1
  Cs  Cs5  1  0.75000000  0.02665396  0.78913527  1
  Cs  Cs6  1  0.75000000  0.52665396  0.71086473  1
  Cs  Cs7  1  0.25000000  0.47334604  0.28913527  1
  Ho  Ho8  1  0.25000000  0.67957027  0.56573245  1
  Ho  Ho9  1  0.75000000  0.32042973  0.43426755  1
  Ho  Ho10  1  0.75000000  0.82042973  0.06573245  1
  Ho  Ho11  1  0.25000000  0.17957027  0.93426755  1
  Cl  Cl12  1  0.25000000  0.51867435  0.70101733  1
  Cl  Cl13  1  0.75000000  0.48132565  0.29898267  1
  Cl  Cl14  1  0.75000000  0.98132565  0.20101733  1
  Cl  Cl15  1  0.25000000  0.01867435  0.79898267  1
  Cl  Cl16  1  0.50457301  0.83593879  0.61904762  1
  Cl  Cl17  1  0.49542699  0.16406121  0.38095238  1
  Cl  Cl18  1  0.49542699  0.66406121  0.11904762  1
  Cl  Cl19  1  0.00457301  0.16406121  0.38095238  1
  Cl  Cl20  1  0.50457301  0.33593879  0.88095238  1
  Cl  Cl21  1  0.99542699  0.83593879  0.61904762  1
  Cl  Cl22  1  0.99542699  0.33593879  0.88095238  1
  Cl  Cl23  1  0.00457301  0.66406121  0.11904762  1
  Cl  Cl24  1  0.25000000  0.79126913  0.40890767  1
  Cl  Cl25  1  0.75000000  0.20873087  0.59109233  1
  Cl  Cl26  1  0.75000000  0.70873087  0.90890767  1
  Cl  Cl27  1  0.25000000  0.29126913  0.09109233  1
  Cl  Cl28  1  -0.00000000  0.50000000  0.50000000  1
  Cl  Cl29  1  -0.00000000  0.00000000  0.00000000  1
  Cl  Cl30  1  0.50000000  0.50000000  0.50000000  1
  Cl  Cl31  1  0.50000000  0.00000000  0.00000000  1
