# generated using pymatgen
data_MgMnPO5
_symmetry_space_group_name_H-M   'P 1'
_cell_length_a   6.72622875
_cell_length_b   6.76598333
_cell_length_c   8.34278751
_cell_angle_alpha   90.01428775
_cell_angle_beta   90.01424775
_cell_angle_gamma   65.97727442
_symmetry_Int_Tables_number   1
_chemical_formula_structural   MgMnPO5
_chemical_formula_sum   'Mg4 Mn4 P4 O20'
_cell_volume   346.79046497
_cell_formula_units_Z   4
loop_
 _symmetry_equiv_pos_site_id
 _symmetry_equiv_pos_as_xyz
  1  'x, y, z'
loop_
 _atom_site_type_symbol
 _atom_site_label
 _atom_site_symmetry_multiplicity
 _atom_site_fract_x
 _atom_site_fract_y
 _atom_site_fract_z
 _atom_site_occupancy
  Mg  Mg0  1  0.18165497  0.28887624  0.93371405  1
  Mg  Mg1  1  0.68165331  0.28887997  0.43371549  1
  Mg  Mg2  1  0.18304386  0.78682746  0.56503143  1
  Mg  Mg3  1  0.68304107  0.78682913  0.06503406  1
  Mn  Mn4  1  0.74667885  0.49410619  0.73847888  1
  Mn  Mn5  1  0.74722995  0.99422894  0.76040480  1
  Mn  Mn6  1  0.24666734  0.49407415  0.23846261  1
  Mn  Mn7  1  0.24723333  0.99426619  0.26038764  1
  P  P8  1  0.26528339  0.23425218  0.60654124  1
  P  P9  1  0.76527625  0.23425776  0.10655114  1
  P  P10  1  0.26439579  0.73417990  0.89290398  1
  P  P11  1  0.76439792  0.73417968  0.39289512  1
  O  O12  1  0.20893061  0.06911246  0.51490554  1
  O  O13  1  0.70892973  0.06911522  0.01490836  1
  O  O14  1  0.35443966  0.35324866  0.48928829  1
  O  O15  1  0.85443719  0.35324724  0.98928979  1
  O  O16  1  0.35496966  0.85187591  0.01011269  1
  O  O17  1  0.85497616  0.85187483  0.51011673  1
  O  O18  1  0.20414164  0.57190719  0.98487619  1
  O  O19  1  0.70414344  0.57190678  0.48488058  1
  O  O20  1  0.42290450  0.62154028  0.75369365  1
  O  O21  1  0.92289896  0.62154184  0.25370258  1
  O  O22  1  0.07057423  0.89608960  0.79632463  1
  O  O23  1  0.57057311  0.89608664  0.29632636  1
  O  O24  1  0.06972311  0.39572324  0.70188833  1
  O  O25  1  0.56973681  0.39571302  0.20188421  1
  O  O26  1  0.42317956  0.12470469  0.74679429  1
  O  O27  1  0.92316783  0.12471116  0.24678768  1
  O  O28  1  0.25359955  0.73562784  0.33658388  1
  O  O29  1  0.75360262  0.73561854  0.83657778  1
  O  O30  1  0.25473804  0.23509264  0.16153067  1
  O  O31  1  0.75473259  0.23509146  0.66152732  1
