# generated using pymatgen
data_BaTh2S5
_symmetry_space_group_name_H-M   'P 1'
_cell_length_a   7.69463499
_cell_length_b   8.67252433
_cell_length_c   12.19217947
_cell_angle_alpha   89.60721672
_cell_angle_beta   90.00000000
_cell_angle_gamma   90.00000000
_symmetry_Int_Tables_number   1
_chemical_formula_structural   BaTh2S5
_chemical_formula_sum   'Ba4 Th8 S20'
_cell_volume   813.58829507
_cell_formula_units_Z   4
loop_
 _symmetry_equiv_pos_site_id
 _symmetry_equiv_pos_as_xyz
  1  'x, y, z'
loop_
 _atom_site_type_symbol
 _atom_site_label
 _atom_site_symmetry_multiplicity
 _atom_site_fract_x
 _atom_site_fract_y
 _atom_site_fract_z
 _atom_site_occupancy
  Ba  Ba0  1  0.05068581  0.49036796  0.33186592  1
  Ba  Ba1  1  0.55068581  0.50963204  0.16813408  1
  Ba  Ba2  1  0.94931419  0.50963204  0.66813408  1
  Ba  Ba3  1  0.44931419  0.49036796  0.83186592  1
  Th  Th4  1  0.01955898  0.99785788  0.32131545  1
  Th  Th5  1  0.51955898  0.00214212  0.17868455  1
  Th  Th6  1  0.98044102  0.00214212  0.67868455  1
  Th  Th7  1  0.48044102  0.99785788  0.82131545  1
  Th  Th8  1  0.06821712  0.75289082  0.00816217  1
  Th  Th9  1  0.56821712  0.24710918  0.49183783  1
  Th  Th10  1  0.93178288  0.24710918  0.99183783  1
  Th  Th11  1  0.43178288  0.75289082  0.50816217  1
  S  S12  1  0.65967036  0.96018237  0.39849897  1
  S  S13  1  0.15967036  0.03981763  0.10150103  1
  S  S14  1  0.34032964  0.03981763  0.60150103  1
  S  S15  1  0.84032964  0.96018237  0.89849897  1
  S  S16  1  0.45045917  0.79062162  0.00225830  1
  S  S17  1  0.95045917  0.20937838  0.49774170  1
  S  S18  1  0.54954083  0.20937838  0.99774170  1
  S  S19  1  0.04954083  0.79062162  0.50225830  1
  S  S20  1  0.83442727  0.78465263  0.18730045  1
  S  S21  1  0.33442727  0.21534737  0.31269955  1
  S  S22  1  0.16557273  0.21534737  0.81269955  1
  S  S23  1  0.66557273  0.78465263  0.68730045  1
  S  S24  1  0.30912357  0.77397904  0.28482263  1
  S  S25  1  0.80912357  0.22602096  0.21517737  1
  S  S26  1  0.69087643  0.22602096  0.71517737  1
  S  S27  1  0.19087643  0.77397904  0.78482263  1
  S  S28  1  0.17538342  0.46459502  0.07712020  1
  S  S29  1  0.67538342  0.53540498  0.42287980  1
  S  S30  1  0.82461658  0.53540498  0.92287980  1
  S  S31  1  0.32461658  0.46459502  0.57712020  1
