# generated using pymatgen
data_HoVO4
_symmetry_space_group_name_H-M   'P 1'
_cell_length_a   5.00214930
_cell_length_b   5.00214930
_cell_length_c   6.58421043
_cell_angle_alpha   112.32497781
_cell_angle_beta   112.32497781
_cell_angle_gamma   90.00000000
_symmetry_Int_Tables_number   1
_chemical_formula_structural   HoVO4
_chemical_formula_sum   'Ho2 V2 O8'
_cell_volume   138.95624733
_cell_formula_units_Z   2
loop_
 _symmetry_equiv_pos_site_id
 _symmetry_equiv_pos_as_xyz
  1  'x, y, z'
loop_
 _atom_site_type_symbol
 _atom_site_label
 _atom_site_symmetry_multiplicity
 _atom_site_fract_x
 _atom_site_fract_y
 _atom_site_fract_z
 _atom_site_occupancy
  Ho  Ho0  1  0.62500000  0.87500000  0.25000000  1
  Ho  Ho1  1  0.37500000  0.12500000  0.75000000  1
  V  V2  1  0.12500000  0.37500000  0.25000000  1
  V  V3  1  0.87500000  0.62500000  0.75000000  1
  O  O4  1  0.35374602  0.71163203  0.41211883  1
  O  O5  1  0.05837281  0.20048780  0.41211883  1
  O  O6  1  0.21163203  0.55837281  0.91211883  1
  O  O7  1  0.70048780  0.85374602  0.91211883  1
  O  O8  1  0.64625398  0.28836797  0.58788117  1
  O  O9  1  0.94162719  0.79951220  0.58788117  1
  O  O10  1  0.78836797  0.44162719  0.08788117  1
  O  O11  1  0.29951220  0.14625398  0.08788117  1
