# generated using pymatgen
data_KY2Cl7
_symmetry_space_group_name_H-M   'P 1'
_cell_length_a   12.59927611
_cell_length_b   6.91535430
_cell_length_c   12.83044850
_cell_angle_alpha   90.22081471
_cell_angle_beta   90.00000000
_cell_angle_gamma   90.00000000
_symmetry_Int_Tables_number   1
_chemical_formula_structural   KY2Cl7
_chemical_formula_sum   'K4 Y8 Cl28'
_cell_volume   1117.88889455
_cell_formula_units_Z   4
loop_
 _symmetry_equiv_pos_site_id
 _symmetry_equiv_pos_as_xyz
  1  'x, y, z'
loop_
 _atom_site_type_symbol
 _atom_site_label
 _atom_site_symmetry_multiplicity
 _atom_site_fract_x
 _atom_site_fract_y
 _atom_site_fract_z
 _atom_site_occupancy
  K  K0  1  0.20498902  0.78464031  0.03570786  1
  K  K1  1  0.79501098  0.21535969  0.96429214  1
  K  K2  1  0.70498902  0.21535969  0.46429214  1
  K  K3  1  0.29501098  0.78464031  0.53570786  1
  Y  Y4  1  0.53697950  0.77346244  0.23690986  1
  Y  Y5  1  0.46302050  0.22653756  0.76309014  1
  Y  Y6  1  0.03697950  0.22653756  0.26309014  1
  Y  Y7  1  0.96302050  0.77346244  0.73690986  1
  Y  Y8  1  0.83971657  0.72413182  0.24781140  1
  Y  Y9  1  0.16028343  0.27586818  0.75218860  1
  Y  Y10  1  0.33971657  0.27586818  0.25218860  1
  Y  Y11  1  0.66028343  0.72413182  0.74781140  1
  Cl  Cl12  1  0.97305973  0.94336723  0.13069749  1
  Cl  Cl13  1  0.02694027  0.05663277  0.86930251  1
  Cl  Cl14  1  0.47305973  0.05663277  0.36930251  1
  Cl  Cl15  1  0.52694027  0.94336723  0.63069749  1
  Cl  Cl16  1  0.68530083  0.74886279  0.39631114  1
  Cl  Cl17  1  0.31469917  0.25113721  0.60368886  1
  Cl  Cl18  1  0.18530083  0.25113721  0.10368886  1
  Cl  Cl19  1  0.81469917  0.74886279  0.89631114  1
  Cl  Cl20  1  0.67785965  0.50760297  0.17190517  1
  Cl  Cl21  1  0.32214035  0.49239703  0.82809483  1
  Cl  Cl22  1  0.17785965  0.49239703  0.32809483  1
  Cl  Cl23  1  0.82214035  0.50760297  0.67190517  1
  Cl  Cl24  1  0.92524714  0.97883613  0.38289614  1
  Cl  Cl25  1  0.07475286  0.02116387  0.61710386  1
  Cl  Cl26  1  0.42524714  0.02116387  0.11710386  1
  Cl  Cl27  1  0.57475286  0.97883613  0.88289614  1
  Cl  Cl28  1  0.94191575  0.46096338  0.12566424  1
  Cl  Cl29  1  0.05808425  0.53903662  0.87433576  1
  Cl  Cl30  1  0.44191575  0.53903662  0.37433576  1
  Cl  Cl31  1  0.55808425  0.46096338  0.62566424  1
  Cl  Cl32  1  0.70286027  0.99549975  0.17348999  1
  Cl  Cl33  1  0.29713973  0.00450025  0.82651001  1
  Cl  Cl34  1  0.20286027  0.00450025  0.32651001  1
  Cl  Cl35  1  0.79713973  0.99549975  0.67348999  1
  Cl  Cl36  1  0.91044185  0.45851314  0.38231085  1
  Cl  Cl37  1  0.08955815  0.54148686  0.61768915  1
  Cl  Cl38  1  0.41044185  0.54148686  0.11768915  1
  Cl  Cl39  1  0.58955815  0.45851314  0.88231085  1
