# generated using pymatgen
data_Ba2CaV2(Si2O7)2
_symmetry_space_group_name_H-M   'P 1'
_cell_length_a   5.57341459
_cell_length_b   7.44487751
_cell_length_c   8.22876328
_cell_angle_alpha   87.63290106
_cell_angle_beta   109.76003967
_cell_angle_gamma   89.96149396
_symmetry_Int_Tables_number   1
_chemical_formula_structural   Ba2CaV2(Si2O7)2
_chemical_formula_sum   'Ba2 Ca1 V2 Si4 O14'
_cell_volume   321.02115248
_cell_formula_units_Z   1
loop_
 _symmetry_equiv_pos_site_id
 _symmetry_equiv_pos_as_xyz
  1  'x, y, z'
loop_
 _atom_site_type_symbol
 _atom_site_label
 _atom_site_symmetry_multiplicity
 _atom_site_fract_x
 _atom_site_fract_y
 _atom_site_fract_z
 _atom_site_occupancy
  Ba  Ba0  1  0.80296200  0.75808500  0.58218200  1
  Ba  Ba1  1  0.21929000  0.24199900  0.41646100  1
  Ca  Ca2  1  0.07704500  0.50031100  0.99873600  1
  V  V3  1  0.11131300  0.79328000  0.21755500  1
  V  V4  1  0.89380400  0.20574800  0.78244400  1
  Si  Si5  1  0.42922700  0.52176600  0.78876400  1
  Si  Si6  1  0.63855600  0.47831800  0.21063900  1
  Si  Si7  1  0.40532100  0.96219300  0.79418200  1
  Si  Si8  1  0.61028300  0.03769100  0.20509900  1
  O  O9  1  0.14473000  0.43847900  0.72998900  1
  O  O10  1  0.41169300  0.56135400  0.26882800  1
  O  O11  1  0.11538300  0.04240700  0.69875800  1
  O  O12  1  0.41617700  0.95690000  0.30057100  1
  O  O13  1  0.54534100  0.50039000  0.99975200  1
  O  O14  1  0.50658900  0.99992200  0.99963000  1
  O  O15  1  0.99411100  0.78414700  0.98482000  1
  O  O16  1  0.01028300  0.21626100  0.01511000  1
  O  O17  1  0.39177000  0.74395100  0.74214000  1
  O  O18  1  0.64752700  0.25606400  0.25687600  1
  O  O19  1  0.63590900  0.43898100  0.71087800  1
  O  O20  1  0.92254300  0.56129200  0.28955800  1
  O  O21  1  0.58933600  0.04846600  0.69457600  1
  O  O22  1  0.89430400  0.95199300  0.30463800  1
