# generated using pymatgen
data_Ba2HgS5
_symmetry_space_group_name_H-M   'P 1'
_cell_length_a   8.47023050
_cell_length_b   8.75834125
_cell_length_c   12.27656828
_cell_angle_alpha   90.00000000
_cell_angle_beta   90.00000000
_cell_angle_gamma   90.00000000
_symmetry_Int_Tables_number   1
_chemical_formula_structural   Ba2HgS5
_chemical_formula_sum   'Ba8 Hg4 S20'
_cell_volume   910.73929486
_cell_formula_units_Z   4
loop_
 _symmetry_equiv_pos_site_id
 _symmetry_equiv_pos_as_xyz
  1  'x, y, z'
loop_
 _atom_site_type_symbol
 _atom_site_label
 _atom_site_symmetry_multiplicity
 _atom_site_fract_x
 _atom_site_fract_y
 _atom_site_fract_z
 _atom_site_occupancy
  Ba  Ba0  1  0.64336189  0.50629829  0.81099876  1
  Ba  Ba1  1  0.85663811  0.99370171  0.31099876  1
  Ba  Ba2  1  0.35663811  0.00629829  0.18900124  1
  Ba  Ba3  1  0.14336189  0.49370171  0.68900124  1
  Ba  Ba4  1  0.35663811  0.49370171  0.18900124  1
  Ba  Ba5  1  0.14336189  0.00629829  0.68900124  1
  Ba  Ba6  1  0.64336189  0.99370171  0.81099876  1
  Ba  Ba7  1  0.85663811  0.50629829  0.31099876  1
  Hg  Hg8  1  0.01163649  0.75000000  0.00870369  1
  Hg  Hg9  1  0.48836351  0.75000000  0.50870369  1
  Hg  Hg10  1  0.98836351  0.25000000  0.99129631  1
  Hg  Hg11  1  0.51163649  0.25000000  0.49129631  1
  S  S12  1  0.56953901  0.75000000  0.02747771  1
  S  S13  1  0.93046099  0.75000000  0.52747771  1
  S  S14  1  0.43046099  0.25000000  0.97252229  1
  S  S15  1  0.06953901  0.25000000  0.47252229  1
  S  S16  1  0.08964096  0.75000000  0.19345546  1
  S  S17  1  0.41035904  0.75000000  0.69345546  1
  S  S18  1  0.91035904  0.25000000  0.80654454  1
  S  S19  1  0.58964096  0.25000000  0.30654454  1
  S  S20  1  0.94289200  0.75000000  0.82326090  1
  S  S21  1  0.55710800  0.75000000  0.32326090  1
  S  S22  1  0.05710800  0.25000000  0.17673910  1
  S  S23  1  0.44289200  0.25000000  0.67673910  1
  S  S24  1  0.69377723  0.55377900  0.06735063  1
  S  S25  1  0.80622277  0.94622100  0.56735063  1
  S  S26  1  0.30622277  0.05377900  0.93264937  1
  S  S27  1  0.19377723  0.44622100  0.43264937  1
  S  S28  1  0.30622277  0.44622100  0.93264937  1
  S  S29  1  0.19377723  0.05377900  0.43264937  1
  S  S30  1  0.69377723  0.94622100  0.06735063  1
  S  S31  1  0.80622277  0.55377900  0.56735063  1
