# generated using pymatgen
data_EuZrF6
_symmetry_space_group_name_H-M   'P 1'
_cell_length_a   6.65171243
_cell_length_b   6.65170765
_cell_length_c   5.32825312
_cell_angle_alpha   90.00019889
_cell_angle_beta   89.99999506
_cell_angle_gamma   111.04082918
_symmetry_Int_Tables_number   1
_chemical_formula_structural   EuZrF6
_chemical_formula_sum   'Eu2 Zr2 F12'
_cell_volume   220.03120600
_cell_formula_units_Z   2
loop_
 _symmetry_equiv_pos_site_id
 _symmetry_equiv_pos_as_xyz
  1  'x, y, z'
loop_
 _atom_site_type_symbol
 _atom_site_label
 _atom_site_symmetry_multiplicity
 _atom_site_fract_x
 _atom_site_fract_y
 _atom_site_fract_z
 _atom_site_occupancy
  Eu  Eu0  1  0.25000100  0.75000100  0.45341620  1
  Eu  Eu1  1  0.74999900  0.24999900  0.54658380  1
  Zr  Zr2  1  0.74999900  0.75000000  0.99999900  1
  Zr  Zr3  1  0.25000100  0.25000000  0.00000100  1
  F  F4  1  0.68274340  0.94003242  0.26195496  1
  F  F5  1  0.31725660  0.05996758  0.73804504  1
  F  F6  1  0.81725760  0.55996758  0.26195596  1
  F  F7  1  0.55996858  0.81725760  0.73804304  1
  F  F8  1  0.18274240  0.44003242  0.73804404  1
  F  F9  1  0.44003142  0.18274240  0.26195696  1
  F  F10  1  0.94003342  0.68274340  0.73804504  1
  F  F11  1  0.05996658  0.31725660  0.26195496  1
  F  F12  1  0.42430773  0.57569227  0.15539641  1
  F  F13  1  0.57569227  0.42430773  0.84460359  1
  F  F14  1  0.07569427  0.92430673  0.15539641  1
  F  F15  1  0.92430573  0.07569327  0.84460359  1
