# generated using pymatgen
data_CeSe2
_symmetry_space_group_name_H-M   'P 1'
_cell_length_a   7.13436026
_cell_length_b   12.13013540
_cell_length_c   14.47797234
_cell_angle_alpha   90.00000000
_cell_angle_beta   90.00000000
_cell_angle_gamma   90.00000000
_symmetry_Int_Tables_number   1
_chemical_formula_structural   CeSe2
_chemical_formula_sum   'Ce8 Se16'
_cell_volume   1252.93467087
_cell_formula_units_Z   8
loop_
 _symmetry_equiv_pos_site_id
 _symmetry_equiv_pos_as_xyz
  1  'x, y, z'
loop_
 _atom_site_type_symbol
 _atom_site_label
 _atom_site_symmetry_multiplicity
 _atom_site_fract_x
 _atom_site_fract_y
 _atom_site_fract_z
 _atom_site_occupancy
  Ce  Ce0  1  0.76460973  0.88237383  0.61146585  1
  Ce  Ce1  1  0.23539027  0.61762617  0.61146585  1
  Ce  Ce2  1  0.23539027  0.38237383  0.88853415  1
  Ce  Ce3  1  0.76460973  0.11762617  0.88853415  1
  Ce  Ce4  1  0.23539027  0.11762617  0.38853415  1
  Ce  Ce5  1  0.76460973  0.38237383  0.38853415  1
  Ce  Ce6  1  0.76460973  0.61762617  0.11146585  1
  Ce  Ce7  1  0.23539027  0.88237383  0.11146585  1
  Se  Se8  1  0.00000000  0.75000000  0.70773422  1
  Se  Se9  1  0.00000000  0.25000000  0.79226578  1
  Se  Se10  1  0.00000000  0.25000000  0.29226578  1
  Se  Se11  1  0.00000000  0.75000000  0.20773422  1
  Se  Se12  1  0.39870374  0.50000000  0.75000000  1
  Se  Se13  1  0.60129626  -0.00000000  0.75000000  1
  Se  Se14  1  0.60129626  0.50000000  0.25000000  1
  Se  Se15  1  0.39870374  0.00000000  0.25000000  1
  Se  Se16  1  0.00000000  -0.00000000  0.50000000  1
  Se  Se17  1  0.00000000  0.50000000  0.50000000  1
  Se  Se18  1  0.00000000  0.50000000  -0.00000000  1
  Se  Se19  1  0.00000000  0.00000000  -0.00000000  1
  Se  Se20  1  0.50000000  0.75000000  0.53218882  1
  Se  Se21  1  0.50000000  0.25000000  0.96781118  1
  Se  Se22  1  0.50000000  0.25000000  0.46781118  1
  Se  Se23  1  0.50000000  0.75000000  0.03218882  1
