# generated using pymatgen
data_La3InFeS7
_symmetry_space_group_name_H-M   'P 1'
_cell_length_a   10.11430336
_cell_length_b   10.11430337
_cell_length_c   6.42911551
_cell_angle_alpha   90.00000000
_cell_angle_beta   90.00000000
_cell_angle_gamma   120.00000126
_symmetry_Int_Tables_number   1
_chemical_formula_structural   La3InFeS7
_chemical_formula_sum   'La6 In2 Fe2 S14'
_cell_volume   569.57878631
_cell_formula_units_Z   2
loop_
 _symmetry_equiv_pos_site_id
 _symmetry_equiv_pos_as_xyz
  1  'x, y, z'
loop_
 _atom_site_type_symbol
 _atom_site_label
 _atom_site_symmetry_multiplicity
 _atom_site_fract_x
 _atom_site_fract_y
 _atom_site_fract_z
 _atom_site_occupancy
  La  La0  1  0.15437549  0.37463946  0.18970728  1
  La  La1  1  0.22026397  0.84562451  0.18970728  1
  La  La2  1  0.62536054  0.77973603  0.18970728  1
  La  La3  1  0.84562451  0.62536054  0.68970728  1
  La  La4  1  0.77973603  0.15437549  0.68970728  1
  La  La5  1  0.37463946  0.22026397  0.68970728  1
  In  In6  1  0.66666700  0.33333300  0.11921299  1
  In  In7  1  0.33333300  0.66666700  0.61921299  1
  Fe  Fe8  1  0.00000000  0.00000000  0.00371171  1
  Fe  Fe9  1  0.00000000  0.00000000  0.50371171  1
  S  S10  1  0.87103551  0.09618881  0.27510555  1
  S  S11  1  0.22515330  0.12896449  0.27510555  1
  S  S12  1  0.90381119  0.77484670  0.27510555  1
  S  S13  1  0.12896449  0.90381119  0.77510555  1
  S  S14  1  0.77484670  0.87103551  0.77510555  1
  S  S15  1  0.09618881  0.22515330  0.77510555  1
  S  S16  1  0.43542476  0.51668086  0.45328084  1
  S  S17  1  0.08125610  0.56457524  0.45328084  1
  S  S18  1  0.48331914  0.91874390  0.45328084  1
  S  S19  1  0.56457524  0.48331914  0.95328084  1
  S  S20  1  0.91874390  0.43542476  0.95328084  1
  S  S21  1  0.51668086  0.08125610  0.95328084  1
  S  S22  1  0.66666700  0.33333300  0.49391429  1
  S  S23  1  0.33333300  0.66666700  0.99391429  1
