# generated using pymatgen
data_H12PdC2(N3Cl2)2
_symmetry_space_group_name_H-M   'P 1'
_cell_length_a   10.85333949
_cell_length_b   10.85333949
_cell_length_c   11.27547530
_cell_angle_alpha   90.00000000
_cell_angle_beta   90.00000000
_cell_angle_gamma   90.00000000
_symmetry_Int_Tables_number   1
_chemical_formula_structural   H12PdC2(N3Cl2)2
_chemical_formula_sum   'H48 Pd4 C8 N24 Cl16'
_cell_volume   1328.19436586
_cell_formula_units_Z   4
loop_
 _symmetry_equiv_pos_site_id
 _symmetry_equiv_pos_as_xyz
  1  'x, y, z'
loop_
 _atom_site_type_symbol
 _atom_site_label
 _atom_site_symmetry_multiplicity
 _atom_site_fract_x
 _atom_site_fract_y
 _atom_site_fract_z
 _atom_site_occupancy
  H  H0  1  0.60022412  0.28137641  0.44841856  1
  H  H1  1  0.89977588  0.21862359  0.44841856  1
  H  H2  1  0.78137641  0.39977588  0.94841856  1
  H  H3  1  0.71862359  0.10022412  0.94841856  1
  H  H4  1  0.39977588  0.71862359  0.55158144  1
  H  H5  1  0.10022412  0.78137641  0.55158144  1
  H  H6  1  0.21862359  0.60022412  0.05158144  1
  H  H7  1  0.28137641  0.89977588  0.05158144  1
  H  H8  1  0.59831138  0.37646916  0.32193153  1
  H  H9  1  0.90168862  0.12353084  0.32193153  1
  H  H10  1  0.87646916  0.40168862  0.82193153  1
  H  H11  1  0.62353084  0.09831138  0.82193153  1
  H  H12  1  0.40168862  0.62353084  0.67806847  1
  H  H13  1  0.09831138  0.87646916  0.67806847  1
  H  H14  1  0.12353084  0.59831138  0.17806847  1
  H  H15  1  0.37646916  0.90168862  0.17806847  1
  H  H16  1  0.30390479  0.50443628  0.38737726  1
  H  H17  1  0.19609521  0.99556372  0.38737726  1
  H  H18  1  0.00443628  0.69609521  0.88737726  1
  H  H19  1  0.49556372  0.80390479  0.88737726  1
  H  H20  1  0.69609521  0.49556372  0.61262274  1
  H  H21  1  0.80390479  0.00443628  0.61262274  1
  H  H22  1  0.99556372  0.30390479  0.11262274  1
  H  H23  1  0.50443628  0.19609521  0.11262274  1
  H  H24  1  0.42283390  0.50029081  0.28435043  1
  H  H25  1  0.07716610  0.99970919  0.28435043  1
  H  H26  1  0.00029081  0.57716610  0.78435043  1
  H  H27  1  0.49970919  0.92283390  0.78435043  1
  H  H28  1  0.57716610  0.49970919  0.71564957  1
  H  H29  1  0.92283390  0.00029081  0.71564957  1
  H  H30  1  0.99970919  0.42283390  0.21564957  1
  H  H31  1  0.50029081  0.07716610  0.21564957  1
  H  H32  1  0.30975742  0.37498159  0.55635835  1
  H  H33  1  0.19024258  0.12501841  0.55635835  1
  H  H34  1  0.87498159  0.69024258  0.05635835  1
  H  H35  1  0.62501841  0.80975742  0.05635835  1
  H  H36  1  0.69024258  0.62501841  0.44364165  1
  H  H37  1  0.80975742  0.87498159  0.44364165  1
  H  H38  1  0.12501841  0.30975742  0.94364165  1
  H  H39  1  0.37498159  0.19024258  0.94364165  1
  H  H40  1  0.44017503  0.28203944  0.57862023  1
  H  H41  1  0.05982497  0.21796056  0.57862023  1
  H  H42  1  0.78203944  0.55982497  0.07862023  1
  H  H43  1  0.71796056  0.94017503  0.07862023  1
  H  H44  1  0.55982497  0.71796056  0.42137977  1
  H  H45  1  0.94017503  0.78203944  0.42137977  1
  H  H46  1  0.21796056  0.44017503  0.92137977  1
  H  H47  1  0.28203944  0.05982497  0.92137977  1
  Pd  Pd48  1  0.50000000  0.00000000  0.50000000  1
  Pd  Pd49  1  0.00000000  0.50000000  0.50000000  1
  Pd  Pd50  1  0.50000000  0.50000000  0.00000000  1
  Pd  Pd51  1  0.00000000  0.00000000  0.00000000  1
  C  C52  1  0.44286593  0.38217593  0.42570568  1
  C  C53  1  0.05713407  0.11782407  0.42570568  1
  C  C54  1  0.88217593  0.55713407  0.92570568  1
  C  C55  1  0.61782407  0.94286593  0.92570568  1
  C  C56  1  0.55713407  0.61782407  0.57429432  1
  C  C57  1  0.94286593  0.88217593  0.57429432  1
  C  C58  1  0.11782407  0.44286593  0.07429432  1
  C  C59  1  0.38217593  0.05713407  0.07429432  1
  N  N60  1  0.55477232  0.34198472  0.39470335  1
  N  N61  1  0.94522768  0.15801528  0.39470335  1
  N  N62  1  0.84198472  0.44522768  0.89470335  1
  N  N63  1  0.65801528  0.05477232  0.89470335  1
  N  N64  1  0.44522768  0.65801528  0.60529665  1
  N  N65  1  0.05477232  0.84198472  0.60529665  1
  N  N66  1  0.15801528  0.55477232  0.10529665  1
  N  N67  1  0.34198472  0.94522768  0.10529665  1
  N  N68  1  0.38179343  0.46204929  0.35711815  1
  N  N69  1  0.11820657  0.03795071  0.35711815  1
  N  N70  1  0.96204929  0.61820657  0.85711815  1
  N  N71  1  0.53795071  0.88179343  0.85711815  1
  N  N72  1  0.61820657  0.53795071  0.64288185  1
  N  N73  1  0.88179343  0.96204929  0.64288185  1
  N  N74  1  0.03795071  0.38179343  0.14288185  1
  N  N75  1  0.46204929  0.11820657  0.14288185  1
  N  N76  1  0.39122165  0.33997659  0.52583055  1
  N  N77  1  0.10877835  0.16002341  0.52583055  1
  N  N78  1  0.83997659  0.60877835  0.02583055  1
  N  N79  1  0.66002341  0.89122165  0.02583055  1
  N  N80  1  0.60877835  0.66002341  0.47416945  1
  N  N81  1  0.89122165  0.83997659  0.47416945  1
  N  N82  1  0.16002341  0.39122165  0.97416945  1
  N  N83  1  0.33997659  0.10877835  0.97416945  1
  Cl  Cl84  1  0.64734561  0.98176833  0.35032640  1
  Cl  Cl85  1  0.85265439  0.51823167  0.35032640  1
  Cl  Cl86  1  0.48176833  0.35265439  0.85032640  1
  Cl  Cl87  1  0.01823167  0.14734561  0.85032640  1
  Cl  Cl88  1  0.35265439  0.01823167  0.64967360  1
  Cl  Cl89  1  0.14734561  0.48176833  0.64967360  1
  Cl  Cl90  1  0.51823167  0.64734561  0.14967360  1
  Cl  Cl91  1  0.98176833  0.85265439  0.14967360  1
  Cl  Cl92  1  0.37204008  0.86297294  0.39839463  1
  Cl  Cl93  1  0.12795992  0.63702706  0.39839463  1
  Cl  Cl94  1  0.36297294  0.62795992  0.89839463  1
  Cl  Cl95  1  0.13702706  0.87204008  0.89839463  1
  Cl  Cl96  1  0.62795992  0.13702706  0.60160537  1
  Cl  Cl97  1  0.87204008  0.36297294  0.60160537  1
  Cl  Cl98  1  0.63702706  0.37204008  0.10160537  1
  Cl  Cl99  1  0.86297294  0.12795992  0.10160537  1
