# generated using pymatgen
data_Nd3TaO7
_symmetry_space_group_name_H-M   'P 1'
_cell_length_a   6.64323829
_cell_length_b   6.64323829
_cell_length_c   7.67514554
_cell_angle_alpha   90.00000000
_cell_angle_beta   90.00000000
_cell_angle_gamma   111.26212856
_symmetry_Int_Tables_number   1
_chemical_formula_structural   Nd3TaO7
_chemical_formula_sum   'Nd6 Ta2 O14'
_cell_volume   315.66766499
_cell_formula_units_Z   2
loop_
 _symmetry_equiv_pos_site_id
 _symmetry_equiv_pos_as_xyz
  1  'x, y, z'
loop_
 _atom_site_type_symbol
 _atom_site_label
 _atom_site_symmetry_multiplicity
 _atom_site_fract_x
 _atom_site_fract_y
 _atom_site_fract_z
 _atom_site_occupancy
  Nd  Nd0  1  0.00000000  -0.00000000  0.50000000  1
  Nd  Nd1  1  0.00000000  -0.00000000  -0.00000000  1
  Nd  Nd2  1  0.52243707  0.06909562  0.25000000  1
  Nd  Nd3  1  0.93090438  0.47756293  0.75000000  1
  Nd  Nd4  1  0.47756293  0.93090438  0.75000000  1
  Nd  Nd5  1  0.06909562  0.52243707  0.25000000  1
  Ta  Ta6  1  0.50000000  0.50000000  0.50000000  1
  Ta  Ta7  1  0.50000000  0.50000000  -0.00000000  1
  O  O8  1  0.43082397  0.43082397  0.25000000  1
  O  O9  1  0.56917603  0.56917603  0.75000000  1
  O  O10  1  0.43889403  0.18649032  0.53465074  1
  O  O11  1  0.81350968  0.56110597  0.46534926  1
  O  O12  1  0.43889403  0.18649032  0.96534926  1
  O  O13  1  0.81350968  0.56110597  0.03465074  1
  O  O14  1  0.56110597  0.81350968  0.46534926  1
  O  O15  1  0.18649032  0.43889403  0.53465074  1
  O  O16  1  0.56110597  0.81350968  0.03465074  1
  O  O17  1  0.18649032  0.43889403  0.96534926  1
  O  O18  1  0.15411184  0.89192246  0.25000000  1
  O  O19  1  0.10807754  0.84588816  0.75000000  1
  O  O20  1  0.84588816  0.10807754  0.75000000  1
  O  O21  1  0.89192246  0.15411184  0.25000000  1
