# generated using pymatgen
data_NaCa10(PO4)7
_symmetry_space_group_name_H-M   'P 1'
_cell_length_a   10.55748601
_cell_length_b   10.55748563
_cell_length_c   13.93192204
_cell_angle_alpha   90.00000000
_cell_angle_beta   67.73471466
_cell_angle_gamma   119.99999884
_symmetry_Int_Tables_number   1
_chemical_formula_structural   NaCa10(PO4)7
_chemical_formula_sum   'Na2 Ca20 P14 O56'
_cell_volume   1209.27569743
_cell_formula_units_Z   2
loop_
 _symmetry_equiv_pos_site_id
 _symmetry_equiv_pos_as_xyz
  1  'x, y, z'
loop_
 _atom_site_type_symbol
 _atom_site_label
 _atom_site_symmetry_multiplicity
 _atom_site_fract_x
 _atom_site_fract_y
 _atom_site_fract_z
 _atom_site_occupancy
  Na  Na0  1  0.66031902  0.33015951  0.00952147  1
  Na  Na1  1  0.63026508  0.81513254  0.55460238  1
  Ca  Ca2  1  0.08333497  0.05296177  0.47710529  1
  Ca  Ca3  1  0.49252151  0.43955974  0.47710529  1
  Ca  Ca4  1  0.46993294  0.03037320  0.47710529  1
  Ca  Ca5  1  0.46865385  0.93910866  0.97849508  1
  Ca  Ca6  1  0.49195973  0.55285107  0.97849508  1
  Ca  Ca7  1  0.08239627  0.52954519  0.97849508  1
  Ca  Ca8  1  0.27673133  0.34227762  0.79646034  1
  Ca  Ca9  1  0.26908595  0.92680833  0.79646034  1
  Ca  Ca10  1  0.86126204  0.93445371  0.79646034  1
  Ca  Ca11  1  0.86048075  0.42622305  0.29672806  1
  Ca  Ca12  1  0.26901423  0.84279119  0.29672806  1
  Ca  Ca13  1  0.27704889  0.43425771  0.29672806  1
  Ca  Ca14  1  0.99826230  0.49913115  0.50260655  1
  Ca  Ca15  1  0.99770679  0.99885339  0.00343982  1
  Ca  Ca16  1  0.71021698  0.64960539  0.19803616  1
  Ca  Ca17  1  0.74135225  0.09174686  0.19803616  1
  Ca  Ca18  1  0.15235845  0.06061159  0.19803616  1
  Ca  Ca19  1  0.15192664  0.59152995  0.69716709  1
  Ca  Ca20  1  0.74243623  0.15090628  0.69716709  1
  Ca  Ca21  1  0.71130296  0.56039669  0.69716709  1
  P  P22  1  0.46534309  0.23267155  0.30198536  1
  P  P23  1  0.46471672  0.73235836  0.80292493  1
  P  P24  1  0.86442658  0.67447649  0.90380267  1
  P  P25  1  0.90624724  0.23177075  0.90380267  1
  P  P26  1  0.42172084  0.18995009  0.90380267  1
  P  P27  1  0.42265591  0.73183198  0.40403407  1
  P  P28  1  0.90514199  0.17331001  0.40403407  1
  P  P29  1  0.86413395  0.69082393  0.40403407  1
  P  P30  1  0.08654947  0.81410089  0.59904962  1
  P  P31  1  0.12850180  0.31440091  0.59904962  1
  P  P32  1  0.58684949  0.27244858  0.59904962  1
  P  P33  1  0.58691725  0.81441533  0.09897850  1
  P  P34  1  0.12851958  0.31410425  0.09897850  1
  P  P35  1  0.08660617  0.77250192  0.09897850  1
  O  O36  1  0.76441509  0.65925372  0.84043463  1
  O  O37  1  0.05440400  0.39515028  0.84043463  1
  O  O38  1  0.50031165  0.10516137  0.84043463  1
  O  O39  1  0.50012075  0.89496456  0.34064994  1
  O  O40  1  0.05419387  0.15922931  0.34064994  1
  O  O41  1  0.76438550  0.60515619  0.34064994  1
  O  O42  1  0.73601867  0.59066590  0.02141908  1
  O  O43  1  0.83322814  0.24256225  0.02141908  1
  O  O44  1  0.38791502  0.14535278  0.02141908  1
  O  O45  1  0.38770219  0.74213599  0.52202160  1
  O  O46  1  0.83241221  0.09027622  0.52202160  1
  O  O47  1  0.73584241  0.64556619  0.52202160  1
  O  O48  1  0.99421749  0.63876237  0.62988874  1
  O  O49  1  0.01465614  0.37589377  0.62988874  1
  O  O50  1  0.73134889  0.35545512  0.62988874  1
  O  O51  1  0.73147202  0.87590945  0.12960178  1
  O  O52  1  0.01483565  0.13892620  0.12960178  1
  O  O53  1  0.99448876  0.85556257  0.12960178  1
  O  O54  1  0.97280040  0.60959291  0.86487564  1
  O  O55  1  0.77191687  0.16232396  0.86487564  1
  O  O56  1  0.52553145  0.36320749  0.86487564  1
  O  O57  1  0.52454135  0.66098831  0.36442536  1
  O  O58  1  0.77202159  0.11103329  0.36442536  1
  O  O59  1  0.97458633  0.86355305  0.36442536  1
  O  O60  1  0.95742531  0.85672708  0.63463017  1
  O  O61  1  0.26467160  0.40794452  0.63463017  1
  O  O62  1  0.50864275  0.10069823  0.63463017  1
  O  O63  1  0.50867494  0.90781583  0.13436009  1
  O  O64  1  0.26478080  0.35696498  0.13436009  1
  O  O65  1  0.95782408  0.60085911  0.13436009  1
  O  O66  1  0.62713558  0.23721813  0.26343390  1
  O  O67  1  0.34664865  0.10943051  0.26343390  1
  O  O68  1  0.49934797  0.38991745  0.26343390  1
  O  O69  1  0.49987208  0.61041325  0.76246936  1
  O  O70  1  0.34807181  0.73765856  0.76246936  1
  O  O71  1  0.62711739  0.88945883  0.76246936  1
  O  O72  1  0.38235973  0.19117987  0.42646040  1
  O  O73  1  0.38201257  0.69100629  0.92698114  1
  O  O74  1  0.20440885  0.87752782  0.65170520  1
  O  O75  1  0.02141377  0.14388595  0.65170520  1
  O  O76  1  0.47076698  0.32688103  0.65170520  1
  O  O77  1  0.47084673  0.64384744  0.15125338  1
  O  O78  1  0.02174733  0.37789989  0.15125338  1
  O  O79  1  0.20489918  0.82699929  0.15125338  1
  O  O80  1  0.97875463  0.84882841  0.88594976  1
  O  O81  1  0.98412401  0.13529561  0.88594976  1
  O  O82  1  0.26522183  0.12992623  0.88594976  1
  O  O83  1  0.26545931  0.63569960  0.38638516  1
  O  O84  1  0.98385513  0.34815553  0.38638516  1
  O  O85  1  0.97791524  0.62975971  0.38638516  1
  O  O86  1  0.18926449  0.87749170  0.47671381  1
  O  O87  1  0.21151341  0.33402170  0.47671381  1
  O  O88  1  0.64579448  0.31177278  0.47671381  1
  O  O89  1  0.64586119  0.83408304  0.97641816  1
  O  O90  1  0.21180369  0.37772065  0.97641816  1
  O  O91  1  0.18949879  0.81177814  0.97641816  1
