# generated using pymatgen
data_BaSm2Sc2O7
_symmetry_space_group_name_H-M   'P 1'
_cell_length_a   5.80286925
_cell_length_b   5.80286925
_cell_length_c   20.11685508
_cell_angle_alpha   90.00000000
_cell_angle_beta   90.00000000
_cell_angle_gamma   90.00000000
_symmetry_Int_Tables_number   1
_chemical_formula_structural   BaSm2Sc2O7
_chemical_formula_sum   'Ba4 Sm8 Sc8 O28'
_cell_volume   677.40072583
_cell_formula_units_Z   4
loop_
 _symmetry_equiv_pos_site_id
 _symmetry_equiv_pos_as_xyz
  1  'x, y, z'
loop_
 _atom_site_type_symbol
 _atom_site_label
 _atom_site_symmetry_multiplicity
 _atom_site_fract_x
 _atom_site_fract_y
 _atom_site_fract_z
 _atom_site_occupancy
  Ba  Ba0  1  0.23912257  0.76087743  0.50000000  1
  Ba  Ba1  1  0.76087743  0.23912257  0.50000000  1
  Ba  Ba2  1  0.26087643  0.26087743  -0.00000000  1
  Ba  Ba3  1  0.73912257  0.73912257  -0.00000000  1
  Sm  Sm4  1  0.22171125  0.77828875  0.31506041  1
  Sm  Sm5  1  0.77828875  0.22171125  0.31506041  1
  Sm  Sm6  1  0.27828875  0.27828875  0.81506041  1
  Sm  Sm7  1  0.72171125  0.72171125  0.81506041  1
  Sm  Sm8  1  0.77828875  0.22171125  0.68493959  1
  Sm  Sm9  1  0.22171125  0.77828875  0.68493959  1
  Sm  Sm10  1  0.72171125  0.72171125  0.18493959  1
  Sm  Sm11  1  0.27828875  0.27828875  0.18493959  1
  Sc  Sc12  1  0.24151943  0.75848057  0.10350964  1
  Sc  Sc13  1  0.75848057  0.24151943  0.10350964  1
  Sc  Sc14  1  0.25848057  0.25848057  0.60350964  1
  Sc  Sc15  1  0.74151943  0.74151943  0.60350964  1
  Sc  Sc16  1  0.75848057  0.24151943  0.89649036  1
  Sc  Sc17  1  0.24151943  0.75848057  0.89649036  1
  Sc  Sc18  1  0.74151943  0.74151943  0.39649036  1
  Sc  Sc19  1  0.25848057  0.25848057  0.39649036  1
  O  O20  1  0.28483293  0.28483293  0.50000000  1
  O  O21  1  0.71516707  0.71516707  0.50000000  1
  O  O22  1  0.21516707  0.78483293  -0.00000000  1
  O  O23  1  0.78483293  0.21516707  -0.00000000  1
  O  O24  1  0.31807167  0.68192833  0.21126741  1
  O  O25  1  0.68192833  0.31807167  0.21126741  1
  O  O26  1  0.18192833  0.18192833  0.71126741  1
  O  O27  1  0.81807167  0.81807167  0.71126741  1
  O  O28  1  0.68192833  0.31807167  0.78873259  1
  O  O29  1  0.31807167  0.68192833  0.78873259  1
  O  O30  1  0.81807167  0.81807167  0.28873259  1
  O  O31  1  0.18192833  0.18192833  0.28873259  1
  O  O32  1  -0.00000000  0.50000000  0.38398044  1
  O  O33  1  0.50000000  0.00000000  0.88398044  1
  O  O34  1  -0.00000000  0.50000000  0.61601956  1
  O  O35  1  0.50000000  0.00000000  0.11601956  1
  O  O36  1  0.50000000  0.00000000  0.38398044  1
  O  O37  1  -0.00000000  0.50000000  0.88398044  1
  O  O38  1  0.50000000  0.00000000  0.61601956  1
  O  O39  1  -0.00000000  0.50000000  0.11601956  1
  O  O40  1  0.50000000  0.50000000  0.36773984  1
  O  O41  1  -0.00000000  0.00000000  0.86773984  1
  O  O42  1  0.50000000  0.50000000  0.63226016  1
  O  O43  1  -0.00000000  0.00000000  0.13226016  1
  O  O44  1  0.50000000  0.50000000  0.09513454  1
  O  O45  1  -0.00000000  0.00000000  0.59513454  1
  O  O46  1  0.50000000  0.50000000  0.90486546  1
  O  O47  1  -0.00000000  0.00000000  0.40486546  1
