# generated using pymatgen
data_MgCo6(OF5)2
_symmetry_space_group_name_H-M   'P 1'
_cell_length_a   4.68168832
_cell_length_b   4.71588967
_cell_length_c   11.66506239
_cell_angle_alpha   83.90061488
_cell_angle_beta   84.52510983
_cell_angle_gamma   91.80136053
_symmetry_Int_Tables_number   1
_chemical_formula_structural   MgCo6(OF5)2
_chemical_formula_sum   'Mg1 Co6 O2 F10'
_cell_volume   254.69392125
_cell_formula_units_Z   1
loop_
 _symmetry_equiv_pos_site_id
 _symmetry_equiv_pos_as_xyz
  1  'x, y, z'
loop_
 _atom_site_type_symbol
 _atom_site_label
 _atom_site_symmetry_multiplicity
 _atom_site_fract_x
 _atom_site_fract_y
 _atom_site_fract_z
 _atom_site_occupancy
  Mg  Mg0  1  0.17809900  0.18484600  0.81278800  1
  Co  Co1  1  0.96136200  0.96620300  0.06763100  1
  Co  Co2  1  0.02611600  0.02371300  0.32588200  1
  Co  Co3  1  0.96753500  0.95545500  0.59956400  1
  Co  Co4  1  0.51972000  0.52097200  0.18671000  1
  Co  Co5  1  0.61719600  0.62339900  0.88264100  1
  Co  Co6  1  0.44807300  0.44118800  0.45430100  1
  O  O7  1  0.31486900  0.31295800  0.32221400  1
  O  O8  1  0.69006100  0.69528000  0.03135800  1
  F  F9  1  0.22548500  0.83437800  0.18332000  1
  F  F10  1  0.22277600  0.77078100  0.83088900  1
  F  F11  1  0.21132800  0.77848000  0.48609400  1
  F  F12  1  0.24161200  0.24719100  0.96629900  1
  F  F13  1  0.24279300  0.24462500  0.64503500  1
  F  F14  1  0.71211600  0.72173800  0.70634700  1
  F  F15  1  0.72260600  0.71684300  0.33483200  1
  F  F16  1  0.83227800  0.22588600  0.18300800  1
  F  F17  1  0.76215600  0.23274900  0.83182500  1
  F  F18  1  0.78437700  0.19776000  0.48497900  1
