# generated using pymatgen
data_CaV2O4
_symmetry_space_group_name_H-M   'P 1'
_cell_length_a   5.11962655
_cell_length_b   5.84754691
_cell_length_c   11.15153672
_cell_angle_alpha   90.00403661
_cell_angle_beta   90.00240637
_cell_angle_gamma   91.09318335
_symmetry_Int_Tables_number   1
_chemical_formula_structural   CaV2O4
_chemical_formula_sum   'Ca4 V8 O16'
_cell_volume   333.78564930
_cell_formula_units_Z   4
loop_
 _symmetry_equiv_pos_site_id
 _symmetry_equiv_pos_as_xyz
  1  'x, y, z'
loop_
 _atom_site_type_symbol
 _atom_site_label
 _atom_site_symmetry_multiplicity
 _atom_site_fract_x
 _atom_site_fract_y
 _atom_site_fract_z
 _atom_site_occupancy
  Ca  Ca0  1  0.84561964  0.24318245  0.74977070  1
  Ca  Ca1  1  0.15447798  0.75658871  0.24969661  1
  Ca  Ca2  1  0.53071331  0.26181284  0.25008385  1
  Ca  Ca3  1  0.46927828  0.73798864  0.75009130  1
  V  V4  1  0.50957715  0.74845955  0.48987320  1
  V  V5  1  0.51078257  0.75168758  0.01021431  1
  V  V6  1  0.48907707  0.24828395  0.51027270  1
  V  V7  1  0.49046132  0.25149242  0.98985602  1
  V  V8  1  0.99011339  0.50413182  0.50047803  1
  V  V9  1  -0.00641347  -0.00226392  -0.00044268  1
  V  V10  1  0.00637982  0.00232663  0.49952166  1
  V  V11  1  0.00978972  0.49603530  0.00045832  1
  O  O12  1  0.83948922  0.75432037  0.39928590  1
  O  O13  1  0.84228052  0.74463552  0.09885434  1
  O  O14  1  0.15766939  0.25545490  0.59903314  1
  O  O15  1  0.16056757  0.24567441  0.89931015  1
  O  O16  1  0.17956899  0.75305012  0.58959502  1
  O  O17  1  0.18101559  0.75005261  0.91155662  1
  O  O18  1  0.81886054  0.25011013  0.41158246  1
  O  O19  1  0.82057722  0.24712549  0.08956801  1
  O  O20  1  0.66242294  0.49674857  0.60626726  1
  O  O21  1  0.66428652  -0.01070906  0.89468240  1
  O  O22  1  0.33568986  0.01070778  0.39472752  1
  O  O23  1  0.33758477  0.50330904  0.10623580  1
  O  O24  1  0.33090805  0.50375432  0.39708937  1
  O  O25  1  0.33323888  0.01214705  0.10255016  1
  O  O26  1  0.66696618  0.98775916  0.60270147  1
  O  O27  1  0.66901698  0.49613362  0.89708236  1
