# generated using pymatgen
data_Mn(Ni3O4)2
_symmetry_space_group_name_H-M   'P 1'
_cell_length_a   5.89233324
_cell_length_b   5.89233555
_cell_length_c   5.89237318
_cell_angle_alpha   60.00125997
_cell_angle_beta   60.00127179
_cell_angle_gamma   60.00084230
_symmetry_Int_Tables_number   1
_chemical_formula_structural   Mn(Ni3O4)2
_chemical_formula_sum   'Mn1 Ni6 O8'
_cell_volume   144.66420709
_cell_formula_units_Z   1
loop_
 _symmetry_equiv_pos_site_id
 _symmetry_equiv_pos_as_xyz
  1  'x, y, z'
loop_
 _atom_site_type_symbol
 _atom_site_label
 _atom_site_symmetry_multiplicity
 _atom_site_fract_x
 _atom_site_fract_y
 _atom_site_fract_z
 _atom_site_occupancy
  Mn  Mn0  1  -0.00000000  0.00000000  0.00000000  1
  Ni  Ni1  1  -0.00000000  0.50000000  0.50000000  1
  Ni  Ni2  1  -0.00000000  0.50000000  0.00000000  1
  Ni  Ni3  1  0.50000000  0.00000000  0.50000000  1
  Ni  Ni4  1  0.50000000  0.50000000  0.00000000  1
  Ni  Ni5  1  -0.00000000  0.00000000  0.50000000  1
  Ni  Ni6  1  0.50000000  0.00000000  0.00000000  1
  O  O7  1  0.22819505  0.77180431  0.77180278  1
  O  O8  1  0.22819586  0.77180484  0.22819735  1
  O  O9  1  0.77180414  0.22819516  0.77180265  1
  O  O10  1  0.22819638  0.22819828  0.77180283  1
  O  O11  1  0.77180362  0.77180172  0.22819617  1
  O  O12  1  0.77180495  0.22819569  0.22819722  1
  O  O13  1  0.75000036  0.75000032  0.74999903  1
  O  O14  1  0.24999964  0.24999968  0.25000097  1
