# generated using pymatgen
data_MgS8(O5F2)4
_symmetry_space_group_name_H-M   'P 1'
_cell_length_a   7.94139735
_cell_length_b   8.82741096
_cell_length_c   9.37982079
_cell_angle_alpha   96.81963683
_cell_angle_beta   86.93490779
_cell_angle_gamma   94.76274022
_symmetry_Int_Tables_number   1
_chemical_formula_structural   MgS8(O5F2)4
_chemical_formula_sum   'Mg1 S8 O20 F8'
_cell_volume   650.00514133
_cell_formula_units_Z   1
loop_
 _symmetry_equiv_pos_site_id
 _symmetry_equiv_pos_as_xyz
  1  'x, y, z'
loop_
 _atom_site_type_symbol
 _atom_site_label
 _atom_site_symmetry_multiplicity
 _atom_site_fract_x
 _atom_site_fract_y
 _atom_site_fract_z
 _atom_site_occupancy
  Mg  Mg0  1  0.72394061  0.41297776  0.97582069  1
  S  S1  1  0.57894394  0.16840939  0.66945215  1
  S  S2  1  0.43124259  0.85160501  0.63522378  1
  S  S3  1  0.32474783  0.93033085  0.14936472  1
  S  S4  1  0.85337338  0.53212336  0.33104800  1
  S  S5  1  0.18658201  0.43107365  0.37241243  1
  S  S6  1  0.93031293  0.73001616  0.82894550  1
  S  S7  1  0.07423013  0.30680570  0.85684149  1
  S  S8  1  0.66967585  0.06840404  0.14350904  1
  O  O9  1  0.53698317  0.82199933  0.50986893  1
  O  O10  1  0.38833646  0.75175698  0.74052723  1
  O  O11  1  0.20909066  0.91174119  0.26716845  1
  O  O12  1  0.75411336  0.51598215  0.20658779  1
  O  O13  1  0.31365262  0.38124506  0.27013891  1
  O  O14  1  0.86457230  0.84733935  0.75604356  1
  O  O15  1  0.13690384  0.15872487  0.82381312  1
  O  O16  1  0.79256341  0.11359854  0.24734856  1
  O  O17  1  0.50303060  0.00841344  0.23176933  1
  O  O18  1  0.04320053  0.39374824  0.74161710  1
  O  O19  1  0.03082873  0.46666332  0.27051442  1
  O  O20  1  0.50589146  0.01372482  0.73190848  1
  O  O21  1  0.69256517  0.98099335  0.00882779  1
  O  O22  1  0.48278204  0.20747100  0.55841570  1
  O  O23  1  0.99634490  0.77572687  0.97083508  1
  O  O24  1  0.20823205  0.55138078  0.48540159  1
  O  O25  1  0.79506369  0.47853527  0.46249838  1
  O  O26  1  0.30256419  0.00986394  0.03046480  1
  O  O27  1  0.93408662  0.31231748  0.97072400  1
  O  O28  1  0.61514821  0.27111318  0.79547005  1
  F  F29  1  0.59869567  0.23107548  0.10600811  1
  F  F30  1  0.22398861  0.40813328  0.94447471  1
  F  F31  1  0.67241698  0.59533114  0.92445745  1
  F  F32  1  0.09612308  0.28704043  0.43381589  1
  F  F33  1  0.91189409  0.70587436  0.36095450  1
  F  F34  1  0.39177593  0.77078344  0.09453422  1
  F  F35  1  0.26534657  0.91316561  0.58860524  1
  F  F36  1  0.75242282  0.11784417  0.60181080  1
