# generated using pymatgen
data_K2Hg3(GeS4)2
_symmetry_space_group_name_H-M   'P 1'
_cell_length_a   6.44446817
_cell_length_b   6.44446817
_cell_length_c   19.41557716
_cell_angle_alpha   90.00000000
_cell_angle_beta   90.00000000
_cell_angle_gamma   98.74139354
_symmetry_Int_Tables_number   1
_chemical_formula_structural   K2Hg3(GeS4)2
_chemical_formula_sum   'K4 Hg6 Ge4 S16'
_cell_volume   796.98533828
_cell_formula_units_Z   2
loop_
 _symmetry_equiv_pos_site_id
 _symmetry_equiv_pos_as_xyz
  1  'x, y, z'
loop_
 _atom_site_type_symbol
 _atom_site_label
 _atom_site_symmetry_multiplicity
 _atom_site_fract_x
 _atom_site_fract_y
 _atom_site_fract_z
 _atom_site_occupancy
  K  K0  1  0.85552480  0.45347757  0.88341131  1
  K  K1  1  0.45347757  0.85552480  0.11658869  1
  K  K2  1  0.35552480  0.95347757  0.61658869  1
  K  K3  1  0.95347757  0.35552480  0.38341131  1
  Hg  Hg4  1  0.29662692  0.38747705  0.75469334  1
  Hg  Hg5  1  0.38747705  0.29662692  0.24530666  1
  Hg  Hg6  1  0.79662692  0.88747705  0.74530666  1
  Hg  Hg7  1  0.88747705  0.79662692  0.25469334  1
  Hg  Hg8  1  0.01987789  0.01987789  0.00000000  1
  Hg  Hg9  1  0.51987789  0.51987789  0.50000000  1
  Ge  Ge10  1  0.37108594  0.95082660  0.86474533  1
  Ge  Ge11  1  0.95082660  0.37108594  0.13525467  1
  Ge  Ge12  1  0.87108594  0.45082660  0.63525467  1
  Ge  Ge13  1  0.45082660  0.87108594  0.36474533  1
  S  S14  1  0.21018792  0.41204715  0.63271454  1
  S  S15  1  0.41204715  0.21018792  0.36728546  1
  S  S16  1  0.71018792  0.91204715  0.86728546  1
  S  S17  1  0.91204715  0.71018792  0.13271454  1
  S  S18  1  0.32604515  0.28685387  0.87485513  1
  S  S19  1  0.28685387  0.32604515  0.12514487  1
  S  S20  1  0.82604515  0.78685387  0.62514487  1
  S  S21  1  0.78685387  0.82604515  0.37485513  1
  S  S22  1  0.24596175  0.78700874  0.96208440  1
  S  S23  1  0.78700874  0.24596175  0.03791560  1
  S  S24  1  0.74596175  0.28700874  0.53791560  1
  S  S25  1  0.28700874  0.74596175  0.46208440  1
  S  S26  1  0.22219158  0.80810606  0.77235805  1
  S  S27  1  0.80810606  0.22219158  0.22764195  1
  S  S28  1  0.30810606  0.72219158  0.27235805  1
  S  S29  1  0.72219158  0.30810606  0.72764195  1
