# generated using pymatgen
data_K3GeSe3
_symmetry_space_group_name_H-M   'P 1'
_cell_length_a   7.88971447
_cell_length_b   7.88971349
_cell_length_c   8.46743683
_cell_angle_alpha   104.92228939
_cell_angle_beta   104.92229912
_cell_angle_gamma   109.76356286
_symmetry_Int_Tables_number   1
_chemical_formula_structural   K3GeSe3
_chemical_formula_sum   'K6 Ge2 Se6'
_cell_volume   443.55867066
_cell_formula_units_Z   2
loop_
 _symmetry_equiv_pos_site_id
 _symmetry_equiv_pos_as_xyz
  1  'x, y, z'
loop_
 _atom_site_type_symbol
 _atom_site_label
 _atom_site_symmetry_multiplicity
 _atom_site_fract_x
 _atom_site_fract_y
 _atom_site_fract_z
 _atom_site_occupancy
  K  K0  1  0.50000000  0.00000000  0.00000000  1
  K  K1  1  -0.00000000  0.50000000  0.00000000  1
  K  K2  1  0.21104386  0.21104386  0.68173418  1
  K  K3  1  0.78895614  0.78895614  0.31826582  1
  K  K4  1  0.66288424  0.33711576  0.50000000  1
  K  K5  1  0.33711576  0.66288424  0.50000000  1
  Ge  Ge6  1  0.11595925  0.11595925  0.15130736  1
  Ge  Ge7  1  0.88404075  0.88404075  0.84869264  1
  Se  Se8  1  0.36951326  0.36951326  0.13273371  1
  Se  Se9  1  0.63048674  0.63048674  0.86726629  1
  Se  Se10  1  0.94870506  0.24840891  0.30270481  1
  Se  Se11  1  0.75159109  0.05129494  0.69729519  1
  Se  Se12  1  0.05129494  0.75159109  0.69729519  1
  Se  Se13  1  0.24840891  0.94870506  0.30270481  1
