# generated using pymatgen
data_Bi4PbS7
_symmetry_space_group_name_H-M   'P 1'
_cell_length_a   6.99940884
_cell_length_b   6.99940884
_cell_length_c   12.21958437
_cell_angle_alpha   75.32016993
_cell_angle_beta   75.32016993
_cell_angle_gamma   33.37203433
_symmetry_Int_Tables_number   1
_chemical_formula_structural   Bi4PbS7
_chemical_formula_sum   'Bi4 Pb1 S7'
_cell_volume   317.57281778
_cell_formula_units_Z   1
loop_
 _symmetry_equiv_pos_site_id
 _symmetry_equiv_pos_as_xyz
  1  'x, y, z'
loop_
 _atom_site_type_symbol
 _atom_site_label
 _atom_site_symmetry_multiplicity
 _atom_site_fract_x
 _atom_site_fract_y
 _atom_site_fract_z
 _atom_site_occupancy
  Bi  Bi0  1  0.87134305  0.87134305  0.93047312  1
  Bi  Bi1  1  0.11339665  0.11339665  0.06701093  1
  Bi  Bi2  1  0.00332385  0.00332385  0.50650077  1
  Bi  Bi3  1  0.69393803  0.69393803  0.65770093  1
  Pb  Pb4  1  0.34270320  0.34270320  0.29206184  1
  S  S5  1  0.26218445  0.26218445  0.85565087  1
  S  S6  1  0.72768095  0.72768095  0.13224994  1
  S  S7  1  0.04973301  0.04973301  0.71917506  1
  S  S8  1  0.98690325  0.98690325  0.28771694  1
  S  S9  1  0.34463590  0.34463590  0.53901343  1
  S  S10  1  0.65320435  0.65320435  0.45633895  1
  S  S11  1  0.47105232  0.47105232  0.03190723  1
