# generated using pymatgen
data_NaNbO3
_symmetry_space_group_name_H-M   'P 1'
_cell_length_a   7.92643002
_cell_length_b   7.96962381
_cell_length_c   23.70330800
_cell_angle_alpha   90.00000000
_cell_angle_beta   90.00000000
_cell_angle_gamma   90.00000000
_symmetry_Int_Tables_number   1
_chemical_formula_structural   NaNbO3
_chemical_formula_sum   'Na24 Nb24 O72'
_cell_volume   1497.35373891
_cell_formula_units_Z   24
loop_
 _symmetry_equiv_pos_site_id
 _symmetry_equiv_pos_as_xyz
  1  'x, y, z'
loop_
 _atom_site_type_symbol
 _atom_site_label
 _atom_site_symmetry_multiplicity
 _atom_site_fract_x
 _atom_site_fract_y
 _atom_site_fract_z
 _atom_site_occupancy
  Na  Na0  1  0.75000000  0.48838951  0.49844094  1
  Na  Na1  1  0.75000000  0.98838951  0.00155906  1
  Na  Na2  1  0.25000000  0.51161049  0.50155906  1
  Na  Na3  1  0.25000000  0.01161049  0.99844094  1
  Na  Na4  1  0.75000000  0.49670960  0.33444851  1
  Na  Na5  1  0.75000000  0.99670960  0.16555149  1
  Na  Na6  1  0.25000000  0.50329040  0.66555149  1
  Na  Na7  1  0.25000000  0.00329040  0.83444851  1
  Na  Na8  1  0.75000000  0.49475584  0.16889432  1
  Na  Na9  1  0.75000000  0.99475584  0.33110568  1
  Na  Na10  1  0.25000000  0.50524416  0.83110568  1
  Na  Na11  1  0.25000000  0.00524416  0.66889432  1
  Na  Na12  1  0.75000000  0.49574476  0.00124490  1
  Na  Na13  1  0.75000000  0.99574476  0.49875510  1
  Na  Na14  1  0.25000000  0.50425524  0.99875510  1
  Na  Na15  1  0.25000000  0.00425524  0.50124490  1
  Na  Na16  1  0.75000000  0.50148154  0.83337978  1
  Na  Na17  1  0.75000000  0.00148154  0.66662022  1
  Na  Na18  1  0.25000000  0.49851846  0.16662022  1
  Na  Na19  1  0.25000000  0.99851846  0.33337978  1
  Na  Na20  1  0.75000000  0.49196152  0.66370974  1
  Na  Na21  1  0.75000000  0.99196152  0.83629026  1
  Na  Na22  1  0.25000000  0.50803848  0.33629026  1
  Na  Na23  1  0.25000000  0.00803848  0.16370974  1
  Nb  Nb24  1  0.99759058  0.75922711  0.41555873  1
  Nb  Nb25  1  0.50240942  0.25922711  0.08444127  1
  Nb  Nb26  1  0.49759058  0.24077289  0.58444127  1
  Nb  Nb27  1  0.00240942  0.74077289  0.91555873  1
  Nb  Nb28  1  0.00240942  0.24077289  0.58444127  1
  Nb  Nb29  1  0.49759058  0.74077289  0.91555873  1
  Nb  Nb30  1  0.50240942  0.75922711  0.41555873  1
  Nb  Nb31  1  0.99759058  0.25922711  0.08444127  1
  Nb  Nb32  1  0.99791174  0.74083207  0.58232712  1
  Nb  Nb33  1  0.50208826  0.24083207  0.91767288  1
  Nb  Nb34  1  0.49791174  0.25916793  0.41767288  1
  Nb  Nb35  1  0.00208826  0.75916793  0.08232712  1
  Nb  Nb36  1  0.00208826  0.25916793  0.41767288  1
  Nb  Nb37  1  0.49791174  0.75916793  0.08232712  1
  Nb  Nb38  1  0.50208826  0.74083207  0.58232712  1
  Nb  Nb39  1  0.99791174  0.24083207  0.91767288  1
  Nb  Nb40  1  0.99921327  0.75896044  0.74900734  1
  Nb  Nb41  1  0.50078673  0.25896044  0.75099266  1
  Nb  Nb42  1  0.49921327  0.24103956  0.25099266  1
  Nb  Nb43  1  0.00078673  0.74103956  0.24900734  1
  Nb  Nb44  1  0.00078673  0.24103956  0.25099266  1
  Nb  Nb45  1  0.49921327  0.74103956  0.24900734  1
  Nb  Nb46  1  0.50078673  0.75896044  0.74900734  1
  Nb  Nb47  1  0.99921327  0.25896044  0.75099266  1
  O  O48  1  0.75000000  0.72996974  0.90576541  1
  O  O49  1  0.75000000  0.22996974  0.59423459  1
  O  O50  1  0.25000000  0.27003026  0.09423459  1
  O  O51  1  0.25000000  0.77003026  0.40576541  1
  O  O52  1  0.75000000  0.77990135  0.09212488  1
  O  O53  1  0.75000000  0.27990135  0.40787512  1
  O  O54  1  0.25000000  0.22009865  0.90787512  1
  O  O55  1  0.25000000  0.72009865  0.59212488  1
  O  O56  1  0.75000000  0.75723576  0.23998642  1
  O  O57  1  0.75000000  0.25723576  0.26001358  1
  O  O58  1  0.25000000  0.24276424  0.76001358  1
  O  O59  1  0.25000000  0.74276424  0.73998642  1
  O  O60  1  0.75000000  0.71851233  0.42867532  1
  O  O61  1  0.75000000  0.21851233  0.07132468  1
  O  O62  1  0.25000000  0.28148767  0.57132468  1
  O  O63  1  0.25000000  0.78148767  0.92867532  1
  O  O64  1  0.75000000  0.79037749  0.57527395  1
  O  O65  1  0.75000000  0.29037749  0.92472605  1
  O  O66  1  0.25000000  0.20962251  0.42472605  1
  O  O67  1  0.25000000  0.70962251  0.07527395  1
  O  O68  1  0.75000000  0.75297604  0.76190000  1
  O  O69  1  0.75000000  0.25297604  0.73810000  1
  O  O70  1  0.25000000  0.24702396  0.23810000  1
  O  O71  1  0.25000000  0.74702396  0.26190000  1
  O  O72  1  0.03003355  0.78492464  0.50007699  1
  O  O73  1  0.46996645  0.28492464  0.99992301  1
  O  O74  1  0.53003355  0.21507536  0.49992301  1
  O  O75  1  0.96996645  0.71507536  0.00007699  1
  O  O76  1  0.96996645  0.21507536  0.49992301  1
  O  O77  1  0.53003355  0.71507536  0.00007699  1
  O  O78  1  0.46996645  0.78492464  0.50007699  1
  O  O79  1  0.03003355  0.28492464  0.99992301  1
  O  O80  1  0.96850618  0.71706858  0.66681657  1
  O  O81  1  0.53149382  0.21706858  0.83318343  1
  O  O82  1  0.46850618  0.28293142  0.33318343  1
  O  O83  1  0.03149382  0.78293142  0.16681657  1
  O  O84  1  0.03149382  0.28293142  0.33318343  1
  O  O85  1  0.46850618  0.78293142  0.16681657  1
  O  O86  1  0.53149382  0.71706858  0.66681657  1
  O  O87  1  0.96850618  0.21706858  0.83318343  1
  O  O88  1  0.03104251  0.78969586  0.83382627  1
  O  O89  1  0.46895749  0.28969586  0.66617373  1
  O  O90  1  0.53104251  0.21030414  0.16617373  1
  O  O91  1  0.96895749  0.71030414  0.33382627  1
  O  O92  1  0.96895749  0.21030414  0.16617373  1
  O  O93  1  0.53104251  0.71030414  0.33382627  1
  O  O94  1  0.46895749  0.78969586  0.83382627  1
  O  O95  1  0.03104251  0.28969586  0.66617373  1
  O  O96  1  0.03106351  0.49566392  0.42846672  1
  O  O97  1  0.46893649  0.99566392  0.07153328  1
  O  O98  1  0.53106351  0.50433608  0.57153328  1
  O  O99  1  0.96893649  0.00433608  0.92846672  1
  O  O100  1  0.96893649  0.50433608  0.57153328  1
  O  O101  1  0.53106351  0.00433608  0.92846672  1
  O  O102  1  0.46893649  0.49566392  0.42846672  1
  O  O103  1  0.03106351  0.99566392  0.07153328  1
  O  O104  1  0.00010644  0.49973264  0.76287373  1
  O  O105  1  0.49989356  -0.00026736  0.73712627  1
  O  O106  1  0.50010644  0.50026736  0.23712627  1
  O  O107  1  -0.00010644  0.00026736  0.26287373  1
  O  O108  1  -0.00010644  0.50026736  0.23712627  1
  O  O109  1  0.50010644  0.00026736  0.26287373  1
  O  O110  1  0.49989356  0.49973264  0.76287373  1
  O  O111  1  0.00010644  -0.00026736  0.73712627  1
  O  O112  1  0.03093184  0.50384505  0.90488055  1
  O  O113  1  0.46906816  0.00384505  0.59511945  1
  O  O114  1  0.53093184  0.49615495  0.09511945  1
  O  O115  1  0.96906816  0.99615495  0.40488055  1
  O  O116  1  0.96906816  0.49615495  0.09511945  1
  O  O117  1  0.53093184  0.99615495  0.40488055  1
  O  O118  1  0.46906816  0.50384505  0.90488055  1
  O  O119  1  0.03093184  0.00384505  0.59511945  1
