# generated using pymatgen
data_CaMn9CdO10
_symmetry_space_group_name_H-M   'P 1'
_cell_length_a   6.28607590
_cell_length_b   9.31422845
_cell_length_c   6.56427596
_cell_angle_alpha   64.00094670
_cell_angle_beta   121.30054708
_cell_angle_gamma   92.07229552
_symmetry_Int_Tables_number   1
_chemical_formula_structural   CaMn9CdO10
_chemical_formula_sum   'Ca1 Mn9 Cd1 O10'
_cell_volume   285.83428197
_cell_formula_units_Z   1
loop_
 _symmetry_equiv_pos_site_id
 _symmetry_equiv_pos_as_xyz
  1  'x, y, z'
loop_
 _atom_site_type_symbol
 _atom_site_label
 _atom_site_symmetry_multiplicity
 _atom_site_fract_x
 _atom_site_fract_y
 _atom_site_fract_z
 _atom_site_occupancy
  Ca  Ca0  1  0.73115300  0.51208800  0.23170500  1
  Mn  Mn1  1  0.38747600  0.32190900  0.37752700  1
  Mn  Mn2  1  0.95765000  0.04361000  0.01227400  1
  Mn  Mn3  1  0.47459400  0.96012500  0.52387700  1
  Mn  Mn4  1  0.10469000  0.67959200  0.11006600  1
  Mn  Mn5  1  0.95110800  0.14424100  0.44682000  1
  Mn  Mn6  1  0.45462500  0.23499400  0.90391500  1
  Mn  Mn7  1  0.51906700  0.59837200  0.65382700  1
  Mn  Mn8  1  0.98327200  0.39332200  0.84239100  1
  Mn  Mn9  1  0.01817800  0.75962600  0.57354600  1
  Cd  Cd10  1  0.42031600  0.87874800  0.02602300  1
  O  O11  1  0.77520400  0.00721500  0.24072000  1
  O  O12  1  0.76342700  0.36124100  0.02927700  1
  O  O13  1  0.80089800  0.24494200  0.60250200  1
  O  O14  1  0.74426500  0.61995100  0.48930700  1
  O  O15  1  0.27771000  0.17316500  0.13144400  1
  O  O16  1  0.20941700  0.81599000  0.36744000  1
  O  O17  1  0.70892500  0.74006900  0.87502000  1
  O  O18  1  0.35536500  0.11182400  0.64300700  1
  O  O19  1  0.23515900  0.46184100  0.49349100  1
  O  O20  1  0.25845200  0.53869700  0.99724900  1
