# generated using pymatgen
data_LuCuS2
_symmetry_space_group_name_H-M   'P 1'
_cell_length_a   3.87297346
_cell_length_b   6.17937004
_cell_length_c   13.07088051
_cell_angle_alpha   90.00000000
_cell_angle_beta   90.00000000
_cell_angle_gamma   90.00000000
_symmetry_Int_Tables_number   1
_chemical_formula_structural   LuCuS2
_chemical_formula_sum   'Lu4 Cu4 S8'
_cell_volume   312.81932051
_cell_formula_units_Z   4
loop_
 _symmetry_equiv_pos_site_id
 _symmetry_equiv_pos_as_xyz
  1  'x, y, z'
loop_
 _atom_site_type_symbol
 _atom_site_label
 _atom_site_symmetry_multiplicity
 _atom_site_fract_x
 _atom_site_fract_y
 _atom_site_fract_z
 _atom_site_occupancy
  Lu  Lu0  1  0.24898123  0.74760817  0.63472729  1
  Lu  Lu1  1  0.74898123  0.75239183  0.36527271  1
  Lu  Lu2  1  0.75101877  0.24760817  0.86527271  1
  Lu  Lu3  1  0.25101877  0.25239183  0.13472729  1
  Cu  Cu4  1  0.74487204  0.36709375  0.54375775  1
  Cu  Cu5  1  0.24487204  0.13290625  0.45624225  1
  Cu  Cu6  1  0.25512796  0.86709375  0.95624225  1
  Cu  Cu7  1  0.75512796  0.63290625  0.04375775  1
  S  S8  1  0.74903301  0.51046728  0.70562123  1
  S  S9  1  0.24903301  0.98953272  0.29437877  1
  S  S10  1  0.25096699  0.01046728  0.79437877  1
  S  S11  1  0.75096699  0.48953272  0.20562123  1
  S  S12  1  0.74826938  0.98898545  0.54065619  1
  S  S13  1  0.24826938  0.51101455  0.45934381  1
  S  S14  1  0.25173062  0.48898545  0.95934381  1
  S  S15  1  0.75173062  0.01101455  0.04065619  1
