# generated using pymatgen
data_CsLu2Cl7
_symmetry_space_group_name_H-M   'P 1'
_cell_length_a   6.85300819
_cell_length_b   12.36308717
_cell_length_c   13.73089491
_cell_angle_alpha   90.00000000
_cell_angle_beta   90.00000000
_cell_angle_gamma   90.00000000
_symmetry_Int_Tables_number   1
_chemical_formula_structural   CsLu2Cl7
_chemical_formula_sum   'Cs4 Lu8 Cl28'
_cell_volume   1163.34097631
_cell_formula_units_Z   4
loop_
 _symmetry_equiv_pos_site_id
 _symmetry_equiv_pos_as_xyz
  1  'x, y, z'
loop_
 _atom_site_type_symbol
 _atom_site_label
 _atom_site_symmetry_multiplicity
 _atom_site_fract_x
 _atom_site_fract_y
 _atom_site_fract_z
 _atom_site_occupancy
  Cs  Cs0  1  0.25000000  0.79403715  0.03360570  1
  Cs  Cs1  1  0.75000000  0.20596285  0.96639430  1
  Cs  Cs2  1  0.75000000  0.29403715  0.46639430  1
  Cs  Cs3  1  0.25000000  0.70596285  0.53360570  1
  Lu  Lu4  1  0.25000000  0.45113151  0.24567533  1
  Lu  Lu5  1  0.75000000  0.54886849  0.75432467  1
  Lu  Lu6  1  0.75000000  0.95113151  0.25432467  1
  Lu  Lu7  1  0.25000000  0.04886849  0.74567533  1
  Lu  Lu8  1  0.25000000  0.14782636  0.24997437  1
  Lu  Lu9  1  0.75000000  0.85217364  0.75002563  1
  Lu  Lu10  1  0.75000000  0.64782636  0.25002563  1
  Lu  Lu11  1  0.25000000  0.35217364  0.74997437  1
  Cl  Cl12  1  0.01020841  0.29901443  0.18480772  1
  Cl  Cl13  1  0.98979159  0.70098557  0.81519228  1
  Cl  Cl14  1  0.98979159  0.79901443  0.31519228  1
  Cl  Cl15  1  0.51020841  0.70098557  0.81519228  1
  Cl  Cl16  1  0.01020841  0.20098557  0.68480772  1
  Cl  Cl17  1  0.48979159  0.29901443  0.18480772  1
  Cl  Cl18  1  0.48979159  0.20098557  0.68480772  1
  Cl  Cl19  1  0.51020841  0.79901443  0.31519228  1
  Cl  Cl20  1  0.00953771  0.56423450  0.13219604  1
  Cl  Cl21  1  0.99046229  0.43576550  0.86780396  1
  Cl  Cl22  1  0.99046229  0.06423450  0.36780396  1
  Cl  Cl23  1  0.50953771  0.43576550  0.86780396  1
  Cl  Cl24  1  0.00953771  0.93576550  0.63219604  1
  Cl  Cl25  1  0.49046229  0.56423450  0.13219604  1
  Cl  Cl26  1  0.49046229  0.93576550  0.63219604  1
  Cl  Cl27  1  0.50953771  0.06423450  0.36780396  1
  Cl  Cl28  1  0.01069698  0.03380880  0.13421635  1
  Cl  Cl29  1  0.98930302  0.96619120  0.86578365  1
  Cl  Cl30  1  0.98930302  0.53380880  0.36578365  1
  Cl  Cl31  1  0.51069698  0.96619120  0.86578365  1
  Cl  Cl32  1  0.01069698  0.46619120  0.63421635  1
  Cl  Cl33  1  0.48930302  0.03380880  0.13421635  1
  Cl  Cl34  1  0.48930302  0.46619120  0.63421635  1
  Cl  Cl35  1  0.51069698  0.53380880  0.36578365  1
  Cl  Cl36  1  0.25000000  0.30036690  0.38977981  1
  Cl  Cl37  1  0.75000000  0.69963310  0.61022019  1
  Cl  Cl38  1  0.75000000  0.80036690  0.11022019  1
  Cl  Cl39  1  0.25000000  0.19963310  0.88977981  1
