# generated using pymatgen
data_CaHfN2
_symmetry_space_group_name_H-M   'P 1'
_cell_length_a   5.89823593
_cell_length_b   5.89823699
_cell_length_c   5.89823738
_cell_angle_alpha   32.23548219
_cell_angle_beta   32.23547546
_cell_angle_gamma   32.23546864
_symmetry_Int_Tables_number   1
_chemical_formula_structural   CaHfN2
_chemical_formula_sum   'Ca1 Hf1 N2'
_cell_volume   51.89060750
_cell_formula_units_Z   1
loop_
 _symmetry_equiv_pos_site_id
 _symmetry_equiv_pos_as_xyz
  1  'x, y, z'
loop_
 _atom_site_type_symbol
 _atom_site_label
 _atom_site_symmetry_multiplicity
 _atom_site_fract_x
 _atom_site_fract_y
 _atom_site_fract_z
 _atom_site_occupancy
  Ca  Ca0  1  -0.00000000  -0.00000000  0.00000000  1
  Hf  Hf1  1  0.50000000  0.50000000  0.50000000  1
  N  N2  1  0.76281104  0.76281104  0.76281104  1
  N  N3  1  0.23718896  0.23718896  0.23718896  1
