# generated using pymatgen
data_Mg(SnO2)2
_symmetry_space_group_name_H-M   'P 1'
_cell_length_a   3.06565182
_cell_length_b   7.99156187
_cell_length_c   15.19258587
_cell_angle_alpha   90.00000000
_cell_angle_beta   90.00000000
_cell_angle_gamma   90.00000000
_symmetry_Int_Tables_number   1
_chemical_formula_structural   Mg(SnO2)2
_chemical_formula_sum   'Mg4 Sn8 O16'
_cell_volume   372.20842077
_cell_formula_units_Z   4
loop_
 _symmetry_equiv_pos_site_id
 _symmetry_equiv_pos_as_xyz
  1  'x, y, z'
loop_
 _atom_site_type_symbol
 _atom_site_label
 _atom_site_symmetry_multiplicity
 _atom_site_fract_x
 _atom_site_fract_y
 _atom_site_fract_z
 _atom_site_occupancy
  Mg  Mg0  1  0.25000000  0.27686333  0.76361814  1
  Mg  Mg1  1  0.75000000  0.72313667  0.23638186  1
  Mg  Mg2  1  0.25000000  0.77686333  0.73638186  1
  Mg  Mg3  1  0.75000000  0.22313667  0.26361814  1
  Sn  Sn4  1  0.75000000  0.46045956  0.59349074  1
  Sn  Sn5  1  0.25000000  0.03954044  0.09349074  1
  Sn  Sn6  1  0.75000000  0.96045956  0.90650926  1
  Sn  Sn7  1  0.25000000  0.53954044  0.40650926  1
  Sn  Sn8  1  0.25000000  0.53635689  0.90292076  1
  Sn  Sn9  1  0.75000000  0.46364311  0.09707924  1
  Sn  Sn10  1  0.25000000  0.03635689  0.59707924  1
  Sn  Sn11  1  0.75000000  0.96364311  0.40292076  1
  O  O12  1  0.75000000  0.89116684  0.66698202  1
  O  O13  1  0.25000000  0.10883316  0.33301798  1
  O  O14  1  0.75000000  0.39116684  0.83301798  1
  O  O15  1  0.25000000  0.60883316  0.16698202  1
  O  O16  1  0.75000000  0.94658976  0.16885760  1
  O  O17  1  0.25000000  0.05341024  0.83114240  1
  O  O18  1  0.75000000  0.44658976  0.33114240  1
  O  O19  1  0.25000000  0.55341024  0.66885760  1
  O  O20  1  0.75000000  0.63442529  0.48672299  1
  O  O21  1  0.25000000  0.36557471  0.51327701  1
  O  O22  1  0.75000000  0.13442529  0.01327701  1
  O  O23  1  0.25000000  0.86557471  0.98672299  1
  O  O24  1  0.25000000  0.75991032  0.33221575  1
  O  O25  1  0.75000000  0.24008968  0.66778425  1
  O  O26  1  0.75000000  0.74008968  0.83221575  1
  O  O27  1  0.25000000  0.25991032  0.16778425  1
