# generated using pymatgen
data_Cd3H14S3(NO8)2
_symmetry_space_group_name_H-M   'P 1'
_cell_length_a   7.92001518
_cell_length_b   10.01196709
_cell_length_c   10.15491858
_cell_angle_alpha   90.00000000
_cell_angle_beta   112.95198319
_cell_angle_gamma   90.00000000
_symmetry_Int_Tables_number   1
_chemical_formula_structural   Cd3H14S3(NO8)2
_chemical_formula_sum   'Cd6 H28 S6 N4 O32'
_cell_volume   741.48482617
_cell_formula_units_Z   2
loop_
 _symmetry_equiv_pos_site_id
 _symmetry_equiv_pos_as_xyz
  1  'x, y, z'
loop_
 _atom_site_type_symbol
 _atom_site_label
 _atom_site_symmetry_multiplicity
 _atom_site_fract_x
 _atom_site_fract_y
 _atom_site_fract_z
 _atom_site_occupancy
  Cd  Cd0  1  0.13479683  0.79663988  0.17902995  1
  Cd  Cd1  1  0.95576689  0.79663988  0.82097005  1
  Cd  Cd2  1  0.86520317  0.29663988  0.82097005  1
  Cd  Cd3  1  0.04423311  0.29663988  0.17902995  1
  Cd  Cd4  1  0.31185666  0.08798669  -0.00000000  1
  Cd  Cd5  1  0.68814334  0.58798669  -0.00000000  1
  H  H6  1  0.02581619  0.57705879  -0.00000000  1
  H  H7  1  0.97418381  0.07705879  -0.00000000  1
  H  H8  1  0.31827897  0.82676724  -0.00000000  1
  H  H9  1  0.68172103  0.32676724  -0.00000000  1
  H  H10  1  0.42867679  0.62594806  0.34518021  1
  H  H11  1  0.08349658  0.62594806  0.65481979  1
  H  H12  1  0.57132321  0.12594806  0.65481979  1
  H  H13  1  0.91650342  0.12594806  0.34518021  1
  H  H14  1  0.41351556  0.62158707  0.18444559  1
  H  H15  1  0.22906897  0.62158707  0.81555441  1
  H  H16  1  0.58648444  0.12158707  0.81555441  1
  H  H17  1  0.77093103  0.12158707  0.18444559  1
  H  H18  1  0.69192419  0.93980290  0.39286813  1
  H  H19  1  0.29905605  0.93980290  0.60713187  1
  H  H20  1  0.30807581  0.43980290  0.60713187  1
  H  H21  1  0.70094395  0.43980290  0.39286813  1
  H  H22  1  0.62381508  0.79036077  0.31356375  1
  H  H23  1  0.31025132  0.79036077  0.68643625  1
  H  H24  1  0.37618492  0.29036077  0.68643625  1
  H  H25  1  0.68974868  0.29036077  0.31356375  1
  H  H26  1  0.74965105  0.79936697  0.48650371  1
  H  H27  1  0.26314634  0.79936697  0.51349629  1
  H  H28  1  0.25034895  0.29936697  0.51349629  1
  H  H29  1  0.73685366  0.29936697  0.48650371  1
  H  H30  1  0.84594148  0.83695104  0.36884170  1
  H  H31  1  0.47709878  0.83695104  0.63115830  1
  H  H32  1  0.15405852  0.33695104  0.63115830  1
  H  H33  1  0.52290122  0.33695104  0.36884170  1
  S  S34  1  0.38070129  0.07950990  0.35834114  1
  S  S35  1  0.02236015  0.07950990  0.64165886  1
  S  S36  1  0.61929871  0.57950990  0.64165886  1
  S  S37  1  0.97763985  0.57950990  0.35834114  1
  S  S38  1  0.68988826  0.91557027  -0.00000000  1
  S  S39  1  0.31011174  0.41557027  -0.00000000  1
  N  N40  1  0.72937318  0.84258445  0.38943825  1
  N  N41  1  0.33993494  0.84258445  0.61056175  1
  N  N42  1  0.27062682  0.34258445  0.61056175  1
  N  N43  1  0.66006506  0.34258445  0.38943825  1
  O  O44  1  0.23690301  0.97717936  0.32193493  1
  O  O45  1  0.91496808  0.97717936  0.67806507  1
  O  O46  1  0.76309699  0.47717936  0.67806507  1
  O  O47  1  0.08503192  0.47717936  0.32193493  1
  O  O48  1  0.46314431  0.08377086  0.25009676  1
  O  O49  1  0.21304755  0.08377086  0.74990324  1
  O  O50  1  0.53685569  0.58377086  0.74990324  1
  O  O51  1  0.78695245  0.58377086  0.25009676  1
  O  O52  1  0.52661390  0.05137066  0.49845846  1
  O  O53  1  0.02815443  0.05137066  0.50154154  1
  O  O54  1  0.47338610  0.55137066  0.50154154  1
  O  O55  1  0.97184557  0.55137066  0.49845846  1
  O  O56  1  0.29892237  0.21322153  0.36412656  1
  O  O57  1  0.93479581  0.21322153  0.63587344  1
  O  O58  1  0.70107763  0.71322153  0.63587344  1
  O  O59  1  0.06520419  0.71322153  0.36412656  1
  O  O60  1  0.86004627  0.91181613  0.12955716  1
  O  O61  1  0.73048911  0.91181613  0.87044284  1
  O  O62  1  0.13995373  0.41181613  0.87044284  1
  O  O63  1  0.26951089  0.41181613  0.12955716  1
  O  O64  1  0.56742539  0.80404147  -0.00000000  1
  O  O65  1  0.43257461  0.30404147  -0.00000000  1
  O  O66  1  0.59805412  0.04581799  -0.00000000  1
  O  O67  1  0.40194588  0.54581799  -0.00000000  1
  O  O68  1  0.95815106  0.65762777  -0.00000000  1
  O  O69  1  0.04184894  0.15762777  -0.00000000  1
  O  O70  1  0.21305270  0.87702724  -0.00000000  1
  O  O71  1  0.78694730  0.37702724  -0.00000000  1
  O  O72  1  0.41123490  0.68137770  0.25961868  1
  O  O73  1  0.15161722  0.68137770  0.74038132  1
  O  O74  1  0.58876510  0.18137770  0.74038132  1
  O  O75  1  0.84838278  0.18137770  0.25961868  1
