# generated using pymatgen
data_Ba2SiTe4
_symmetry_space_group_name_H-M   'P 1'
_cell_length_a   7.61004185
_cell_length_b   7.70454090
_cell_length_c   9.71894706
_cell_angle_alpha   90.00000000
_cell_angle_beta   108.64439613
_cell_angle_gamma   90.00000000
_symmetry_Int_Tables_number   1
_chemical_formula_structural   Ba2SiTe4
_chemical_formula_sum   'Ba4 Si2 Te8'
_cell_volume   539.93547177
_cell_formula_units_Z   2
loop_
 _symmetry_equiv_pos_site_id
 _symmetry_equiv_pos_as_xyz
  1  'x, y, z'
loop_
 _atom_site_type_symbol
 _atom_site_label
 _atom_site_symmetry_multiplicity
 _atom_site_fract_x
 _atom_site_fract_y
 _atom_site_fract_z
 _atom_site_occupancy
  Ba  Ba0  1  0.27624281  0.25000000  0.07406941  1
  Ba  Ba1  1  0.72375719  0.75000000  0.92593059  1
  Ba  Ba2  1  0.22003933  0.25000000  0.55056202  1
  Ba  Ba3  1  0.77996067  0.75000000  0.44943798  1
  Si  Si4  1  0.79054999  0.25000000  0.70752617  1
  Si  Si5  1  0.20945001  0.75000000  0.29247383  1
  Te  Te6  1  0.00567250  0.99517756  0.76869145  1
  Te  Te7  1  0.99432750  0.49517756  0.23130855  1
  Te  Te8  1  0.37378362  0.75000000  0.56204985  1
  Te  Te9  1  0.62621638  0.25000000  0.43795015  1
  Te  Te10  1  0.40602630  0.75000000  0.12705647  1
  Te  Te11  1  0.59397370  0.25000000  0.87294353  1
  Te  Te12  1  0.00567250  0.50482244  0.76869145  1
  Te  Te13  1  0.99432750  0.00482244  0.23130855  1
