# generated using pymatgen
data_Ba2MgMo4(Se2O11)2
_symmetry_space_group_name_H-M   'P 1'
_cell_length_a   8.12060372
_cell_length_b   8.05811560
_cell_length_c   9.21410307
_cell_angle_alpha   117.13212362
_cell_angle_beta   89.69698774
_cell_angle_gamma   89.83577664
_symmetry_Int_Tables_number   1
_chemical_formula_structural   Ba2MgMo4(Se2O11)2
_chemical_formula_sum   'Ba2 Mg1 Mo4 Se4 O22'
_cell_volume   536.57485210
_cell_formula_units_Z   1
loop_
 _symmetry_equiv_pos_site_id
 _symmetry_equiv_pos_as_xyz
  1  'x, y, z'
loop_
 _atom_site_type_symbol
 _atom_site_label
 _atom_site_symmetry_multiplicity
 _atom_site_fract_x
 _atom_site_fract_y
 _atom_site_fract_z
 _atom_site_occupancy
  Ba  Ba0  1  0.66219200  0.25763300  0.03267200  1
  Ba  Ba1  1  0.15529700  0.76034900  0.98932300  1
  Mg  Mg2  1  0.55418000  0.16702700  0.65473200  1
  Mo  Mo3  1  0.65725000  0.84706500  0.20996000  1
  Mo  Mo4  1  0.15182700  0.15192800  0.77359000  1
  Mo  Mo5  1  0.66042500  0.63187400  0.77254300  1
  Mo  Mo6  1  0.16766800  0.36993500  0.20926000  1
  Se  Se7  1  0.82679300  0.29125500  0.41096300  1
  Se  Se8  1  0.29436300  0.12411600  0.41187400  1
  Se  Se9  1  0.80914400  0.87558900  0.59179000  1
  Se  Se10  1  0.30451300  0.69820700  0.57873400  1
  O  O11  1  0.13480500  0.56708300  0.18023300  1
  O  O12  1  0.57674400  0.80881200  0.00827600  1
  O  O13  1  0.40141800  0.92003900  0.29526500  1
  O  O14  1  0.64288200  0.87010400  0.70794900  1
  O  O15  1  0.39499200  0.62686000  0.71175800  1
  O  O16  1  0.86915500  0.84739500  0.17389500  1
  O  O17  1  0.38291200  0.34392800  0.19397700  1
  O  O18  1  0.90286000  0.35817900  0.27044100  1
  O  O19  1  0.16371300  0.04833500  0.51988000  1
  O  O20  1  0.88676700  0.08239000  0.73820100  1
  O  O21  1  0.62796900  0.41465300  0.79609500  1
  O  O22  1  0.70544900  0.48774900  0.52469000  1
  O  O23  1  0.66368700  0.15266300  0.29639200  1
  O  O24  1  0.63199900  0.62787700  0.20418500  1
  O  O25  1  0.38304500  0.14718900  0.78982500  1
  O  O26  1  0.10775100  0.18018400  0.00398200  1
  O  O27  1  0.15946200  0.12315000  0.26945900  1
  O  O28  1  0.15664900  0.84708400  0.70980300  1
  O  O29  1  0.69476000  0.97451700  0.48363800  1
  O  O30  1  0.86437800  0.70379800  0.82549000  1
  O  O31  1  0.17661100  0.50634000  0.46801500  1
  O  O32  1  0.09813800  0.38200500  0.82167900  1
