# generated using pymatgen
data_K4MoO5
_symmetry_space_group_name_H-M   'P 1'
_cell_length_a   6.25400524
_cell_length_b   10.16562889
_cell_length_c   16.86383868
_cell_angle_alpha   94.39264465
_cell_angle_beta   92.55263945
_cell_angle_gamma   96.13498038
_symmetry_Int_Tables_number   1
_chemical_formula_structural   K4MoO5
_chemical_formula_sum   'K24 Mo6 O30'
_cell_volume   1061.35801536
_cell_formula_units_Z   6
loop_
 _symmetry_equiv_pos_site_id
 _symmetry_equiv_pos_as_xyz
  1  'x, y, z'
loop_
 _atom_site_type_symbol
 _atom_site_label
 _atom_site_symmetry_multiplicity
 _atom_site_fract_x
 _atom_site_fract_y
 _atom_site_fract_z
 _atom_site_occupancy
  K  K0  1  0.00915872  0.51006140  0.17914764  1
  K  K1  1  0.99084128  0.48993860  0.82085236  1
  K  K2  1  0.54141881  0.20277214  0.50453951  1
  K  K3  1  0.45858119  0.79722786  0.49546049  1
  K  K4  1  0.07644338  0.69214620  0.00477051  1
  K  K5  1  0.92355662  0.30785380  0.99522949  1
  K  K6  1  0.07441949  0.85061015  0.21918525  1
  K  K7  1  0.92558051  0.14938985  0.78081475  1
  K  K8  1  0.55377394  0.00098825  0.32067828  1
  K  K9  1  0.44622606  0.99901175  0.67932172  1
  K  K10  1  0.23124802  0.03864543  0.05797687  1
  K  K11  1  0.76875198  0.96135457  0.94202313  1
  K  K12  1  0.43108017  0.41025623  0.09385045  1
  K  K13  1  0.56891983  0.58974377  0.90614955  1
  K  K14  1  0.71962621  0.38626709  0.34562061  1
  K  K15  1  0.28037379  0.61373291  0.65437939  1
  K  K16  1  0.24366433  0.45415776  0.42807344  1
  K  K17  1  0.75633567  0.54584224  0.57192656  1
  K  K18  1  0.73334280  0.09436967  0.14765968  1
  K  K19  1  0.26665720  0.90563033  0.85234032  1
  K  K20  1  0.05846365  0.08048607  0.41663527  1
  K  K21  1  0.94153635  0.91951393  0.58336473  1
  K  K22  1  0.44749323  0.66332692  0.28970842  1
  K  K23  1  0.55250677  0.33667308  0.71029158  1
  Mo  Mo24  1  0.06268630  0.27463589  0.59215025  1
  Mo  Mo25  1  0.93731370  0.72536411  0.40784975  1
  Mo  Mo26  1  0.60087572  0.75663599  0.09704689  1
  Mo  Mo27  1  0.39912428  0.24336401  0.90295311  1
  Mo  Mo28  1  0.21782103  0.23288102  0.24898462  1
  Mo  Mo29  1  0.78217897  0.76711898  0.75101538  1
  O  O30  1  0.07178582  0.68250398  0.49889164  1
  O  O31  1  0.92821418  0.31749602  0.50110836  1
  O  O32  1  0.13979089  0.13450541  0.92389441  1
  O  O33  1  0.86020911  0.86549459  0.07610559  1
  O  O34  1  0.35900522  0.21829186  0.35092217  1
  O  O35  1  0.64099478  0.78170814  0.64907783  1
  O  O36  1  0.21210571  0.12779029  0.58164891  1
  O  O37  1  0.78789429  0.87220971  0.41835109  1
  O  O38  1  0.08902034  0.25931891  0.14583586  1
  O  O39  1  0.91097966  0.74068109  0.85416414  1
  O  O40  1  0.34253301  0.09270599  0.20608362  1
  O  O41  1  0.65746699  0.90729401  0.79391638  1
  O  O42  1  0.34170228  0.65951260  0.12521204  1
  O  O43  1  0.65829772  0.34048740  0.87478796  1
  O  O44  1  0.37177477  0.15972265  0.80210424  1
  O  O45  1  0.62822523  0.84027735  0.19789576  1
  O  O46  1  0.45961275  0.81912261  0.01185139  1
  O  O47  1  0.54038725  0.18087739  0.98814861  1
  O  O48  1  0.18453459  0.83758340  0.38004662  1
  O  O49  1  0.81546541  0.16241660  0.61995338  1
  O  O50  1  0.32400276  0.38269750  0.57299551  1
  O  O51  1  0.67599724  0.61730250  0.42700449  1
  O  O52  1  0.72773350  0.60419244  0.07354178  1
  O  O53  1  0.27226650  0.39580756  0.92645822  1
  O  O54  1  0.95124477  0.19226073  0.28708739  1
  O  O55  1  0.04875523  0.80773927  0.71291261  1
  O  O56  1  0.03896379  0.38124053  0.68356061  1
  O  O57  1  0.96103621  0.61875947  0.31643939  1
  O  O58  1  0.35197927  0.40405682  0.25250170  1
  O  O59  1  0.64802073  0.59594318  0.74749830  1
