# generated using pymatgen
data_In4As5(BrO4)3
_symmetry_space_group_name_H-M   'P 1'
_cell_length_a   8.06245723
_cell_length_b   10.58878897
_cell_length_c   12.04821648
_cell_angle_alpha   70.58125766
_cell_angle_beta   79.72330473
_cell_angle_gamma   80.30204953
_symmetry_Int_Tables_number   1
_chemical_formula_structural   In4As5(BrO4)3
_chemical_formula_sum   'In8 As10 Br6 O24'
_cell_volume   947.87804297
_cell_formula_units_Z   2
loop_
 _symmetry_equiv_pos_site_id
 _symmetry_equiv_pos_as_xyz
  1  'x, y, z'
loop_
 _atom_site_type_symbol
 _atom_site_label
 _atom_site_symmetry_multiplicity
 _atom_site_fract_x
 _atom_site_fract_y
 _atom_site_fract_z
 _atom_site_occupancy
  In  In0  1  -0.00000000  0.50000000  -0.00000000  1
  In  In1  1  -0.00000000  0.00000000  -0.00000000  1
  In  In2  1  0.74111646  0.78937637  0.98688056  1
  In  In3  1  0.25888354  0.21062363  0.01311944  1
  In  In4  1  0.34889006  0.70906131  0.98795294  1
  In  In5  1  0.65110994  0.29093869  0.01204706  1
  In  In6  1  0.84739838  0.80097743  0.47864981  1
  In  In7  1  0.15260162  0.19902257  0.52135019  1
  As  As8  1  0.97065729  0.32116182  0.80425898  1
  As  As9  1  0.02934271  0.67883818  0.19574102  1
  As  As10  1  0.74397600  0.62258052  0.77211747  1
  As  As11  1  0.25602400  0.37741948  0.22788253  1
  As  As12  1  0.37438071  0.52322879  0.81772795  1
  As  As13  1  0.62561929  0.47677121  0.18227205  1
  As  As14  1  0.07551205  0.91073131  0.74641414  1
  As  As15  1  0.92448795  0.08926869  0.25358586  1
  As  As16  1  0.60328083  0.99170950  0.18216690  1
  As  As17  1  0.39671917  0.00829050  0.81783310  1
  Br  Br18  1  0.90319297  0.35961340  0.44060394  1
  Br  Br19  1  0.09680703  0.64038660  0.55939606  1
  Br  Br20  1  0.73885070  0.97077735  0.59067653  1
  Br  Br21  1  0.26114930  0.02922265  0.40932347  1
  Br  Br22  1  0.60944691  0.67693382  0.47606683  1
  Br  Br23  1  0.39055309  0.32306618  0.52393317  1
  O  O24  1  0.83795281  0.65534600  0.87891487  1
  O  O25  1  0.16204719  0.34465400  0.12108513  1
  O  O26  1  0.75987293  0.91774308  0.08934727  1
  O  O27  1  0.24012707  0.08225692  0.91065273  1
  O  O28  1  0.22406430  0.59290029  0.91734179  1
  O  O29  1  0.77593570  0.40709971  0.08265821  1
  O  O30  1  0.86204724  0.19514326  0.91778756  1
  O  O31  1  0.13795276  0.80485674  0.08221244  1
  O  O32  1  0.52830566  0.61285450  0.85260819  1
  O  O33  1  0.47169434  0.38714550  0.14739181  1
  O  O34  1  0.43775641  0.36042711  0.91430166  1
  O  O35  1  0.56224359  0.63957289  0.08569834  1
  O  O36  1  0.78270501  0.43876714  0.82830637  1
  O  O37  1  0.21729499  0.56123286  0.17169363  1
  O  O38  1  0.91024840  0.63608039  0.10330528  1
  O  O39  1  0.08975160  0.36391961  0.89669472  1
  O  O40  1  0.50267654  0.87903971  0.92998543  1
  O  O41  1  0.49732346  0.12096029  0.07001457  1
  O  O42  1  0.93431710  0.91212425  0.87865715  1
  O  O43  1  0.06568290  0.08787575  0.12134285  1
  O  O44  1  0.91308326  0.91599558  0.30621776  1
  O  O45  1  0.08691674  0.08400442  0.69378224  1
  O  O46  1  0.27126726  0.87717049  0.82304247  1
  O  O47  1  0.72873274  0.12282951  0.17695753  1
