# generated using pymatgen
data_NaMg14BO15
_symmetry_space_group_name_H-M   'P 1'
_cell_length_a   8.40746211
_cell_length_b   8.61566225
_cell_length_c   4.28503396
_cell_angle_alpha   90.00000000
_cell_angle_beta   90.00000000
_cell_angle_gamma   90.00000000
_symmetry_Int_Tables_number   1
_chemical_formula_structural   NaMg14BO15
_chemical_formula_sum   'Na1 Mg14 B1 O15'
_cell_volume   310.39009397
_cell_formula_units_Z   1
loop_
 _symmetry_equiv_pos_site_id
 _symmetry_equiv_pos_as_xyz
  1  'x, y, z'
loop_
 _atom_site_type_symbol
 _atom_site_label
 _atom_site_symmetry_multiplicity
 _atom_site_fract_x
 _atom_site_fract_y
 _atom_site_fract_z
 _atom_site_occupancy
  Na  Na0  1  0.00188724  -0.00000000  -0.00000000  1
  Mg  Mg1  1  0.00393652  0.50000000  -0.00000000  1
  Mg  Mg2  1  0.50173036  -0.00000000  -0.00000000  1
  Mg  Mg3  1  0.00059924  0.24714846  0.50000000  1
  Mg  Mg4  1  0.00059924  0.75285154  0.50000000  1
  Mg  Mg5  1  0.50173434  0.25189726  0.50000000  1
  Mg  Mg6  1  0.50173434  0.74810274  0.50000000  1
  Mg  Mg7  1  0.24852796  -0.00000000  0.50000000  1
  Mg  Mg8  1  0.26532988  0.50000000  0.50000000  1
  Mg  Mg9  1  0.75452562  -0.00000000  0.50000000  1
  Mg  Mg10  1  0.74211582  0.50000000  0.50000000  1
  Mg  Mg11  1  0.25578040  0.24087591  -0.00000000  1
  Mg  Mg12  1  0.25578040  0.75912409  -0.00000000  1
  Mg  Mg13  1  0.74814585  0.23937289  -0.00000000  1
  Mg  Mg14  1  0.74814585  0.76062711  -0.00000000  1
  B  B15  1  0.51810209  0.50000000  -0.00000000  1
  O  O16  1  0.26424958  -0.00000000  -0.00000000  1
  O  O17  1  0.73903422  -0.00000000  -0.00000000  1
  O  O18  1  0.68788150  0.50000000  -0.00000000  1
  O  O19  1  0.25155014  0.25681287  0.50000000  1
  O  O20  1  0.25155014  0.74318713  0.50000000  1
  O  O21  1  0.75098136  0.25436063  0.50000000  1
  O  O22  1  0.75098136  0.74563937  0.50000000  1
  O  O23  1  0.00221657  -0.00000000  0.50000000  1
  O  O24  1  0.99658124  0.50000000  0.50000000  1
  O  O25  1  0.50071864  -0.00000000  0.50000000  1
  O  O26  1  0.50226018  0.50000000  0.50000000  1
  O  O27  1  0.99999151  0.27186806  -0.00000000  1
  O  O28  1  0.99999151  0.72813194  -0.00000000  1
  O  O29  1  0.50166845  0.25040966  -0.00000000  1
  O  O30  1  0.50166845  0.74959034  -0.00000000  1
