# generated using pymatgen
data_LiTe4H4(O3F4)2
_symmetry_space_group_name_H-M   'P 1'
_cell_length_a   5.03780381
_cell_length_b   6.26789920
_cell_length_c   11.97285996
_cell_angle_alpha   83.82980370
_cell_angle_beta   75.39485789
_cell_angle_gamma   66.25824833
_symmetry_Int_Tables_number   1
_chemical_formula_structural   LiTe4H4(O3F4)2
_chemical_formula_sum   'Li1 Te4 H4 O6 F8'
_cell_volume   334.87477944
_cell_formula_units_Z   1
loop_
 _symmetry_equiv_pos_site_id
 _symmetry_equiv_pos_as_xyz
  1  'x, y, z'
loop_
 _atom_site_type_symbol
 _atom_site_label
 _atom_site_symmetry_multiplicity
 _atom_site_fract_x
 _atom_site_fract_y
 _atom_site_fract_z
 _atom_site_occupancy
  Li  Li0  1  0.48569000  0.87674400  0.31954400  1
  Te  Te1  1  0.79239100  0.22690300  0.87687500  1
  Te  Te2  1  0.91465000  0.76558600  0.08196900  1
  Te  Te3  1  0.48178500  0.69938200  0.61073800  1
  Te  Te4  1  0.74718600  0.27545800  0.39862900  1
  H  H5  1  0.22175700  0.22251700  0.72233400  1
  H  H6  1  0.98605400  0.82581300  0.33792100  1
  H  H7  1  0.69433900  0.74031700  0.77053500  1
  H  H8  1  0.12718900  0.21905100  0.21700800  1
  O  O9  1  0.80224600  0.51341700  0.49195800  1
  O  O10  1  0.95160600  0.04470100  0.00816600  1
  O  O11  1  0.67506800  0.60739300  0.73888800  1
  O  O12  1  0.96986100  0.36165200  0.25741200  1
  O  O13  1  0.13327000  0.10427600  0.74996400  1
  O  O14  1  0.83367700  0.95692900  0.30741500  1
  F  F15  1  0.41819800  0.59310700  0.35159700  1
  F  F16  1  0.40557200  0.40151300  0.66061900  1
  F  F17  1  0.45852200  0.97117900  0.16270600  1
  F  F18  1  0.74577600  0.93038000  0.84601000  1
  F  F19  1  0.15388200  0.07532300  0.43010800  1
  F  F20  1  0.68287400  0.92331800  0.57407700  1
  F  F21  1  0.35485600  0.59310300  0.02197000  1
  F  F22  1  0.00538400  0.40874500  0.91077800  1
