# generated using pymatgen
data_Ag2S
_symmetry_space_group_name_H-M   'P 1'
_cell_length_a   4.25250788
_cell_length_b   4.25250788
_cell_length_c   7.67964870
_cell_angle_alpha   89.37223589
_cell_angle_beta   89.37223589
_cell_angle_gamma   68.38133249
_symmetry_Int_Tables_number   1
_chemical_formula_structural   Ag2S
_chemical_formula_sum   'Ag4 S2'
_cell_volume   129.09696058
_cell_formula_units_Z   2
loop_
 _symmetry_equiv_pos_site_id
 _symmetry_equiv_pos_as_xyz
  1  'x, y, z'
loop_
 _atom_site_type_symbol
 _atom_site_label
 _atom_site_symmetry_multiplicity
 _atom_site_fract_x
 _atom_site_fract_y
 _atom_site_fract_z
 _atom_site_occupancy
  Ag  Ag0  1  0.00000000  0.00000000  0.50000000  1
  Ag  Ag1  1  0.60156700  0.60156700  0.72993900  1
  Ag  Ag2  1  0.39843300  0.39843300  0.27006100  1
  Ag  Ag3  1  0.99094100  0.99094100  0.99702800  1
  S  S4  1  0.78330300  0.78330300  0.25139200  1
  S  S5  1  0.21669700  0.21669700  0.74860800  1
