# generated using pymatgen
data_Ba10MgMn6(O12F)2
_symmetry_space_group_name_H-M   'P 1'
_cell_length_a   7.74975347
_cell_length_b   10.55936562
_cell_length_c   10.78521606
_cell_angle_alpha   120.89622302
_cell_angle_beta   87.69445510
_cell_angle_gamma   93.35547391
_symmetry_Int_Tables_number   1
_chemical_formula_structural   Ba10MgMn6(O12F)2
_chemical_formula_sum   'Ba10 Mg1 Mn6 O24 F2'
_cell_volume   755.98994379
_cell_formula_units_Z   1
loop_
 _symmetry_equiv_pos_site_id
 _symmetry_equiv_pos_as_xyz
  1  'x, y, z'
loop_
 _atom_site_type_symbol
 _atom_site_label
 _atom_site_symmetry_multiplicity
 _atom_site_fract_x
 _atom_site_fract_y
 _atom_site_fract_z
 _atom_site_occupancy
  Ba  Ba0  1  0.49386817  0.66023153  0.33392357  1
  Ba  Ba1  1  0.00465248  0.31853971  0.68047574  1
  Ba  Ba2  1  0.50613183  0.33976847  0.66607643  1
  Ba  Ba3  1  0.99534752  0.68146029  0.31952426  1
  Ba  Ba4  1  0.73250106  0.23764770  0.00053357  1
  Ba  Ba5  1  0.77195296  0.01030651  0.24605073  1
  Ba  Ba6  1  0.75327596  0.76635380  0.78020349  1
  Ba  Ba7  1  0.26749894  0.76235230  0.99946643  1
  Ba  Ba8  1  0.22804704  0.98969349  0.75394927  1
  Ba  Ba9  1  0.24672404  0.23364620  0.21979651  1
  Mg  Mg10  1  0.00000000  0.50000000  0.50000000  1
  Mn  Mn11  1  0.72939737  0.96928488  0.60255366  1
  Mn  Mn12  1  0.71785042  0.40171528  0.37620669  1
  Mn  Mn13  1  0.75668425  0.62983223  0.03028758  1
  Mn  Mn14  1  0.27060263  0.03071512  0.39744634  1
  Mn  Mn15  1  0.28214958  0.59828472  0.62379331  1
  Mn  Mn16  1  0.24331575  0.37016877  0.96971242  1
  O  O17  1  0.72389413  0.15794020  0.69096895  1
  O  O18  1  0.79344302  0.36605511  0.51595148  1
  O  O19  1  0.76624313  0.52166242  0.84736936  1
  O  O20  1  0.27610587  0.84205980  0.30903105  1
  O  O21  1  0.20655698  0.63394489  0.48404852  1
  O  O22  1  0.23375687  0.47833758  0.15263064  1
  O  O23  1  0.74645774  0.89076837  0.41752418  1
  O  O24  1  0.77836743  0.59615255  0.47965312  1
  O  O25  1  0.74118396  0.53150600  0.11822137  1
  O  O26  1  0.25354226  0.10923163  0.58247582  1
  O  O27  1  0.22163257  0.40384745  0.52034688  1
  O  O28  1  0.25881604  0.46849400  0.88177863  1
  O  O29  1  0.55113187  0.89001681  0.64072498  1
  O  O30  1  0.54929970  0.36611691  0.25345274  1
  O  O31  1  0.59091109  0.74861524  0.08535242  1
  O  O32  1  0.09521485  0.07782916  0.33941286  1
  O  O33  1  0.08501741  0.65594581  0.72859590  1
  O  O34  1  0.06113045  0.25474510  0.90218208  1
  O  O35  1  0.44886813  0.10998319  0.35927502  1
  O  O36  1  0.45070030  0.63388309  0.74654726  1
  O  O37  1  0.40908891  0.25138476  0.91464758  1
  O  O38  1  0.90478515  0.92217084  0.66058714  1
  O  O39  1  0.91498259  0.34405419  0.27140410  1
  O  O40  1  0.93886955  0.74525490  0.09781792  1
  F  F41  1  0.50000000  -0.00000000  -0.00000000  1
  F  F42  1  0.00000000  -0.00000000  -0.00000000  1
