# generated using pymatgen
data_MgMn4(Si4O11)2
_symmetry_space_group_name_H-M   'P 1'
_cell_length_a   8.75167643
_cell_length_b   7.75328616
_cell_length_c   7.15219765
_cell_angle_alpha   108.49657508
_cell_angle_beta   101.80966730
_cell_angle_gamma   99.97875668
_symmetry_Int_Tables_number   1
_chemical_formula_structural   MgMn4(Si4O11)2
_chemical_formula_sum   'Mg1 Mn4 Si8 O22'
_cell_volume   435.40953468
_cell_formula_units_Z   1
loop_
 _symmetry_equiv_pos_site_id
 _symmetry_equiv_pos_as_xyz
  1  'x, y, z'
loop_
 _atom_site_type_symbol
 _atom_site_label
 _atom_site_symmetry_multiplicity
 _atom_site_fract_x
 _atom_site_fract_y
 _atom_site_fract_z
 _atom_site_occupancy
  Mg  Mg0  1  0.00000000  0.50000000  0.00000000  1
  Mn  Mn1  1  0.37600400  0.65846600  0.85227300  1
  Mn  Mn2  1  0.40066700  0.61967800  0.34596700  1
  Mn  Mn3  1  0.59933300  0.38032200  0.65403300  1
  Mn  Mn4  1  0.62399600  0.34153400  0.14772700  1
  Si  Si5  1  0.04092900  0.35407500  0.25685600  1
  Si  Si6  1  0.23795400  0.20345600  0.96914400  1
  Si  Si7  1  0.22205500  0.20432800  0.53526100  1
  Si  Si8  1  0.60499200  0.98242700  0.75751500  1
  Si  Si9  1  0.39500800  0.01757300  0.24248400  1
  Si  Si10  1  0.77794500  0.79567200  0.46473900  1
  Si  Si11  1  0.76204600  0.79654400  0.03085600  1
  Si  Si12  1  0.95907100  0.64592500  0.74314400  1
  O  O13  1  0.12853700  0.60038900  0.82517000  1
  O  O14  1  0.05981900  0.25198200  0.42137900  1
  O  O15  1  0.16951400  0.55659100  0.30231500  1
  O  O16  1  0.07035600  0.22278600  0.03602400  1
  O  O17  1  0.18325600  0.14951800  0.72338000  1
  O  O18  1  0.26289400  0.02748100  0.37712700  1
  O  O19  1  0.37127300  0.39339100  0.60813600  1
  O  O20  1  0.44881800  0.79596200  0.63714800  1
  O  O21  1  0.42975300  0.81128900  0.18175400  1
  O  O22  1  0.30884100  0.03678900  0.02149600  1
  O  O23  1  0.37646100  0.40326400  0.09151100  1
  O  O24  1  0.62353900  0.59673600  0.90848900  1
  O  O25  1  0.69115900  0.96321100  0.97850400  1
  O  O26  1  0.57024700  0.18871100  0.81824600  1
  O  O27  1  0.55118200  0.20403800  0.36285200  1
  O  O28  1  0.62872700  0.60660900  0.39186400  1
  O  O29  1  0.73710600  0.97251900  0.62287300  1
  O  O30  1  0.81674400  0.85048200  0.27662000  1
  O  O31  1  0.92964400  0.77721400  0.96397600  1
  O  O32  1  0.83048600  0.44340900  0.69768500  1
  O  O33  1  0.94018100  0.74801800  0.57862100  1
  O  O34  1  0.87146300  0.39961100  0.17483000  1
