# generated using pymatgen
data_MgV5(MoO5)5
_symmetry_space_group_name_H-M   'P 1'
_cell_length_a   18.93213187
_cell_length_b   5.56204069
_cell_length_c   6.39194390
_cell_angle_alpha   100.62053768
_cell_angle_beta   105.77242450
_cell_angle_gamma   48.21272000
_symmetry_Int_Tables_number   1
_chemical_formula_structural   MgV5(MoO5)5
_chemical_formula_sum   'Mg1 V5 Mo5 O25'
_cell_volume   482.96405352
_cell_formula_units_Z   1
loop_
 _symmetry_equiv_pos_site_id
 _symmetry_equiv_pos_as_xyz
  1  'x, y, z'
loop_
 _atom_site_type_symbol
 _atom_site_label
 _atom_site_symmetry_multiplicity
 _atom_site_fract_x
 _atom_site_fract_y
 _atom_site_fract_z
 _atom_site_occupancy
  Mg  Mg0  1  0.44304900  0.50483200  0.25233100  1
  V  V1  1  0.02553800  0.20204800  0.62183600  1
  V  V2  1  0.20407900  0.28626100  0.61581000  1
  V  V3  1  0.39497100  0.96021000  0.96659800  1
  V  V4  1  0.60914000  0.89792600  0.99344000  1
  V  V5  1  0.79383300  0.99335100  0.98731900  1
  Mo  Mo6  1  0.98527900  0.05900200  0.02088800  1
  Mo  Mo7  1  0.19129300  0.06648400  0.02096300  1
  Mo  Mo8  1  0.43822100  0.08323600  0.57646000  1
  Mo  Mo9  1  0.63361300  0.09926800  0.60347500  1
  Mo  Mo10  1  0.83269400  0.14191000  0.58581600  1
  O  O11  1  0.99982600  0.14420300  0.30411200  1
  O  O12  1  0.07441500  0.10550300  0.94707600  1
  O  O13  1  0.14353100  0.14207600  0.68371700  1
  O  O14  1  0.07031100  0.63721400  0.02070100  1
  O  O15  1  0.19724900  0.15224100  0.30922600  1
  O  O16  1  0.12782600  0.68506200  0.59737900  1
  O  O17  1  0.25485900  0.19007500  0.94157500  1
  O  O18  1  0.33683200  0.11252200  0.65753900  1
  O  O19  1  0.29039100  0.65226700  0.03711400  1
  O  O20  1  0.40994200  0.94084100  0.28410400  1
  O  O21  1  0.39198800  0.44882100  0.47670000  1
  O  O22  1  0.47748700  0.02596500  0.91713700  1
  O  O23  1  0.57268000  0.94512400  0.66623300  1
  O  O24  1  0.45313400  0.56487500  0.94854900  1
  O  O25  1  0.58406400  0.09283000  0.28119700  1
  O  O26  1  0.54042400  0.52536300  0.60324100  1
  O  O27  1  0.68313000  0.00929800  0.92972500  1
  O  O28  1  0.75089200  0.08293000  0.66332000  1
  O  O29  1  0.69010700  0.49792300  0.02902500  1
  O  O30  1  0.82286900  0.03764500  0.30777300  1
  O  O31  1  0.74840700  0.56767600  0.56695400  1
  O  O32  1  0.87104000  0.11088900  0.94261400  1
  O  O33  1  0.94645800  0.10045700  0.67067700  1
  O  O34  1  0.88295300  0.58789500  0.98846100  1
  O  O35  1  0.94266900  0.60720700  0.62300600  1
