# generated using pymatgen
data_CaLaFeSbO6
_symmetry_space_group_name_H-M   'P 1'
_cell_length_a   5.54297721
_cell_length_b   7.98555788
_cell_length_c   5.68600181
_cell_angle_alpha   90.40379921
_cell_angle_beta   88.19859915
_cell_angle_gamma   89.50352168
_symmetry_Int_Tables_number   1
_chemical_formula_structural   CaLaFeSbO6
_chemical_formula_sum   'Ca2 La2 Fe2 Sb2 O12'
_cell_volume   251.54327515
_cell_formula_units_Z   2
loop_
 _symmetry_equiv_pos_site_id
 _symmetry_equiv_pos_as_xyz
  1  'x, y, z'
loop_
 _atom_site_type_symbol
 _atom_site_label
 _atom_site_symmetry_multiplicity
 _atom_site_fract_x
 _atom_site_fract_y
 _atom_site_fract_z
 _atom_site_occupancy
  Ca  Ca0  1  0.51057457  0.25335776  0.55282958  1
  Ca  Ca1  1  0.02003484  0.74948765  0.94769390  1
  La  La2  1  0.98165551  0.24914882  0.04505175  1
  La  La3  1  0.49517724  0.74902190  0.45489932  1
  Fe  Fe4  1  0.49943145  0.50119636  0.00043848  1
  Fe  Fe5  1  0.99800071  0.99983764  0.49916649  1
  Sb  Sb6  1  0.00249874  0.49835992  0.50205401  1
  Sb  Sb7  1  0.49741603  0.99947520  0.99819009  1
  O  O8  1  0.60014629  0.76145401  0.02866513  1
  O  O9  1  0.09845704  0.25952830  0.47332123  1
  O  O10  1  0.20365817  0.95223179  0.20115594  1
  O  O11  1  0.71580933  0.45213827  0.30940460  1
  O  O12  1  0.19896681  0.54946927  0.20835608  1
  O  O13  1  0.68747309  0.05628359  0.27978490  1
  O  O14  1  0.91308106  0.73879213  0.53299655  1
  O  O15  1  0.40631006  0.23972597  0.96530234  1
  O  O16  1  0.28504933  0.54534426  0.69698304  1
  O  O17  1  0.78642582  0.04684369  0.79028153  1
  O  O18  1  0.30116321  0.94528858  0.72214954  1
  O  O19  1  0.79867371  0.45301389  0.79127651  1
