# generated using pymatgen
data_Ba2LaTaO6
_symmetry_space_group_name_H-M   'P 1'
_cell_length_a   6.08913693
_cell_length_b   6.08913600
_cell_length_c   6.13695642
_cell_angle_alpha   90.35944006
_cell_angle_beta   119.37814362
_cell_angle_gamma   119.95060553
_symmetry_Int_Tables_number   1
_chemical_formula_structural   Ba2LaTaO6
_chemical_formula_sum   'Ba2 La1 Ta1 O6'
_cell_volume   162.01571762
_cell_formula_units_Z   1
loop_
 _symmetry_equiv_pos_site_id
 _symmetry_equiv_pos_as_xyz
  1  'x, y, z'
loop_
 _atom_site_type_symbol
 _atom_site_label
 _atom_site_symmetry_multiplicity
 _atom_site_fract_x
 _atom_site_fract_y
 _atom_site_fract_z
 _atom_site_occupancy
  Ba  Ba0  1  0.50591895  0.75195317  0.25787212  1
  Ba  Ba1  1  0.49408105  0.24804683  0.74212788  1
  La  La2  1  -0.00000000  0.00000000  0.00000000  1
  Ta  Ta3  1  -0.00000000  0.50000000  0.50000000  1
  O  O4  1  0.54384912  0.30567964  0.31128719  1
  O  O5  1  0.99439244  0.23256293  0.68871281  1
  O  O6  1  0.45615088  0.69432136  0.68871281  1
  O  O7  1  0.00560756  0.76743707  0.31128719  1
  O  O8  1  0.06667808  0.72659938  0.79327746  1
  O  O9  1  0.93332192  0.27340062  0.20672254  1
