# generated using pymatgen
data_MgFe6Sb10(IO3)6
_symmetry_space_group_name_H-M   'P 1'
_cell_length_a   8.18989312
_cell_length_b   9.88177893
_cell_length_c   12.50115020
_cell_angle_alpha   78.04850780
_cell_angle_beta   85.79995538
_cell_angle_gamma   71.94177933
_symmetry_Int_Tables_number   1
_chemical_formula_structural   MgFe6Sb10(IO3)6
_chemical_formula_sum   'Mg1 Fe6 Sb10 I6 O18'
_cell_volume   940.99620575
_cell_formula_units_Z   1
loop_
 _symmetry_equiv_pos_site_id
 _symmetry_equiv_pos_as_xyz
  1  'x, y, z'
loop_
 _atom_site_type_symbol
 _atom_site_label
 _atom_site_symmetry_multiplicity
 _atom_site_fract_x
 _atom_site_fract_y
 _atom_site_fract_z
 _atom_site_occupancy
  Mg  Mg0  1  0.77724910  0.52165331  0.73659389  1
  Fe  Fe1  1  0.71840586  0.98135799  0.34451501  1
  Fe  Fe2  1  0.27660721  0.02546912  0.65242549  1
  Fe  Fe3  1  0.02807057  0.96104229  0.12543346  1
  Fe  Fe4  1  0.97320716  0.04307951  0.87087317  1
  Fe  Fe5  1  0.61670142  0.08521390  0.06001106  1
  Fe  Fe6  1  0.39085106  0.92840006  0.92707721  1
  Sb  Sb7  1  0.87901493  0.15028903  0.50636826  1
  Sb  Sb8  1  0.11582005  0.81742716  0.50311950  1
  Sb  Sb9  1  0.25638347  0.14165349  0.25900352  1
  Sb  Sb10  1  0.77376635  0.81079603  0.73952077  1
  Sb  Sb11  1  0.53166681  0.20223681  0.75675833  1
  Sb  Sb12  1  0.46757850  0.80372183  0.23904382  1
  Sb  Sb13  1  0.20229111  0.24815872  0.98442799  1
  Sb  Sb14  1  0.80006916  0.75771017  0.01748768  1
  Sb  Sb15  1  0.81010270  0.28780480  0.20913329  1
  Sb  Sb16  1  0.20454239  0.70771657  0.80386487  1
  I  I17  1  0.69259888  0.38073732  0.94231551  1
  I  I18  1  0.27432794  0.67588193  0.06880033  1
  I  I19  1  0.90069777  0.69863825  0.30912651  1
  I  I20  1  0.07482028  0.33356072  0.65815263  1
  I  I21  1  0.50272397  0.26880280  0.41250852  1
  I  I22  1  0.51189282  0.69180758  0.57410577  1
  O  O23  1  0.14970922  0.06227623  0.97860313  1
  O  O24  1  0.85277802  0.94807181  0.01568233  1
  O  O25  1  0.86449952  0.95799119  0.47452280  1
  O  O26  1  0.13535115  0.00892904  0.53436512  1
  O  O27  1  0.79226579  0.09432299  0.19264443  1
  O  O28  1  0.19786870  0.91320583  0.80074371  1
  O  O29  1  0.44630297  0.13626588  0.91355602  1
  O  O30  1  0.55686430  0.87663109  0.09009661  1
  O  O31  1  0.77775322  0.10892173  0.77571428  1
  O  O32  1  0.22183036  0.95200011  0.22510853  1
  O  O33  1  0.47474774  0.04199822  0.71232917  1
  O  O34  1  0.49978446  0.96799353  0.29764844  1
  O  O35  1  0.04813566  0.24451798  0.13964945  1
  O  O36  1  0.96478251  0.74104285  0.86580766  1
  O  O37  1  0.07392809  0.74378609  0.66033136  1
  O  O38  1  0.94463348  0.20841380  0.35016195  1
  O  O39  1  0.63580602  0.81795149  0.89182421  1
  O  O40  1  0.37263127  0.18823377  0.10971122  1
