# generated using pymatgen
data_DyNbO4
_symmetry_space_group_name_H-M   'P 1'
_cell_length_a   5.43877340
_cell_length_b   5.12420212
_cell_length_c   5.32909843
_cell_angle_alpha   84.42352727
_cell_angle_beta   90.00000000
_cell_angle_gamma   90.00000000
_symmetry_Int_Tables_number   1
_chemical_formula_structural   DyNbO4
_chemical_formula_sum   'Dy2 Nb2 O8'
_cell_volume   147.81575671
_cell_formula_units_Z   2
loop_
 _symmetry_equiv_pos_site_id
 _symmetry_equiv_pos_as_xyz
  1  'x, y, z'
loop_
 _atom_site_type_symbol
 _atom_site_label
 _atom_site_symmetry_multiplicity
 _atom_site_fract_x
 _atom_site_fract_y
 _atom_site_fract_z
 _atom_site_occupancy
  Dy  Dy0  1  0.24099003  0.00000000  0.75000000  1
  Dy  Dy1  1  0.75900997  0.00000000  0.25000000  1
  Nb  Nb2  1  0.70568133  0.50000000  0.75000000  1
  Nb  Nb3  1  0.29431867  0.50000000  0.25000000  1
  O  O4  1  0.92418236  0.25142384  0.90821487  1
  O  O5  1  0.44091940  0.26200746  0.01901586  1
  O  O6  1  0.44091940  0.73799254  0.48098414  1
  O  O7  1  0.92418236  0.74857616  0.59178513  1
  O  O8  1  0.07581764  0.25142384  0.40821487  1
  O  O9  1  0.55908060  0.26200746  0.51901586  1
  O  O10  1  0.55908060  0.73799254  0.98098414  1
  O  O11  1  0.07581764  0.74857616  0.09178513  1
