# generated using pymatgen
data_CeSe2
_symmetry_space_group_name_H-M   'P 1'
_cell_length_a   13.66817953
_cell_length_b   13.66817953
_cell_length_c   23.50353644
_cell_angle_alpha   90.00000000
_cell_angle_beta   90.00000000
_cell_angle_gamma   101.38201519
_symmetry_Int_Tables_number   1
_chemical_formula_structural   CeSe2
_chemical_formula_sum   'Ce16 Se32'
_cell_volume   4304.55498398
_cell_formula_units_Z   16
loop_
 _symmetry_equiv_pos_site_id
 _symmetry_equiv_pos_as_xyz
  1  'x, y, z'
loop_
 _atom_site_type_symbol
 _atom_site_label
 _atom_site_symmetry_multiplicity
 _atom_site_fract_x
 _atom_site_fract_y
 _atom_site_fract_z
 _atom_site_occupancy
  Ce  Ce0  1  0.58705166  0.18795058  0.68088037  1
  Ce  Ce1  1  0.18795058  0.58705166  0.31911963  1
  Ce  Ce2  1  0.41294834  0.81204942  0.68088037  1
  Ce  Ce3  1  0.81204942  0.41294834  0.31911963  1
  Ce  Ce4  1  0.90961021  0.31202835  0.81619084  1
  Ce  Ce5  1  0.31202835  0.90961021  0.18380916  1
  Ce  Ce6  1  0.09038979  0.68797165  0.81619084  1
  Ce  Ce7  1  0.68797165  0.09038979  0.18380916  1
  Ce  Ce8  1  0.66156070  0.33843930  0.50000000  1
  Ce  Ce9  1  0.33843930  0.66156070  0.50000000  1
  Ce  Ce10  1  0.50000000  0.50000000  0.63429163  1
  Ce  Ce11  1  0.50000000  0.50000000  0.36570837  1
  Ce  Ce12  1  -0.00000000  0.00000000  0.86028403  1
  Ce  Ce13  1  -0.00000000  0.00000000  0.13971597  1
  Ce  Ce14  1  0.83971908  0.16028092  -0.00000000  1
  Ce  Ce15  1  0.16028092  0.83971908  -0.00000000  1
  Se  Se16  1  0.50000000  0.00000000  0.71479909  1
  Se  Se17  1  -0.00000000  0.50000000  0.28520091  1
  Se  Se18  1  0.74758168  0.25320309  0.74866277  1
  Se  Se19  1  0.25320309  0.74758168  0.25133723  1
  Se  Se20  1  0.25241832  0.74679691  0.74866277  1
  Se  Se21  1  0.74679691  0.25241832  0.25133723  1
  Se  Se22  1  0.64141258  0.17742015  0.57033829  1
  Se  Se23  1  0.17742015  0.64141258  0.42966171  1
  Se  Se24  1  0.35858742  0.82257985  0.57033829  1
  Se  Se25  1  0.82257985  0.35858742  0.42966171  1
  Se  Se26  1  0.46791693  0.32387358  0.69247125  1
  Se  Se27  1  0.32387358  0.46791693  0.30752875  1
  Se  Se28  1  0.53208307  0.67612642  0.69247125  1
  Se  Se29  1  0.67612642  0.53208307  0.30752875  1
  Se  Se30  1  0.85856257  0.31885817  0.92800832  1
  Se  Se31  1  0.31885817  0.85856257  0.07199168  1
  Se  Se32  1  0.14143743  0.68114183  0.92800832  1
  Se  Se33  1  0.68114183  0.14143743  0.07199168  1
  Se  Se34  1  0.02606020  0.17451254  0.80080450  1
  Se  Se35  1  0.17451254  0.02606020  0.19919550  1
  Se  Se36  1  0.97393980  0.82548746  0.80080450  1
  Se  Se37  1  0.82548746  0.97393980  0.19919550  1
  Se  Se38  1  0.66352911  0.49715243  0.56967210  1
  Se  Se39  1  0.49715243  0.66352911  0.43032790  1
  Se  Se40  1  0.33647089  0.50284757  0.56967210  1
  Se  Se41  1  0.50284757  0.33647089  0.43032790  1
  Se  Se42  1  -0.00000000  0.50000000  0.78305420  1
  Se  Se43  1  0.50000000  0.00000000  0.21694580  1
  Se  Se44  1  0.16192923  0.99322572  0.92619860  1
  Se  Se45  1  0.99322572  0.16192923  0.07380140  1
  Se  Se46  1  0.83807077  0.00677428  0.92619860  1
  Se  Se47  1  0.00677428  0.83807077  0.07380140  1
