# generated using pymatgen
data_Cs2LaBr5
_symmetry_space_group_name_H-M   'P 1'
_cell_length_a   9.01123709
_cell_length_b   9.66439088
_cell_length_c   14.48346464
_cell_angle_alpha   90.00000000
_cell_angle_beta   90.00000000
_cell_angle_gamma   90.00000000
_symmetry_Int_Tables_number   1
_chemical_formula_structural   Cs2LaBr5
_chemical_formula_sum   'Cs8 La4 Br20'
_cell_volume   1261.33767110
_cell_formula_units_Z   4
loop_
 _symmetry_equiv_pos_site_id
 _symmetry_equiv_pos_as_xyz
  1  'x, y, z'
loop_
 _atom_site_type_symbol
 _atom_site_label
 _atom_site_symmetry_multiplicity
 _atom_site_fract_x
 _atom_site_fract_y
 _atom_site_fract_z
 _atom_site_occupancy
  Cs  Cs0  1  0.94372894  0.00502546  0.82853371  1
  Cs  Cs1  1  0.05627106  0.99497454  0.17146629  1
  Cs  Cs2  1  0.44372894  0.99497454  0.67146629  1
  Cs  Cs3  1  0.05627106  0.50502546  0.17146629  1
  Cs  Cs4  1  0.55627106  0.00502546  0.32853371  1
  Cs  Cs5  1  0.94372894  0.49497454  0.82853371  1
  Cs  Cs6  1  0.55627106  0.49497454  0.32853371  1
  Cs  Cs7  1  0.44372894  0.50502546  0.67146629  1
  La  La8  1  0.93055657  0.75000000  0.50398380  1
  La  La9  1  0.06944343  0.25000000  0.49601620  1
  La  La10  1  0.43055657  0.25000000  0.99601620  1
  La  La11  1  0.56944343  0.75000000  0.00398380  1
  Br  Br12  1  0.11766148  0.75000000  0.67234506  1
  Br  Br13  1  0.88233852  0.25000000  0.32765494  1
  Br  Br14  1  0.61766148  0.25000000  0.82765494  1
  Br  Br15  1  0.38233852  0.75000000  0.17234506  1
  Br  Br16  1  0.83998929  0.04270395  0.57135566  1
  Br  Br17  1  0.16001071  0.95729605  0.42864434  1
  Br  Br18  1  0.33998929  0.95729605  0.92864434  1
  Br  Br19  1  0.16001071  0.54270395  0.42864434  1
  Br  Br20  1  0.66001071  0.04270395  0.07135566  1
  Br  Br21  1  0.83998929  0.45729605  0.57135566  1
  Br  Br22  1  0.66001071  0.45729605  0.07135566  1
  Br  Br23  1  0.33998929  0.54270395  0.92864434  1
  Br  Br24  1  0.59858613  0.75000000  0.51229328  1
  Br  Br25  1  0.40141387  0.25000000  0.48770672  1
  Br  Br26  1  0.09858613  0.25000000  0.98770672  1
  Br  Br27  1  0.90141387  0.75000000  0.01229328  1
  Br  Br28  1  0.65296918  0.75000000  0.80502986  1
  Br  Br29  1  0.34703082  0.25000000  0.19497014  1
  Br  Br30  1  0.15296918  0.25000000  0.69497014  1
  Br  Br31  1  0.84703082  0.75000000  0.30502986  1
