# generated using pymatgen
data_LaGaS3
_symmetry_space_group_name_H-M   'P 1'
_cell_length_a   6.07583879
_cell_length_b   10.45074162
_cell_length_c   22.04748482
_cell_angle_alpha   90.00000000
_cell_angle_beta   90.00000000
_cell_angle_gamma   90.00000000
_symmetry_Int_Tables_number   1
_chemical_formula_structural   LaGaS3
_chemical_formula_sum   'La12 Ga12 S36'
_cell_volume   1399.94961365
_cell_formula_units_Z   12
loop_
 _symmetry_equiv_pos_site_id
 _symmetry_equiv_pos_as_xyz
  1  'x, y, z'
loop_
 _atom_site_type_symbol
 _atom_site_label
 _atom_site_symmetry_multiplicity
 _atom_site_fract_x
 _atom_site_fract_y
 _atom_site_fract_z
 _atom_site_occupancy
  La  La0  1  0.72962537  0.52123530  0.24218630  1
  La  La1  1  0.22962537  0.47876470  0.75781370  1
  La  La2  1  0.22962537  0.97876470  0.74218630  1
  La  La3  1  0.72962537  0.02123530  0.25781370  1
  La  La4  1  0.74126972  0.79837236  0.05849285  1
  La  La5  1  0.24126972  0.20162764  0.94150715  1
  La  La6  1  0.24126972  0.70162764  0.55849285  1
  La  La7  1  0.74126972  0.29837236  0.44150715  1
  La  La8  1  0.23763793  0.74527652  0.91938492  1
  La  La9  1  0.73763793  0.25472348  0.08061508  1
  La  La10  1  0.73763793  0.75472348  0.41938492  1
  La  La11  1  0.23763793  0.24527652  0.58061508  1
  Ga  Ga12  1  0.22190843  0.72915783  0.23161117  1
  Ga  Ga13  1  0.72190843  0.27084217  0.76838883  1
  Ga  Ga14  1  0.72190843  0.77084217  0.73161117  1
  Ga  Ga15  1  0.22190843  0.22915783  0.26838883  1
  Ga  Ga16  1  0.34427723  0.52553523  0.09499834  1
  Ga  Ga17  1  0.84427723  0.47446477  0.90500166  1
  Ga  Ga18  1  0.84427723  0.97446477  0.59499834  1
  Ga  Ga19  1  0.34427723  0.02553523  0.40500166  1
  Ga  Ga20  1  0.18073768  0.52359097  0.37295979  1
  Ga  Ga21  1  0.68073768  0.47640903  0.62704021  1
  Ga  Ga22  1  0.68073768  0.97640903  0.87295979  1
  Ga  Ga23  1  0.18073768  0.02359097  0.12704021  1
  S  S24  1  0.22004198  0.52631778  0.19458251  1
  S  S25  1  0.72004198  0.47368222  0.80541749  1
  S  S26  1  0.72004198  0.97368222  0.69458251  1
  S  S27  1  0.22004198  0.02631778  0.30541749  1
  S  S28  1  0.72180040  0.53133006  0.10847174  1
  S  S29  1  0.22180040  0.46866994  0.89152826  1
  S  S30  1  0.22180040  0.96866994  0.60847174  1
  S  S31  1  0.72180040  0.03133006  0.39152826  1
  S  S32  1  0.76676770  0.67129033  0.94194718  1
  S  S33  1  0.26676770  0.32870967  0.05805282  1
  S  S34  1  0.26676770  0.82870967  0.44194718  1
  S  S35  1  0.76676770  0.17129033  0.55805282  1
  S  S36  1  0.26140253  0.71228092  0.04875777  1
  S  S37  1  0.76140253  0.28771908  0.95124223  1
  S  S38  1  0.76140253  0.78771908  0.54875777  1
  S  S39  1  0.26140253  0.21228092  0.45124223  1
  S  S40  1  0.00982614  0.53434894  0.46353176  1
  S  S41  1  0.50982614  0.46565106  0.53646824  1
  S  S42  1  0.50982614  0.96565106  0.96353176  1
  S  S43  1  0.00982614  0.03434894  0.03646824  1
  S  S44  1  0.01827755  0.68672239  0.31759776  1
  S  S45  1  0.51827755  0.31327761  0.68240224  1
  S  S46  1  0.51827755  0.81327761  0.81759776  1
  S  S47  1  0.01827755  0.18672239  0.18240224  1
  S  S48  1  0.00109244  0.85591932  0.17496725  1
  S  S49  1  0.50109244  0.14408068  0.82503275  1
  S  S50  1  0.50109244  0.64408068  0.67496725  1
  S  S51  1  0.00109244  0.35591932  0.32503275  1
  S  S52  1  0.54407693  0.51239997  0.37037163  1
  S  S53  1  0.04407693  0.48760003  0.62962837  1
  S  S54  1  0.04407693  0.98760003  0.87037163  1
  S  S55  1  0.54407693  0.01239997  0.12962837  1
  S  S56  1  0.55674797  0.77071511  0.26367179  1
  S  S57  1  0.05674797  0.22928489  0.73632821  1
  S  S58  1  0.05674797  0.72928489  0.76367179  1
  S  S59  1  0.55674797  0.27071511  0.23632821  1
