# generated using pymatgen
data_Gd2MgTl2(WO4)4
_symmetry_space_group_name_H-M   'P 1'
_cell_length_a   7.92706811
_cell_length_b   7.64201971
_cell_length_c   7.54795231
_cell_angle_alpha   63.68944353
_cell_angle_beta   62.99380199
_cell_angle_gamma   89.51575573
_symmetry_Int_Tables_number   1
_chemical_formula_structural   Gd2MgTl2(WO4)4
_chemical_formula_sum   'Gd2 Mg1 Tl2 W4 O16'
_cell_volume   354.38104626
_cell_formula_units_Z   1
loop_
 _symmetry_equiv_pos_site_id
 _symmetry_equiv_pos_as_xyz
  1  'x, y, z'
loop_
 _atom_site_type_symbol
 _atom_site_label
 _atom_site_symmetry_multiplicity
 _atom_site_fract_x
 _atom_site_fract_y
 _atom_site_fract_z
 _atom_site_occupancy
  Gd  Gd0  1  0.22057570  0.75731874  0.75929608  1
  Gd  Gd1  1  0.79255083  0.23416998  0.24502520  1
  Mg  Mg2  1  0.35466788  0.66123403  0.25005270  1
  Tl  Tl3  1  0.79618516  0.19780915  0.76001905  1
  Tl  Tl4  1  0.09503588  0.88938228  0.23452609  1
  W  W5  1  0.30522718  0.30655116  0.70022861  1
  W  W6  1  0.71069552  0.67176195  0.30500192  1
  W  W7  1  0.69333596  0.69994027  0.79802173  1
  W  W8  1  0.32770490  0.28163030  0.19898226  1
  O  O9  1  0.38811201  0.24613187  0.94169218  1
  O  O10  1  0.63683076  0.76451722  0.05148572  1
  O  O11  1  0.73145065  0.60838992  0.58631890  1
  O  O12  1  0.25415874  0.36909976  0.43452235  1
  O  O13  1  0.65863428  0.94250571  0.62500085  1
  O  O14  1  0.36485652  0.04635009  0.37786572  1
  O  O15  1  0.08262371  0.37349418  0.86907984  1
  O  O16  1  0.93148637  0.60279124  0.13862338  1
  O  O17  1  0.41549798  0.64064056  0.50204553  1
  O  O18  1  0.58671232  0.35674353  0.47471664  1
  O  O19  1  0.37675516  0.59805093  0.98987275  1
  O  O20  1  0.62630033  0.40297075  0.04439464  1
  O  O21  1  0.23026330  0.02171379  0.81361849  1
  O  O22  1  0.80524937  0.95607065  0.19809713  1
  O  O23  1  0.95235121  0.75878097  0.70747138  1
  O  O24  1  0.06273929  0.21195196  0.29761185  1
