# generated using pymatgen
data_Li10Zn7(PS4)8
_symmetry_space_group_name_H-M   'P 1'
_cell_length_a   11.63812731
_cell_length_b   11.64382573
_cell_length_c   18.39080352
_cell_angle_alpha   90.01630560
_cell_angle_beta   89.96163380
_cell_angle_gamma   90.01486492
_symmetry_Int_Tables_number   1
_chemical_formula_structural   Li10Zn7(PS4)8
_chemical_formula_sum   'Li20 Zn14 P16 S64'
_cell_volume   2492.17982076
_cell_formula_units_Z   2
loop_
 _symmetry_equiv_pos_site_id
 _symmetry_equiv_pos_as_xyz
  1  'x, y, z'
loop_
 _atom_site_type_symbol
 _atom_site_label
 _atom_site_symmetry_multiplicity
 _atom_site_fract_x
 _atom_site_fract_y
 _atom_site_fract_z
 _atom_site_occupancy
  Li  Li0  1  0.99188744  0.25050615  0.37388621  1
  Li  Li1  1  0.74907395  0.50107489  0.12783514  1
  Li  Li2  1  0.49854851  0.50119798  0.25291660  1
  Li  Li3  1  0.00073938  0.50225325  0.25035698  1
  Li  Li4  1  0.50408759  0.00093200  0.25050511  1
  Li  Li5  1  0.99708366  0.99563490  0.24724870  1
  Li  Li6  1  0.75020064  0.74941815  0.50054473  1
  Li  Li7  1  0.50002970  0.50032115  0.74950812  1
  Li  Li8  1  0.25029828  0.75050496  0.50032799  1
  Li  Li9  1  0.00002694  0.50003775  0.74991727  1
  Li  Li10  1  0.74693996  0.24931298  0.50392539  1
  Li  Li11  1  0.49998539  0.00004855  0.74991010  1
  Li  Li12  1  0.25332409  0.24992838  0.50312638  1
  Li  Li13  1  0.00001432  0.99985266  0.75035239  1
  Li  Li14  1  0.74928910  0.75334309  0.99857770  1
  Li  Li15  1  0.24960578  0.75011367  0.99755552  1
  Li  Li16  1  0.75047927  0.24680768  0.99815197  1
  Li  Li17  1  0.25043461  0.24978828  0.99726254  1
  Li  Li18  1  0.74643647  0.24743784  0.25046146  1
  Li  Li19  1  0.75078916  0.75417887  0.25371467  1
  Zn  Zn20  1  0.25196488  0.25127082  0.24648849  1
  Zn  Zn21  1  0.25050885  0.74891734  0.24893357  1
  Zn  Zn22  1  0.50389012  0.49755563  0.49917796  1
  Zn  Zn23  1  0.24996378  0.24976502  0.75016359  1
  Zn  Zn24  1  0.99650843  0.50473347  0.50188054  1
  Zn  Zn25  1  0.75006811  0.24996877  0.74996911  1
  Zn  Zn26  1  0.50232172  0.99806312  0.49872451  1
  Zn  Zn27  1  0.25030382  0.75030284  0.75000163  1
  Zn  Zn28  1  0.99793018  0.99964475  0.50139538  1
  Zn  Zn29  1  0.74959517  0.75003806  0.74979545  1
  Zn  Zn30  1  0.49671792  0.50030647  0.99839186  1
  Zn  Zn31  1  0.00307785  0.49978730  0.99820753  1
  Zn  Zn32  1  0.49937205  0.00098333  0.00117654  1
  Zn  Zn33  1  0.00051669  0.99877940  0.00094034  1
  P  P34  1  0.24971449  0.49857137  0.37459465  1
  P  P35  1  0.75162594  0.49828485  0.37561259  1
  P  P36  1  0.24862324  0.00045365  0.37618432  1
  P  P37  1  0.75042902  0.00144014  0.37396996  1
  P  P38  1  0.49963730  0.74978988  0.62476645  1
  P  P39  1  0.24996731  0.50007457  0.87374357  1
  P  P40  1  0.00031000  0.75039335  0.62576761  1
  P  P41  1  0.74993411  0.49995289  0.87527393  1
  P  P42  1  0.49981708  0.24977580  0.62554956  1
  P  P43  1  0.25007088  0.00007162  0.87477938  1
  P  P44  1  0.00056949  0.25020358  0.62521285  1
  P  P45  1  0.75004275  0.99991643  0.87488833  1
  P  P46  1  0.49964395  0.75378839  0.12630778  1
  P  P47  1  0.00059513  0.74448115  0.12311884  1
  P  P48  1  0.49943847  0.25550926  0.12291827  1
  P  P49  1  0.00035655  0.24660361  0.12633217  1
  S  S50  1  0.35980000  0.10381655  0.43321197  1
  S  S51  1  0.85931183  0.10754854  0.43812676  1
  S  S52  1  0.35952790  0.60014721  0.43390574  1
  S  S53  1  0.85995483  0.60510191  0.43418768  1
  S  S54  1  0.61135272  0.35353211  0.68290527  1
  S  S55  1  0.36154894  0.10366496  0.93194400  1
  S  S56  1  0.11145002  0.35403002  0.68259550  1
  S  S57  1  0.86222866  0.10252179  0.93231715  1
  S  S58  1  0.61073998  0.85333219  0.68263539  1
  S  S59  1  0.36074338  0.60471725  0.93068419  1
  S  S60  1  0.11140385  0.85425489  0.68301224  1
  S  S61  1  0.86020640  0.60333489  0.93393992  1
  S  S62  1  0.60628532  0.35722896  0.18378338  1
  S  S63  1  0.11033594  0.35446435  0.18252323  1
  S  S64  1  0.60882541  0.85442780  0.18214663  1
  S  S65  1  0.10983053  0.84899029  0.18184122  1
  S  S66  1  0.65051052  0.60329085  0.31559543  1
  S  S67  1  0.14634929  0.61016146  0.31808532  1
  S  S68  1  0.64533402  0.10966311  0.31996078  1
  S  S69  1  0.14566973  0.11126642  0.31434464  1
  S  S70  1  0.89583715  0.86054518  0.56842679  1
  S  S71  1  0.64626171  0.61086890  0.81778489  1
  S  S72  1  0.39626424  0.86141581  0.56743929  1
  S  S73  1  0.14582536  0.61124089  0.81679754  1
  S  S74  1  0.89681364  0.36031435  0.56697566  1
  S  S75  1  0.64668018  0.11134889  0.81733624  1
  S  S76  1  0.39724233  0.36224257  0.56835285  1
  S  S77  1  0.14615717  0.11120591  0.81736596  1
  S  S78  1  0.89721927  0.85809125  0.06686904  1
  S  S79  1  0.39538127  0.85755815  0.06388843  1
  S  S80  1  0.89732346  0.35981020  0.06494493  1
  S  S81  1  0.39262047  0.36182770  0.06428388  1
  S  S82  1  0.13808328  0.39617753  0.43615364  1
  S  S83  1  0.64342344  0.39251223  0.43492461  1
  S  S84  1  0.13709366  0.89713334  0.43294665  1
  S  S85  1  0.64503932  0.89671804  0.43630959  1
  S  S86  1  0.38850938  0.64626094  0.68252786  1
  S  S87  1  0.13911531  0.39519196  0.93061858  1
  S  S88  1  0.88913276  0.64616229  0.68297125  1
  S  S89  1  0.63961417  0.39651706  0.93385596  1
  S  S90  1  0.38826060  0.14625717  0.68289154  1
  S  S91  1  0.13858105  0.89641001  0.93198208  1
  S  S92  1  0.88941429  0.14638806  0.68261294  1
  S  S93  1  0.63789529  0.89749410  0.93239191  1
  S  S94  1  0.38912437  0.64598820  0.18198412  1
  S  S95  1  0.89149793  0.64491912  0.18389406  1
  S  S96  1  0.39159179  0.14909714  0.18155198  1
  S  S97  1  0.89245952  0.14643618  0.18395150  1
  S  S98  1  0.35290929  0.38651264  0.31829662  1
  S  S99  1  0.85552864  0.39072604  0.31489027  1
  S  S100  1  0.35083396  0.89174567  0.31637941  1
  S  S101  1  0.85708580  0.89436048  0.31998178  1
  S  S102  1  0.60344979  0.63877987  0.56736226  1
  S  S103  1  0.35414682  0.38896645  0.81668342  1
  S  S104  1  0.10474511  0.63928632  0.56857039  1
  S  S105  1  0.85381918  0.38902211  0.81776209  1
  S  S106  1  0.60237693  0.13777408  0.56835954  1
  S  S107  1  0.35383688  0.88892777  0.81724097  1
  S  S108  1  0.10418215  0.13936863  0.56715170  1
  S  S109  1  0.85340977  0.88844425  0.81730142  1
  S  S110  1  0.60230052  0.64004003  0.06454757  1
  S  S111  1  0.10695289  0.63757134  0.06442809  1
  S  S112  1  0.60327076  0.14231734  0.06667447  1
  S  S113  1  0.10449134  0.14241019  0.06423911  1
