# generated using pymatgen
data_Ba2DyCl7
_symmetry_space_group_name_H-M   'P 1'
_cell_length_a   15.63049218
_cell_length_b   6.85917516
_cell_length_c   10.59002336
_cell_angle_alpha   89.39431708
_cell_angle_beta   90.00000000
_cell_angle_gamma   90.00000000
_symmetry_Int_Tables_number   1
_chemical_formula_structural   Ba2DyCl7
_chemical_formula_sum   'Ba8 Dy4 Cl28'
_cell_volume   1135.31715132
_cell_formula_units_Z   4
loop_
 _symmetry_equiv_pos_site_id
 _symmetry_equiv_pos_as_xyz
  1  'x, y, z'
loop_
 _atom_site_type_symbol
 _atom_site_label
 _atom_site_symmetry_multiplicity
 _atom_site_fract_x
 _atom_site_fract_y
 _atom_site_fract_z
 _atom_site_occupancy
  Ba  Ba0  1  0.27983196  0.23526748  0.54888169  1
  Ba  Ba1  1  0.72016804  0.76473252  0.45111831  1
  Ba  Ba2  1  0.77983196  0.76473252  0.95111831  1
  Ba  Ba3  1  0.22016804  0.23526748  0.04888169  1
  Ba  Ba4  1  0.43919193  0.76494885  0.82354489  1
  Ba  Ba5  1  0.56080807  0.23505115  0.17645511  1
  Ba  Ba6  1  0.93919193  0.23505115  0.67645511  1
  Ba  Ba7  1  0.06080807  0.76494885  0.32354489  1
  Dy  Dy8  1  0.12714637  0.71758081  0.78164663  1
  Dy  Dy9  1  0.87285363  0.28241919  0.21835337  1
  Dy  Dy10  1  0.62714637  0.28241919  0.71835337  1
  Dy  Dy11  1  0.37285363  0.71758081  0.28164663  1
  Cl  Cl12  1  0.07070958  0.37116979  0.87640243  1
  Cl  Cl13  1  0.92929042  0.62883021  0.12359757  1
  Cl  Cl14  1  0.57070958  0.62883021  0.62359757  1
  Cl  Cl15  1  0.42929042  0.37116979  0.37640243  1
  Cl  Cl16  1  0.10497527  0.98694730  0.58561932  1
  Cl  Cl17  1  0.89502473  0.01305270  0.41438068  1
  Cl  Cl18  1  0.60497527  0.01305270  0.91438068  1
  Cl  Cl19  1  0.39502473  0.98694730  0.08561932  1
  Cl  Cl20  1  0.95985292  0.79476860  0.78750697  1
  Cl  Cl21  1  0.04014708  0.20523140  0.21249303  1
  Cl  Cl22  1  0.45985292  0.20523140  0.71249303  1
  Cl  Cl23  1  0.54014708  0.79476860  0.28750697  1
  Cl  Cl24  1  0.36048201  0.79124478  0.52854475  1
  Cl  Cl25  1  0.63951799  0.20875522  0.47145525  1
  Cl  Cl26  1  0.86048201  0.20875522  0.97145525  1
  Cl  Cl27  1  0.13951799  0.79124478  0.02854475  1
  Cl  Cl28  1  0.25743867  0.98834590  0.80181027  1
  Cl  Cl29  1  0.74256133  0.01165410  0.19818973  1
  Cl  Cl30  1  0.75743867  0.01165410  0.69818973  1
  Cl  Cl31  1  0.24256133  0.98834590  0.30181027  1
  Cl  Cl32  1  0.27228139  0.50054294  0.79475670  1
  Cl  Cl33  1  0.72771861  0.49945706  0.20524330  1
  Cl  Cl34  1  0.77228139  0.49945706  0.70524330  1
  Cl  Cl35  1  0.22771861  0.50054294  0.29475670  1
  Cl  Cl36  1  0.10437367  0.49920636  0.57102067  1
  Cl  Cl37  1  0.89562633  0.50079364  0.42897933  1
  Cl  Cl38  1  0.60437367  0.50079364  0.92897933  1
  Cl  Cl39  1  0.39562633  0.49920636  0.07102067  1
