# generated using pymatgen
data_KMn3O6
_symmetry_space_group_name_H-M   'P 1'
_cell_length_a   7.14033910
_cell_length_b   7.14033910
_cell_length_c   15.53458799
_cell_angle_alpha   88.07852345
_cell_angle_beta   88.07852345
_cell_angle_gamma   46.79645442
_symmetry_Int_Tables_number   1
_chemical_formula_structural   KMn3O6
_chemical_formula_sum   'K4 Mn12 O24'
_cell_volume   576.94044260
_cell_formula_units_Z   4
loop_
 _symmetry_equiv_pos_site_id
 _symmetry_equiv_pos_as_xyz
  1  'x, y, z'
loop_
 _atom_site_type_symbol
 _atom_site_label
 _atom_site_symmetry_multiplicity
 _atom_site_fract_x
 _atom_site_fract_y
 _atom_site_fract_z
 _atom_site_occupancy
  K  K0  1  0.65509651  0.32521708  0.59940791  1
  K  K1  1  0.32521708  0.65509651  0.09940791  1
  K  K2  1  0.67478292  0.34490349  0.90059209  1
  K  K3  1  0.34490349  0.67478292  0.40059209  1
  Mn  Mn4  1  0.37589267  0.12669332  0.25015697  1
  Mn  Mn5  1  0.87330668  0.62410733  0.24984303  1
  Mn  Mn6  1  0.36369226  0.11198186  0.58048028  1
  Mn  Mn7  1  0.86871214  0.61814047  0.58100979  1
  Mn  Mn8  1  0.88801814  0.63630774  0.91951972  1
  Mn  Mn9  1  0.38185953  0.13128786  0.91899021  1
  Mn  Mn10  1  0.62410733  0.87330668  0.74984303  1
  Mn  Mn11  1  0.12669332  0.37589267  0.75015697  1
  Mn  Mn12  1  0.11198186  0.36369226  0.08048028  1
  Mn  Mn13  1  0.61814047  0.86871214  0.08100979  1
  Mn  Mn14  1  0.63630774  0.88801814  0.41951972  1
  Mn  Mn15  1  0.13128786  0.38185953  0.41899021  1
  O  O16  1  0.81374199  0.56064170  0.81601315  1
  O  O17  1  0.30951402  0.06132180  0.81524564  1
  O  O18  1  0.43935830  0.18625801  0.68398685  1
  O  O19  1  0.93867820  0.69048598  0.68475436  1
  O  O20  1  0.06132180  0.30951402  0.31524564  1
  O  O21  1  0.56064170  0.81374199  0.31601315  1
  O  O22  1  0.18625801  0.43935830  0.18398685  1
  O  O23  1  0.69048598  0.93867820  0.18475436  1
  O  O24  1  0.71038567  0.96357224  0.87394120  1
  O  O25  1  0.21786993  0.45926936  0.87482806  1
  O  O26  1  0.03642776  0.28961433  0.62605880  1
  O  O27  1  0.54073064  0.78213007  0.62517194  1
  O  O28  1  0.45926936  0.21786993  0.37482806  1
  O  O29  1  0.96357224  0.71038567  0.37394120  1
  O  O30  1  0.78213007  0.54073064  0.12517194  1
  O  O31  1  0.28961433  0.03642776  0.12605880  1
  O  O32  1  0.55633780  0.79932775  0.97132901  1
  O  O33  1  0.04999255  0.30439918  0.97037239  1
  O  O34  1  0.20067225  0.44366220  0.52867099  1
  O  O35  1  0.69560082  0.95000745  0.52962761  1
  O  O36  1  0.30439918  0.04999255  0.47037239  1
  O  O37  1  0.79932775  0.55633780  0.47132901  1
  O  O38  1  0.95000745  0.69560082  0.02962761  1
  O  O39  1  0.44366220  0.20067225  0.02867099  1
