# generated using pymatgen
data_Na5Ho4Si4O16F
_symmetry_space_group_name_H-M   'P 1'
_cell_length_a   8.55598818
_cell_length_b   8.55598818
_cell_length_c   8.55598818
_cell_angle_alpha   95.67402258
_cell_angle_beta   95.67402258
_cell_angle_gamma   143.34673233
_symmetry_Int_Tables_number   1
_chemical_formula_structural   Na5Ho4Si4O16F
_chemical_formula_sum   'Na5 Ho4 Si4 O16 F1'
_cell_volume   354.94235090
_cell_formula_units_Z   1
loop_
 _symmetry_equiv_pos_site_id
 _symmetry_equiv_pos_as_xyz
  1  'x, y, z'
loop_
 _atom_site_type_symbol
 _atom_site_label
 _atom_site_symmetry_multiplicity
 _atom_site_fract_x
 _atom_site_fract_y
 _atom_site_fract_z
 _atom_site_occupancy
  Na  Na0  1  0.40145423  0.88464431  0.30561992  1
  Na  Na1  1  0.57902440  0.09583431  0.69438008  1
  Na  Na2  1  0.90416569  0.59854577  0.48319008  1
  Na  Na3  1  0.11535569  0.42097560  0.51680992  1
  Na  Na4  1  -0.00000000  -0.00000000  -0.00000000  1
  Ho  Ho5  1  0.36132096  0.29457740  0.70289875  1
  Ho  Ho6  1  0.59167865  0.65842221  0.29710125  1
  Ho  Ho7  1  0.34157779  0.63867904  0.93325544  1
  Ho  Ho8  1  0.70542260  0.40832135  0.06674456  1
  Si  Si9  1  0.25809051  0.11497908  0.35078116  1
  Si  Si10  1  0.76419693  0.90730935  0.64921884  1
  Si  Si11  1  0.09269065  0.74190949  0.85688857  1
  Si  Si12  1  0.88502092  0.23580207  0.14311143  1
  O  O13  1  0.37163952  0.09320996  0.49771753  1
  O  O14  1  0.59549243  0.87392100  0.50228247  1
  O  O15  1  0.12607900  0.62836048  0.72157044  1
  O  O16  1  0.90679004  0.40450757  0.27842956  1
  O  O17  1  0.95204225  0.81498395  0.23376817  1
  O  O18  1  0.58121578  0.71827408  0.76623183  1
  O  O19  1  0.28172592  0.04795775  0.86294170  1
  O  O20  1  0.18501605  0.41878422  0.13705830  1
  O  O21  1  0.46466309  0.29199136  0.23920966  1
  O  O22  1  0.05278170  0.22545343  0.76079034  1
  O  O23  1  0.77454657  0.53533691  0.82732828  1
  O  O24  1  0.70800864  0.94721830  0.17267172  1
  O  O25  1  0.27083914  0.30440912  0.44070958  1
  O  O26  1  0.86369954  0.83012957  0.55929042  1
  O  O27  1  0.16987043  0.72916086  0.03357097  1
  O  O28  1  0.69559088  0.13630046  0.96642903  1
  F  F29  1  0.50000000  0.50000000  -0.00000000  1
