# generated using pymatgen
data_CaY4(BiO3)4
_symmetry_space_group_name_H-M   'P 1'
_cell_length_a   6.29092506
_cell_length_b   5.91503579
_cell_length_c   9.36014164
_cell_angle_alpha   89.85170182
_cell_angle_beta   84.93886085
_cell_angle_gamma   89.72891403
_symmetry_Int_Tables_number   1
_chemical_formula_structural   CaY4(BiO3)4
_chemical_formula_sum   'Ca1 Y4 Bi4 O12'
_cell_volume   346.93798280
_cell_formula_units_Z   1
loop_
 _symmetry_equiv_pos_site_id
 _symmetry_equiv_pos_as_xyz
  1  'x, y, z'
loop_
 _atom_site_type_symbol
 _atom_site_label
 _atom_site_symmetry_multiplicity
 _atom_site_fract_x
 _atom_site_fract_y
 _atom_site_fract_z
 _atom_site_occupancy
  Ca  Ca0  1  0.22996400  0.53385200  0.05979700  1
  Y  Y1  1  0.05724000  0.96767500  0.79604700  1
  Y  Y2  1  0.52706300  0.50124200  0.32429000  1
  Y  Y3  1  0.46084900  0.43186500  0.71287700  1
  Y  Y4  1  0.97920500  0.01988700  0.22301200  1
  Bi  Bi5  1  0.99536200  0.48896700  0.52168700  1
  Bi  Bi6  1  0.43385700  0.99331100  0.42490600  1
  Bi  Bi7  1  0.52149000  0.97841500  0.97855100  1
  Bi  Bi8  1  0.79969000  0.47828000  0.96066200  1
  O  O9  1  0.65677100  0.32011900  0.50954200  1
  O  O10  1  0.18104400  0.22020100  0.62292700  1
  O  O11  1  0.95786200  0.84311500  0.02310700  1
  O  O12  1  0.34363800  0.74334000  0.84571000  1
  O  O13  1  0.33382600  0.66912000  0.53758000  1
  O  O14  1  0.74382800  0.80435300  0.35258700  1
  O  O15  1  0.28795900  0.22211800  0.91034600  1
  O  O16  1  0.72272200  0.26711700  0.18394700  1
  O  O17  1  0.22625700  0.29187100  0.27933000  1
  O  O18  1  0.72760700  0.16300700  0.81475700  1
  O  O19  1  0.30346000  0.79684400  0.23836500  1
  O  O20  1  0.86447200  0.65071900  0.72283100  1
