# generated using pymatgen
data_La3NbO7
_symmetry_space_group_name_H-M   'P 1'
_cell_length_a   6.75300716
_cell_length_b   6.75300716
_cell_length_c   7.81335568
_cell_angle_alpha   90.00000000
_cell_angle_beta   90.00000000
_cell_angle_gamma   111.72861907
_symmetry_Int_Tables_number   1
_chemical_formula_structural   La3NbO7
_chemical_formula_sum   'La6 Nb2 O14'
_cell_volume   330.99643039
_cell_formula_units_Z   2
loop_
 _symmetry_equiv_pos_site_id
 _symmetry_equiv_pos_as_xyz
  1  'x, y, z'
loop_
 _atom_site_type_symbol
 _atom_site_label
 _atom_site_symmetry_multiplicity
 _atom_site_fract_x
 _atom_site_fract_y
 _atom_site_fract_z
 _atom_site_occupancy
  La  La0  1  0.92867670  0.47532198  0.75000000  1
  La  La1  1  0.07132330  0.52467802  0.25000000  1
  La  La2  1  -0.00000000  -0.00000000  0.50000000  1
  La  La3  1  -0.00000000  -0.00000000  0.00000000  1
  La  La4  1  0.52467802  0.07132330  0.25000000  1
  La  La5  1  0.47532198  0.92867670  0.75000000  1
  Nb  Nb6  1  0.50000000  0.50000000  0.00000000  1
  Nb  Nb7  1  0.50000000  0.50000000  0.50000000  1
  O  O8  1  0.56649700  0.56649700  0.75000000  1
  O  O9  1  0.43350300  0.43350300  0.25000000  1
  O  O10  1  0.84526971  0.10553823  0.75000000  1
  O  O11  1  0.15473029  0.89446177  0.25000000  1
  O  O12  1  0.10553823  0.84526971  0.75000000  1
  O  O13  1  0.89446177  0.15473029  0.25000000  1
  O  O14  1  0.43829012  0.18739160  0.96622859  1
  O  O15  1  0.56170988  0.81260840  0.46622859  1
  O  O16  1  0.18739160  0.43829012  0.96622859  1
  O  O17  1  0.81260840  0.56170988  0.46622859  1
  O  O18  1  0.43829012  0.18739160  0.53377141  1
  O  O19  1  0.56170988  0.81260840  0.03377141  1
  O  O20  1  0.81260840  0.56170988  0.03377141  1
  O  O21  1  0.18739160  0.43829012  0.53377141  1
