# generated using pymatgen
data_KCd(BO2)3
_symmetry_space_group_name_H-M   'P 1'
_cell_length_a   7.56052219
_cell_length_b   7.56052219
_cell_length_c   12.41404401
_cell_angle_alpha   82.29743996
_cell_angle_beta   82.29743996
_cell_angle_gamma   123.18665558
_symmetry_Int_Tables_number   1
_chemical_formula_structural   KCd(BO2)3
_chemical_formula_sum   'K4 Cd4 B12 O24'
_cell_volume   569.80625252
_cell_formula_units_Z   4
loop_
 _symmetry_equiv_pos_site_id
 _symmetry_equiv_pos_as_xyz
  1  'x, y, z'
loop_
 _atom_site_type_symbol
 _atom_site_label
 _atom_site_symmetry_multiplicity
 _atom_site_fract_x
 _atom_site_fract_y
 _atom_site_fract_z
 _atom_site_occupancy
  K  K0  1  0.16538433  0.68051023  0.13192295  1
  K  K1  1  0.31948977  0.83461567  0.36807705  1
  K  K2  1  0.83461567  0.31948977  0.86807705  1
  K  K3  1  0.68051023  0.16538433  0.63192295  1
  Cd  Cd4  1  0.52102494  0.37264077  0.12230371  1
  Cd  Cd5  1  0.62735923  0.47897506  0.37769629  1
  Cd  Cd6  1  0.47897506  0.62735923  0.87769629  1
  Cd  Cd7  1  0.37264077  0.52102494  0.62230371  1
  B  B8  1  0.68247738  0.06849930  0.12630083  1
  B  B9  1  0.93150070  0.31752262  0.37369917  1
  B  B10  1  0.31752262  0.93150070  0.87369917  1
  B  B11  1  0.06849930  0.68247838  0.62630083  1
  B  B12  1  0.81719311  0.83987817  0.15689563  1
  B  B13  1  0.16012183  0.18280689  0.34310437  1
  B  B14  1  0.18280689  0.16012183  0.84310437  1
  B  B15  1  0.83987817  0.81719311  0.65689563  1
  B  B16  1  0.07673166  0.23579771  0.08777251  1
  B  B17  1  0.76420229  0.92326834  0.41222749  1
  B  B18  1  0.92326834  0.76420229  0.91222749  1
  B  B19  1  0.23579771  0.07673166  0.58777251  1
  O  O20  1  0.28066872  0.41541174  0.06073691  1
  O  O21  1  0.58458826  0.71933128  0.43926309  1
  O  O22  1  0.71933128  0.58458826  0.93926309  1
  O  O23  1  0.41541174  0.28066872  0.56073691  1
  O  O24  1  0.64747319  0.86638994  0.16436156  1
  O  O25  1  0.13361006  0.35252681  0.33563844  1
  O  O26  1  0.35252681  0.13361006  0.83563844  1
  O  O27  1  0.86638994  0.64747319  0.66436156  1
  O  O28  1  0.90091503  0.25205656  0.08769864  1
  O  O29  1  0.74794344  0.09908497  0.41230136  1
  O  O30  1  0.09908497  0.74794344  0.91230136  1
  O  O31  1  0.25205656  0.90091503  0.58769864  1
  O  O32  1  0.77938151  0.64323998  0.18404639  1
  O  O33  1  0.35676002  0.22061849  0.31595361  1
  O  O34  1  0.22061849  0.35676002  0.81595361  1
  O  O35  1  0.64323998  0.77938151  0.68404639  1
  O  O36  1  0.03099604  0.02853231  0.12022067  1
  O  O37  1  0.97146769  0.96900396  0.37977933  1
  O  O38  1  0.96900396  0.97146769  0.87977933  1
  O  O39  1  0.02853231  0.03099604  0.62022067  1
  O  O40  1  0.51514457  0.08129261  0.12730212  1
  O  O41  1  0.91870739  0.48485543  0.37269788  1
  O  O42  1  0.48485543  0.91870739  0.87269788  1
  O  O43  1  0.08129261  0.51514457  0.62730212  1
