# generated using pymatgen
data_Ba10MgMn6(O12F)2
_symmetry_space_group_name_H-M   'P 1'
_cell_length_a   8.18448380
_cell_length_b   10.49335718
_cell_length_c   10.62457574
_cell_angle_alpha   120.69574771
_cell_angle_beta   92.11077913
_cell_angle_gamma   89.74287865
_symmetry_Int_Tables_number   1
_chemical_formula_structural   Ba10MgMn6(O12F)2
_chemical_formula_sum   'Ba10 Mg1 Mn6 O24 F2'
_cell_volume   783.98054546
_cell_formula_units_Z   1
loop_
 _symmetry_equiv_pos_site_id
 _symmetry_equiv_pos_as_xyz
  1  'x, y, z'
loop_
 _atom_site_type_symbol
 _atom_site_label
 _atom_site_symmetry_multiplicity
 _atom_site_fract_x
 _atom_site_fract_y
 _atom_site_fract_z
 _atom_site_occupancy
  Ba  Ba0  1  0.49117520  0.66767537  0.32782481  1
  Ba  Ba1  1  0.01698238  0.33717728  0.67486679  1
  Ba  Ba2  1  0.51141987  0.34680760  0.68208804  1
  Ba  Ba3  1  0.97331792  0.67853868  0.34903959  1
  Ba  Ba4  1  0.83061721  0.23763158  0.97886899  1
  Ba  Ba5  1  0.74015866  0.01876935  0.25280186  1
  Ba  Ba6  1  0.76199489  0.73625675  0.74223018  1
  Ba  Ba7  1  0.25156518  0.77304659  0.01151958  1
  Ba  Ba8  1  0.26074149  0.98371252  0.73015556  1
  Ba  Ba9  1  0.17006241  0.23852861  0.25989814  1
  Mg  Mg10  1  0.46341981  0.23009796  0.07547002  1
  Mn  Mn11  1  0.74824423  0.97689865  0.60682402  1
  Mn  Mn12  1  0.74932560  0.39280046  0.36071853  1
  Mn  Mn13  1  0.75197854  0.63576056  0.03133142  1
  Mn  Mn14  1  0.23917437  0.01657341  0.39733806  1
  Mn  Mn15  1  0.25651759  0.60562106  0.63230301  1
  Mn  Mn16  1  0.28273692  0.36914252  0.96607335  1
  O  O17  1  0.76131568  0.16522868  0.68362242  1
  O  O18  1  0.75805057  0.32049103  0.47875379  1
  O  O19  1  0.76361541  0.52936174  0.84283674  1
  O  O20  1  0.23209463  0.82847137  0.32912705  1
  O  O21  1  0.25163799  0.67641771  0.51766133  1
  O  O22  1  0.31751899  0.40433886  0.15573204  1
  O  O23  1  0.72638765  0.88438779  0.41874646  1
  O  O24  1  0.71300190  0.58967589  0.46166783  1
  O  O25  1  0.74404092  0.53049475  0.11399262  1
  O  O26  1  0.29123181  0.11791229  0.58097870  1
  O  O27  1  0.25978247  0.41425140  0.54187251  1
  O  O28  1  0.26549594  0.48479714  0.88811617  1
  O  O29  1  0.59324892  0.92471260  0.67664257  1
  O  O30  1  0.64350570  0.23250030  0.19208308  1
  O  O31  1  0.58232465  0.74695032  0.08070300  1
  O  O32  1  0.05423021  0.08602958  0.37881443  1
  O  O33  1  0.08781895  0.66307123  0.74021487  1
  O  O34  1  0.10457972  0.25545178  0.87975851  1
  O  O35  1  0.37443993  0.04880528  0.29776850  1
  O  O36  1  0.42280523  0.67394809  0.75281196  1
  O  O37  1  0.45781569  0.24845221  0.89945895  1
  O  O38  1  0.92424212  0.91167702  0.64941071  1
  O  O39  1  0.93045644  0.39707625  0.27526498  1
  O  O40  1  0.92002694  0.75034708  0.10379694  1
  F  F41  1  0.33512045  0.05050301  0.00861076  1
  F  F42  1  0.94411181  0.03210864  0.04095112  1
