# generated using pymatgen
data_Ca(YTe2)2
_symmetry_space_group_name_H-M   'P 1'
_cell_length_a   4.41607288
_cell_length_b   7.55306176
_cell_length_c   7.72213294
_cell_angle_alpha   71.99367356
_cell_angle_beta   90.00000000
_cell_angle_gamma   90.00000000
_symmetry_Int_Tables_number   1
_chemical_formula_structural   Ca(YTe2)2
_chemical_formula_sum   'Ca1 Y2 Te4'
_cell_volume   244.95554978
_cell_formula_units_Z   1
loop_
 _symmetry_equiv_pos_site_id
 _symmetry_equiv_pos_as_xyz
  1  'x, y, z'
loop_
 _atom_site_type_symbol
 _atom_site_label
 _atom_site_symmetry_multiplicity
 _atom_site_fract_x
 _atom_site_fract_y
 _atom_site_fract_z
 _atom_site_occupancy
  Ca  Ca0  1  -0.00000000  0.50000000  0.50000000  1
  Y  Y1  1  -0.00000000  -0.00000000  0.00000000  1
  Y  Y2  1  0.50000000  0.50000000  0.00000000  1
  Te  Te3  1  0.50000000  0.75960116  0.24512297  1
  Te  Te4  1  0.00000000  0.25473780  0.23779220  1
  Te  Te5  1  0.50000000  0.24039884  0.75487703  1
  Te  Te6  1  -0.00000000  0.74526220  0.76220780  1
