# generated using pymatgen
data_CaNiF5
_symmetry_space_group_name_H-M   'P 1'
_cell_length_a   9.97211317
_cell_length_b   5.40091686
_cell_length_c   7.52521741
_cell_angle_alpha   69.83671269
_cell_angle_beta   90.00000000
_cell_angle_gamma   90.00000000
_symmetry_Int_Tables_number   1
_chemical_formula_structural   CaNiF5
_chemical_formula_sum   'Ca4 Ni4 F20'
_cell_volume   380.45831041
_cell_formula_units_Z   4
loop_
 _symmetry_equiv_pos_site_id
 _symmetry_equiv_pos_as_xyz
  1  'x, y, z'
loop_
 _atom_site_type_symbol
 _atom_site_label
 _atom_site_symmetry_multiplicity
 _atom_site_fract_x
 _atom_site_fract_y
 _atom_site_fract_z
 _atom_site_occupancy
  Ca  Ca0  1  0.02203520  0.53715032  0.74149752  1
  Ca  Ca1  1  0.52203520  0.46284968  0.75850248  1
  Ca  Ca2  1  0.97796480  0.46284968  0.25850248  1
  Ca  Ca3  1  0.47796480  0.53715032  0.24149752  1
  Ni  Ni4  1  0.75269051  0.11088293  0.60040451  1
  Ni  Ni5  1  0.25269051  0.88911707  0.89959549  1
  Ni  Ni6  1  0.24730949  0.88911707  0.39959549  1
  Ni  Ni7  1  0.74730949  0.11088293  0.10040451  1
  F  F8  1  0.87484890  0.40445310  0.55571036  1
  F  F9  1  0.37484890  0.59554690  0.94428964  1
  F  F10  1  0.12515110  0.59554690  0.44428964  1
  F  F11  1  0.62515110  0.40445310  0.05571036  1
  F  F12  1  0.61553408  0.36315147  0.50021382  1
  F  F13  1  0.11553408  0.63684853  -0.00021382  1
  F  F14  1  0.38446592  0.63684853  0.49978618  1
  F  F15  1  0.88446592  0.36315147  0.00021382  1
  F  F16  1  0.39612974  0.10343068  0.79951087  1
  F  F17  1  0.89612974  0.89656932  0.70048913  1
  F  F18  1  0.60387026  0.89656932  0.20048913  1
  F  F19  1  0.10387026  0.10343068  0.29951087  1
  F  F20  1  0.13750651  0.16282617  0.86913866  1
  F  F21  1  0.63750651  0.83717383  0.63086134  1
  F  F22  1  0.86249349  0.83717383  0.13086134  1
  F  F23  1  0.36249349  0.16282617  0.36913866  1
  F  F24  1  0.69310650  0.14120933  0.84211210  1
  F  F25  1  0.19310650  0.85879067  0.65788790  1
  F  F26  1  0.30689350  0.85879067  0.15788790  1
  F  F27  1  0.80689350  0.14120933  0.34211210  1
