# generated using pymatgen
data_Ca7SnN6
_symmetry_space_group_name_H-M   'P 1'
_cell_length_a   6.38072196
_cell_length_b   9.27812454
_cell_length_c   9.27812454
_cell_angle_alpha   79.36305082
_cell_angle_beta   69.88787339
_cell_angle_gamma   69.88787339
_symmetry_Int_Tables_number   1
_chemical_formula_structural   Ca7SnN6
_chemical_formula_sum   'Ca14 Sn2 N12'
_cell_volume   482.95693035
_cell_formula_units_Z   2
loop_
 _symmetry_equiv_pos_site_id
 _symmetry_equiv_pos_as_xyz
  1  'x, y, z'
loop_
 _atom_site_type_symbol
 _atom_site_label
 _atom_site_symmetry_multiplicity
 _atom_site_fract_x
 _atom_site_fract_y
 _atom_site_fract_z
 _atom_site_occupancy
  Ca  Ca0  1  0.28430471  0.95239129  0.04760871  1
  Ca  Ca1  1  0.71569529  0.04760871  0.95239129  1
  Ca  Ca2  1  0.21569529  0.45239129  0.54760871  1
  Ca  Ca3  1  0.78430471  0.54760871  0.45239129  1
  Ca  Ca4  1  0.74960662  0.15087648  0.59573543  1
  Ca  Ca5  1  0.50378148  0.59573543  0.15087648  1
  Ca  Ca6  1  0.75039338  0.90426457  0.34912352  1
  Ca  Ca7  1  0.99621852  0.34912352  0.90426457  1
  Ca  Ca8  1  0.25039338  0.84912352  0.40426457  1
  Ca  Ca9  1  0.49621852  0.40426457  0.84912352  1
  Ca  Ca10  1  0.24960662  0.09573543  0.65087648  1
  Ca  Ca11  1  0.00378148  0.65087648  0.09573543  1
  Ca  Ca12  1  0.25000000  0.25000000  0.25000000  1
  Ca  Ca13  1  0.75000000  0.75000000  0.75000000  1
  Sn  Sn14  1  0.75000000  0.25000000  0.25000000  1
  Sn  Sn15  1  0.25000000  0.75000000  0.75000000  1
  N  N16  1  0.02634291  0.06189797  0.29089984  1
  N  N17  1  0.62085828  0.29089984  0.06189797  1
  N  N18  1  0.47365709  0.20910016  0.43810203  1
  N  N19  1  0.87914172  0.43810203  0.20910016  1
  N  N20  1  0.97365709  0.93810203  0.70910016  1
  N  N21  1  0.37914172  0.70910016  0.93810203  1
  N  N22  1  0.52634291  0.79089984  0.56189797  1
  N  N23  1  0.12085828  0.56189797  0.79089984  1
  N  N24  1  0.87915410  0.34832980  0.65167020  1
  N  N25  1  0.12084590  0.65167020  0.34832980  1
  N  N26  1  0.62084590  0.84832980  0.15167020  1
  N  N27  1  0.37915410  0.15167020  0.84832980  1
