# generated using pymatgen
data_Cs2MoN(Cl2O)2
_symmetry_space_group_name_H-M   'P 1'
_cell_length_a   8.69725500
_cell_length_b   7.50270900
_cell_length_c   9.53451726
_cell_angle_alpha   67.05870698
_cell_angle_beta   90.00000000
_cell_angle_gamma   90.00000000
_symmetry_Int_Tables_number   1
_chemical_formula_structural   Cs2MoN(Cl2O)2
_chemical_formula_sum   'Cs4 Mo2 N2 Cl8 O4'
_cell_volume   572.94603277
_cell_formula_units_Z   2
loop_
 _symmetry_equiv_pos_site_id
 _symmetry_equiv_pos_as_xyz
  1  'x, y, z'
loop_
 _atom_site_type_symbol
 _atom_site_label
 _atom_site_symmetry_multiplicity
 _atom_site_fract_x
 _atom_site_fract_y
 _atom_site_fract_z
 _atom_site_occupancy
  Cs  Cs0  1  0.25000000  0.26155400  0.97499500  1
  Cs  Cs1  1  0.75000000  0.73844600  0.02500500  1
  Cs  Cs2  1  0.25000000  0.97383300  0.54626200  1
  Cs  Cs3  1  0.75000000  0.02616700  0.45373800  1
  Mo  Mo4  1  0.25000000  0.60626000  0.28938100  1
  Mo  Mo5  1  0.75000000  0.39374000  0.71061900  1
  N  N6  1  0.25000000  0.72598100  0.04833700  1
  N  N7  1  0.75000000  0.27401900  0.95166300  1
  Cl  Cl8  1  0.44875500  0.38453000  0.26132500  1
  Cl  Cl9  1  0.54657400  0.14628600  0.73838200  1
  Cl  Cl10  1  0.05124500  0.38453000  0.26132500  1
  Cl  Cl11  1  0.95342600  0.14628600  0.73838200  1
  Cl  Cl12  1  0.55124500  0.61547000  0.73867500  1
  Cl  Cl13  1  0.45342600  0.85371400  0.26161800  1
  Cl  Cl14  1  0.94875500  0.61547000  0.73867500  1
  Cl  Cl15  1  0.04657400  0.85371400  0.26161800  1
  O  O16  1  0.25000000  0.79587900  0.91154800  1
  O  O17  1  0.75000000  0.20412100  0.08845200  1
  O  O18  1  0.25000000  0.51046700  0.48615800  1
  O  O19  1  0.75000000  0.48953300  0.51384200  1
