# generated using pymatgen
data_LiZn(BH4)3
_symmetry_space_group_name_H-M   'P 1'
_cell_length_a   8.84007881
_cell_length_b   10.78584290
_cell_length_c   14.98312003
_cell_angle_alpha   90.00000000
_cell_angle_beta   90.00000000
_cell_angle_gamma   110.92074736
_symmetry_Int_Tables_number   1
_chemical_formula_structural   LiZn(BH4)3
_chemical_formula_sum   'Li8 Zn8 B24 H96'
_cell_volume   1334.42553509
_cell_formula_units_Z   8
loop_
 _symmetry_equiv_pos_site_id
 _symmetry_equiv_pos_as_xyz
  1  'x, y, z'
loop_
 _atom_site_type_symbol
 _atom_site_label
 _atom_site_symmetry_multiplicity
 _atom_site_fract_x
 _atom_site_fract_y
 _atom_site_fract_z
 _atom_site_occupancy
  Li  Li0  1  0.75052750  0.08402491  0.37164743  1
  Li  Li1  1  0.74947250  0.91597509  0.87164743  1
  Li  Li2  1  0.24947250  0.91597509  0.62835257  1
  Li  Li3  1  0.25052750  0.08402491  0.12835257  1
  Li  Li4  1  0.75605288  0.77420559  0.40482911  1
  Li  Li5  1  0.74394712  0.22579441  0.90482911  1
  Li  Li6  1  0.24394712  0.22579441  0.59517089  1
  Li  Li7  1  0.25605288  0.77420559  0.09517089  1
  Zn  Zn8  1  0.25259901  0.77065657  0.38673968  1
  Zn  Zn9  1  0.24740099  0.22934343  0.88673968  1
  Zn  Zn10  1  0.74740099  0.22934343  0.61326032  1
  Zn  Zn11  1  0.75259901  0.77065657  0.11326032  1
  Zn  Zn12  1  0.11124772  0.40998447  0.23214558  1
  Zn  Zn13  1  0.38875228  0.59001553  0.73214558  1
  Zn  Zn14  1  0.88875228  0.59001553  0.76785442  1
  Zn  Zn15  1  0.61124772  0.40998447  0.26785442  1
  B  B16  1  0.14569757  0.51674055  0.10495881  1
  B  B17  1  0.35430243  0.48325945  0.60495881  1
  B  B18  1  0.85430243  0.48325945  0.89504119  1
  B  B19  1  0.64569757  0.51674055  0.39504119  1
  B  B20  1  0.22455768  0.24467619  0.23761676  1
  B  B21  1  0.27544232  0.75532381  0.73761676  1
  B  B22  1  0.77544232  0.75532381  0.76238324  1
  B  B23  1  0.72455768  0.24467619  0.26238324  1
  B  B24  1  0.51083511  0.84648171  0.44138422  1
  B  B25  1  0.98916489  0.15351829  0.94138422  1
  B  B26  1  0.48916489  0.15351829  0.55861578  1
  B  B27  1  0.01083511  0.84648171  0.05861578  1
  B  B28  1  0.07160167  0.84391282  0.50024143  1
  B  B29  1  0.42839833  0.15608718  0.00024143  1
  B  B30  1  0.92839833  0.15608718  0.49975857  1
  B  B31  1  0.57160167  0.84391282  0.99975857  1
  B  B32  1  0.12713049  0.53112081  0.36820830  1
  B  B33  1  0.37286951  0.46887919  0.86820830  1
  B  B34  1  0.87286951  0.46887919  0.63179170  1
  B  B35  1  0.62713049  0.53112081  0.13179170  1
  B  B36  1  0.30882300  0.87178908  0.24178331  1
  B  B37  1  0.19117700  0.12821092  0.74178331  1
  B  B38  1  0.69117700  0.12821092  0.75821669  1
  B  B39  1  0.80882300  0.87178908  0.25821669  1
  H  H40  1  0.20292215  0.48796388  0.03918222  1
  H  H41  1  0.29707785  0.51203612  0.53918222  1
  H  H42  1  0.79707785  0.51203612  0.96081778  1
  H  H43  1  0.70292215  0.48796388  0.46081778  1
  H  H44  1  0.08927041  0.60418007  0.09796586  1
  H  H45  1  0.41072959  0.39581993  0.59796586  1
  H  H46  1  0.91072959  0.39581993  0.90203414  1
  H  H47  1  0.58927041  0.60418007  0.40203414  1
  H  H48  1  0.02297904  0.41613288  0.12351788  1
  H  H49  1  0.47702096  0.58386712  0.62351788  1
  H  H50  1  0.97702096  0.58386712  0.87648212  1
  H  H51  1  0.52297904  0.41613288  0.37648212  1
  H  H52  1  0.25355705  0.54811725  0.16376297  1
  H  H53  1  0.24644295  0.45188275  0.66376297  1
  H  H54  1  0.74644295  0.45188275  0.83623703  1
  H  H55  1  0.75355705  0.54811725  0.33623703  1
  H  H56  1  0.15294152  0.12597005  0.24674480  1
  H  H57  1  0.34705848  0.87402995  0.74674480  1
  H  H58  1  0.84705848  0.87402995  0.75325520  1
  H  H59  1  0.65294152  0.12597005  0.25325520  1
  H  H60  1  0.21281592  0.27969134  0.16103728  1
  H  H61  1  0.28718408  0.72030866  0.66103728  1
  H  H62  1  0.78718408  0.72030866  0.83896272  1
  H  H63  1  0.71281592  0.27969134  0.33896272  1
  H  H64  1  0.16307406  0.29308494  0.29802868  1
  H  H65  1  0.33692594  0.70691506  0.79802868  1
  H  H66  1  0.83692594  0.70691506  0.70197132  1
  H  H67  1  0.66307406  0.29308494  0.20197132  1
  H  H68  1  0.86838770  0.27649241  0.24240608  1
  H  H69  1  0.63161230  0.72350759  0.74240608  1
  H  H70  1  0.13161230  0.72350759  0.75759392  1
  H  H71  1  0.36838770  0.27649241  0.25759392  1
  H  H72  1  0.38437419  0.81557253  0.48709393  1
  H  H73  1  0.11562581  0.18442747  0.98709393  1
  H  H74  1  0.61562581  0.18442747  0.51290607  1
  H  H75  1  0.88437419  0.81557253  0.01290607  1
  H  H76  1  0.49152706  0.78634866  0.37028409  1
  H  H77  1  0.00847294  0.21365134  0.87028409  1
  H  H78  1  0.50847294  0.21365134  0.62971591  1
  H  H79  1  0.99152706  0.78634866  0.12971591  1
  H  H80  1  0.55654887  0.96564242  0.42966113  1
  H  H81  1  0.94345113  0.03435758  0.92966113  1
  H  H82  1  0.44345113  0.03435758  0.57033887  1
  H  H83  1  0.05654887  0.96564242  0.07033887  1
  H  H84  1  0.59819930  0.81116641  0.49018766  1
  H  H85  1  0.90180070  0.18883359  0.99018766  1
  H  H86  1  0.40180070  0.18883359  0.50981234  1
  H  H87  1  0.09819930  0.81116641  0.00981234  1
  H  H88  1  0.12089485  0.76868461  0.54217343  1
  H  H89  1  0.37910515  0.23131539  0.04217343  1
  H  H90  1  0.87910515  0.23131539  0.45782657  1
  H  H91  1  0.62089485  0.76868461  0.95782657  1
  H  H92  1  0.92417149  0.79197236  0.49500180  1
  H  H93  1  0.57582851  0.20802764  0.99500180  1
  H  H94  1  0.07582851  0.20802764  0.50499820  1
  H  H95  1  0.42417149  0.79197236  0.00499820  1
  H  H96  1  0.11030719  0.95396430  0.53442064  1
  H  H97  1  0.38969281  0.04603570  0.03442064  1
  H  H98  1  0.88969281  0.04603570  0.46557936  1
  H  H99  1  0.61030719  0.95396430  0.96557936  1
  H  H100  1  0.12998694  0.86762762  0.42281151  1
  H  H101  1  0.37001306  0.13237238  0.92281151  1
  H  H102  1  0.87001306  0.13237238  0.57718849  1
  H  H103  1  0.62998694  0.86762762  0.07718849  1
  H  H104  1  0.10013974  0.44201977  0.42026640  1
  H  H105  1  0.39986026  0.55798023  0.92026640  1
  H  H106  1  0.89986026  0.55798023  0.57973360  1
  H  H107  1  0.60013974  0.44201977  0.07973360  1
  H  H108  1  0.02976880  0.50360621  0.30310203  1
  H  H109  1  0.47023120  0.49639379  0.80310203  1
  H  H110  1  0.97023120  0.49639379  0.69689797  1
  H  H111  1  0.52976880  0.50360621  0.19689797  1
  H  H112  1  0.07748894  0.61397613  0.40397562  1
  H  H113  1  0.42251106  0.38602387  0.90397562  1
  H  H114  1  0.92251106  0.38602387  0.59602438  1
  H  H115  1  0.57748894  0.61397613  0.09602438  1
  H  H116  1  0.26926441  0.57427548  0.34394535  1
  H  H117  1  0.23073559  0.42572452  0.84394535  1
  H  H118  1  0.73073559  0.42572452  0.65605465  1
  H  H119  1  0.76926441  0.57427548  0.15605465  1
  H  H120  1  0.37820791  0.95542718  0.29656780  1
  H  H121  1  0.12179209  0.04457282  0.79656780  1
  H  H122  1  0.62179209  0.04457282  0.70343220  1
  H  H123  1  0.87820791  0.95542718  0.20343220  1
  H  H124  1  0.19439986  0.77323288  0.27134488  1
  H  H125  1  0.30560014  0.22676712  0.77134488  1
  H  H126  1  0.80560014  0.22676712  0.72865512  1
  H  H127  1  0.69439986  0.77323288  0.22865512  1
  H  H128  1  0.23315371  0.91674547  0.19108066  1
  H  H129  1  0.26684629  0.08325453  0.69108066  1
  H  H130  1  0.76684629  0.08325453  0.80891934  1
  H  H131  1  0.73315371  0.91674547  0.30891934  1
  H  H132  1  0.40340504  0.83049339  0.20363025  1
  H  H133  1  0.09659496  0.16950661  0.70363025  1
  H  H134  1  0.59659496  0.16950661  0.79636975  1
  H  H135  1  0.90340504  0.83049339  0.29636975  1
