# generated using pymatgen
data_NaLaMg14O16
_symmetry_space_group_name_H-M   'P 1'
_cell_length_a   8.70375084
_cell_length_b   8.83209706
_cell_length_c   4.40016688
_cell_angle_alpha   90.00000000
_cell_angle_beta   90.00000000
_cell_angle_gamma   90.00000000
_symmetry_Int_Tables_number   1
_chemical_formula_structural   NaLaMg14O16
_chemical_formula_sum   'Na1 La1 Mg14 O16'
_cell_volume   338.25126616
_cell_formula_units_Z   1
loop_
 _symmetry_equiv_pos_site_id
 _symmetry_equiv_pos_as_xyz
  1  'x, y, z'
loop_
 _atom_site_type_symbol
 _atom_site_label
 _atom_site_symmetry_multiplicity
 _atom_site_fract_x
 _atom_site_fract_y
 _atom_site_fract_z
 _atom_site_occupancy
  Na  Na0  1  0.00000000  0.50000000  -0.00000000  1
  La  La1  1  0.00000000  0.00000000  -0.00000000  1
  Mg  Mg2  1  0.50000000  0.00000000  -0.00000000  1
  Mg  Mg3  1  0.50000000  0.50000000  -0.00000000  1
  Mg  Mg4  1  0.00000000  0.27267378  0.50000000  1
  Mg  Mg5  1  0.00000000  0.72732622  0.50000000  1
  Mg  Mg6  1  0.50000000  0.25449185  0.50000000  1
  Mg  Mg7  1  0.50000000  0.74550815  0.50000000  1
  Mg  Mg8  1  0.26673576  0.00000000  0.50000000  1
  Mg  Mg9  1  0.24913140  0.50000000  0.50000000  1
  Mg  Mg10  1  0.73326424  0.00000000  0.50000000  1
  Mg  Mg11  1  0.75086860  0.50000000  0.50000000  1
  Mg  Mg12  1  0.25680569  0.26328304  0.00000000  1
  Mg  Mg13  1  0.25680569  0.73671696  0.00000000  1
  Mg  Mg14  1  0.74319431  0.26328304  -0.00000000  1
  Mg  Mg15  1  0.74319431  0.73671696  -0.00000000  1
  O  O16  1  0.27102173  0.00000000  -0.00000000  1
  O  O17  1  0.26765008  0.50000000  -0.00000000  1
  O  O18  1  0.72897827  0.00000000  0.00000000  1
  O  O19  1  0.73234992  0.50000000  0.00000000  1
  O  O20  1  0.24955951  0.24846891  0.50000000  1
  O  O21  1  0.24955951  0.75153109  0.50000000  1
  O  O22  1  0.75044049  0.24846891  0.50000000  1
  O  O23  1  0.75044049  0.75153109  0.50000000  1
  O  O24  1  0.00000000  0.00000000  0.50000000  1
  O  O25  1  0.00000000  0.50000000  0.50000000  1
  O  O26  1  0.50000000  0.00000000  0.50000000  1
  O  O27  1  0.50000000  0.50000000  0.50000000  1
  O  O28  1  0.00000000  0.25836205  -0.00000000  1
  O  O29  1  0.00000000  0.74163795  -0.00000000  1
  O  O30  1  0.50000000  0.25031505  -0.00000000  1
  O  O31  1  0.50000000  0.74968495  -0.00000000  1
