# generated using pymatgen
data_MgV6(HO3)6
_symmetry_space_group_name_H-M   'P 1'
_cell_length_a   5.15028633
_cell_length_b   8.65594805
_cell_length_c   7.71472172
_cell_angle_alpha   89.99473343
_cell_angle_beta   102.76040172
_cell_angle_gamma   90.00917213
_symmetry_Int_Tables_number   1
_chemical_formula_structural   MgV6(HO3)6
_chemical_formula_sum   'Mg1 V6 H6 O18'
_cell_volume   335.43277512
_cell_formula_units_Z   1
loop_
 _symmetry_equiv_pos_site_id
 _symmetry_equiv_pos_as_xyz
  1  'x, y, z'
loop_
 _atom_site_type_symbol
 _atom_site_label
 _atom_site_symmetry_multiplicity
 _atom_site_fract_x
 _atom_site_fract_y
 _atom_site_fract_z
 _atom_site_occupancy
  Mg  Mg0  1  0.72041600  0.74701000  0.51140800  1
  V  V1  1  0.44125100  0.44368200  0.18907900  1
  V  V2  1  0.51587900  0.95663800  0.82497400  1
  V  V3  1  0.51595800  0.53722400  0.82495300  1
  V  V4  1  0.44113800  0.05026800  0.18909100  1
  V  V5  1  0.94090000  0.24691900  0.09775700  1
  V  V6  1  0.02487600  0.74690300  0.91080500  1
  H  H7  1  0.05765500  0.15564100  0.59780900  1
  H  H8  1  0.80152600  0.24691900  0.44856900  1
  H  H9  1  0.05764000  0.33821600  0.59780700  1
  H  H10  1  0.06259200  0.65620100  0.33358200  1
  H  H11  1  0.25300200  0.74690500  0.61030200  1
  H  H12  1  0.06333200  0.83895400  0.33442800  1
  O  O13  1  0.67002700  0.40835400  0.00431600  1
  O  O14  1  0.29972900  0.91327900  0.99707600  1
  O  O15  1  0.29975700  0.58053400  0.99705800  1
  O  O16  1  0.66984200  0.08552100  0.00431600  1
  O  O17  1  0.14430400  0.41025100  0.25522800  1
  O  O18  1  0.79758100  0.89378100  0.73687800  1
  O  O19  1  0.79765500  0.60011400  0.73679100  1
  O  O20  1  0.14410400  0.08353700  0.25532600  1
  O  O21  1  0.62133600  0.24695800  0.27053600  1
  O  O22  1  0.33307900  0.74693300  0.74036700  1
  O  O23  1  0.15969500  0.24681800  0.96822900  1
  O  O24  1  0.83983600  0.74672900  0.06067700  1
  O  O25  1  0.60022100  0.56665200  0.34461200  1
  O  O26  1  0.32964200  0.05542500  0.66251500  1
  O  O27  1  0.32969800  0.43844400  0.66254500  1
  O  O28  1  0.60005300  0.92733200  0.34469000  1
  O  O29  1  0.93098000  0.24690900  0.57641500  1
  O  O30  1  0.07379400  0.74732700  0.41185900  1
