# generated using pymatgen
data_CaMn9CdO10
_symmetry_space_group_name_H-M   'P 1'
_cell_length_a   5.85868377
_cell_length_b   9.19199962
_cell_length_c   6.04749422
_cell_angle_alpha   70.68713065
_cell_angle_beta   111.48057626
_cell_angle_gamma   96.73630504
_symmetry_Int_Tables_number   1
_chemical_formula_structural   CaMn9CdO10
_chemical_formula_sum   'Ca1 Mn9 Cd1 O10'
_cell_volume   285.99835903
_cell_formula_units_Z   1
loop_
 _symmetry_equiv_pos_site_id
 _symmetry_equiv_pos_as_xyz
  1  'x, y, z'
loop_
 _atom_site_type_symbol
 _atom_site_label
 _atom_site_symmetry_multiplicity
 _atom_site_fract_x
 _atom_site_fract_y
 _atom_site_fract_z
 _atom_site_occupancy
  Ca  Ca0  1  0.15670400  0.79950400  0.00413100  1
  Mn  Mn1  1  0.49389000  0.38007400  0.32918400  1
  Mn  Mn2  1  0.96921100  0.09263800  0.98241700  1
  Mn  Mn3  1  0.51688400  0.00488700  0.43600200  1
  Mn  Mn4  1  0.96867600  0.50738700  0.27879900  1
  Mn  Mn5  1  0.02210100  0.17128600  0.46477200  1
  Mn  Mn6  1  0.49344600  0.21948800  0.90646200  1
  Mn  Mn7  1  0.51943800  0.59465100  0.64686200  1
  Mn  Mn8  1  0.02738300  0.42769400  0.84372400  1
  Mn  Mn9  1  0.91604700  0.79878900  0.42805700  1
  Cd  Cd10  1  0.61727400  0.80407400  0.96016500  1
  O  O11  1  0.76883000  0.05165800  0.22982600  1
  O  O12  1  0.71167600  0.41092700  0.01918200  1
  O  O13  1  0.70732000  0.18459600  0.62611000  1
  O  O14  1  0.76996400  0.54570700  0.48787700  1
  O  O15  1  0.23981100  0.20658900  0.20371100  1
  O  O16  1  0.26084900  0.80147100  0.41623400  1
  O  O17  1  0.77975000  0.79931800  0.68362800  1
  O  O18  1  0.21732300  0.04925800  0.83045700  1
  O  O19  1  0.24457600  0.39616400  0.61410400  1
  O  O20  1  0.21789500  0.55071600  0.08448700  1
