# generated using pymatgen
data_Mg14NiCO16
_symmetry_space_group_name_H-M   'P 1'
_cell_length_a   8.49655776
_cell_length_b   8.49229975
_cell_length_c   4.23157291
_cell_angle_alpha   90.00000000
_cell_angle_beta   90.00000000
_cell_angle_gamma   90.00000000
_symmetry_Int_Tables_number   1
_chemical_formula_structural   Mg14NiCO16
_chemical_formula_sum   'Mg14 Ni1 C1 O16'
_cell_volume   305.33047771
_cell_formula_units_Z   1
loop_
 _symmetry_equiv_pos_site_id
 _symmetry_equiv_pos_as_xyz
  1  'x, y, z'
loop_
 _atom_site_type_symbol
 _atom_site_label
 _atom_site_symmetry_multiplicity
 _atom_site_fract_x
 _atom_site_fract_y
 _atom_site_fract_z
 _atom_site_occupancy
  Mg  Mg0  1  0.50000000  0.00000000  0.00000000  1
  Mg  Mg1  1  0.50000000  0.50000000  0.00000000  1
  Mg  Mg2  1  0.00000000  0.25211948  0.50000000  1
  Mg  Mg3  1  0.00000000  0.74788052  0.50000000  1
  Mg  Mg4  1  0.50000000  0.25001999  0.50000000  1
  Mg  Mg5  1  0.50000000  0.74998001  0.50000000  1
  Mg  Mg6  1  0.24847721  0.00000000  0.50000000  1
  Mg  Mg7  1  0.24648372  0.50000000  0.50000000  1
  Mg  Mg8  1  0.75152279  0.00000000  0.50000000  1
  Mg  Mg9  1  0.75351628  0.50000000  0.50000000  1
  Mg  Mg10  1  0.24719507  0.25143452  0.00000000  1
  Mg  Mg11  1  0.24719507  0.74856548  0.00000000  1
  Mg  Mg12  1  0.75280493  0.25143452  0.00000000  1
  Mg  Mg13  1  0.75280493  0.74856548  0.00000000  1
  Ni  Ni14  1  0.00000000  0.00000000  0.00000000  1
  C  C15  1  0.00000000  0.50000000  0.00000000  1
  O  O16  1  0.24981594  0.00000000  0.00000000  1
  O  O17  1  0.25065447  0.50000000  0.00000000  1
  O  O18  1  0.75018406  0.00000000  0.00000000  1
  O  O19  1  0.74934553  0.50000000  0.00000000  1
  O  O20  1  0.24846037  0.25067166  0.50000000  1
  O  O21  1  0.24846037  0.74932834  0.50000000  1
  O  O22  1  0.75153963  0.25067166  0.50000000  1
  O  O23  1  0.75153963  0.74932834  0.50000000  1
  O  O24  1  0.00000000  0.00000000  0.50000000  1
  O  O25  1  0.00000000  0.50000000  0.50000000  1
  O  O26  1  0.50000000  0.00000000  0.50000000  1
  O  O27  1  0.50000000  0.50000000  0.50000000  1
  O  O28  1  0.00000000  0.24998020  0.00000000  1
  O  O29  1  0.00000000  0.75001980  0.00000000  1
  O  O30  1  0.50000000  0.25034582  0.00000000  1
  O  O31  1  0.50000000  0.74965418  0.00000000  1
