# generated using pymatgen
data_Fe(BO2)2
_symmetry_space_group_name_H-M   'P 1'
_cell_length_a   5.45047177
_cell_length_b   6.07202731
_cell_length_c   7.15696279
_cell_angle_alpha   86.12148828
_cell_angle_beta   101.78264828
_cell_angle_gamma   74.62456613
_symmetry_Int_Tables_number   1
_chemical_formula_structural   Fe(BO2)2
_chemical_formula_sum   'Fe4 B8 O16'
_cell_volume   221.70420321
_cell_formula_units_Z   4
loop_
 _symmetry_equiv_pos_site_id
 _symmetry_equiv_pos_as_xyz
  1  'x, y, z'
loop_
 _atom_site_type_symbol
 _atom_site_label
 _atom_site_symmetry_multiplicity
 _atom_site_fract_x
 _atom_site_fract_y
 _atom_site_fract_z
 _atom_site_occupancy
  Fe  Fe0  1  0.67738946  0.32265448  0.04834517  1
  Fe  Fe1  1  0.32253094  0.67741122  0.95166613  1
  Fe  Fe2  1  0.17743012  0.82262453  0.54832824  1
  Fe  Fe3  1  0.82261635  0.17733380  0.45167303  1
  B  B4  1  0.28569968  0.08380373  0.20845405  1
  B  B5  1  0.78568125  0.58378933  0.70843950  1
  B  B6  1  0.35538958  0.27606108  0.64527478  1
  B  B7  1  0.85538969  0.77602988  0.14525638  1
  B  B8  1  0.71429755  0.91621104  0.79152793  1
  B  B9  1  0.21431940  0.41619743  0.29156504  1
  B  B10  1  0.64461353  0.72393790  0.35473324  1
  B  B11  1  0.14461967  0.22395727  0.85473812  1
  O  O12  1  0.84103370  0.86005284  0.33705880  1
  O  O13  1  0.34104717  0.36007908  0.83707848  1
  O  O14  1  0.05129094  0.24420590  0.25641223  1
  O  O15  1  0.55127786  0.74421217  0.75638812  1
  O  O16  1  0.15895767  0.13994407  0.66293643  1
  O  O17  1  0.65895059  0.63993731  0.16292356  1
  O  O18  1  0.94870162  0.75579127  0.74358829  1
  O  O19  1  0.44873772  0.25578468  0.24363132  1
  O  O20  1  0.39072579  0.88001787  0.34883458  1
  O  O21  1  0.89069601  0.38000852  0.84885093  1
  O  O22  1  0.26222872  0.46019189  0.48880101  1
  O  O23  1  0.76224774  0.96019908  0.98880549  1
  O  O24  1  0.60931417  0.12000454  0.65114268  1
  O  O25  1  0.10928852  0.61996869  0.15115858  1
  O  O26  1  0.73775466  0.53976429  0.51117705  1
  O  O27  1  0.23777088  0.03982011  0.01121084  1
