# generated using pymatgen
data_Cs3Tm11Te18
_symmetry_space_group_name_H-M   'P 1'
_cell_length_a   13.58269723
_cell_length_b   13.58269723
_cell_length_c   20.33101432
_cell_angle_alpha   79.99853338
_cell_angle_beta   79.99853338
_cell_angle_gamma   18.45963277
_symmetry_Int_Tables_number   1
_chemical_formula_structural   Cs3Tm11Te18
_chemical_formula_sum   'Cs3 Tm11 Te18'
_cell_volume   1169.13074921
_cell_formula_units_Z   1
loop_
 _symmetry_equiv_pos_site_id
 _symmetry_equiv_pos_as_xyz
  1  'x, y, z'
loop_
 _atom_site_type_symbol
 _atom_site_label
 _atom_site_symmetry_multiplicity
 _atom_site_fract_x
 _atom_site_fract_y
 _atom_site_fract_z
 _atom_site_occupancy
  Cs  Cs0  1  0.00000000  0.00000000  -0.00000000  1
  Cs  Cs1  1  0.30407429  0.30407429  0.59163543  1
  Cs  Cs2  1  0.69592571  0.69592571  0.40836457  1
  Tm  Tm3  1  0.50000000  0.50000000  0.50000000  1
  Tm  Tm4  1  0.03242485  0.03242485  0.24120641  1
  Tm  Tm5  1  0.96757515  0.96757515  0.75879359  1
  Tm  Tm6  1  0.65354085  0.65354085  0.77525624  1
  Tm  Tm7  1  0.34645915  0.34645915  0.22474376  1
  Tm  Tm8  1  0.33766094  0.33766094  0.81824585  1
  Tm  Tm9  1  0.66233906  0.66233906  0.18175415  1
  Tm  Tm10  1  0.20352324  0.20352324  0.92885663  1
  Tm  Tm11  1  0.79647676  0.79647676  0.07114337  1
  Tm  Tm12  1  0.09278823  0.09278823  0.62705856  1
  Tm  Tm13  1  0.90721177  0.90721177  0.37294144  1
  Te  Te14  1  0.07590960  0.07590960  0.78065980  1
  Te  Te15  1  0.92409040  0.92409040  0.21934020  1
  Te  Te16  1  0.50559275  0.50559275  0.64984765  1
  Te  Te17  1  0.49440725  0.49440725  0.35015235  1
  Te  Te18  1  0.23183112  0.23183112  0.77774908  1
  Te  Te19  1  0.76816888  0.76816888  0.22225092  1
  Te  Te20  1  0.08018261  0.08018261  0.48472707  1
  Te  Te21  1  0.91981739  0.91981739  0.51527293  1
  Te  Te22  1  0.13403902  0.13403902  0.28089652  1
  Te  Te23  1  0.86596098  0.86596098  0.71910348  1
  Te  Te24  1  0.43881008  0.43881008  0.85980542  1
  Te  Te25  1  0.56118992  0.56118992  0.14019458  1
  Te  Te26  1  0.62898779  0.62898779  0.92915956  1
  Te  Te27  1  0.37101221  0.37101221  0.07084044  1
  Te  Te28  1  0.79105656  0.79105656  0.92249210  1
  Te  Te29  1  0.20894344  0.20894344  0.07750790  1
  Te  Te30  1  0.32839870  0.32839870  0.37894287  1
  Te  Te31  1  0.67160130  0.67160130  0.62105713  1
