# generated using pymatgen
data_HgB4O7
_symmetry_space_group_name_H-M   'P 1'
_cell_length_a   8.42213432
_cell_length_b   8.80698231
_cell_length_c   14.19380623
_cell_angle_alpha   90.00000000
_cell_angle_beta   90.00000000
_cell_angle_gamma   90.00000000
_symmetry_Int_Tables_number   1
_chemical_formula_structural   HgB4O7
_chemical_formula_sum   'Hg8 B32 O56'
_cell_volume   1052.80553501
_cell_formula_units_Z   8
loop_
 _symmetry_equiv_pos_site_id
 _symmetry_equiv_pos_as_xyz
  1  'x, y, z'
loop_
 _atom_site_type_symbol
 _atom_site_label
 _atom_site_symmetry_multiplicity
 _atom_site_fract_x
 _atom_site_fract_y
 _atom_site_fract_z
 _atom_site_occupancy
  Hg  Hg0  1  0.64285157  0.11271031  0.38308810  1
  Hg  Hg1  1  0.14285157  0.38728969  0.61691190  1
  Hg  Hg2  1  0.35714843  0.61271031  0.11691190  1
  Hg  Hg3  1  0.85714843  0.88728969  0.88308810  1
  Hg  Hg4  1  0.35714843  0.88728969  0.61691190  1
  Hg  Hg5  1  0.85714843  0.61271031  0.38308810  1
  Hg  Hg6  1  0.64285157  0.38728969  0.88308810  1
  Hg  Hg7  1  0.14285157  0.11271031  0.11691190  1
  B  B8  1  0.45767771  0.28196514  0.06200245  1
  B  B9  1  0.22164525  0.15133103  0.45005992  1
  B  B10  1  0.72164525  0.34866897  0.54994008  1
  B  B11  1  0.77835475  0.65133103  0.04994008  1
  B  B12  1  0.27835475  0.84866897  0.95005992  1
  B  B13  1  0.77835475  0.84866897  0.54994008  1
  B  B14  1  0.27835475  0.65133103  0.45005992  1
  B  B15  1  0.22164525  0.34866897  0.95005992  1
  B  B16  1  0.72164525  0.15133103  0.04994008  1
  B  B17  1  0.95767771  0.21803486  0.93799755  1
  B  B18  1  0.54232229  0.78196514  0.43799755  1
  B  B19  1  0.04232229  0.71803486  0.56200245  1
  B  B20  1  0.54232229  0.71803486  0.93799755  1
  B  B21  1  0.04232229  0.78196514  0.06200245  1
  B  B22  1  0.45767771  0.21803486  0.56200245  1
  B  B23  1  0.95767771  0.28196514  0.43799755  1
  B  B24  1  0.50993085  0.32812630  0.23477146  1
  B  B25  1  0.00993085  0.17187370  0.76522854  1
  B  B26  1  0.49006915  0.82812630  0.26522854  1
  B  B27  1  0.99006915  0.67187370  0.73477146  1
  B  B28  1  0.49006915  0.67187370  0.76522854  1
  B  B29  1  0.99006915  0.82812630  0.23477146  1
  B  B30  1  0.50993085  0.17187370  0.73477146  1
  B  B31  1  0.00993085  0.32812630  0.26522854  1
  B  B32  1  0.51965120  0.06309248  0.15992747  1
  B  B33  1  0.01965120  0.43690752  0.84007253  1
  B  B34  1  0.48034880  0.56309248  0.34007253  1
  B  B35  1  0.98034880  0.93690752  0.65992747  1
  B  B36  1  0.48034880  0.93690752  0.84007253  1
  B  B37  1  0.98034880  0.56309248  0.15992747  1
  B  B38  1  0.51965120  0.43690752  0.65992747  1
  B  B39  1  0.01965120  0.06309248  0.34007253  1
  O  O40  1  0.46387355  0.38189021  0.14814280  1
  O  O41  1  0.67642383  0.05359000  0.11822786  1
  O  O42  1  0.17642383  0.44641000  0.88177214  1
  O  O43  1  0.32357617  0.55359000  0.38177214  1
  O  O44  1  0.82357617  0.94641000  0.61822786  1
  O  O45  1  0.32357617  0.94641000  0.88177214  1
  O  O46  1  0.82357617  0.55359000  0.11822786  1
  O  O47  1  0.67642383  0.44641000  0.61822786  1
  O  O48  1  0.03757778  0.41665297  0.18939110  1
  O  O49  1  0.53757778  0.08334703  0.81060890  1
  O  O50  1  0.96242222  0.91665297  0.31060890  1
  O  O51  1  0.46242222  0.58334703  0.68939110  1
  O  O52  1  0.96242222  0.58334703  0.81060890  1
  O  O53  1  0.46242222  0.91665297  0.18939110  1
  O  O54  1  0.03757778  0.08334703  0.68939110  1
  O  O55  1  0.53757778  0.41665297  0.31060890  1
  O  O56  1  0.40596384  0.13183856  0.09232376  1
  O  O57  1  0.90596384  0.36816144  0.90767624  1
  O  O58  1  0.59403616  0.63183856  0.40767624  1
  O  O59  1  0.09403616  0.86816144  0.59232376  1
  O  O60  1  0.59403616  0.86816144  0.90767624  1
  O  O61  1  0.09403616  0.63183856  0.09232376  1
  O  O62  1  0.40596384  0.36816144  0.59232376  1
  O  O63  1  0.90596384  0.13183856  0.40767624  1
  O  O64  1  0.36600769  0.36240051  0.99286427  1
  O  O65  1  0.86600769  0.13759949  0.00713573  1
  O  O66  1  0.63399231  0.86240051  0.50713573  1
  O  O67  1  0.13399231  0.63759949  0.49286427  1
  O  O68  1  0.63399231  0.63759949  0.00713573  1
  O  O69  1  0.13399231  0.86240051  0.99286427  1
  O  O70  1  0.36600769  0.13759949  0.49286427  1
  O  O71  1  0.86600769  0.36240051  0.50713573  1
  O  O72  1  0.17642383  0.05359000  0.38177214  1
  O  O73  1  0.96387355  0.11810979  0.85185720  1
  O  O74  1  0.53612645  0.88189021  0.35185720  1
  O  O75  1  0.03612645  0.61810979  0.64814280  1
  O  O76  1  0.53612645  0.61810979  0.85185720  1
  O  O77  1  0.03612645  0.88189021  0.14814280  1
  O  O78  1  0.46387355  0.11810979  0.64814280  1
  O  O79  1  0.96387355  0.38189021  0.35185720  1
  O  O80  1  0.12021621  0.26723103  0.47731720  1
  O  O81  1  0.03063087  0.32714678  0.75626144  1
  O  O82  1  0.46936913  0.67285322  0.25626144  1
  O  O83  1  0.96936913  0.82714678  0.74373856  1
  O  O84  1  0.46936913  0.82714678  0.75626144  1
  O  O85  1  0.96936913  0.67285322  0.24373856  1
  O  O86  1  0.53063087  0.32714678  0.74373856  1
  O  O87  1  0.03063087  0.17285322  0.25626144  1
  O  O88  1  0.62021621  0.26723103  0.02268280  1
  O  O89  1  0.12021621  0.23276897  0.97731720  1
  O  O90  1  0.37978379  0.76723103  0.47731720  1
  O  O91  1  0.87978379  0.73276897  0.52268280  1
  O  O92  1  0.37978379  0.73276897  0.97731720  1
  O  O93  1  0.87978379  0.76723103  0.02268280  1
  O  O94  1  0.62021621  0.23276897  0.52268280  1
  O  O95  1  0.53063087  0.17285322  0.24373856  1
