# generated using pymatgen
data_Mg2H18Se2O17
_symmetry_space_group_name_H-M   'P 1'
_cell_length_a   7.28758913
_cell_length_b   10.54424330
_cell_length_c   20.18433212
_cell_angle_alpha   90.00000000
_cell_angle_beta   90.00000000
_cell_angle_gamma   102.51274269
_symmetry_Int_Tables_number   1
_chemical_formula_structural   Mg2H18Se2O17
_chemical_formula_sum   'Mg8 H72 Se8 O68'
_cell_volume   1514.16697682
_cell_formula_units_Z   4
loop_
 _symmetry_equiv_pos_site_id
 _symmetry_equiv_pos_as_xyz
  1  'x, y, z'
loop_
 _atom_site_type_symbol
 _atom_site_label
 _atom_site_symmetry_multiplicity
 _atom_site_fract_x
 _atom_site_fract_y
 _atom_site_fract_z
 _atom_site_occupancy
  Mg  Mg0  1  0.26146537  0.47686081  0.64968600  1
  Mg  Mg1  1  0.23853463  0.52313919  0.14968600  1
  Mg  Mg2  1  0.73853463  0.52313919  0.35031400  1
  Mg  Mg3  1  0.76146537  0.47686081  0.85031400  1
  Mg  Mg4  1  0.24420427  0.98391128  0.62075173  1
  Mg  Mg5  1  0.25579573  0.01608872  0.12075173  1
  Mg  Mg6  1  0.75579573  0.01608872  0.37924827  1
  Mg  Mg7  1  0.74420427  0.98391128  0.87924827  1
  H  H8  1  0.95580142  0.55342791  0.59443339  1
  H  H9  1  0.54419858  0.44657209  0.09443339  1
  H  H10  1  0.04419858  0.44657209  0.40556661  1
  H  H11  1  0.45580142  0.55342791  0.90556661  1
  H  H12  1  0.55617638  0.09619100  0.69005617  1
  H  H13  1  0.94382362  0.90380900  0.19005617  1
  H  H14  1  0.44382362  0.90380900  0.30994383  1
  H  H15  1  0.05617638  0.09619100  0.80994383  1
  H  H16  1  0.92802981  0.87189045  0.69438838  1
  H  H17  1  0.57197019  0.12810955  0.19438838  1
  H  H18  1  0.07197019  0.12810955  0.30561162  1
  H  H19  1  0.42802981  0.87189045  0.80561162  1
  H  H20  1  0.11091751  0.86599236  0.73533877  1
  H  H21  1  0.38908249  0.13400764  0.23533877  1
  H  H22  1  0.88908249  0.13400764  0.26466123  1
  H  H23  1  0.61091751  0.86599236  0.76466123  1
  H  H24  1  0.06275518  0.14986979  0.44457178  1
  H  H25  1  0.43724482  0.85013021  0.94457178  1
  H  H26  1  0.93724482  0.85013021  0.55542822  1
  H  H27  1  0.56275518  0.14986979  0.05542822  1
  H  H28  1  0.38774695  0.10649705  0.50496701  1
  H  H29  1  0.11225305  0.89350295  0.00496701  1
  H  H30  1  0.61225305  0.89350295  0.49503299  1
  H  H31  1  0.88774695  0.10649705  0.99503299  1
  H  H32  1  0.64524521  0.48171834  0.57318806  1
  H  H33  1  0.85475479  0.51828166  0.07318806  1
  H  H34  1  0.35475479  0.51828166  0.42681194  1
  H  H35  1  0.14524521  0.48171834  0.92681194  1
  H  H36  1  0.76936593  0.38300405  0.55105816  1
  H  H37  1  0.73063407  0.61699595  0.05105816  1
  H  H38  1  0.23063407  0.61699595  0.44894184  1
  H  H39  1  0.26936593  0.38300405  0.94894184  1
  H  H40  1  0.55659860  0.12544458  0.55700064  1
  H  H41  1  0.94340140  0.87455542  0.05700064  1
  H  H42  1  0.44340140  0.87455542  0.44299936  1
  H  H43  1  0.05659860  0.12544458  0.94299936  1
  H  H44  1  0.48074546  0.36797674  0.73345619  1
  H  H45  1  0.01925454  0.63202326  0.23345619  1
  H  H46  1  0.51925454  0.63202326  0.26654381  1
  H  H47  1  0.98074546  0.36797674  0.76654381  1
  H  H48  1  0.41561519  0.26471307  0.67904549  1
  H  H49  1  0.08438481  0.73528693  0.17904549  1
  H  H50  1  0.58438481  0.73528693  0.32095451  1
  H  H51  1  0.91561519  0.26471307  0.82095451  1
  H  H52  1  0.37747658  0.09106595  0.73736388  1
  H  H53  1  0.12252342  0.90893405  0.23736388  1
  H  H54  1  0.62252342  0.90893405  0.26263612  1
  H  H55  1  0.87747658  0.09106595  0.76263612  1
  H  H56  1  0.25255562  0.42385271  0.51776831  1
  H  H57  1  0.24744438  0.57614729  0.01776831  1
  H  H58  1  0.74744438  0.57614729  0.48223169  1
  H  H59  1  0.75255562  0.42385271  0.98223169  1
  H  H60  1  0.23124995  0.63925739  0.76171541  1
  H  H61  1  0.26875005  0.36074261  0.26171541  1
  H  H62  1  0.76875005  0.36074261  0.23828459  1
  H  H63  1  0.73124995  0.63925739  0.73828459  1
  H  H64  1  0.11463021  0.68086680  0.61008397  1
  H  H65  1  0.38536979  0.31913320  0.11008397  1
  H  H66  1  0.88536979  0.31913320  0.38991603  1
  H  H67  1  0.61463021  0.68086680  0.88991603  1
  H  H68  1  0.35054287  0.53934454  0.78096780  1
  H  H69  1  0.14945713  0.46065546  0.28096780  1
  H  H70  1  0.64945713  0.46065546  0.21903220  1
  H  H71  1  0.85054287  0.53934454  0.71903220  1
  H  H72  1  0.23645017  0.28767017  0.55744608  1
  H  H73  1  0.26354983  0.71232983  0.05744608  1
  H  H74  1  0.76354983  0.71232983  0.44255392  1
  H  H75  1  0.73645017  0.28767017  0.94255392  1
  H  H76  1  0.88664174  0.15938295  0.49152098  1
  H  H77  1  0.61335826  0.84061705  0.99152098  1
  H  H78  1  0.11335826  0.84061705  0.50847902  1
  H  H79  1  0.38664174  0.15938295  0.00847902  1
  Se  Se80  1  0.92184635  0.19728233  0.63363362  1
  Se  Se81  1  0.57815365  0.80271767  0.13363362  1
  Se  Se82  1  0.07815365  0.80271767  0.36636638  1
  Se  Se83  1  0.42184635  0.19728233  0.86636638  1
  Se  Se84  1  0.56798065  0.76591107  0.62786851  1
  Se  Se85  1  0.93201935  0.23408893  0.12786851  1
  Se  Se86  1  0.43201935  0.23408893  0.37213149  1
  Se  Se87  1  0.06798065  0.76591107  0.87213149  1
  O  O88  1  0.78595973  0.09563824  0.68604718  1
  O  O89  1  0.71404027  0.90436176  0.18604718  1
  O  O90  1  0.21404027  0.90436176  0.31395282  1
  O  O91  1  0.28595973  0.09563824  0.81395282  1
  O  O92  1  0.49253424  0.60816309  0.61026685  1
  O  O93  1  0.00746576  0.39183691  0.11026685  1
  O  O94  1  0.50746576  0.39183691  0.38973315  1
  O  O95  1  0.99253424  0.60816309  0.88973315  1
  O  O96  1  0.79394718  0.22128899  0.56689671  1
  O  O97  1  0.70605282  0.77871101  0.06689671  1
  O  O98  1  0.20605282  0.77871101  0.43310329  1
  O  O99  1  0.29394718  0.22128899  0.93310329  1
  O  O100  1  0.00669730  0.33816298  0.67302671  1
  O  O101  1  0.49330270  0.66183702  0.17302671  1
  O  O102  1  0.99330270  0.66183702  0.32697329  1
  O  O103  1  0.50669730  0.33816298  0.82697329  1
  O  O104  1  0.69494457  0.77979677  0.69869100  1
  O  O105  1  0.80505543  0.22020323  0.19869100  1
  O  O106  1  0.30505543  0.22020323  0.30130900  1
  O  O107  1  0.19494457  0.77979677  0.80130900  1
  O  O108  1  0.92367388  0.14188495  0.44586858  1
  O  O109  1  0.57632612  0.85811505  0.94586858  1
  O  O110  1  0.07632612  0.85811505  0.55413142  1
  O  O111  1  0.42367388  0.14188495  0.05413142  1
  O  O112  1  0.70405355  0.84001979  0.56630250  1
  O  O113  1  0.79594645  0.15998021  0.06630250  1
  O  O114  1  0.29594645  0.15998021  0.43369750  1
  O  O115  1  0.20405355  0.84001979  0.93369750  1
  O  O116  1  0.10092348  0.13749828  0.60497177  1
  O  O117  1  0.39907652  0.86250172  0.10497177  1
  O  O118  1  0.89907652  0.86250172  0.39502823  1
  O  O119  1  0.60092348  0.13749828  0.89502823  1
  O  O120  1  0.06821187  0.58977213  0.62266655  1
  O  O121  1  0.43178813  0.41022787  0.12266655  1
  O  O122  1  0.93178813  0.41022787  0.37733345  1
  O  O123  1  0.56821187  0.58977213  0.87733345  1
  O  O124  1  0.42018951  0.10030665  0.69016185  1
  O  O125  1  0.07981049  0.89969335  0.19016185  1
  O  O126  1  0.57981049  0.89969335  0.30983815  1
  O  O127  1  0.92018951  0.10030665  0.80983815  1
  O  O128  1  0.38131186  0.83013966  0.63891595  1
  O  O129  1  0.11868814  0.16986034  0.13891595  1
  O  O130  1  0.61868814  0.16986034  0.36108405  1
  O  O131  1  0.88131186  0.83013966  0.86108405  1
  O  O132  1  0.06453940  0.91104590  0.69787190  1
  O  O133  1  0.43546060  0.08895410  0.19787190  1
  O  O134  1  0.93546060  0.08895410  0.30212810  1
  O  O135  1  0.56453940  0.91104590  0.80212810  1
  O  O136  1  0.42409267  0.08123956  0.54974713  1
  O  O137  1  0.07590733  0.91876044  0.04974713  1
  O  O138  1  0.57590733  0.91876044  0.45025287  1
  O  O139  1  0.92409267  0.08123956  0.95025287  1
  O  O140  1  0.43371385  0.35962457  0.68766445  1
  O  O141  1  0.06628615  0.64037543  0.18766445  1
  O  O142  1  0.56628615  0.64037543  0.31233555  1
  O  O143  1  0.93371385  0.35962457  0.81233555  1
  O  O144  1  0.27765688  0.38289852  0.55999457  1
  O  O145  1  0.22234312  0.61710148  0.05999457  1
  O  O146  1  0.72234312  0.61710148  0.44000543  1
  O  O147  1  0.77765688  0.38289852  0.94000543  1
  O  O148  1  0.76295217  0.47629407  0.55057428  1
  O  O149  1  0.73704783  0.52370593  0.05057428  1
  O  O150  1  0.23704783  0.52370593  0.44942572  1
  O  O151  1  0.26295217  0.47629407  0.94942572  1
  O  O152  1  0.27263209  0.56075094  0.74517389  1
  O  O153  1  0.22736791  0.43924906  0.24517389  1
  O  O154  1  0.72736791  0.43924906  0.25482611  1
  O  O155  1  0.77263209  0.56075094  0.75482611  1
