# generated using pymatgen
data_Cs3SbSe4
_symmetry_space_group_name_H-M   'P 1'
_cell_length_a   10.31165988
_cell_length_b   10.61753373
_cell_length_c   12.09939640
_cell_angle_alpha   90.00000000
_cell_angle_beta   90.00000000
_cell_angle_gamma   90.00000000
_symmetry_Int_Tables_number   1
_chemical_formula_structural   Cs3SbSe4
_chemical_formula_sum   'Cs12 Sb4 Se16'
_cell_volume   1324.69511394
_cell_formula_units_Z   4
loop_
 _symmetry_equiv_pos_site_id
 _symmetry_equiv_pos_as_xyz
  1  'x, y, z'
loop_
 _atom_site_type_symbol
 _atom_site_label
 _atom_site_symmetry_multiplicity
 _atom_site_fract_x
 _atom_site_fract_y
 _atom_site_fract_z
 _atom_site_occupancy
  Cs  Cs0  1  0.05295927  0.19779048  0.95821599  1
  Cs  Cs1  1  0.64726970  0.08567276  0.25000000  1
  Cs  Cs2  1  0.35273030  0.91432724  0.75000000  1
  Cs  Cs3  1  0.85273030  0.58567276  0.75000000  1
  Cs  Cs4  1  0.14726970  0.41432724  0.25000000  1
  Cs  Cs5  1  0.55295927  0.30220952  0.54178401  1
  Cs  Cs6  1  0.44704073  0.69779048  0.04178401  1
  Cs  Cs7  1  0.94704073  0.80220952  0.45821599  1
  Cs  Cs8  1  0.94704073  0.80220952  0.04178401  1
  Cs  Cs9  1  0.44704073  0.69779048  0.45821599  1
  Cs  Cs10  1  0.55295927  0.30220952  0.95821599  1
  Cs  Cs11  1  0.05295927  0.19779048  0.54178401  1
  Sb  Sb12  1  0.77137861  0.02289580  0.75000000  1
  Sb  Sb13  1  0.72862139  0.52289580  0.25000000  1
  Sb  Sb14  1  0.27137861  0.47710420  0.75000000  1
  Sb  Sb15  1  0.22862139  0.97710420  0.25000000  1
  Se  Se16  1  0.65086135  0.96544035  0.92071470  1
  Se  Se17  1  0.15086135  0.53455965  0.57928530  1
  Se  Se18  1  0.84913865  0.46544035  0.07928530  1
  Se  Se19  1  0.34913865  0.03455965  0.42071470  1
  Se  Se20  1  0.34913865  0.03455965  0.07928530  1
  Se  Se21  1  0.84913865  0.46544035  0.42071470  1
  Se  Se22  1  0.15086135  0.53455965  0.92071470  1
  Se  Se23  1  0.65086135  0.96544035  0.57928530  1
  Se  Se24  1  0.01089833  0.08128234  0.25000000  1
  Se  Se25  1  0.80503960  0.25502265  0.75000000  1
  Se  Se26  1  0.48910167  0.58128234  0.75000000  1
  Se  Se27  1  0.98910167  0.91871766  0.75000000  1
  Se  Se28  1  0.19496040  0.74497735  0.25000000  1
  Se  Se29  1  0.69496040  0.75502265  0.25000000  1
  Se  Se30  1  0.30503960  0.24497735  0.75000000  1
  Se  Se31  1  0.51089833  0.41871766  0.25000000  1
