# generated using pymatgen
data_NdSI
_symmetry_space_group_name_H-M   'P 1'
_cell_length_a   7.07233898
_cell_length_b   7.30591205
_cell_length_c   14.36783311
_cell_angle_alpha   90.00000000
_cell_angle_beta   90.00000000
_cell_angle_gamma   90.00000000
_symmetry_Int_Tables_number   1
_chemical_formula_structural   NdSI
_chemical_formula_sum   'Nd8 S8 I8'
_cell_volume   742.38430713
_cell_formula_units_Z   8
loop_
 _symmetry_equiv_pos_site_id
 _symmetry_equiv_pos_as_xyz
  1  'x, y, z'
loop_
 _atom_site_type_symbol
 _atom_site_label
 _atom_site_symmetry_multiplicity
 _atom_site_fract_x
 _atom_site_fract_y
 _atom_site_fract_z
 _atom_site_occupancy
  Nd  Nd0  1  0.25855697  0.97068908  0.91656037  1
  Nd  Nd1  1  0.74144303  0.02931092  0.08343963  1
  Nd  Nd2  1  0.24144303  0.47068908  0.08343963  1
  Nd  Nd3  1  0.74144303  0.52931092  0.41656037  1
  Nd  Nd4  1  0.75855697  0.52931092  0.91656037  1
  Nd  Nd5  1  0.25855697  0.47068908  0.58343963  1
  Nd  Nd6  1  0.75855697  0.02931092  0.58343963  1
  Nd  Nd7  1  0.24144303  0.97068908  0.41656037  1
  S  S8  1  0.99879524  0.74117795  0.52334403  1
  S  S9  1  0.00120476  0.25882205  0.47665597  1
  S  S10  1  0.50120476  0.24117795  0.47665597  1
  S  S11  1  0.00120476  0.75882205  0.02334403  1
  S  S12  1  0.49879524  0.75882205  0.52334403  1
  S  S13  1  0.99879524  0.24117795  0.97665597  1
  S  S14  1  0.49879524  0.25882205  0.97665597  1
  S  S15  1  0.50120476  0.74117795  0.02334403  1
  I  I16  1  0.17416213  0.59881223  0.79814240  1
  I  I17  1  0.82583787  0.40118777  0.20185760  1
  I  I18  1  0.32583787  0.09881223  0.20185760  1
  I  I19  1  0.82583787  0.90118777  0.29814240  1
  I  I20  1  0.67416213  0.90118777  0.79814240  1
  I  I21  1  0.17416213  0.09881223  0.70185760  1
  I  I22  1  0.67416213  0.40118777  0.70185760  1
  I  I23  1  0.32583787  0.59881223  0.29814240  1
