# generated using pymatgen
data_Li3Mn2(PO4)3
_symmetry_space_group_name_H-M   'P 1'
_cell_length_a   8.54287316
_cell_length_b   12.50763504
_cell_length_c   8.64288025
_cell_angle_alpha   90.02659581
_cell_angle_beta   90.00638590
_cell_angle_gamma   92.05654160
_symmetry_Int_Tables_number   1
_chemical_formula_structural   Li3Mn2(PO4)3
_chemical_formula_sum   'Li12 Mn8 P12 O48'
_cell_volume   922.90667071
_cell_formula_units_Z   4
loop_
 _symmetry_equiv_pos_site_id
 _symmetry_equiv_pos_as_xyz
  1  'x, y, z'
loop_
 _atom_site_type_symbol
 _atom_site_label
 _atom_site_symmetry_multiplicity
 _atom_site_fract_x
 _atom_site_fract_y
 _atom_site_fract_z
 _atom_site_occupancy
  Li  Li0  1  0.08253900  0.69641500  0.09120300  1
  Li  Li1  1  0.08123200  0.75911500  0.69559000  1
  Li  Li2  1  0.21097800  0.17111500  0.78210300  1
  Li  Li3  1  0.28899000  0.32928500  0.28212500  1
  Li  Li4  1  0.41762400  0.73926500  0.19423100  1
  Li  Li5  1  0.41667100  0.80225900  0.59047900  1
  Li  Li6  1  0.58251500  0.19714900  0.40824400  1
  Li  Li7  1  0.58087900  0.26096700  0.80455600  1
  Li  Li8  1  0.71101700  0.67062900  0.71675400  1
  Li  Li9  1  0.78878900  0.82938200  0.21566700  1
  Li  Li10  1  0.91743500  0.23999700  0.30560900  1
  Li  Li11  1  0.91663300  0.30325900  0.90992600  1
  Mn  Mn12  1  0.24815600  0.90233000  0.03923900  1
  Mn  Mn13  1  0.25178400  0.59635800  0.53944600  1
  Mn  Mn14  1  0.25300700  0.39082900  0.95753500  1
  Mn  Mn15  1  0.24817300  0.11189400  0.45503000  1
  Mn  Mn16  1  0.75332500  0.89024200  0.54313600  1
  Mn  Mn17  1  0.74808300  0.61061100  0.04357800  1
  Mn  Mn18  1  0.74889400  0.40304500  0.46071800  1
  Mn  Mn19  1  0.74999300  0.09708800  0.95938000  1
  P  P20  1  0.96216300  0.50378500  0.75080900  1
  P  P21  1  0.89810900  0.13510000  0.61374100  1
  P  P22  1  0.90022700  0.84120900  0.90504200  1
  P  P23  1  0.60311000  0.36522700  0.11378300  1
  P  P24  1  0.60009300  0.65681100  0.40280700  1
  P  P25  1  0.53720200  0.99788200  0.24580700  1
  P  P26  1  0.46109800  0.00380800  0.74865100  1
  P  P27  1  0.39925900  0.34344800  0.59562400  1
  P  P28  1  0.03763300  0.49777100  0.25473000  1
  P  P29  1  0.10313300  0.86438700  0.38679500  1
  P  P30  1  0.39851800  0.63497800  0.88520000  1
  P  P31  1  0.10028100  0.15672300  0.09716500  1
  O  O32  1  0.17201800  0.44010200  0.17823700  1
  O  O33  1  0.91668500  0.14906900  0.10708700  1
  O  O34  1  0.92758500  0.40587400  0.32138100  1
  O  O35  1  0.92455700  0.83649800  0.40802500  1
  O  O36  1  0.89636800  0.42390800  0.62932300  1
  O  O37  1  0.87009500  0.01267000  0.61276800  1
  O  O38  1  0.86177700  0.17386000  0.78394000  1
  O  O39  1  0.85146000  0.80093300  0.74267400  1
  O  O40  1  0.05059300  0.43233500  0.86593900  1
  O  O41  1  0.08422500  0.85111100  0.89476300  1
  O  O42  1  0.07293300  0.59358800  0.68268200  1
  O  O43  1  0.07566500  0.16371400  0.59000300  1
  O  O44  1  0.10154200  0.57719100  0.37799700  1
  O  O45  1  0.13289400  0.98578500  0.39136700  1
  O  O46  1  0.14000600  0.82519400  0.21683600  1
  O  O47  1  0.13712500  0.24932000  0.97794200  1
  O  O48  1  0.15204700  0.19320200  0.26220300  1
  O  O49  1  0.94871300  0.56829900  0.13976600  1
  O  O50  1  0.17558000  0.05791000  0.03537200  1
  O  O51  1  0.19776900  0.80389700  0.50866100  1
  O  O52  1  0.30163100  0.69312300  0.00725300  1
  O  O53  1  0.32303600  0.44462800  0.53923300  1
  O  O54  1  0.32751800  0.06100500  0.66667300  1
  O  O55  1  0.36204900  0.67223500  0.71459500  1
  O  O56  1  0.35015100  0.30230500  0.75705900  1
  O  O57  1  0.37091400  0.51250000  0.88835100  1
  O  O58  1  0.36277300  0.25376600  0.47195200  1
  O  O59  1  0.39619200  0.92467900  0.87099000  1
  O  O60  1  0.42702900  0.90622500  0.17915700  1
  O  O61  1  0.41635700  0.64806100  0.39410200  1
  O  O62  1  0.42488000  0.33651300  0.09180300  1
  O  O63  1  0.44833500  0.06853500  0.36182900  1
  O  O64  1  0.55061500  0.93247500  0.63447800  1
  O  O65  1  0.57591000  0.66374000  0.90883300  1
  O  O66  1  0.58286300  0.35267100  0.60482300  1
  O  O67  1  0.57065700  0.09516700  0.81627200  1
  O  O68  1  0.59864400  0.07889300  0.12343900  1
  O  O69  1  0.63624200  0.74964100  0.52236400  1
  O  O70  1  0.63122800  0.48687400  0.11120500  1
  O  O71  1  0.65105600  0.69367400  0.23816200  1
  O  O72  1  0.64002300  0.32567400  0.28342300  1
  O  O73  1  0.67185500  0.94076800  0.32208800  1
  O  O74  1  0.67634800  0.55844000  0.46496000  1
  O  O75  1  0.69808500  0.30635200  0.99094100  1
  O  O76  1  0.80121300  0.19278000  0.49174600  1
  O  O77  1  0.82392800  0.94117400  0.96291400  1
  O  O78  1  0.82759300  0.56067500  0.83227800  1
  O  O79  1  0.86569700  0.75060400  0.02741400  1
