# generated using pymatgen
data_Nd2Si2O7
_symmetry_space_group_name_H-M   'P 1'
_cell_length_a   6.73920506
_cell_length_b   6.73920506
_cell_length_c   24.51274893
_cell_angle_alpha   90.00000000
_cell_angle_beta   90.00000000
_cell_angle_gamma   90.00000000
_symmetry_Int_Tables_number   1
_chemical_formula_structural   Nd2Si2O7
_chemical_formula_sum   'Nd16 Si16 O56'
_cell_volume   1113.29269528
_cell_formula_units_Z   8
loop_
 _symmetry_equiv_pos_site_id
 _symmetry_equiv_pos_as_xyz
  1  'x, y, z'
loop_
 _atom_site_type_symbol
 _atom_site_label
 _atom_site_symmetry_multiplicity
 _atom_site_fract_x
 _atom_site_fract_y
 _atom_site_fract_z
 _atom_site_occupancy
  Nd  Nd0  1  0.25892529  0.20461361  0.15476405  1
  Nd  Nd1  1  0.79538639  0.25892529  0.40476405  1
  Nd  Nd2  1  0.20461361  0.74107471  0.90476405  1
  Nd  Nd3  1  0.74107471  0.79538639  0.65476405  1
  Nd  Nd4  1  0.01939167  0.33688251  0.00592609  1
  Nd  Nd5  1  0.66311749  0.01939167  0.25592609  1
  Nd  Nd6  1  0.33688251  0.98060833  0.75592609  1
  Nd  Nd7  1  0.98060833  0.66311749  0.50592609  1
  Nd  Nd8  1  0.83300584  0.58069692  0.15346170  1
  Nd  Nd9  1  0.41930308  0.83300584  0.40346170  1
  Nd  Nd10  1  0.58069692  0.16699416  0.90346170  1
  Nd  Nd11  1  0.16699416  0.41930308  0.65346170  1
  Nd  Nd12  1  0.62402760  0.74231345  0.01420738  1
  Nd  Nd13  1  0.25768655  0.62402760  0.26420738  1
  Nd  Nd14  1  0.74231345  0.37597240  0.76420738  1
  Nd  Nd15  1  0.37597240  0.25768655  0.51420738  1
  Si  Si16  1  0.50475676  0.21135898  0.03278923  1
  Si  Si17  1  0.78864102  0.50475676  0.28278923  1
  Si  Si18  1  0.21135898  0.49524324  0.78278923  1
  Si  Si19  1  0.49524324  0.78864102  0.53278923  1
  Si  Si20  1  0.09761246  0.80694188  0.04067209  1
  Si  Si21  1  0.19305812  0.09761246  0.29067209  1
  Si  Si22  1  0.80694188  0.90238754  0.79067209  1
  Si  Si23  1  0.90238754  0.19305812  0.54067209  1
  Si  Si24  1  0.75830463  0.12324571  0.13173021  1
  Si  Si25  1  0.87675429  0.75830463  0.38173021  1
  Si  Si26  1  0.12324571  0.24169537  0.88173021  1
  Si  Si27  1  0.24169537  0.87675429  0.63173021  1
  Si  Si28  1  0.34923374  0.73958839  0.13889159  1
  Si  Si29  1  0.26041161  0.34923374  0.38889159  1
  Si  Si30  1  0.73958839  0.65076626  0.88889159  1
  Si  Si31  1  0.65076626  0.26041161  0.63889159  1
  O  O32  1  0.26081429  0.37953636  0.92173764  1
  O  O33  1  0.62046364  0.26081429  0.17173764  1
  O  O34  1  0.37953636  0.73918571  0.67173764  1
  O  O35  1  0.73918571  0.62046364  0.42173764  1
  O  O36  1  0.45746723  0.04798106  0.98638324  1
  O  O37  1  0.95201894  0.45746723  0.23638324  1
  O  O38  1  0.04798106  0.54253277  0.73638324  1
  O  O39  1  0.54253277  0.95201894  0.48638324  1
  O  O40  1  0.97628224  0.98497395  0.01343569  1
  O  O41  1  0.01502605  0.97628224  0.26343569  1
  O  O42  1  0.98497395  0.02371776  0.76343569  1
  O  O43  1  0.02371776  0.01502605  0.51343569  1
  O  O44  1  0.62027878  0.06741170  0.07838860  1
  O  O45  1  0.93258830  0.62027878  0.32838860  1
  O  O46  1  0.06741170  0.37972122  0.82838860  1
  O  O47  1  0.37972122  0.93258830  0.57838860  1
  O  O48  1  0.21539240  0.88033136  0.09707394  1
  O  O49  1  0.11966864  0.21539240  0.34707394  1
  O  O50  1  0.88033136  0.78460760  0.84707394  1
  O  O51  1  0.78460760  0.11966864  0.59707394  1
  O  O52  1  0.82626756  0.92919445  0.16445689  1
  O  O53  1  0.31010089  0.29840702  0.06158912  1
  O  O54  1  0.07080555  0.82626756  0.41445689  1
  O  O55  1  0.17373244  0.07080555  0.66445689  1
  O  O56  1  0.93330468  0.64052283  0.06002776  1
  O  O57  1  0.35947717  0.93330468  0.31002776  1
  O  O58  1  0.64052283  0.06669532  0.81002776  1
  O  O59  1  0.06669532  0.35947717  0.56002776  1
  O  O60  1  0.26424790  0.05921783  0.86226431  1
  O  O61  1  0.94078217  0.26424790  0.11226431  1
  O  O62  1  0.05921783  0.73575210  0.61226431  1
  O  O63  1  0.73575210  0.94078217  0.36226431  1
  O  O64  1  0.74439505  0.30975435  0.50198764  1
  O  O65  1  0.69024565  0.74439505  0.75198764  1
  O  O66  1  0.30975435  0.25560495  0.25198764  1
  O  O67  1  0.25560495  0.69024565  0.00198764  1
  O  O68  1  0.43889593  0.21471826  0.41362209  1
  O  O69  1  0.78528174  0.43889593  0.66362209  1
  O  O70  1  0.21471826  0.56110407  0.16362209  1
  O  O71  1  0.56110407  0.78528174  0.91362209  1
  O  O72  1  0.46051113  0.34182017  0.60656564  1
  O  O73  1  0.65817983  0.46051113  0.85656564  1
  O  O74  1  0.34182017  0.53948887  0.35656564  1
  O  O75  1  0.53948887  0.65817983  0.10656564  1
  O  O76  1  0.11090507  0.38950562  0.43990489  1
  O  O77  1  0.61049438  0.11090507  0.68990489  1
  O  O78  1  0.38950562  0.88909493  0.18990489  1
  O  O79  1  0.88909493  0.61049438  0.93990489  1
  O  O80  1  0.34717463  0.62566399  0.50601221  1
  O  O81  1  0.37433601  0.34717463  0.75601221  1
  O  O82  1  0.62566399  0.65282537  0.25601221  1
  O  O83  1  0.65282537  0.37433601  0.00601221  1
  O  O84  1  0.68989911  0.70159298  0.56158912  1
  O  O85  1  0.29840702  0.68989911  0.81158912  1
  O  O86  1  0.70159298  0.31010089  0.31158912  1
  O  O87  1  0.92919445  0.17373244  0.91445689  1
