# generated using pymatgen
data_MgFeO2
_symmetry_space_group_name_H-M   'P 1'
_cell_length_a   2.97602600
_cell_length_b   8.42984535
_cell_length_c   8.51982799
_cell_angle_alpha   85.45048007
_cell_angle_beta   80.14558081
_cell_angle_gamma   79.82260210
_symmetry_Int_Tables_number   1
_chemical_formula_structural   MgFeO2
_chemical_formula_sum   'Mg4 Fe4 O8'
_cell_volume   207.00794794
_cell_formula_units_Z   4
loop_
 _symmetry_equiv_pos_site_id
 _symmetry_equiv_pos_as_xyz
  1  'x, y, z'
loop_
 _atom_site_type_symbol
 _atom_site_label
 _atom_site_symmetry_multiplicity
 _atom_site_fract_x
 _atom_site_fract_y
 _atom_site_fract_z
 _atom_site_occupancy
  Mg  Mg0  1  0.57673700  0.92670500  0.28311500  1
  Mg  Mg1  1  0.42326300  0.07329500  0.71688500  1
  Mg  Mg2  1  0.20325200  0.28318000  0.37890200  1
  Mg  Mg3  1  0.79674800  0.71682000  0.62109800  1
  Fe  Fe4  1  0.17887600  0.80590000  0.94617400  1
  Fe  Fe5  1  0.40702900  0.61208700  0.29807300  1
  Fe  Fe6  1  0.59297100  0.38791300  0.70192700  1
  Fe  Fe7  1  0.82112400  0.19410000  0.05382600  1
  O  O8  1  0.41611700  0.23410900  0.90092400  1
  O  O9  1  0.20026300  0.56617200  0.66721800  1
  O  O10  1  0.79973700  0.43382800  0.33278200  1
  O  O11  1  0.58388300  0.76589100  0.09907600  1
  O  O12  1  0.80533000  0.89397900  0.77630800  1
  O  O13  1  0.95282100  0.79188000  0.39660300  1
  O  O14  1  0.19467000  0.10602100  0.22369200  1
  O  O15  1  0.04717900  0.20812000  0.60339700  1
