# generated using pymatgen
data_BaP3
_symmetry_space_group_name_H-M   'P 1'
_cell_length_a   6.58781623
_cell_length_b   7.82632956
_cell_length_c   8.22922964
_cell_angle_alpha   90.00000000
_cell_angle_beta   105.00292570
_cell_angle_gamma   90.00000000
_symmetry_Int_Tables_number   1
_chemical_formula_structural   BaP3
_chemical_formula_sum   'Ba4 P12'
_cell_volume   409.82327963
_cell_formula_units_Z   4
loop_
 _symmetry_equiv_pos_site_id
 _symmetry_equiv_pos_as_xyz
  1  'x, y, z'
loop_
 _atom_site_type_symbol
 _atom_site_label
 _atom_site_symmetry_multiplicity
 _atom_site_fract_x
 _atom_site_fract_y
 _atom_site_fract_z
 _atom_site_occupancy
  Ba  Ba0  1  0.31172796  0.88850762  0.69702331  1
  Ba  Ba1  1  0.68827204  0.38850762  0.80297669  1
  Ba  Ba2  1  0.68827204  0.11149238  0.30297669  1
  Ba  Ba3  1  0.31172796  0.61149238  0.19702331  1
  P  P4  1  0.03833272  0.36941992  0.55410925  1
  P  P5  1  0.96166728  0.86941992  0.94589075  1
  P  P6  1  0.96166728  0.63058008  0.44589075  1
  P  P7  1  0.03833272  0.13058008  0.05410925  1
  P  P8  1  0.18772462  0.45697355  0.81183253  1
  P  P9  1  0.81227538  0.95697355  0.68816747  1
  P  P10  1  0.81227538  0.54302645  0.18816747  1
  P  P11  1  0.18772462  0.04302645  0.31183253  1
  P  P12  1  0.29867964  0.22863566  0.95746134  1
  P  P13  1  0.70132036  0.72863566  0.54253866  1
  P  P14  1  0.70132036  0.77136434  0.04253866  1
  P  P15  1  0.29867964  0.27136434  0.45746134  1
