# generated using pymatgen
data_CsW3Br7
_symmetry_space_group_name_H-M   'P 1'
_cell_length_a   10.31802640
_cell_length_b   10.31840879
_cell_length_c   15.62753093
_cell_angle_alpha   89.99966506
_cell_angle_beta   89.99878257
_cell_angle_gamma   120.00017056
_symmetry_Int_Tables_number   1
_chemical_formula_structural   CsW3Br7
_chemical_formula_sum   'Cs4 W12 Br28'
_cell_volume   1440.88598419
_cell_formula_units_Z   4
loop_
 _symmetry_equiv_pos_site_id
 _symmetry_equiv_pos_as_xyz
  1  'x, y, z'
loop_
 _atom_site_type_symbol
 _atom_site_label
 _atom_site_symmetry_multiplicity
 _atom_site_fract_x
 _atom_site_fract_y
 _atom_site_fract_z
 _atom_site_occupancy
  Cs  Cs0  1  0.00001548  0.00001764  0.50017009  1
  Cs  Cs1  1  0.00001792  -0.00000688  0.00017065  1
  Cs  Cs2  1  0.66667131  0.33335050  0.74208981  1
  Cs  Cs3  1  0.33332710  0.66666650  0.24208245  1
  W  W4  1  0.47982566  0.66489035  0.68127619  1
  W  W5  1  0.33507568  0.81492332  0.68129220  1
  W  W6  1  0.18501470  0.52014621  0.68129284  1
  W  W7  1  0.66490278  0.47985050  0.18129337  1
  W  W8  1  0.52017681  0.18505569  0.18127883  1
  W  W9  1  0.81497981  0.33512316  0.18130138  1
  W  W10  1  0.51934286  0.33362311  0.31837615  1
  W  W11  1  0.66638835  0.18573414  0.31837697  1
  W  W12  1  0.81427309  0.48065379  0.31838064  1
  W  W13  1  0.33361950  0.51935060  0.81837561  1
  W  W14  1  0.48063432  0.81426480  0.81836515  1
  W  W15  1  0.18570742  0.66637380  0.81836813  1
  Br  Br16  1  0.33326133  0.66659122  0.54350928  1
  Br  Br17  1  0.66675176  0.33337944  0.04351078  1
  Br  Br18  1  0.66666638  0.33333221  0.45629280  1
  Br  Br19  1  0.33333699  0.66667456  0.95629404  1
  Br  Br20  1  0.63355466  0.96060237  0.67851724  1
  Br  Br21  1  0.03936345  0.67294813  0.67851826  1
  Br  Br22  1  0.32704648  0.36644435  0.67852154  1
  Br  Br23  1  0.96062522  0.63358560  0.17853966  1
  Br  Br24  1  0.36643381  0.32703948  0.17852442  1
  Br  Br25  1  0.67296932  0.03939588  0.17853226  1
  Br  Br26  1  0.36802007  0.03770352  0.32108677  1
  Br  Br27  1  0.96231087  0.33034424  0.32111082  1
  Br  Br28  1  0.66966881  0.63196998  0.32109472  1
  Br  Br29  1  0.03767755  0.36801965  0.82109757  1
  Br  Br30  1  0.63196663  0.66966872  0.82108125  1
  Br  Br31  1  0.33030966  0.96228559  0.82109412  1
  Br  Br32  1  0.68561966  0.65281902  0.58967424  1
  Br  Br33  1  0.34723733  0.03283612  0.58969812  1
  Br  Br34  1  0.96714637  0.31438490  0.58970014  1
  Br  Br35  1  0.65278894  0.68561295  0.08969778  1
  Br  Br36  1  0.31441717  0.96721855  0.08969116  1
  Br  Br37  1  0.03284074  0.34716454  0.08970674  1
  Br  Br38  1  0.31224496  0.34385896  0.40927865  1
  Br  Br39  1  0.65614308  0.96835486  0.40925179  1
  Br  Br40  1  0.03164849  0.68779467  0.40924394  1
  Br  Br41  1  0.34387730  0.31222933  0.90924387  1
  Br  Br42  1  0.68782151  0.03162238  0.90922552  1
  Br  Br43  1  0.96827665  0.65610156  0.90922806  1
