# generated using pymatgen
data_Nd3Si6N11
_symmetry_space_group_name_H-M   'P 1'
_cell_length_a   10.08133752
_cell_length_b   10.08133752
_cell_length_c   4.85728796
_cell_angle_alpha   90.00000000
_cell_angle_beta   90.00000000
_cell_angle_gamma   90.00000000
_symmetry_Int_Tables_number   1
_chemical_formula_structural   Nd3Si6N11
_chemical_formula_sum   'Nd6 Si12 N22'
_cell_volume   493.66252594
_cell_formula_units_Z   2
loop_
 _symmetry_equiv_pos_site_id
 _symmetry_equiv_pos_as_xyz
  1  'x, y, z'
loop_
 _atom_site_type_symbol
 _atom_site_label
 _atom_site_symmetry_multiplicity
 _atom_site_fract_x
 _atom_site_fract_y
 _atom_site_fract_z
 _atom_site_occupancy
  Nd  Nd0  1  0.18187468  0.68187468  0.00440210  1
  Nd  Nd1  1  0.81812532  0.31812532  0.00440210  1
  Nd  Nd2  1  0.68187468  0.81812532  0.00440210  1
  Nd  Nd3  1  0.31812532  0.18187468  0.00440210  1
  Nd  Nd4  1  0.00000000  0.00000000  0.98806484  1
  Nd  Nd5  1  0.50000000  0.50000000  0.98806484  1
  Si  Si6  1  0.61739544  0.11739544  0.04222295  1
  Si  Si7  1  0.38260456  0.88260456  0.04222295  1
  Si  Si8  1  0.11739544  0.38260456  0.04222295  1
  Si  Si9  1  0.88260456  0.61739544  0.04222295  1
  Si  Si10  1  0.07901474  0.20909060  0.53169373  1
  Si  Si11  1  0.92098526  0.79090940  0.53169373  1
  Si  Si12  1  0.20909060  0.92098526  0.53169373  1
  Si  Si13  1  0.42098526  0.70909060  0.53169373  1
  Si  Si14  1  0.79090940  0.07901474  0.53169373  1
  Si  Si15  1  0.57901474  0.29090940  0.53169373  1
  Si  Si16  1  0.29090940  0.42098526  0.53169373  1
  Si  Si17  1  0.70909060  0.57901474  0.53169373  1
  N  N18  1  0.17947864  0.07965871  0.64297706  1
  N  N19  1  0.82052136  0.92034129  0.64297706  1
  N  N20  1  0.07965871  0.82052136  0.64297706  1
  N  N21  1  0.32052136  0.57965871  0.64297706  1
  N  N22  1  0.92034129  0.17947864  0.64297706  1
  N  N23  1  0.67947864  0.42034129  0.64297706  1
  N  N24  1  0.42034129  0.32052136  0.64297706  1
  N  N25  1  0.57965871  0.67947864  0.64297706  1
  N  N26  1  0.00000000  0.50000000  0.07126765  1
  N  N27  1  0.50000000  0.00000000  0.07126765  1
  N  N28  1  0.07623651  0.22955315  0.17874507  1
  N  N29  1  0.92376349  0.77044685  0.17874507  1
  N  N30  1  0.22955315  0.92376349  0.17874507  1
  N  N31  1  0.42376349  0.72955315  0.17874507  1
  N  N32  1  0.77044685  0.07623651  0.17874507  1
  N  N33  1  0.57623651  0.27044685  0.17874507  1
  N  N34  1  0.27044685  0.42376349  0.17874507  1
  N  N35  1  0.72955315  0.57623651  0.17874507  1
  N  N36  1  0.65329014  0.15329014  0.69587848  1
  N  N37  1  0.34670986  0.84670986  0.69587848  1
  N  N38  1  0.15329014  0.34670986  0.69587848  1
  N  N39  1  0.84670986  0.65329014  0.69587848  1
