# generated using pymatgen
data_KNa4Cl5
_symmetry_space_group_name_H-M   'P 1'
_cell_length_a   16.82814893
_cell_length_b   16.82814893
_cell_length_c   16.82814856
_cell_angle_alpha   13.77024889
_cell_angle_beta   13.77024889
_cell_angle_gamma   13.77024853
_symmetry_Int_Tables_number   1
_chemical_formula_structural   KNa4Cl5
_chemical_formula_sum   'K1 Na4 Cl5'
_cell_volume   234.95532703
_cell_formula_units_Z   1
loop_
 _symmetry_equiv_pos_site_id
 _symmetry_equiv_pos_as_xyz
  1  'x, y, z'
loop_
 _atom_site_type_symbol
 _atom_site_label
 _atom_site_symmetry_multiplicity
 _atom_site_fract_x
 _atom_site_fract_y
 _atom_site_fract_z
 _atom_site_occupancy
  K  K0  1  0.00000000  0.00000000  -0.00000000  1
  Na  Na1  1  0.59544380  0.59544380  0.59544380  1
  Na  Na2  1  0.19867226  0.19867226  0.19867226  1
  Na  Na3  1  0.80132774  0.80132774  0.80132774  1
  Na  Na4  1  0.40455620  0.40455620  0.40455620  1
  Cl  Cl5  1  0.70639265  0.70639265  0.70639265  1
  Cl  Cl6  1  0.50000000  0.50000000  0.50000000  1
  Cl  Cl7  1  0.10293145  0.10293145  0.10293145  1
  Cl  Cl8  1  0.29360735  0.29360735  0.29360735  1
  Cl  Cl9  1  0.89706855  0.89706855  0.89706855  1
