# generated using pymatgen
data_La2ZrS5
_symmetry_space_group_name_H-M   'P 1'
_cell_length_a   7.43738499
_cell_length_b   8.22996241
_cell_length_c   11.57267077
_cell_angle_alpha   90.00000000
_cell_angle_beta   90.00000000
_cell_angle_gamma   90.00000000
_symmetry_Int_Tables_number   1
_chemical_formula_structural   La2ZrS5
_chemical_formula_sum   'La8 Zr4 S20'
_cell_volume   708.35622146
_cell_formula_units_Z   4
loop_
 _symmetry_equiv_pos_site_id
 _symmetry_equiv_pos_as_xyz
  1  'x, y, z'
loop_
 _atom_site_type_symbol
 _atom_site_label
 _atom_site_symmetry_multiplicity
 _atom_site_fract_x
 _atom_site_fract_y
 _atom_site_fract_z
 _atom_site_occupancy
  La  La0  1  0.55541689  0.00143516  0.32816966  1
  La  La1  1  0.94458311  0.49856484  0.82816966  1
  La  La2  1  0.44458311  0.50143516  0.67183034  1
  La  La3  1  0.05541689  0.99856484  0.17183034  1
  La  La4  1  0.44458311  0.99856484  0.67183034  1
  La  La5  1  0.05541689  0.50143516  0.17183034  1
  La  La6  1  0.55541689  0.49856484  0.32816966  1
  La  La7  1  0.94458311  0.00143516  0.82816966  1
  Zr  Zr8  1  0.57251897  0.75000000  0.00961290  1
  Zr  Zr9  1  0.92748103  0.75000000  0.50961290  1
  Zr  Zr10  1  0.42748103  0.25000000  0.99038710  1
  Zr  Zr11  1  0.07251897  0.25000000  0.49038710  1
  S  S12  1  0.83861004  0.75000000  0.29284539  1
  S  S13  1  0.66138996  0.75000000  0.79284539  1
  S  S14  1  0.16138996  0.25000000  0.70715461  1
  S  S15  1  0.33861004  0.25000000  0.20715461  1
  S  S16  1  0.67472847  0.03382405  0.07586033  1
  S  S17  1  0.82527153  0.46617595  0.57586033  1
  S  S18  1  0.32527153  0.53382405  0.92413967  1
  S  S19  1  0.17472847  0.96617595  0.42413967  1
  S  S20  1  0.32527153  0.96617595  0.92413967  1
  S  S21  1  0.17472847  0.53382405  0.42413967  1
  S  S22  1  0.67472847  0.46617595  0.07586033  1
  S  S23  1  0.82527153  0.03382405  0.57586033  1
  S  S24  1  0.35840235  0.75000000  0.19080478  1
  S  S25  1  0.14159765  0.75000000  0.69080478  1
  S  S26  1  0.64159765  0.25000000  0.80919522  1
  S  S27  1  0.85840235  0.25000000  0.30919522  1
  S  S28  1  0.94143699  0.75000000  0.00440594  1
  S  S29  1  0.55856301  0.75000000  0.50440594  1
  S  S30  1  0.05856301  0.25000000  0.99559406  1
  S  S31  1  0.44143699  0.25000000  0.49559406  1
