# generated using pymatgen
data_Li3Fe3(PO4)4
_symmetry_space_group_name_H-M   'P 1'
_cell_length_a   7.67575978
_cell_length_b   8.02218713
_cell_length_c   10.05826959
_cell_angle_alpha   90.49176945
_cell_angle_beta   94.87035307
_cell_angle_gamma   89.70310444
_symmetry_Int_Tables_number   1
_chemical_formula_structural   Li3Fe3(PO4)4
_chemical_formula_sum   'Li6 Fe6 P8 O32'
_cell_volume   617.08669384
_cell_formula_units_Z   2
loop_
 _symmetry_equiv_pos_site_id
 _symmetry_equiv_pos_as_xyz
  1  'x, y, z'
loop_
 _atom_site_type_symbol
 _atom_site_label
 _atom_site_symmetry_multiplicity
 _atom_site_fract_x
 _atom_site_fract_y
 _atom_site_fract_z
 _atom_site_occupancy
  Li  Li0  1  0.11238200  0.35848900  0.79512000  1
  Li  Li1  1  0.90555900  0.63357100  0.20762000  1
  Li  Li2  1  0.59251000  0.13389000  0.54229700  1
  Li  Li3  1  0.40634800  0.86403300  0.45516300  1
  Li  Li4  1  0.39157000  0.85939200  0.95473500  1
  Li  Li5  1  0.09438100  0.36246400  0.29621200  1
  Fe  Fe6  1  0.89890900  0.64059900  0.70315400  1
  Fe  Fe7  1  0.60420600  0.14416200  0.05344400  1
  Fe  Fe8  1  0.49132200  0.50830700  0.00193500  1
  Fe  Fe9  1  0.47866800  0.49142900  0.49752300  1
  Fe  Fe10  1  0.01862600  0.99029500  0.25233900  1
  Fe  Fe11  1  0.01204600  0.01473500  0.74626700  1
  P  P12  1  0.20381800  0.19830500  0.02082600  1
  P  P13  1  0.30106700  0.69581900  0.73095600  1
  P  P14  1  0.29834800  0.68581200  0.23303000  1
  P  P15  1  0.69754300  0.30469200  0.76503100  1
  P  P16  1  0.69712400  0.31311600  0.27321000  1
  P  P17  1  0.79610700  0.80545100  0.98779600  1
  P  P18  1  0.19938400  0.18807900  0.51426800  1
  P  P19  1  0.80590500  0.81592400  0.47716900  1
  O  O20  1  0.24160600  0.87145700  0.77406300  1
  O  O21  1  0.87452000  0.79892800  0.84833100  1
  O  O22  1  0.84788300  0.42971200  0.28086300  1
  O  O23  1  0.90209100  0.80746200  0.34889800  1
  O  O24  1  0.94672400  0.85733100  0.60011000  1
  O  O25  1  0.94503300  0.85782000  0.09129800  1
  O  O26  1  0.06268600  0.14293200  0.90892900  1
  O  O27  1  0.05196500  0.12933900  0.40498900  1
  O  O28  1  0.10967800  0.20105500  0.64695900  1
  O  O29  1  0.14088900  0.57621700  0.72067900  1
  O  O30  1  0.11672500  0.18871700  0.15345200  1
  O  O31  1  0.14640700  0.56807200  0.22082400  1
  O  O32  1  0.39117200  0.69244000  0.09959100  1
  O  O33  1  0.26313400  0.37460900  0.97897000  1
  O  O34  1  0.24960300  0.36636700  0.47111900  1
  O  O35  1  0.24660300  0.86754300  0.27285500  1
  O  O36  1  0.72561100  0.63336100  0.02640400  1
  O  O37  1  0.38547000  0.69123500  0.59666700  1
  O  O38  1  0.43963800  0.63852800  0.84267300  1
  O  O39  1  0.36412200  0.07851200  0.02748000  1
  O  O40  1  0.85068100  0.43128300  0.77970100  1
  O  O41  1  0.44719700  0.63264300  0.34192300  1
  O  O42  1  0.55276700  0.36184700  0.65995900  1
  O  O43  1  0.61560500  0.30461500  0.90470300  1
  O  O44  1  0.55478400  0.34957000  0.14897500  1
  O  O45  1  0.64552600  0.93569500  0.97356600  1
  O  O46  1  0.60093700  0.30498700  0.39983400  1
  O  O47  1  0.65172100  0.92982100  0.46665500  1
  O  O48  1  0.76350600  0.13175200  0.72671100  1
  O  O49  1  0.75752300  0.63523300  0.52798100  1
  O  O50  1  0.74982100  0.13186800  0.21870700  1
  O  O51  1  0.35254200  0.07048400  0.52803500  1
