# generated using pymatgen
data_Li4SnSe4
_symmetry_space_group_name_H-M   'P 1'
_cell_length_a   6.65846151
_cell_length_b   8.27806005
_cell_length_c   14.93335495
_cell_angle_alpha   90.00000000
_cell_angle_beta   90.00000000
_cell_angle_gamma   90.00000000
_symmetry_Int_Tables_number   1
_chemical_formula_structural   Li4SnSe4
_chemical_formula_sum   'Li16 Sn4 Se16'
_cell_volume   823.11374518
_cell_formula_units_Z   4
loop_
 _symmetry_equiv_pos_site_id
 _symmetry_equiv_pos_as_xyz
  1  'x, y, z'
loop_
 _atom_site_type_symbol
 _atom_site_label
 _atom_site_symmetry_multiplicity
 _atom_site_fract_x
 _atom_site_fract_y
 _atom_site_fract_z
 _atom_site_occupancy
  Li  Li0  1  -0.00000000  0.50000000  0.50000000  1
  Li  Li1  1  0.50000000  0.00000000  0.00000000  1
  Li  Li2  1  -0.00000000  0.00000000  0.50000000  1
  Li  Li3  1  0.50000000  0.50000000  0.00000000  1
  Li  Li4  1  0.82202262  0.49610588  0.67701236  1
  Li  Li5  1  0.67797738  0.00389412  0.17701236  1
  Li  Li6  1  0.17797738  0.99610588  0.32298764  1
  Li  Li7  1  0.32202262  0.50389412  0.82298764  1
  Li  Li8  1  0.17797738  0.50389412  0.32298764  1
  Li  Li9  1  0.32202262  0.99610588  0.82298764  1
  Li  Li10  1  0.82202262  0.00389412  0.67701236  1
  Li  Li11  1  0.67797738  0.49610588  0.17701236  1
  Li  Li12  1  0.37960852  0.75000000  0.58832976  1
  Li  Li13  1  0.12039148  0.75000000  0.08832976  1
  Li  Li14  1  0.62039148  0.25000000  0.41167024  1
  Li  Li15  1  0.87960852  0.25000000  0.91167024  1
  Sn  Sn16  1  0.64276896  0.75000000  0.40815762  1
  Sn  Sn17  1  0.85723104  0.75000000  0.90815762  1
  Sn  Sn18  1  0.35723104  0.25000000  0.59184238  1
  Sn  Sn19  1  0.14276896  0.25000000  0.09184238  1
  Se  Se20  1  0.77048915  0.75000000  0.56968426  1
  Se  Se21  1  0.72951085  0.75000000  0.06968426  1
  Se  Se22  1  0.22951085  0.25000000  0.43031574  1
  Se  Se23  1  0.27048915  0.25000000  0.93031574  1
  Se  Se24  1  0.78614919  0.49737216  0.33925059  1
  Se  Se25  1  0.71385081  0.00262784  0.83925059  1
  Se  Se26  1  0.21385081  0.99737216  0.66074941  1
  Se  Se27  1  0.28614919  0.50262784  0.16074941  1
  Se  Se28  1  0.21385081  0.50262784  0.66074941  1
  Se  Se29  1  0.28614919  0.99737216  0.16074941  1
  Se  Se30  1  0.78614919  0.00262784  0.33925059  1
  Se  Se31  1  0.71385081  0.49737216  0.83925059  1
  Se  Se32  1  0.26370717  0.75000000  0.41763062  1
  Se  Se33  1  0.23629283  0.75000000  0.91763062  1
  Se  Se34  1  0.73629283  0.25000000  0.58236938  1
  Se  Se35  1  0.76370717  0.25000000  0.08236938  1
