# generated using pymatgen
data_Ho2MoO6
_symmetry_space_group_name_H-M   'P 1'
_cell_length_a   9.82081783
_cell_length_b   9.82081783
_cell_length_c   5.31611533
_cell_angle_alpha   74.81329251
_cell_angle_beta   74.81329251
_cell_angle_gamma   67.88044095
_symmetry_Int_Tables_number   1
_chemical_formula_structural   Ho2MoO6
_chemical_formula_sum   'Ho8 Mo4 O24'
_cell_volume   450.69225880
_cell_formula_units_Z   4
loop_
 _symmetry_equiv_pos_site_id
 _symmetry_equiv_pos_as_xyz
  1  'x, y, z'
loop_
 _atom_site_type_symbol
 _atom_site_label
 _atom_site_symmetry_multiplicity
 _atom_site_fract_x
 _atom_site_fract_y
 _atom_site_fract_z
 _atom_site_occupancy
  Ho  Ho0  1  0.44925949  0.21647361  0.37824716  1
  Ho  Ho1  1  0.78352639  0.55074051  0.12175284  1
  Ho  Ho2  1  0.55074051  0.78352639  0.62175284  1
  Ho  Ho3  1  0.21647361  0.44925949  0.87824716  1
  Ho  Ho4  1  0.86329517  0.13670483  0.25000000  1
  Ho  Ho5  1  0.13670483  0.86329517  0.75000000  1
  Ho  Ho6  1  0.39266671  0.60733329  0.25000000  1
  Ho  Ho7  1  0.60733329  0.39266671  0.75000000  1
  Mo  Mo8  1  0.29506988  0.01470562  0.06229887  1
  Mo  Mo9  1  0.98529438  0.70493012  0.43770113  1
  Mo  Mo10  1  0.70493012  0.98529438  0.93770113  1
  Mo  Mo11  1  0.01470562  0.29506988  0.56229887  1
  O  O12  1  0.61063054  0.57251373  0.92031849  1
  O  O13  1  0.42748627  0.38936946  0.57968151  1
  O  O14  1  0.38936946  0.42748627  0.07968151  1
  O  O15  1  0.57251373  0.61063054  0.42031849  1
  O  O16  1  0.33703171  0.80673324  0.91704117  1
  O  O17  1  0.19326676  0.66296829  0.58295883  1
  O  O18  1  0.66296829  0.19326676  0.08295883  1
  O  O19  1  0.80673324  0.33703171  0.41704117  1
  O  O20  1  0.32598789  0.88564724  0.37015502  1
  O  O21  1  0.11435276  0.67401211  0.12984498  1
  O  O22  1  0.67401211  0.11435276  0.62984498  1
  O  O23  1  0.88564724  0.32598789  0.87015502  1
  O  O24  1  0.18475723  0.28758813  0.63940960  1
  O  O25  1  0.71241187  0.81524277  0.86059040  1
  O  O26  1  0.81524277  0.71241187  0.36059040  1
  O  O27  1  0.28758813  0.18475723  0.13940960  1
  O  O28  1  0.04867739  0.11111082  0.51493456  1
  O  O29  1  0.88888918  0.95132261  0.98506544  1
  O  O30  1  0.95132261  0.88888918  0.48506544  1
  O  O31  1  0.11111082  0.04867739  0.01493456  1
  O  O32  1  0.02453750  0.43220258  0.25852589  1
  O  O33  1  0.56779742  0.97546250  0.24147411  1
  O  O34  1  0.97546250  0.56779742  0.74147411  1
  O  O35  1  0.43220258  0.02453750  0.75852589  1
