# generated using pymatgen
data_LaTlGeSe4
_symmetry_space_group_name_H-M   'P 1'
_cell_length_a   7.24108463
_cell_length_b   11.60909862
_cell_length_c   19.55947728
_cell_angle_alpha   90.00000000
_cell_angle_beta   90.00000000
_cell_angle_gamma   90.00000000
_symmetry_Int_Tables_number   1
_chemical_formula_structural   LaTlGeSe4
_chemical_formula_sum   'La8 Tl8 Ge8 Se32'
_cell_volume   1644.21788572
_cell_formula_units_Z   8
loop_
 _symmetry_equiv_pos_site_id
 _symmetry_equiv_pos_as_xyz
  1  'x, y, z'
loop_
 _atom_site_type_symbol
 _atom_site_label
 _atom_site_symmetry_multiplicity
 _atom_site_fract_x
 _atom_site_fract_y
 _atom_site_fract_z
 _atom_site_occupancy
  La  La0  1  0.77084622  0.39325374  0.43404242  1
  La  La1  1  0.72915378  0.89325374  0.56595758  1
  La  La2  1  0.27084622  0.60674626  0.06595758  1
  La  La3  1  0.22915378  0.10674626  0.93404242  1
  La  La4  1  0.22915378  0.60674626  0.56595758  1
  La  La5  1  0.27084622  0.10674626  0.43404242  1
  La  La6  1  0.72915378  0.39325374  0.93404242  1
  La  La7  1  0.77084622  0.89325374  0.06595758  1
  Tl  Tl8  1  0.83028197  0.24525843  0.19814796  1
  Tl  Tl9  1  0.66971803  0.74525843  0.80185204  1
  Tl  Tl10  1  0.33028197  0.75474157  0.30185204  1
  Tl  Tl11  1  0.16971803  0.25474157  0.69814796  1
  Tl  Tl12  1  0.16971803  0.75474157  0.80185204  1
  Tl  Tl13  1  0.33028197  0.25474157  0.19814796  1
  Tl  Tl14  1  0.66971803  0.24525843  0.69814796  1
  Tl  Tl15  1  0.83028197  0.74525843  0.30185204  1
  Ge  Ge16  1  0.78371987  0.55596402  0.11272754  1
  Ge  Ge17  1  0.71628013  0.05596402  0.88727246  1
  Ge  Ge18  1  0.28371987  0.44403598  0.38727246  1
  Ge  Ge19  1  0.21628013  0.94403598  0.61272754  1
  Ge  Ge20  1  0.21628013  0.44403598  0.88727246  1
  Ge  Ge21  1  0.28371987  0.94403598  0.11272754  1
  Ge  Ge22  1  0.71628013  0.55596402  0.61272754  1
  Ge  Ge23  1  0.78371987  0.05596402  0.38727246  1
  Se  Se24  1  0.09212406  0.29535082  0.34116281  1
  Se  Se25  1  0.40787594  0.79535082  0.65883719  1
  Se  Se26  1  0.59212406  0.70464918  0.15883719  1
  Se  Se27  1  0.90787594  0.20464918  0.84116281  1
  Se  Se28  1  0.90787594  0.70464918  0.65883719  1
  Se  Se29  1  0.59212406  0.20464918  0.34116281  1
  Se  Se30  1  0.40787594  0.29535082  0.84116281  1
  Se  Se31  1  0.09212406  0.79535082  0.15883719  1
  Se  Se32  1  0.07103824  0.09383120  0.08290986  1
  Se  Se33  1  0.42896176  0.59383120  0.91709014  1
  Se  Se34  1  0.57103824  0.90616880  0.41709014  1
  Se  Se35  1  0.92896176  0.40616880  0.58290986  1
  Se  Se36  1  0.92896176  0.90616880  0.91709014  1
  Se  Se37  1  0.57103824  0.40616880  0.08290986  1
  Se  Se38  1  0.42896176  0.09383120  0.58290986  1
  Se  Se39  1  0.07103824  0.59383120  0.41709014  1
  Se  Se40  1  0.87802802  0.14084246  0.49449754  1
  Se  Se41  1  0.62197198  0.64084246  0.50550246  1
  Se  Se42  1  0.37802802  0.85915754  0.00550246  1
  Se  Se43  1  0.12197198  0.35915754  0.99449754  1
  Se  Se44  1  0.12197198  0.85915754  0.50550246  1
  Se  Se45  1  0.37802802  0.35915754  0.49449754  1
  Se  Se46  1  0.62197198  0.14084246  0.99449754  1
  Se  Se47  1  0.87802802  0.64084246  0.00550246  1
  Se  Se48  1  0.03415481  0.49875304  0.18308721  1
  Se  Se49  1  0.46584519  0.99875304  0.81691279  1
  Se  Se50  1  0.53415481  0.50124696  0.31691279  1
  Se  Se51  1  0.96584519  0.00124696  0.68308721  1
  Se  Se52  1  0.96584519  0.50124696  0.81691279  1
  Se  Se53  1  0.53415481  0.00124696  0.18308721  1
  Se  Se54  1  0.46584519  0.49875304  0.68308721  1
  Se  Se55  1  0.03415481  0.99875304  0.31691279  1
