# generated using pymatgen
data_Na3Si2PO8
_symmetry_space_group_name_H-M   'P 1'
_cell_length_a   7.18435045
_cell_length_b   12.30660390
_cell_length_c   10.85181525
_cell_angle_alpha   89.94213493
_cell_angle_beta   90.00713177
_cell_angle_gamma   89.99407532
_symmetry_Int_Tables_number   1
_chemical_formula_structural   Na3Si2PO8
_chemical_formula_sum   'Na12 Si8 P4 O32'
_cell_volume   959.46225719
_cell_formula_units_Z   4
loop_
 _symmetry_equiv_pos_site_id
 _symmetry_equiv_pos_as_xyz
  1  'x, y, z'
loop_
 _atom_site_type_symbol
 _atom_site_label
 _atom_site_symmetry_multiplicity
 _atom_site_fract_x
 _atom_site_fract_y
 _atom_site_fract_z
 _atom_site_occupancy
  Na  Na0  1  0.05044749  0.65237819  0.72204848  1
  Na  Na1  1  0.94977658  0.84745197  0.22202606  1
  Na  Na2  1  0.70345335  0.12082643  0.71282167  1
  Na  Na3  1  0.35780335  0.68353454  0.21715799  1
  Na  Na4  1  0.79569526  0.62096283  0.28660184  1
  Na  Na5  1  0.85772656  0.31642213  0.28282798  1
  Na  Na6  1  0.44981622  0.15248323  0.27796762  1
  Na  Na7  1  0.14225609  0.18335309  0.78248547  1
  Na  Na8  1  0.20291215  0.87921230  0.78753370  1
  Na  Na9  1  0.29566790  0.37900385  0.21330787  1
  Na  Na10  1  0.64211608  0.81668373  0.71751347  1
  Na  Na11  1  0.55037544  0.34766596  0.77787723  1
  Si  Si12  1  0.52904847  0.40951080  0.45865266  1
  Si  Si13  1  0.11048592  0.13207629  0.11189254  1
  Si  Si14  1  0.97111376  0.90947012  0.54144080  1
  Si  Si15  1  0.88981656  0.36795409  0.61176068  1
  Si  Si16  1  0.38983865  0.63207630  0.88825304  1
  Si  Si17  1  0.47107264  0.09055249  0.95861824  1
  Si  Si18  1  0.02912770  0.59050717  0.04125926  1
  Si  Si19  1  0.61058762  0.86789651  0.38809010  1
  P  P20  1  0.63663163  0.52881927  0.99622306  1
  P  P21  1  0.36409005  0.97065644  0.49667644  1
  P  P22  1  0.13649520  0.47114894  0.50363294  1
  P  P23  1  0.86398305  0.02924752  0.00342500  1
  O  O24  1  0.95112232  0.80875900  0.63312743  1
  O  O25  1  0.42250109  0.96740364  0.90311125  1
  O  O26  1  0.57660919  0.53266271  0.40253887  1
  O  O27  1  0.04890325  0.69131880  0.13260055  1
  O  O28  1  0.92247681  0.03267230  0.59680614  1
  O  O29  1  0.16977996  0.91429128  0.45622297  1
  O  O30  1  0.40417360  0.52340628  0.32154544  1
  O  O31  1  0.50718141  0.64067832  0.02478323  1
  O  O32  1  0.61445380  0.77658333  0.28624257  1
  O  O33  1  0.17560077  0.59660222  0.92072219  1
  O  O34  1  0.38537954  0.72392923  0.78690760  1
  O  O35  1  0.45116907  0.19132339  0.86697936  1
  O  O36  1  0.83066135  0.58567165  0.95587570  1
  O  O37  1  0.09479704  0.02343147  0.67800407  1
  O  O38  1  0.07650381  0.46733684  0.09741662  1
  O  O39  1  0.67551605  0.40332969  0.57923036  1
  O  O40  1  0.33060723  0.41438735  0.54404362  1
  O  O41  1  0.52830063  0.52174592  0.85737410  1
  O  O42  1  0.59492237  0.97659928  0.82204987  1
  O  O43  1  0.82505347  0.90282741  0.42057224  1
  O  O44  1  0.90416222  0.47655333  0.17845638  1
  O  O45  1  0.88554482  0.27622244  0.71320125  1
  O  O46  1  0.02821561  0.47835793  0.64247125  1
  O  O47  1  0.66968830  0.08564192  0.04390269  1
  O  O48  1  0.32494397  0.09713643  0.07941638  1
  O  O49  1  0.00712297  0.35924311  0.47522822  1
  O  O50  1  0.11437452  0.22344222  0.21369359  1
  O  O51  1  0.54881271  0.30868160  0.36731880  1
  O  O52  1  0.47224689  0.97850840  0.35785773  1
  O  O53  1  0.49338391  0.85857926  0.52456688  1
  O  O54  1  0.97224415  0.02147286  0.14222772  1
  O  O55  1  0.99320946  0.14130720  0.97541176  1
