# generated using pymatgen
data_NiSeO4
_symmetry_space_group_name_H-M   'P 1'
_cell_length_a   4.89335023
_cell_length_b   4.89335010
_cell_length_c   6.28119404
_cell_angle_alpha   90.00000000
_cell_angle_beta   90.00000000
_cell_angle_gamma   112.66744825
_symmetry_Int_Tables_number   1
_chemical_formula_structural   NiSeO4
_chemical_formula_sum   'Ni2 Se2 O8'
_cell_volume   138.78490608
_cell_formula_units_Z   2
loop_
 _symmetry_equiv_pos_site_id
 _symmetry_equiv_pos_as_xyz
  1  'x, y, z'
loop_
 _atom_site_type_symbol
 _atom_site_label
 _atom_site_symmetry_multiplicity
 _atom_site_fract_x
 _atom_site_fract_y
 _atom_site_fract_z
 _atom_site_occupancy
  Ni  Ni0  1  0.00000000  -0.00000000  -0.00000000  1
  Ni  Ni1  1  0.00000000  -0.00000000  0.50000000  1
  Se  Se2  1  0.35132434  0.64867766  0.75000000  1
  Se  Se3  1  0.64867666  0.35132434  0.25000000  1
  O  O4  1  0.22778444  0.27519173  0.75000000  1
  O  O5  1  0.77221556  0.72480727  0.25000000  1
  O  O6  1  0.27519073  0.22778444  0.25000000  1
  O  O7  1  0.72480727  0.77221556  0.75000000  1
  O  O8  1  0.24490580  0.75509420  0.97073644  1
  O  O9  1  0.75509320  0.24490480  0.47073544  1
  O  O10  1  0.24490580  0.75509420  0.52926456  1
  O  O11  1  0.75509320  0.24490480  0.02926356  1
