# generated using pymatgen
data_Ca7Mg2N6
_symmetry_space_group_name_H-M   'P 1'
_cell_length_a   7.03587748
_cell_length_b   12.66041259
_cell_length_c   6.42327299
_cell_angle_alpha   89.99999681
_cell_angle_beta   88.00438152
_cell_angle_gamma   25.88082486
_symmetry_Int_Tables_number   1
_chemical_formula_structural   Ca7Mg2N6
_chemical_formula_sum   'Ca7 Mg2 N6'
_cell_volume   248.95509283
_cell_formula_units_Z   1
loop_
 _symmetry_equiv_pos_site_id
 _symmetry_equiv_pos_as_xyz
  1  'x, y, z'
loop_
 _atom_site_type_symbol
 _atom_site_label
 _atom_site_symmetry_multiplicity
 _atom_site_fract_x
 _atom_site_fract_y
 _atom_site_fract_z
 _atom_site_occupancy
  Ca  Ca0  1  0.00000000  0.50000000  0.00000000  1
  Ca  Ca1  1  0.00000000  0.37754938  0.50000000  1
  Ca  Ca2  1  0.00000000  0.62245062  0.50000000  1
  Ca  Ca3  1  0.69960881  0.97767493  0.82512974  1
  Ca  Ca4  1  0.69960881  0.32271626  0.82512974  1
  Ca  Ca5  1  0.30039119  0.02232507  0.17487026  1
  Ca  Ca6  1  0.30039119  0.67728374  0.17487026  1
  Mg  Mg7  1  0.24190646  0.87904677  0.67306155  1
  Mg  Mg8  1  0.75809354  0.12095323  0.32693845  1
  N  N9  1  0.47974428  0.90507616  0.80370956  1
  N  N10  1  0.47974428  0.61517857  0.80370956  1
  N  N11  1  0.52025572  0.09492384  0.19629044  1
  N  N12  1  0.52025572  0.38482143  0.19629044  1
  N  N13  1  0.48908549  0.75545725  0.34078749  1
  N  N14  1  0.51091451  0.24454275  0.65921251  1
