# generated using pymatgen
data_K2MgFe4P6(O4F3)4
_symmetry_space_group_name_H-M   'P 1'
_cell_length_a   7.64982521
_cell_length_b   7.73937013
_cell_length_c   10.81705236
_cell_angle_alpha   100.18042961
_cell_angle_beta   107.52588188
_cell_angle_gamma   89.94127287
_symmetry_Int_Tables_number   1
_chemical_formula_structural   K2MgFe4P6(O4F3)4
_chemical_formula_sum   'K2 Mg1 Fe4 P6 O16 F12'
_cell_volume   600.14889298
_cell_formula_units_Z   1
loop_
 _symmetry_equiv_pos_site_id
 _symmetry_equiv_pos_as_xyz
  1  'x, y, z'
loop_
 _atom_site_type_symbol
 _atom_site_label
 _atom_site_symmetry_multiplicity
 _atom_site_fract_x
 _atom_site_fract_y
 _atom_site_fract_z
 _atom_site_occupancy
  K  K0  1  0.78882949  0.11109994  0.77187425  1
  K  K1  1  0.21117051  0.88890006  0.22812575  1
  Mg  Mg2  1  0.50000000  0.00000000  0.00000000  1
  Fe  Fe3  1  0.66004460  0.33276632  0.33822375  1
  Fe  Fe4  1  0.33995540  0.66723368  0.66177625  1
  Fe  Fe5  1  0.50000000  0.50000000  0.00000000  1
  Fe  Fe6  1  0.00000000  0.00000000  0.50000000  1
  P  P7  1  0.66219051  0.73420855  0.51874478  1
  P  P8  1  0.33780949  0.26579145  0.48125522  1
  P  P9  1  0.28977152  0.09346785  0.80919572  1
  P  P10  1  0.71022848  0.90653215  0.19080428  1
  P  P11  1  0.06981320  0.59198610  0.84204249  1
  P  P12  1  0.93018680  0.40801390  0.15795751  1
  O  O13  1  0.71549666  0.55921727  0.45655304  1
  O  O14  1  0.28450334  0.44078273  0.54344696  1
  O  O15  1  0.81229233  0.87986699  0.56540423  1
  O  O16  1  0.18770767  0.12013301  0.43459577  1
  O  O17  1  0.60781966  0.07837282  0.20437061  1
  O  O18  1  0.39218034  0.92162718  0.79562939  1
  O  O19  1  0.44394188  0.22256792  0.90604304  1
  O  O20  1  0.55605812  0.77743208  0.09395696  1
  O  O21  1  0.86112596  0.85589116  0.29829128  1
  O  O22  1  0.13887404  0.14410884  0.70170872  1
  O  O23  1  0.88211655  0.35736515  0.27078220  1
  O  O24  1  0.11788345  0.64263485  0.72921780  1
  O  O25  1  0.79046963  0.45777171  0.04217061  1
  O  O26  1  0.20953037  0.54222829  0.95782939  1
  O  O27  1  0.43030084  0.27366580  0.37557845  1
  O  O28  1  0.56969916  0.72633420  0.62442155  1
  F  F29  1  0.81152498  0.20536554  0.46447263  1
  F  F30  1  0.18847502  0.79463446  0.53552737  1
  F  F31  1  0.51419842  0.41915976  0.17636450  1
  F  F32  1  0.48580158  0.58084024  0.82363550  1
  F  F33  1  0.80702773  0.95490724  0.07873120  1
  F  F34  1  0.19297227  0.04509276  0.92126880  1
  F  F35  1  0.90731924  0.44705833  0.78504241  1
  F  F36  1  0.09268076  0.55294167  0.21495759  1
  F  F37  1  0.49375455  0.20456749  0.60131716  1
  F  F38  1  0.50624545  0.79543251  0.39868284  1
  F  F39  1  0.03990612  0.25467185  0.10344975  1
  F  F40  1  0.96009388  0.74532815  0.89655025  1
