# generated using pymatgen
data_K2CrO4
_symmetry_space_group_name_H-M   'P 1'
_cell_length_a   5.86819190
_cell_length_b   7.63248930
_cell_length_c   10.32828808
_cell_angle_alpha   89.99927975
_cell_angle_beta   90.00033686
_cell_angle_gamma   90.00044226
_symmetry_Int_Tables_number   1
_chemical_formula_structural   K2CrO4
_chemical_formula_sum   'K8 Cr4 O16'
_cell_volume   462.59278473
_cell_formula_units_Z   4
loop_
 _symmetry_equiv_pos_site_id
 _symmetry_equiv_pos_as_xyz
  1  'x, y, z'
loop_
 _atom_site_type_symbol
 _atom_site_label
 _atom_site_symmetry_multiplicity
 _atom_site_fract_x
 _atom_site_fract_y
 _atom_site_fract_z
 _atom_site_occupancy
  K  K0  1  0.75001107  0.66323927  0.91784709  1
  K  K1  1  0.25000403  0.33675124  0.08215386  1
  K  K2  1  0.75000145  0.16323920  0.58214877  1
  K  K3  1  0.24999193  0.83675627  0.41784464  1
  K  K4  1  0.24997783  0.00906472  0.80277093  1
  K  K5  1  0.74999023  0.99094456  0.19722688  1
  K  K6  1  0.25003155  0.50906292  0.69722968  1
  K  K7  1  0.74999251  0.49094282  0.30277501  1
  Cr  Cr8  1  0.74999748  0.22800589  0.91913081  1
  Cr  Cr9  1  0.25000891  0.77200538  0.08086934  1
  Cr  Cr10  1  0.74998195  0.72799543  0.58087240  1
  Cr  Cr11  1  0.25000782  0.27199458  0.41912920  1
  O  O12  1  0.97907759  0.80054566  0.65594081  1
  O  O13  1  0.47912634  0.19946504  0.34407734  1
  O  O14  1  0.52089994  0.30054477  0.84406398  1
  O  O15  1  0.02088418  0.69947344  0.15594577  1
  O  O16  1  0.02091895  0.19943887  0.34406446  1
  O  O17  1  0.52088529  0.80052315  0.65592137  1
  O  O18  1  0.47913270  0.69945914  0.15593857  1
  O  O19  1  0.97911143  0.30054723  0.84407306  1
  O  O20  1  0.25000548  0.19406986  0.56856904  1
  O  O21  1  0.74998123  0.80591841  0.43143848  1
  O  O22  1  0.24998719  0.69405957  0.93141432  1
  O  O23  1  0.75000024  0.30593141  0.06856971  1
  O  O24  1  0.75000186  0.01274490  0.92071220  1
  O  O25  1  0.25001612  0.98727946  0.07927653  1
  O  O26  1  0.74999398  0.51275245  0.57928626  1
  O  O27  1  0.24998472  0.48724437  0.42071148  1
