# generated using pymatgen
data_MnB2F8
_symmetry_space_group_name_H-M   'P 1'
_cell_length_a   5.42489318
_cell_length_b   8.53368801
_cell_length_c   10.75862730
_cell_angle_alpha   90.00000000
_cell_angle_beta   90.00000000
_cell_angle_gamma   90.00000000
_symmetry_Int_Tables_number   1
_chemical_formula_structural   MnB2F8
_chemical_formula_sum   'Mn4 B8 F32'
_cell_volume   498.06361348
_cell_formula_units_Z   4
loop_
 _symmetry_equiv_pos_site_id
 _symmetry_equiv_pos_as_xyz
  1  'x, y, z'
loop_
 _atom_site_type_symbol
 _atom_site_label
 _atom_site_symmetry_multiplicity
 _atom_site_fract_x
 _atom_site_fract_y
 _atom_site_fract_z
 _atom_site_occupancy
  Mn  Mn0  1  0.25000000  0.25159892  0.60824463  1
  Mn  Mn1  1  0.75000000  0.74840108  0.39175537  1
  Mn  Mn2  1  0.25000000  0.75159892  0.89175537  1
  Mn  Mn3  1  0.75000000  0.24840108  0.10824463  1
  B  B4  1  0.25000000  0.35114641  0.90940674  1
  B  B5  1  0.75000000  0.64885359  0.09059326  1
  B  B6  1  0.25000000  0.85114641  0.59059326  1
  B  B7  1  0.75000000  0.14885359  0.40940674  1
  B  B8  1  0.25000000  -0.00016137  0.15838798  1
  B  B9  1  0.75000000  0.00016137  0.84161202  1
  B  B10  1  0.25000000  0.49983863  0.34161202  1
  B  B11  1  0.75000000  0.50016137  0.65838798  1
  F  F12  1  0.25000000  0.23674840  0.81559687  1
  F  F13  1  0.25000000  0.92944547  0.03961469  1
  F  F14  1  0.75000000  0.57055453  0.53961469  1
  F  F15  1  0.25000000  0.42944547  0.46038531  1
  F  F16  1  0.75000000  0.49756028  0.14310673  1
  F  F17  1  0.25000000  0.50243972  0.85689327  1
  F  F18  1  0.75000000  0.99756028  0.35689327  1
  F  F19  1  0.25000000  0.00243972  0.64310673  1
  F  F20  1  0.03925540  0.09807048  0.16646985  1
  F  F21  1  0.53925540  0.90192952  0.83353015  1
  F  F22  1  0.46074460  0.59807048  0.33353015  1
  F  F23  1  0.75000000  0.07055453  0.96038531  1
  F  F24  1  0.96074460  0.90192952  0.83353015  1
  F  F25  1  0.46074460  0.09807048  0.16646985  1
  F  F26  1  0.53925540  0.40192952  0.66646985  1
  F  F27  1  0.03925540  0.59807048  0.33353015  1
  F  F28  1  0.03767896  0.33378664  0.98285354  1
  F  F29  1  0.53767896  0.66621336  0.01714646  1
  F  F30  1  0.46232104  0.83378664  0.51714646  1
  F  F31  1  0.96232104  0.16621336  0.48285354  1
  F  F32  1  0.96232104  0.66621336  0.01714646  1
  F  F33  1  0.46232104  0.33378664  0.98285354  1
  F  F34  1  0.53767896  0.16621336  0.48285354  1
  F  F35  1  0.03767896  0.83378664  0.51714646  1
  F  F36  1  0.75000000  0.10770622  0.74755633  1
  F  F37  1  0.25000000  0.89229378  0.25244367  1
  F  F38  1  0.75000000  0.60770622  0.75244367  1
  F  F39  1  0.25000000  0.39229378  0.24755633  1
  F  F40  1  0.25000000  0.73674840  0.68440313  1
  F  F41  1  0.75000000  0.26325160  0.31559687  1
  F  F42  1  0.96074460  0.40192952  0.66646985  1
  F  F43  1  0.75000000  0.76325160  0.18440313  1
