# generated using pymatgen
data_Ba(DyS2)2
_symmetry_space_group_name_H-M   'P 1'
_cell_length_a   4.04228418
_cell_length_b   12.29909509
_cell_length_c   14.53436266
_cell_angle_alpha   90.00000000
_cell_angle_beta   90.00000000
_cell_angle_gamma   90.00000000
_symmetry_Int_Tables_number   1
_chemical_formula_structural   Ba(DyS2)2
_chemical_formula_sum   'Ba4 Dy8 S16'
_cell_volume   722.59673294
_cell_formula_units_Z   4
loop_
 _symmetry_equiv_pos_site_id
 _symmetry_equiv_pos_as_xyz
  1  'x, y, z'
loop_
 _atom_site_type_symbol
 _atom_site_label
 _atom_site_symmetry_multiplicity
 _atom_site_fract_x
 _atom_site_fract_y
 _atom_site_fract_z
 _atom_site_occupancy
  Ba  Ba0  1  0.25000000  0.75855321  0.33781837  1
  Ba  Ba1  1  0.25000000  0.25855321  0.16218163  1
  Ba  Ba2  1  0.75000000  0.24144679  0.66218163  1
  Ba  Ba3  1  0.75000000  0.74144679  0.83781837  1
  Dy  Dy4  1  0.25000000  0.43424785  0.39120972  1
  Dy  Dy5  1  0.25000000  0.93424785  0.10879028  1
  Dy  Dy6  1  0.75000000  0.56575215  0.60879028  1
  Dy  Dy7  1  0.75000000  0.06575215  0.89120972  1
  Dy  Dy8  1  0.25000000  0.42029344  0.89849637  1
  Dy  Dy9  1  0.25000000  0.92029344  0.60150363  1
  Dy  Dy10  1  0.75000000  0.57970656  0.10150363  1
  Dy  Dy11  1  0.75000000  0.07970656  0.39849637  1
  S  S12  1  0.25000000  0.20614979  0.83797052  1
  S  S13  1  0.25000000  0.70614979  0.66202948  1
  S  S14  1  0.75000000  0.79385021  0.16202948  1
  S  S15  1  0.75000000  0.29385021  0.33797052  1
  S  S16  1  0.25000000  0.12305959  0.52360769  1
  S  S17  1  0.25000000  0.62305959  0.97639231  1
  S  S18  1  0.75000000  0.87694041  0.47639231  1
  S  S19  1  0.75000000  0.37694041  0.02360769  1
  S  S20  1  0.25000000  0.52402908  0.21687834  1
  S  S21  1  0.25000000  0.02402908  0.28312166  1
  S  S22  1  0.75000000  0.47597092  0.78312166  1
  S  S23  1  0.75000000  0.97597092  0.71687834  1
  S  S24  1  0.25000000  0.41834957  0.57631737  1
  S  S25  1  0.25000000  0.91834957  0.92368263  1
  S  S26  1  0.75000000  0.58165043  0.42368263  1
  S  S27  1  0.75000000  0.08165043  0.07631737  1
