# generated using pymatgen
data_LiTiFe5O8
_symmetry_space_group_name_H-M   'P 1'
_cell_length_a   6.24117301
_cell_length_b   6.17697220
_cell_length_c   6.16469790
_cell_angle_alpha   90.00416405
_cell_angle_beta   60.28290255
_cell_angle_gamma   119.63851377
_symmetry_Int_Tables_number   1
_chemical_formula_structural   LiTiFe5O8
_chemical_formula_sum   'Li1 Ti1 Fe5 O8'
_cell_volume   169.67951385
_cell_formula_units_Z   1
loop_
 _symmetry_equiv_pos_site_id
 _symmetry_equiv_pos_as_xyz
  1  'x, y, z'
loop_
 _atom_site_type_symbol
 _atom_site_label
 _atom_site_symmetry_multiplicity
 _atom_site_fract_x
 _atom_site_fract_y
 _atom_site_fract_z
 _atom_site_occupancy
  Li  Li0  1  0.21419900  0.12819900  0.65099700  1
  Ti  Ti1  1  0.55754000  0.00407300  0.46845400  1
  Fe  Fe2  1  0.28078800  0.12434200  0.11131800  1
  Fe  Fe3  1  0.71524400  0.85737200  0.88915800  1
  Fe  Fe4  1  0.58017300  0.56208200  0.45815000  1
  Fe  Fe5  1  0.01346800  0.50508200  0.98055600  1
  Fe  Fe6  1  0.01210500  0.50406200  0.50607400  1
  O  O7  1  0.03462200  0.74246400  0.23258900  1
  O  O8  1  0.99038000  0.22443200  0.25441300  1
  O  O9  1  0.51212400  0.24528700  0.72367200  1
  O  O10  1  0.51072700  0.24478900  0.26926500  1
  O  O11  1  0.01305200  0.27718400  0.74333300  1
  O  O12  1  0.05409700  0.77926600  0.72259800  1
  O  O13  1  0.50640500  0.77122800  0.27344900  1
  O  O14  1  0.50507600  0.76972000  0.71597400  1
