# generated using pymatgen
data_Ca(ErTe2)2
_symmetry_space_group_name_H-M   'P 1'
_cell_length_a   4.37859201
_cell_length_b   7.47738857
_cell_length_c   7.70448826
_cell_angle_alpha   72.08690723
_cell_angle_beta   90.00000000
_cell_angle_gamma   90.00000000
_symmetry_Int_Tables_number   1
_chemical_formula_structural   Ca(ErTe2)2
_chemical_formula_sum   'Ca1 Er2 Te4'
_cell_volume   240.02033670
_cell_formula_units_Z   1
loop_
 _symmetry_equiv_pos_site_id
 _symmetry_equiv_pos_as_xyz
  1  'x, y, z'
loop_
 _atom_site_type_symbol
 _atom_site_label
 _atom_site_symmetry_multiplicity
 _atom_site_fract_x
 _atom_site_fract_y
 _atom_site_fract_z
 _atom_site_occupancy
  Ca  Ca0  1  0.00000000  0.50000000  0.50000000  1
  Er  Er1  1  0.00000000  -0.00000000  0.00000000  1
  Er  Er2  1  0.50000000  0.50000000  0.00000000  1
  Te  Te3  1  0.50000000  0.76094198  0.24228423  1
  Te  Te4  1  0.00000000  0.25447975  0.23546998  1
  Te  Te5  1  0.50000000  0.23905802  0.75771577  1
  Te  Te6  1  0.00000000  0.74552025  0.76453002  1
