# generated using pymatgen
data_K2CoBr4
_symmetry_space_group_name_H-M   'P 1'
_cell_length_a   7.49621675
_cell_length_b   9.38069331
_cell_length_c   13.27828466
_cell_angle_alpha   90.00000000
_cell_angle_beta   90.00000000
_cell_angle_gamma   90.00000000
_symmetry_Int_Tables_number   1
_chemical_formula_structural   K2CoBr4
_chemical_formula_sum   'K8 Co4 Br16'
_cell_volume   933.72513080
_cell_formula_units_Z   4
loop_
 _symmetry_equiv_pos_site_id
 _symmetry_equiv_pos_as_xyz
  1  'x, y, z'
loop_
 _atom_site_type_symbol
 _atom_site_label
 _atom_site_symmetry_multiplicity
 _atom_site_fract_x
 _atom_site_fract_y
 _atom_site_fract_z
 _atom_site_occupancy
  K  K0  1  0.75000000  0.52258176  0.32503218  1
  K  K1  1  0.25000000  0.47741824  0.67496782  1
  K  K2  1  0.25000000  0.97741824  0.82503218  1
  K  K3  1  0.75000000  0.02258176  0.17496782  1
  K  K4  1  0.75000000  0.88370787  0.56680140  1
  K  K5  1  0.25000000  0.11629213  0.43319860  1
  K  K6  1  0.25000000  0.61629213  0.06680140  1
  K  K7  1  0.75000000  0.38370787  0.93319860  1
  Co  Co8  1  0.75000000  0.78061787  0.92735376  1
  Co  Co9  1  0.25000000  0.21938213  0.07264624  1
  Co  Co10  1  0.25000000  0.71938213  0.42735376  1
  Co  Co11  1  0.75000000  0.28061787  0.57264624  1
  Br  Br12  1  0.00491445  0.67575234  0.84908434  1
  Br  Br13  1  0.99508555  0.32424766  0.15091566  1
  Br  Br14  1  0.99508555  0.82424766  0.34908434  1
  Br  Br15  1  0.50491445  0.32424766  0.15091566  1
  Br  Br16  1  0.00491445  0.17575234  0.65091566  1
  Br  Br17  1  0.49508555  0.67575234  0.84908434  1
  Br  Br18  1  0.49508555  0.17575234  0.65091566  1
  Br  Br19  1  0.50491445  0.82424766  0.34908434  1
  Br  Br20  1  0.75000000  0.03384257  0.91893509  1
  Br  Br21  1  0.25000000  0.96615743  0.08106491  1
  Br  Br22  1  0.25000000  0.46615743  0.41893509  1
  Br  Br23  1  0.75000000  0.53384257  0.58106491  1
  Br  Br24  1  0.75000000  0.19051695  0.40356749  1
  Br  Br25  1  0.25000000  0.80948305  0.59643251  1
  Br  Br26  1  0.25000000  0.30948305  0.90356749  1
  Br  Br27  1  0.75000000  0.69051695  0.09643251  1
