# generated using pymatgen
data_CsHo2Cl7
_symmetry_space_group_name_H-M   'P 1'
_cell_length_a   6.95451520
_cell_length_b   12.60681947
_cell_length_c   13.58142983
_cell_angle_alpha   90.00000000
_cell_angle_beta   90.00000000
_cell_angle_gamma   90.00000000
_symmetry_Int_Tables_number   1
_chemical_formula_structural   CsHo2Cl7
_chemical_formula_sum   'Cs4 Ho8 Cl28'
_cell_volume   1190.74259275
_cell_formula_units_Z   4
loop_
 _symmetry_equiv_pos_site_id
 _symmetry_equiv_pos_as_xyz
  1  'x, y, z'
loop_
 _atom_site_type_symbol
 _atom_site_label
 _atom_site_symmetry_multiplicity
 _atom_site_fract_x
 _atom_site_fract_y
 _atom_site_fract_z
 _atom_site_occupancy
  Cs  Cs0  1  0.25000000  0.79819280  0.03961253  1
  Cs  Cs1  1  0.75000000  0.20180720  0.96038747  1
  Cs  Cs2  1  0.75000000  0.29819280  0.46038747  1
  Cs  Cs3  1  0.25000000  0.70180720  0.53961253  1
  Ho  Ho4  1  0.25000000  0.45335466  0.24219702  1
  Ho  Ho5  1  0.75000000  0.54664534  0.75780298  1
  Ho  Ho6  1  0.75000000  0.95335466  0.25780298  1
  Ho  Ho7  1  0.25000000  0.04664534  0.74219702  1
  Ho  Ho8  1  0.25000000  0.14969389  0.24988344  1
  Ho  Ho9  1  0.75000000  0.85030611  0.75011656  1
  Ho  Ho10  1  0.75000000  0.64969389  0.25011656  1
  Ho  Ho11  1  0.25000000  0.35030611  0.74988344  1
  Cl  Cl12  1  0.00929741  0.30053819  0.18159286  1
  Cl  Cl13  1  0.99070259  0.69946181  0.81840714  1
  Cl  Cl14  1  0.99070259  0.80053819  0.31840714  1
  Cl  Cl15  1  0.50929741  0.69946181  0.81840714  1
  Cl  Cl16  1  0.00929741  0.19946181  0.68159286  1
  Cl  Cl17  1  0.49070259  0.30053819  0.18159286  1
  Cl  Cl18  1  0.49070259  0.19946181  0.68159286  1
  Cl  Cl19  1  0.50929741  0.80053819  0.31840714  1
  Cl  Cl20  1  0.00892857  0.56679824  0.12736273  1
  Cl  Cl21  1  0.99107143  0.43320176  0.87263727  1
  Cl  Cl22  1  0.99107143  0.06679824  0.37263727  1
  Cl  Cl23  1  0.50892857  0.43320176  0.87263727  1
  Cl  Cl24  1  0.00892857  0.93320176  0.62736273  1
  Cl  Cl25  1  0.49107143  0.56679824  0.12736273  1
  Cl  Cl26  1  0.49107143  0.93320176  0.62736273  1
  Cl  Cl27  1  0.50892857  0.06679824  0.37263727  1
  Cl  Cl28  1  0.00982944  0.03535561  0.13290034  1
  Cl  Cl29  1  0.99017056  0.96464439  0.86709966  1
  Cl  Cl30  1  0.99017056  0.53535561  0.36709966  1
  Cl  Cl31  1  0.50982944  0.96464439  0.86709966  1
  Cl  Cl32  1  0.00982944  0.46464439  0.63290034  1
  Cl  Cl33  1  0.49017056  0.03535561  0.13290034  1
  Cl  Cl34  1  0.49017056  0.46464439  0.63290034  1
  Cl  Cl35  1  0.50982944  0.53535561  0.36709966  1
  Cl  Cl36  1  0.25000000  0.30319854  0.39134149  1
  Cl  Cl37  1  0.75000000  0.69680146  0.60865851  1
  Cl  Cl38  1  0.75000000  0.80319854  0.10865851  1
  Cl  Cl39  1  0.25000000  0.19680146  0.89134149  1
