# generated using pymatgen
data_Ba10MgMn6(O12F)2
_symmetry_space_group_name_H-M   'P 1'
_cell_length_a   8.16660477
_cell_length_b   10.76297727
_cell_length_c   10.49503513
_cell_angle_alpha   120.80185021
_cell_angle_beta   90.00000000
_cell_angle_gamma   90.00000000
_symmetry_Int_Tables_number   1
_chemical_formula_structural   Ba10MgMn6(O12F)2
_chemical_formula_sum   'Ba10 Mg1 Mn6 O24 F2'
_cell_volume   792.35971180
_cell_formula_units_Z   1
loop_
 _symmetry_equiv_pos_site_id
 _symmetry_equiv_pos_as_xyz
  1  'x, y, z'
loop_
 _atom_site_type_symbol
 _atom_site_label
 _atom_site_symmetry_multiplicity
 _atom_site_fract_x
 _atom_site_fract_y
 _atom_site_fract_z
 _atom_site_occupancy
  Ba  Ba0  1  0.54587106  0.60325275  0.29141914  1
  Ba  Ba1  1  0.00521733  0.34546325  0.65892293  1
  Ba  Ba2  1  0.49478267  0.34546325  0.65892293  1
  Ba  Ba3  1  0.95412894  0.60325275  0.29141914  1
  Ba  Ba4  1  0.75000000  0.19095114  0.97214745  1
  Ba  Ba5  1  0.75000000  0.98957123  0.23440865  1
  Ba  Ba6  1  0.75000000  0.76667251  0.77323708  1
  Ba  Ba7  1  0.25000000  0.72638108  0.99511504  1
  Ba  Ba8  1  0.25000000  0.01009394  0.77184554  1
  Ba  Ba9  1  0.25000000  0.25831885  0.23722280  1
  Mg  Mg10  1  0.25000000  0.76830847  0.38416551  1
  Mn  Mn11  1  0.75000000  0.96780351  0.59367504  1
  Mn  Mn12  1  0.75000000  0.38095327  0.36973321  1
  Mn  Mn13  1  0.75000000  0.60657445  0.00768834  1
  Mn  Mn14  1  0.25000000  0.06187233  0.40143018  1
  Mn  Mn15  1  0.25000000  0.61244430  0.62859879  1
  Mn  Mn16  1  0.25000000  0.38358638  0.99377165  1
  O  O17  1  0.75000000  0.14940455  0.65307715  1
  O  O18  1  0.75000000  0.29360914  0.46576282  1
  O  O19  1  0.75000000  0.52191683  0.81854388  1
  O  O20  1  0.25000000  0.87474737  0.29073172  1
  O  O21  1  0.25000000  0.73282708  0.53923124  1
  O  O22  1  0.25000000  0.56905993  0.20005862  1
  O  O23  1  0.75000000  0.85083678  0.40164248  1
  O  O24  1  0.75000000  0.56764613  0.47551104  1
  O  O25  1  0.75000000  0.48388389  0.06976624  1
  O  O26  1  0.25000000  0.11451263  0.58588097  1
  O  O27  1  0.25000000  0.41795627  0.52330784  1
  O  O28  1  0.25000000  0.44683716  0.86872298  1
  O  O29  1  0.58410360  0.93079859  0.67040938  1
  O  O30  1  0.58276018  0.34023927  0.25515257  1
  O  O31  1  0.58139404  0.71363746  0.08544817  1
  O  O32  1  0.07933624  0.12066254  0.35542634  1
  O  O33  1  0.07755027  0.65171751  0.74491714  1
  O  O34  1  0.08531397  0.26782800  0.97074535  1
  O  O35  1  0.42066376  0.12066254  0.35542634  1
  O  O36  1  0.42244973  0.65171751  0.74491714  1
  O  O37  1  0.41468603  0.26782800  0.97074535  1
  O  O38  1  0.91589640  0.93079859  0.67040938  1
  O  O39  1  0.91723982  0.34023927  0.25515257  1
  O  O40  1  0.91860596  0.71363746  0.08544817  1
  F  F41  1  0.57270760  0.98739152  0.00867086  1
  F  F42  1  0.92729240  0.98739152  0.00867086  1
