# generated using pymatgen
data_Ba3B3Pb2BrO9
_symmetry_space_group_name_H-M   'P 1'
_cell_length_a   8.86395447
_cell_length_b   8.86395447
_cell_length_c   8.15082270
_cell_angle_alpha   90.00000000
_cell_angle_beta   90.00000000
_cell_angle_gamma   106.51715449
_symmetry_Int_Tables_number   1
_chemical_formula_structural   Ba3B3Pb2BrO9
_chemical_formula_sum   'Ba6 B6 Pb4 Br2 O18'
_cell_volume   613.98096423
_cell_formula_units_Z   2
loop_
 _symmetry_equiv_pos_site_id
 _symmetry_equiv_pos_as_xyz
  1  'x, y, z'
loop_
 _atom_site_type_symbol
 _atom_site_label
 _atom_site_symmetry_multiplicity
 _atom_site_fract_x
 _atom_site_fract_y
 _atom_site_fract_z
 _atom_site_occupancy
  Ba  Ba0  1  0.76081909  0.76081909  -0.00000000  1
  Ba  Ba1  1  0.23918091  0.23918091  0.50000000  1
  Ba  Ba2  1  0.64850071  0.35149929  0.25000000  1
  Ba  Ba3  1  0.35149929  0.64850071  0.75000000  1
  Ba  Ba4  1  0.65202091  0.34797909  0.75000000  1
  Ba  Ba5  1  0.34797909  0.65202091  0.25000000  1
  B  B6  1  0.37981287  0.37981287  -0.00000000  1
  B  B7  1  0.62018713  0.62018713  0.50000000  1
  B  B8  1  0.43027470  0.99392644  0.45698693  1
  B  B9  1  0.99392644  0.43027470  0.54301307  1
  B  B10  1  0.56972530  0.00607356  0.95698693  1
  B  B11  1  0.00607356  0.56972530  0.04301307  1
  Pb  Pb12  1  0.26988575  0.03293710  0.08390838  1
  Pb  Pb13  1  0.03293710  0.26988575  0.91609162  1
  Pb  Pb14  1  0.73011425  0.96706290  0.58390838  1
  Pb  Pb15  1  0.96706290  0.73011425  0.41609162  1
  Br  Br16  1  0.08521892  0.91478108  0.75000000  1
  Br  Br17  1  0.91478108  0.08521892  0.25000000  1
  O  O18  1  0.53210588  0.13910742  0.01051911  1
  O  O19  1  0.13910742  0.53210588  0.98948089  1
  O  O20  1  0.46789412  0.86089258  0.51051911  1
  O  O21  1  0.86089258  0.46789412  0.48948089  1
  O  O22  1  0.85884425  0.47971563  0.99500543  1
  O  O23  1  0.47971563  0.85884425  0.00499457  1
  O  O24  1  0.14115575  0.52028437  0.49500543  1
  O  O25  1  0.52028437  0.14115575  0.50499457  1
  O  O26  1  0.50972264  0.50972264  -0.00000000  1
  O  O27  1  0.49027736  0.49027736  0.50000000  1
  O  O28  1  0.32280623  0.31001136  0.14973860  1
  O  O29  1  0.31001136  0.32280623  0.85026140  1
  O  O30  1  0.67719377  0.68998864  0.64973860  1
  O  O31  1  0.68998864  0.67719377  0.35026140  1
  O  O32  1  0.30139363  0.97539089  0.35527965  1
  O  O33  1  0.97539089  0.30139363  0.64472035  1
  O  O34  1  0.69860637  0.02460911  0.85527965  1
  O  O35  1  0.02460911  0.69860637  0.14472035  1
