# generated using pymatgen
data_MgV4Sb2(PO4)6
_symmetry_space_group_name_H-M   'P 1'
_cell_length_a   8.98499684
_cell_length_b   8.84968524
_cell_length_c   8.98304002
_cell_angle_alpha   59.68774755
_cell_angle_beta   59.03298967
_cell_angle_gamma   59.66588532
_symmetry_Int_Tables_number   1
_chemical_formula_structural   MgV4Sb2(PO4)6
_chemical_formula_sum   'Mg1 V4 Sb2 P6 O24'
_cell_volume   498.85150380
_cell_formula_units_Z   1
loop_
 _symmetry_equiv_pos_site_id
 _symmetry_equiv_pos_as_xyz
  1  'x, y, z'
loop_
 _atom_site_type_symbol
 _atom_site_label
 _atom_site_symmetry_multiplicity
 _atom_site_fract_x
 _atom_site_fract_y
 _atom_site_fract_z
 _atom_site_occupancy
  Mg  Mg0  1  0.35831167  0.74991676  0.14174718  1
  V  V1  1  0.14262679  0.14754190  0.14910279  1
  V  V2  1  0.35084736  0.35246366  0.35730181  1
  V  V3  1  0.65612024  0.64876400  0.64223332  1
  V  V4  1  0.85779308  0.85140748  0.84366323  1
  Sb  Sb5  1  0.97354659  0.00866378  0.99106803  1
  Sb  Sb6  1  0.50935346  0.49078375  0.52640878  1
  P  P7  1  0.04212749  0.75002156  0.45791402  1
  P  P8  1  0.46853800  0.03633177  0.74464508  1
  P  P9  1  0.75530067  0.46378154  0.03133096  1
  P  P10  1  0.25217493  0.56371275  0.95971977  1
  P  P11  1  0.54021880  0.93607775  0.24781519  1
  P  P12  1  0.95305723  0.25001195  0.54717765  1
  O  O13  1  0.09780650  0.30650413  0.52338245  1
  O  O14  1  0.30516780  0.57393442  0.09192967  1
  O  O15  1  0.07288772  0.90152634  0.26050081  1
  O  O16  1  0.47922281  0.10501406  0.29175075  1
  O  O17  1  0.00787161  0.81249538  0.60577430  1
  O  O18  1  0.23961387  0.59843952  0.42744038  1
  O  O19  1  0.29374727  0.01159772  0.92555618  1
  O  O20  1  0.42205163  0.23364005  0.60393925  1
  O  O21  1  0.20850015  0.39469631  0.02064951  1
  O  O22  1  0.57456524  0.48851051  0.20638255  1
  O  O23  1  0.08766826  0.75221155  0.92234432  1
  O  O24  1  0.40801002  0.92597068  0.19484149  1
  O  O25  1  0.62159936  0.00673136  0.79561139  1
  O  O26  1  0.89584986  0.26625886  0.07765829  1
  O  O27  1  0.41592456  0.57716618  0.76338873  1
  O  O28  1  0.83325384  0.60913421  0.98159921  1
  O  O29  1  0.57785098  0.74746963  0.41210099  1
  O  O30  1  0.73644637  0.92274401  0.08392488  1
  O  O31  1  0.75559352  0.41137157  0.57913548  1
  O  O32  1  0.97690465  0.19352676  0.40235452  1
  O  O33  1  0.51803481  0.89061658  0.66720157  1
  O  O34  1  0.92080296  0.08882515  0.74471337  1
  O  O35  1  0.70355323  0.49414299  0.87842623  1
  O  O36  1  0.89419967  0.68799336  0.49212285  1
