# generated using pymatgen
data_Ba10MgAs6(ClO12)2
_symmetry_space_group_name_H-M   'P 1'
_cell_length_a   10.83531712
_cell_length_b   11.57876468
_cell_length_c   7.84001616
_cell_angle_alpha   90.00000000
_cell_angle_beta   90.00000000
_cell_angle_gamma   122.08602591
_symmetry_Int_Tables_number   1
_chemical_formula_structural   Ba10MgAs6(ClO12)2
_chemical_formula_sum   'Ba10 Mg1 As6 Cl2 O24'
_cell_volume   833.36097462
_cell_formula_units_Z   1
loop_
 _symmetry_equiv_pos_site_id
 _symmetry_equiv_pos_as_xyz
  1  'x, y, z'
loop_
 _atom_site_type_symbol
 _atom_site_label
 _atom_site_symmetry_multiplicity
 _atom_site_fract_x
 _atom_site_fract_y
 _atom_site_fract_z
 _atom_site_occupancy
  Ba  Ba0  1  0.65484920  0.33075496  0.49716718  1
  Ba  Ba1  1  0.37339637  0.67638831  0.49951524  1
  Ba  Ba2  1  0.01089467  0.28459324  0.25000000  1
  Ba  Ba3  1  0.37339637  0.67638831  0.00048476  1
  Ba  Ba4  1  0.74592838  0.72975589  0.25000000  1
  Ba  Ba5  1  0.24613102  0.99180555  0.25000000  1
  Ba  Ba6  1  0.76790862  0.10204464  0.75000000  1
  Ba  Ba7  1  0.02924622  0.73668142  0.75000000  1
  Ba  Ba8  1  0.65484920  0.33075496  0.00283282  1
  Ba  Ba9  1  0.25352223  0.26175862  0.75000000  1
  Mg  Mg10  1  0.76948161  0.82824746  0.75000000  1
  As  As11  1  0.98164530  0.59956244  0.25000000  1
  As  As12  1  0.59003884  0.57562486  0.75000000  1
  As  As13  1  0.39488598  0.96591942  0.75000000  1
  As  As14  1  0.38978114  0.35672956  0.25000000  1
  As  As15  1  0.04560279  0.42452029  0.75000000  1
  As  As16  1  0.62997337  0.05097643  0.25000000  1
  Cl  Cl17  1  0.96987127  0.98214783  0.96379595  1
  Cl  Cl18  1  0.96987127  0.98214783  0.53620405  1
  O  O19  1  0.63995704  0.72552811  0.94167054  1
  O  O20  1  0.32725990  0.46656978  0.25000000  1
  O  O21  1  0.33154989  0.24757602  0.42287818  1
  O  O22  1  0.40503322  0.52948095  0.75000000  1
  O  O23  1  0.07751776  0.35402202  0.57594722  1
  O  O24  1  0.54272835  0.39636621  0.75000000  1
  O  O25  1  0.86437296  0.37894610  0.75000000  1
  O  O26  1  0.15816753  0.59988043  0.75000000  1
  O  O27  1  0.57950077  0.45165732  0.25000000  1
  O  O28  1  0.74334099  0.12081836  0.07554090  1
  O  O29  1  0.07751776  0.35402202  0.92405278  1
  O  O30  1  0.87762120  0.42266935  0.25000000  1
  O  O31  1  0.48384334  0.87766625  0.75000000  1
  O  O32  1  0.92976039  0.65521204  0.07405029  1
  O  O33  1  0.92976039  0.65521204  0.42594971  1
  O  O34  1  0.53449662  0.13518838  0.75000000  1
  O  O35  1  0.33154989  0.24757602  0.07712182  1
  O  O36  1  0.74334099  0.12081836  0.42445910  1
  O  O37  1  0.16443656  0.65850790  0.25000000  1
  O  O38  1  0.28223607  0.91977336  0.92570730  1
  O  O39  1  0.52781113  0.87667701  0.25000000  1
  O  O40  1  0.28223607  0.91977336  0.57429270  1
  O  O41  1  0.63995704  0.72552811  0.55832946  1
  O  O42  1  0.52473029  0.12372847  0.25000000  1
