# generated using pymatgen
data_AsS2
_symmetry_space_group_name_H-M   'P 1'
_cell_length_a   7.33760572
_cell_length_b   8.09183793
_cell_length_c   10.25965739
_cell_angle_alpha   90.00000000
_cell_angle_beta   90.00000000
_cell_angle_gamma   106.51019098
_symmetry_Int_Tables_number   1
_chemical_formula_structural   AsS2
_chemical_formula_sum   'As8 S16'
_cell_volume   584.04791890
_cell_formula_units_Z   8
loop_
 _symmetry_equiv_pos_site_id
 _symmetry_equiv_pos_as_xyz
  1  'x, y, z'
loop_
 _atom_site_type_symbol
 _atom_site_label
 _atom_site_symmetry_multiplicity
 _atom_site_fract_x
 _atom_site_fract_y
 _atom_site_fract_z
 _atom_site_occupancy
  As  As0  1  0.59160625  0.03075845  0.53082369  1
  As  As1  1  0.40839375  0.96924155  0.03082369  1
  As  As2  1  0.73916136  0.56267656  0.53786740  1
  As  As3  1  0.26083864  0.43732344  0.03786740  1
  As  As4  1  0.88692556  0.34261176  0.32116652  1
  As  As5  1  0.11307444  0.65738824  0.82116652  1
  As  As6  1  0.95852182  0.12418566  0.83048939  1
  As  As7  1  0.04147818  0.87581434  0.33048939  1
  S  S8  1  0.63580357  0.82109310  0.03589511  1
  S  S9  1  0.36419643  0.17890690  0.53589511  1
  S  S10  1  0.73079441  0.27445620  0.82671367  1
  S  S11  1  0.26920559  0.72554380  0.32671267  1
  S  S12  1  0.76453434  0.84661505  0.85799112  1
  S  S13  1  0.23546566  0.15338495  0.35799112  1
  S  S14  1  0.60104934  0.24888649  0.00429733  1
  S  S15  1  0.39895066  0.75111351  0.50429733  1
  S  S16  1  0.94273542  0.38967677  0.53696045  1
  S  S17  1  0.05726458  0.61032323  0.03696045  1
  S  S18  1  0.68258762  0.06866012  0.32186741  1
  S  S19  1  0.31741238  0.93133988  0.82186741  1
  S  S20  1  0.94929124  0.83566797  0.53861972  1
  S  S21  1  0.05070876  0.16433203  0.03861972  1
  S  S22  1  0.68868470  0.51908893  0.32220119  1
  S  S23  1  0.31131530  0.48091107  0.82220119  1
