# generated using pymatgen
data_Na6Sn2Se7
_symmetry_space_group_name_H-M   'P 1'
_cell_length_a   7.41719382
_cell_length_b   7.41719382
_cell_length_c   16.00176875
_cell_angle_alpha   80.24449115
_cell_angle_beta   80.24449115
_cell_angle_gamma   98.29234082
_symmetry_Int_Tables_number   1
_chemical_formula_structural   Na6Sn2Se7
_chemical_formula_sum   'Na12 Sn4 Se14'
_cell_volume   841.39579270
_cell_formula_units_Z   2
loop_
 _symmetry_equiv_pos_site_id
 _symmetry_equiv_pos_as_xyz
  1  'x, y, z'
loop_
 _atom_site_type_symbol
 _atom_site_label
 _atom_site_symmetry_multiplicity
 _atom_site_fract_x
 _atom_site_fract_y
 _atom_site_fract_z
 _atom_site_occupancy
  Na  Na0  1  0.57174957  0.42825043  0.75000000  1
  Na  Na1  1  0.75003693  0.04049946  0.07244236  1
  Na  Na2  1  0.95950054  0.24996307  0.42755764  1
  Na  Na3  1  0.49760368  0.95587894  0.63793231  1
  Na  Na4  1  0.04412106  0.50239632  0.86206769  1
  Na  Na5  1  0.50239632  0.04412106  0.36206769  1
  Na  Na6  1  0.95587894  0.49760368  0.13793231  1
  Na  Na7  1  0.50000000  0.50000000  0.50000000  1
  Na  Na8  1  0.50000000  0.50000000  0.00000000  1
  Na  Na9  1  0.24996307  0.95950054  0.92755764  1
  Na  Na10  1  0.42825043  0.57174957  0.25000000  1
  Na  Na11  1  0.04049946  0.75003693  0.57244236  1
  Sn  Sn12  1  0.75296743  0.92741034  0.86457653  1
  Sn  Sn13  1  0.07258966  0.24703257  0.63542347  1
  Sn  Sn14  1  0.92741034  0.75296743  0.36457653  1
  Sn  Sn15  1  0.24703257  0.07258966  0.13542347  1
  Se  Se16  1  0.68365418  0.23077417  0.89761536  1
  Se  Se17  1  0.04861809  0.95138191  0.75000000  1
  Se  Se18  1  0.76922583  0.31634582  0.60238464  1
  Se  Se19  1  0.75049010  0.48188205  0.32060134  1
  Se  Se20  1  0.23077417  0.68365418  0.39761536  1
  Se  Se21  1  0.86451475  0.73162291  0.98403447  1
  Se  Se22  1  0.26837709  0.13548525  0.51596553  1
  Se  Se23  1  0.13548525  0.26837709  0.01596553  1
  Se  Se24  1  0.73162291  0.86451475  0.48403447  1
  Se  Se25  1  0.48188205  0.75049010  0.82060134  1
  Se  Se26  1  0.24950990  0.51811795  0.67939866  1
  Se  Se27  1  0.51811795  0.24950990  0.17939866  1
  Se  Se28  1  0.95138191  0.04861809  0.25000000  1
  Se  Se29  1  0.31634582  0.76922583  0.10238464  1
