# generated using pymatgen
data_Cs4SiO4
_symmetry_space_group_name_H-M   'P 1'
_cell_length_a   18.84306129
_cell_length_b   7.01500474
_cell_length_c   7.00628796
_cell_angle_alpha   67.33661609
_cell_angle_beta   90.00000000
_cell_angle_gamma   90.00000000
_symmetry_Int_Tables_number   1
_chemical_formula_structural   Cs4SiO4
_chemical_formula_sum   'Cs16 Si4 O16'
_cell_volume   854.60949617
_cell_formula_units_Z   4
loop_
 _symmetry_equiv_pos_site_id
 _symmetry_equiv_pos_as_xyz
  1  'x, y, z'
loop_
 _atom_site_type_symbol
 _atom_site_label
 _atom_site_symmetry_multiplicity
 _atom_site_fract_x
 _atom_site_fract_y
 _atom_site_fract_z
 _atom_site_occupancy
  Cs  Cs0  1  0.80959695  0.85523416  0.70229023  1
  Cs  Cs1  1  0.01049526  0.79289562  0.78850905  1
  Cs  Cs2  1  0.20526213  0.65197596  0.82638446  1
  Cs  Cs3  1  0.42801475  0.66396793  0.81684487  1
  Cs  Cs4  1  0.69040305  0.85523416  0.20229023  1
  Cs  Cs5  1  0.48950474  0.79289562  0.28850905  1
  Cs  Cs6  1  0.29473787  0.65197596  0.32638446  1
  Cs  Cs7  1  0.07198525  0.66396793  0.31684487  1
  Cs  Cs8  1  0.92801475  0.33603207  0.68315513  1
  Cs  Cs9  1  0.70526213  0.34802404  0.67361554  1
  Cs  Cs10  1  0.51049526  0.20710438  0.71149095  1
  Cs  Cs11  1  0.30959695  0.14476584  0.79770977  1
  Cs  Cs12  1  0.57198525  0.33603207  0.18315513  1
  Cs  Cs13  1  0.79473787  0.34802404  0.17361554  1
  Cs  Cs14  1  0.98950474  0.20710438  0.21149095  1
  Cs  Cs15  1  0.19040305  0.14476584  0.29770977  1
  Si  Si16  1  0.62220068  0.75448893  0.76384816  1
  Si  Si17  1  0.87779932  0.75448893  0.26384816  1
  Si  Si18  1  0.12220068  0.24551107  0.73615184  1
  Si  Si19  1  0.37779932  0.24551107  0.23615184  1
  O  O20  1  0.65100367  0.97664600  0.59213742  1
  O  O21  1  0.56605637  0.79219769  0.92799353  1
  O  O22  1  0.84899633  0.97664600  0.09213742  1
  O  O23  1  0.93394363  0.79219769  0.42799353  1
  O  O24  1  0.68919997  0.61422022  0.90426627  1
  O  O25  1  0.58257595  0.61239696  0.65254420  1
  O  O26  1  0.08257595  0.38760304  0.84745580  1
  O  O27  1  0.81080003  0.61422022  0.40426627  1
  O  O28  1  0.18919997  0.38577978  0.59573373  1
  O  O29  1  0.91742405  0.61239696  0.15254420  1
  O  O30  1  0.41742405  0.38760304  0.34745580  1
  O  O31  1  0.31080003  0.38577978  0.09573373  1
  O  O32  1  0.06605637  0.20780231  0.57200647  1
  O  O33  1  0.15100367  0.02335400  0.90786258  1
  O  O34  1  0.43394363  0.20780231  0.07200647  1
  O  O35  1  0.34899633  0.02335400  0.40786258  1
