# generated using pymatgen
data_Nd9Al5S21
_symmetry_space_group_name_H-M   'P 1'
_cell_length_a   11.68962098
_cell_length_b   11.68962099
_cell_length_c   11.68962055
_cell_angle_alpha   94.96772331
_cell_angle_beta   94.96772333
_cell_angle_gamma   94.96772964
_symmetry_Int_Tables_number   1
_chemical_formula_structural   Nd9Al5S21
_chemical_formula_sum   'Nd18 Al10 S42'
_cell_volume   1578.23579972
_cell_formula_units_Z   2
loop_
 _symmetry_equiv_pos_site_id
 _symmetry_equiv_pos_as_xyz
  1  'x, y, z'
loop_
 _atom_site_type_symbol
 _atom_site_label
 _atom_site_symmetry_multiplicity
 _atom_site_fract_x
 _atom_site_fract_y
 _atom_site_fract_z
 _atom_site_occupancy
  Nd  Nd0  1  0.25969761  0.11897426  0.88422211  1
  Nd  Nd1  1  0.92618559  0.77601727  0.54433136  1
  Nd  Nd2  1  0.60141248  0.44852343  0.23220882  1
  Nd  Nd3  1  0.44852343  0.23220882  0.60141248  1
  Nd  Nd4  1  0.11897426  0.88422211  0.25969761  1
  Nd  Nd5  1  0.77601727  0.54433136  0.92618559  1
  Nd  Nd6  1  0.54433136  0.92618559  0.77601727  1
  Nd  Nd7  1  0.23220882  0.60141248  0.44852343  1
  Nd  Nd8  1  0.88422211  0.25969761  0.11897426  1
  Nd  Nd9  1  0.41621502  0.56458887  0.79272524  1
  Nd  Nd10  1  0.06962751  0.22105141  0.45075210  1
  Nd  Nd11  1  0.75441513  0.89801013  0.12433326  1
  Nd  Nd12  1  0.22105141  0.45075210  0.06962751  1
  Nd  Nd13  1  0.89801013  0.12433326  0.75441513  1
  Nd  Nd14  1  0.56458887  0.79272524  0.41621502  1
  Nd  Nd15  1  0.12433326  0.75441513  0.89801013  1
  Nd  Nd16  1  0.79272524  0.41621502  0.56458887  1
  Nd  Nd17  1  0.45075210  0.06962751  0.22105141  1
  Al  Al18  1  0.95264686  0.61112830  0.27829100  1
  Al  Al19  1  0.61112830  0.27829100  0.95264686  1
  Al  Al20  1  0.27829100  0.95264686  0.61112830  1
  Al  Al21  1  0.45156603  0.77400825  0.11669793  1
  Al  Al22  1  0.11669793  0.45156603  0.77400825  1
  Al  Al23  1  0.77400825  0.11669793  0.45156603  1
  Al  Al24  1  0.14377305  0.14377305  0.14377305  1
  Al  Al25  1  0.82770432  0.82770432  0.82770432  1
  Al  Al26  1  0.32600252  0.32600252  0.32600252  1
  Al  Al27  1  0.64561805  0.64561805  0.64561805  1
  S  S28  1  0.82895698  0.49141526  0.16037464  1
  S  S29  1  0.49141526  0.16037464  0.82895698  1
  S  S30  1  0.16037464  0.82895698  0.49141526  1
  S  S31  1  0.66020078  0.99359706  0.32729775  1
  S  S32  1  0.32729775  0.66020078  0.99359706  1
  S  S33  1  0.99359706  0.32729775  0.66020078  1
  S  S34  1  0.98854787  0.55166550  0.45442095  1
  S  S35  1  0.64217010  0.21580870  0.12696287  1
  S  S36  1  0.30401095  0.89356295  0.78940292  1
  S  S37  1  0.89356295  0.78940292  0.30401095  1
  S  S38  1  0.55166550  0.45442095  0.98854787  1
  S  S39  1  0.21580870  0.12696287  0.64217010  1
  S  S40  1  0.12696287  0.64217010  0.21580870  1
  S  S41  1  0.78940292  0.30401095  0.89356295  1
  S  S42  1  0.45442095  0.98854787  0.55166550  1
  S  S43  1  0.52025286  0.92942409  0.03526632  1
  S  S44  1  0.18585152  0.61121869  0.70100693  1
  S  S45  1  0.83795007  0.27550229  0.37002221  1
  S  S46  1  0.61121869  0.70100693  0.18585152  1
  S  S47  1  0.27550229  0.37002221  0.83795007  1
  S  S48  1  0.92942409  0.03526632  0.52025286  1
  S  S49  1  0.37002221  0.83795007  0.27550229  1
  S  S50  1  0.03526632  0.52025286  0.92942409  1
  S  S51  1  0.70100693  0.18585152  0.61121869  1
  S  S52  1  0.69042561  0.59527372  0.45096389  1
  S  S53  1  0.33250010  0.24260726  0.11107243  1
  S  S54  1  -0.00077620  0.90374766  0.76529450  1
  S  S55  1  0.90374766  0.76529450  -0.00077620  1
  S  S56  1  0.59527372  0.45096389  0.69042561  1
  S  S57  1  0.24260726  0.11107243  0.33250010  1
  S  S58  1  0.11107243  0.33250010  0.24260726  1
  S  S59  1  0.76529450  -0.00077620  0.90374766  1
  S  S60  1  0.45096389  0.69042561  0.59527372  1
  S  S61  1  0.62795402  0.71621593  0.84879428  1
  S  S62  1  0.27647049  0.37709062  0.51054321  1
  S  S63  1  0.96639437  0.05856081  0.20624011  1
  S  S64  1  0.37709062  0.51054321  0.27647049  1
  S  S65  1  0.05856081  0.20624011  0.96639437  1
  S  S66  1  0.71621593  0.84879428  0.62795402  1
  S  S67  1  0.20624011  0.96639437  0.05856081  1
  S  S68  1  0.84879428  0.62795402  0.71621593  1
  S  S69  1  0.51054321  0.27647049  0.37709062  1
