# generated using pymatgen
data_Ba4Nb2O9
_symmetry_space_group_name_H-M   'P 1'
_cell_length_a   6.14187079
_cell_length_b   6.14182527
_cell_length_c   16.63608359
_cell_angle_alpha   90.00000000
_cell_angle_beta   90.00000000
_cell_angle_gamma   119.99908190
_symmetry_Int_Tables_number   1
_chemical_formula_structural   Ba4Nb2O9
_chemical_formula_sum   'Ba8 Nb4 O18'
_cell_volume   543.48038682
_cell_formula_units_Z   2
loop_
 _symmetry_equiv_pos_site_id
 _symmetry_equiv_pos_as_xyz
  1  'x, y, z'
loop_
 _atom_site_type_symbol
 _atom_site_label
 _atom_site_symmetry_multiplicity
 _atom_site_fract_x
 _atom_site_fract_y
 _atom_site_fract_z
 _atom_site_occupancy
  Ba  Ba0  1  0.00001805  0.00003105  0.75000000  1
  Ba  Ba1  1  -0.00001805  -0.00003105  0.25000000  1
  Ba  Ba2  1  0.66667172  0.33337007  0.63490447  1
  Ba  Ba3  1  0.33332828  0.66662993  0.13490447  1
  Ba  Ba4  1  0.33332828  0.66662993  0.36509553  1
  Ba  Ba5  1  0.66667172  0.33337007  0.86509553  1
  Ba  Ba6  1  0.00000000  -0.00000000  0.50000000  1
  Ba  Ba7  1  0.00000000  -0.00000000  -0.00000000  1
  Nb  Nb8  1  0.66665458  0.33329687  0.34105833  1
  Nb  Nb9  1  0.33334542  0.66670313  0.84105833  1
  Nb  Nb10  1  0.33334542  0.66670313  0.65894167  1
  Nb  Nb11  1  0.66665458  0.33329687  0.15894167  1
  O  O12  1  0.52809223  0.95743390  0.75000000  1
  O  O13  1  0.04261259  0.57072759  0.75000000  1
  O  O14  1  0.42934261  0.47197011  0.75000000  1
  O  O15  1  0.47190777  0.04256610  0.25000000  1
  O  O16  1  0.95738741  0.42927241  0.25000000  1
  O  O17  1  0.57065739  0.52802989  0.25000000  1
  O  O18  1  0.10877945  0.35481229  0.60819637  1
  O  O19  1  0.64523100  0.75401895  0.60819921  1
  O  O20  1  0.24602794  0.89128210  0.60820304  1
  O  O21  1  0.89122055  0.64518771  0.10819637  1
  O  O22  1  0.35476900  0.24598105  0.10819921  1
  O  O23  1  0.75397206  0.10871790  0.10820304  1
  O  O24  1  0.89122055  0.64518771  0.39180363  1
  O  O25  1  0.35476900  0.24598105  0.39180079  1
  O  O26  1  0.75397206  0.10871790  0.39179696  1
  O  O27  1  0.10877945  0.35481229  0.89180363  1
  O  O28  1  0.64523100  0.75401895  0.89180079  1
  O  O29  1  0.24602794  0.89128210  0.89179696  1
