# generated using pymatgen
data_Rb2CrO4
_symmetry_space_group_name_H-M   'P 1'
_cell_length_a   6.04461725
_cell_length_b   7.99610455
_cell_length_c   10.70468561
_cell_angle_alpha   90.00000000
_cell_angle_beta   90.00000000
_cell_angle_gamma   90.00000000
_symmetry_Int_Tables_number   1
_chemical_formula_structural   Rb2CrO4
_chemical_formula_sum   'Rb8 Cr4 O16'
_cell_volume   517.39376043
_cell_formula_units_Z   4
loop_
 _symmetry_equiv_pos_site_id
 _symmetry_equiv_pos_as_xyz
  1  'x, y, z'
loop_
 _atom_site_type_symbol
 _atom_site_label
 _atom_site_symmetry_multiplicity
 _atom_site_fract_x
 _atom_site_fract_y
 _atom_site_fract_z
 _atom_site_occupancy
  Rb  Rb0  1  0.25000000  0.01370120  0.30290057  1
  Rb  Rb1  1  0.75000000  0.98629880  0.69709943  1
  Rb  Rb2  1  0.25000000  0.51370120  0.19709943  1
  Rb  Rb3  1  0.75000000  0.48629880  0.80290057  1
  Rb  Rb4  1  0.25000000  0.33428967  0.58768414  1
  Rb  Rb5  1  0.75000000  0.66571033  0.41231586  1
  Rb  Rb6  1  0.25000000  0.83428967  0.91231586  1
  Rb  Rb7  1  0.75000000  0.16571033  0.08768414  1
  Cr  Cr8  1  0.25000000  0.76821879  0.57931328  1
  Cr  Cr9  1  0.75000000  0.23178121  0.42068672  1
  Cr  Cr10  1  0.25000000  0.26821879  0.92068672  1
  Cr  Cr11  1  0.75000000  0.73178121  0.07931328  1
  O  O12  1  0.52706597  0.30428111  0.35026829  1
  O  O13  1  0.02706597  0.69571889  0.64973171  1
  O  O14  1  0.97293403  0.80428111  0.14973171  1
  O  O15  1  0.47293403  0.19571889  0.85026829  1
  O  O16  1  0.47293403  0.69571889  0.64973171  1
  O  O17  1  0.97293403  0.30428111  0.35026829  1
  O  O18  1  0.02706597  0.19571889  0.85026829  1
  O  O19  1  0.52706597  0.80428111  0.14973171  1
  O  O20  1  0.25000000  0.70217070  0.43292253  1
  O  O21  1  0.75000000  0.29782930  0.56707747  1
  O  O22  1  0.25000000  0.20217070  0.06707747  1
  O  O23  1  0.75000000  0.79782930  0.93292253  1
  O  O24  1  0.75000000  0.52611158  0.08385572  1
  O  O25  1  0.25000000  0.47388842  0.91614428  1
  O  O26  1  0.75000000  0.02611158  0.41614428  1
  O  O27  1  0.25000000  0.97388842  0.58385572  1
