# generated using pymatgen
data_CaV6O11F
_symmetry_space_group_name_H-M   'P 1'
_cell_length_a   5.16764353
_cell_length_b   5.38482374
_cell_length_c   8.60109348
_cell_angle_alpha   87.71715792
_cell_angle_beta   91.63544091
_cell_angle_gamma   104.88769416
_symmetry_Int_Tables_number   1
_chemical_formula_structural   CaV6O11F
_chemical_formula_sum   'Ca1 V6 O11 F1'
_cell_volume   231.08184832
_cell_formula_units_Z   1
loop_
 _symmetry_equiv_pos_site_id
 _symmetry_equiv_pos_as_xyz
  1  'x, y, z'
loop_
 _atom_site_type_symbol
 _atom_site_label
 _atom_site_symmetry_multiplicity
 _atom_site_fract_x
 _atom_site_fract_y
 _atom_site_fract_z
 _atom_site_occupancy
  Ca  Ca0  1  0.14358200  0.56643400  0.35020100  1
  V  V1  1  0.99593700  0.99561300  0.00073700  1
  V  V2  1  0.95443800  0.00445800  0.33489000  1
  V  V3  1  0.99960800  0.99708800  0.66437800  1
  V  V4  1  0.57651400  0.40656600  0.15625500  1
  V  V5  1  0.39624200  0.59647400  0.83750000  1
  V  V6  1  0.58001200  0.40651400  0.53196500  1
  O  O7  1  0.12898100  0.85693700  0.17266400  1
  O  O8  1  0.13797900  0.85561500  0.52042800  1
  O  O9  1  0.17869600  0.81254000  0.83699700  1
  O  O10  1  0.29728900  0.32073500  0.99824600  1
  O  O11  1  0.33808800  0.25593600  0.33224700  1
  O  O12  1  0.28510300  0.32510600  0.67834500  1
  O  O13  1  0.66366000  0.69469400  0.00169300  1
  O  O14  1  0.69115200  0.64891800  0.33482500  1
  O  O15  1  0.66484800  0.70245900  0.67443900  1
  O  O16  1  0.81360000  0.21615900  0.15997700  1
  O  O17  1  0.83614100  0.20016900  0.49858100  1
  F  F18  1  0.81813100  0.15147300  0.82277100  1
