# generated using pymatgen
data_Al2PbS4
_symmetry_space_group_name_H-M   'P 1'
_cell_length_a   6.02216573
_cell_length_b   6.02216573
_cell_length_c   10.52339961
_cell_angle_alpha   90.00000000
_cell_angle_beta   90.00000000
_cell_angle_gamma   120.97695361
_symmetry_Int_Tables_number   1
_chemical_formula_structural   Al2PbS4
_chemical_formula_sum   'Al4 Pb2 S8'
_cell_volume   327.21407691
_cell_formula_units_Z   2
loop_
 _symmetry_equiv_pos_site_id
 _symmetry_equiv_pos_as_xyz
  1  'x, y, z'
loop_
 _atom_site_type_symbol
 _atom_site_label
 _atom_site_symmetry_multiplicity
 _atom_site_fract_x
 _atom_site_fract_y
 _atom_site_fract_z
 _atom_site_occupancy
  Al  Al0  1  0.76208606  0.24025159  0.50000000  1
  Al  Al1  1  0.23791394  0.75974841  0.50000000  1
  Al  Al2  1  0.75974841  0.23791394  0.00000000  1
  Al  Al3  1  0.24025159  0.76208606  0.00000000  1
  Pb  Pb4  1  0.50000000  0.50000000  0.75000000  1
  Pb  Pb5  1  0.50000000  0.50000000  0.25000000  1
  S  S6  1  0.35487529  0.17863392  0.50000000  1
  S  S7  1  0.64512471  0.82136608  0.50000000  1
  S  S8  1  0.82136608  0.64512471  0.00000000  1
  S  S9  1  0.17863392  0.35487529  0.00000000  1
  S  S10  1  0.50000000  0.00000000  0.83767259  1
  S  S11  1  -0.00000000  0.50000000  0.66232741  1
  S  S12  1  0.50000000  0.00000000  0.16232741  1
  S  S13  1  -0.00000000  0.50000000  0.33767259  1
