# generated using pymatgen
data_NaAlSe2
_symmetry_space_group_name_H-M   'P 1'
_cell_length_a   7.58192815
_cell_length_b   7.58192815
_cell_length_c   14.06922086
_cell_angle_alpha   82.11083417
_cell_angle_beta   82.11083417
_cell_angle_gamma   89.97172432
_symmetry_Int_Tables_number   1
_chemical_formula_structural   NaAlSe2
_chemical_formula_sum   'Na8 Al8 Se16'
_cell_volume   793.40233642
_cell_formula_units_Z   8
loop_
 _symmetry_equiv_pos_site_id
 _symmetry_equiv_pos_as_xyz
  1  'x, y, z'
loop_
 _atom_site_type_symbol
 _atom_site_label
 _atom_site_symmetry_multiplicity
 _atom_site_fract_x
 _atom_site_fract_y
 _atom_site_fract_z
 _atom_site_occupancy
  Na  Na0  1  0.22212598  0.84746222  0.12103747  1
  Na  Na1  1  0.15253778  0.77787402  0.37896253  1
  Na  Na2  1  0.77787402  0.15253778  0.87896253  1
  Na  Na3  1  0.84746222  0.22212598  0.62103747  1
  Na  Na4  1  0.65645475  0.78111623  0.37265339  1
  Na  Na5  1  0.21888377  0.34354525  0.12734661  1
  Na  Na6  1  0.34354525  0.21888377  0.62734661  1
  Na  Na7  1  0.78111623  0.65645475  0.87265339  1
  Al  Al8  1  0.71272456  0.09070105  0.15032005  1
  Al  Al9  1  0.90929895  0.28727544  0.34967995  1
  Al  Al10  1  0.28727544  0.90929895  0.84967995  1
  Al  Al11  1  0.09070105  0.71272456  0.65032005  1
  Al  Al12  1  0.41628993  0.28705806  0.35014021  1
  Al  Al13  1  0.71294194  0.58371007  0.14985979  1
  Al  Al14  1  0.58371007  0.71294194  0.64985979  1
  Al  Al15  1  0.28705806  0.41628993  0.85014021  1
  Se  Se16  1  0.94480885  0.05519115  0.25000000  1
  Se  Se17  1  0.05519115  0.94480885  0.75000000  1
  Se  Se18  1  0.43076354  0.56923646  0.25000000  1
  Se  Se19  1  0.56923646  0.43076354  0.75000000  1
  Se  Se20  1  0.73859773  0.86345727  0.04802884  1
  Se  Se21  1  0.13654273  0.26140227  0.45197116  1
  Se  Se22  1  0.26140227  0.13654273  0.95197116  1
  Se  Se23  1  0.86345727  0.73859773  0.54802884  1
  Se  Se24  1  0.43078986  0.05472471  0.25080118  1
  Se  Se25  1  0.94527529  0.56921014  0.24919882  1
  Se  Se26  1  0.56921014  0.94527529  0.74919882  1
  Se  Se27  1  0.05472471  0.43078986  0.75080118  1
  Se  Se28  1  0.63595850  0.26093756  0.45617337  1
  Se  Se29  1  0.73906244  0.36404150  0.04382663  1
  Se  Se30  1  0.36404150  0.73906244  0.54382663  1
  Se  Se31  1  0.26093756  0.63595850  0.95617337  1
