# generated using pymatgen
data_Ba2Ge2Se5
_symmetry_space_group_name_H-M   'P 1'
_cell_length_a   9.24799457
_cell_length_b   9.31696768
_cell_length_c   12.79024829
_cell_angle_alpha   90.00000000
_cell_angle_beta   90.00000000
_cell_angle_gamma   90.00000000
_symmetry_Int_Tables_number   1
_chemical_formula_structural   Ba2Ge2Se5
_chemical_formula_sum   'Ba8 Ge8 Se20'
_cell_volume   1102.04957219
_cell_formula_units_Z   4
loop_
 _symmetry_equiv_pos_site_id
 _symmetry_equiv_pos_as_xyz
  1  'x, y, z'
loop_
 _atom_site_type_symbol
 _atom_site_label
 _atom_site_symmetry_multiplicity
 _atom_site_fract_x
 _atom_site_fract_y
 _atom_site_fract_z
 _atom_site_occupancy
  Ba  Ba0  1  0.49565974  0.87701772  0.17763534  1
  Ba  Ba1  1  0.50434026  0.37701772  0.32236466  1
  Ba  Ba2  1  0.99565974  0.12298228  0.82236466  1
  Ba  Ba3  1  0.00434026  0.62298228  0.67763534  1
  Ba  Ba4  1  0.50434026  0.12298228  0.82236466  1
  Ba  Ba5  1  0.49565974  0.62298228  0.67763534  1
  Ba  Ba6  1  0.00434026  0.87701772  0.17763534  1
  Ba  Ba7  1  0.99565974  0.37701772  0.32236466  1
  Ge  Ge8  1  0.75000000  0.97514651  0.53664479  1
  Ge  Ge9  1  0.25000000  0.02485349  0.46335521  1
  Ge  Ge10  1  0.75000000  0.52485349  0.03664479  1
  Ge  Ge11  1  0.25000000  0.47514651  0.96335521  1
  Ge  Ge12  1  0.25000000  0.81753190  0.90327471  1
  Ge  Ge13  1  0.75000000  0.31753190  0.59672529  1
  Ge  Ge14  1  0.75000000  0.18246810  0.09672529  1
  Ge  Ge15  1  0.25000000  0.68246810  0.40327471  1
  Se  Se16  1  0.25000000  0.11718286  0.28386936  1
  Se  Se17  1  0.75000000  0.61718286  0.21613064  1
  Se  Se18  1  0.75000000  0.88281714  0.71613064  1
  Se  Se19  1  0.25000000  0.38281714  0.78386936  1
  Se  Se20  1  0.75000000  0.52448623  0.49446089  1
  Se  Se21  1  0.75000000  0.97551377  0.99446089  1
  Se  Se22  1  0.25000000  0.02448623  0.00553911  1
  Se  Se23  1  0.25000000  0.47551377  0.50553911  1
  Se  Se24  1  0.25000000  0.61534888  0.22520105  1
  Se  Se25  1  0.75000000  0.11534888  0.27479895  1
  Se  Se26  1  0.75000000  0.38465112  0.77479895  1
  Se  Se27  1  0.25000000  0.88465112  0.72520105  1
  Se  Se28  1  0.04578688  0.82646520  0.44130453  1
  Se  Se29  1  0.95421312  0.32646520  0.05869547  1
  Se  Se30  1  0.54578688  0.17353480  0.55869547  1
  Se  Se31  1  0.45421312  0.67353480  0.94130453  1
  Se  Se32  1  0.95421312  0.17353480  0.55869547  1
  Se  Se33  1  0.04578688  0.67353480  0.94130453  1
  Se  Se34  1  0.45421312  0.82646520  0.44130453  1
  Se  Se35  1  0.54578688  0.32646520  0.05869547  1
