# generated using pymatgen
data_Cs3Ho7Se12
_symmetry_space_group_name_H-M   'P 1'
_cell_length_a   4.15573342
_cell_length_b   12.90949515
_cell_length_c   26.35868314
_cell_angle_alpha   90.00000000
_cell_angle_beta   90.00000000
_cell_angle_gamma   90.00000000
_symmetry_Int_Tables_number   1
_chemical_formula_structural   Cs3Ho7Se12
_chemical_formula_sum   'Cs6 Ho14 Se24'
_cell_volume   1414.10171508
_cell_formula_units_Z   2
loop_
 _symmetry_equiv_pos_site_id
 _symmetry_equiv_pos_as_xyz
  1  'x, y, z'
loop_
 _atom_site_type_symbol
 _atom_site_label
 _atom_site_symmetry_multiplicity
 _atom_site_fract_x
 _atom_site_fract_y
 _atom_site_fract_z
 _atom_site_occupancy
  Cs  Cs0  1  0.50000000  0.77192566  0.12939683  1
  Cs  Cs1  1  0.50000000  0.21864551  0.86573654  1
  Cs  Cs2  1  -0.00000000  0.28135449  0.36573654  1
  Cs  Cs3  1  -0.00000000  0.72807434  0.62939683  1
  Cs  Cs4  1  0.50000000  0.05339533  0.47362491  1
  Cs  Cs5  1  -0.00000000  0.44660467  0.97362491  1
  Ho  Ho6  1  0.50000000  0.59140372  0.81481735  1
  Ho  Ho7  1  0.50000000  0.41067410  0.18423528  1
  Ho  Ho8  1  -0.00000000  0.08932590  0.68423528  1
  Ho  Ho9  1  -0.00000000  0.90859628  0.31481735  1
  Ho  Ho10  1  0.50000000  0.71103282  0.41558101  1
  Ho  Ho11  1  0.50000000  0.28925140  0.58595501  1
  Ho  Ho12  1  0.00000000  0.21074860  0.08595501  1
  Ho  Ho13  1  0.00000000  0.78896718  0.91558101  1
  Ho  Ho14  1  0.50000000  0.91892322  0.78837609  1
  Ho  Ho15  1  0.50000000  0.08070774  0.21134701  1
  Ho  Ho16  1  0.00000000  0.41929226  0.71134701  1
  Ho  Ho17  1  -0.00000000  0.58107678  0.28837609  1
  Ho  Ho18  1  0.00000000  0.49929835  0.49983910  1
  Ho  Ho19  1  0.50000000  0.00070165  0.99983910  1
  Se  Se20  1  0.50000000  0.56405050  0.70923477  1
  Se  Se21  1  0.50000000  0.43641410  0.29025017  1
  Se  Se22  1  0.00000000  0.06358590  0.79025017  1
  Se  Se23  1  -0.00000000  0.93594950  0.20923477  1
  Se  Se24  1  0.50000000  0.63848518  0.92014873  1
  Se  Se25  1  0.50000000  0.36193212  0.07947989  1
  Se  Se26  1  0.00000000  0.13806788  0.57947989  1
  Se  Se27  1  0.00000000  0.86151482  0.42014873  1
  Se  Se28  1  0.50000000  0.94310848  0.68084371  1
  Se  Se29  1  0.50000000  0.05730526  0.32066898  1
  Se  Se30  1  -0.00000000  0.44269474  0.82066898  1
  Se  Se31  1  0.00000000  0.55689152  0.18084371  1
  Se  Se32  1  0.50000000  0.74319991  0.30186988  1
  Se  Se33  1  0.50000000  0.25679737  0.69854848  1
  Se  Se34  1  -0.00000000  0.24320263  0.19854848  1
  Se  Se35  1  0.00000000  0.75680009  0.80186988  1
  Se  Se36  1  0.50000000  0.64838631  0.51670809  1
  Se  Se37  1  0.50000000  0.34572731  0.48271471  1
  Se  Se38  1  -0.00000000  0.15427269  0.98271471  1
  Se  Se39  1  -0.00000000  0.85161369  0.01670809  1
  Se  Se40  1  0.50000000  0.93796544  0.89648530  1
  Se  Se41  1  0.50000000  0.06083047  0.10373515  1
  Se  Se42  1  0.00000000  0.43916953  0.60373515  1
  Se  Se43  1  0.00000000  0.56203456  0.39648530  1
