# generated using pymatgen
data_Ca3(BN2)2
_symmetry_space_group_name_H-M   'P 1'
_cell_length_a   6.28647150
_cell_length_b   6.28647150
_cell_length_c   20.95566923
_cell_angle_alpha   90.00000000
_cell_angle_beta   90.00000000
_cell_angle_gamma   108.77030571
_symmetry_Int_Tables_number   1
_chemical_formula_structural   Ca3(BN2)2
_chemical_formula_sum   'Ca18 B12 N24'
_cell_volume   784.11740685
_cell_formula_units_Z   6
loop_
 _symmetry_equiv_pos_site_id
 _symmetry_equiv_pos_as_xyz
  1  'x, y, z'
loop_
 _atom_site_type_symbol
 _atom_site_label
 _atom_site_symmetry_multiplicity
 _atom_site_fract_x
 _atom_site_fract_y
 _atom_site_fract_z
 _atom_site_occupancy
  Ca  Ca0  1  0.96882425  0.96882425  0.25434921  1
  Ca  Ca1  1  0.03117575  0.03117575  0.74565079  1
  Ca  Ca2  1  0.53117575  0.53117575  0.75434921  1
  Ca  Ca3  1  0.46882425  0.46882425  0.24565079  1
  Ca  Ca4  1  0.23180117  0.72462402  0.37706940  1
  Ca  Ca5  1  0.27537598  0.76819883  0.62293060  1
  Ca  Ca6  1  0.77537598  0.26819883  0.87706940  1
  Ca  Ca7  1  0.73180117  0.22462402  0.12293060  1
  Ca  Ca8  1  0.76819883  0.27537598  0.62293060  1
  Ca  Ca9  1  0.72462402  0.23180117  0.37706940  1
  Ca  Ca10  1  0.22462402  0.73180117  0.12293060  1
  Ca  Ca11  1  0.26819883  0.77537598  0.87706940  1
  Ca  Ca12  1  0.23968737  0.23968737  0.37933604  1
  Ca  Ca13  1  0.76031263  0.76031263  0.62066396  1
  Ca  Ca14  1  0.26031263  0.26031263  0.87933604  1
  Ca  Ca15  1  0.73968737  0.73968737  0.12066396  1
  Ca  Ca16  1  -0.00000000  -0.00000000  0.50000000  1
  Ca  Ca17  1  0.50000000  0.50000000  0.00000000  1
  B  B18  1  0.73090011  0.73090011  0.36989484  1
  B  B19  1  0.26909989  0.26909989  0.63010516  1
  B  B20  1  0.76909989  0.76909989  0.86989484  1
  B  B21  1  0.23090011  0.23090011  0.13010516  1
  B  B22  1  0.46767618  0.96767618  0.25000000  1
  B  B23  1  0.03232382  0.53232382  0.75000000  1
  B  B24  1  0.53232382  0.03232382  0.75000000  1
  B  B25  1  0.96767618  0.46767618  0.25000000  1
  B  B26  1  0.50000000  -0.00000000  0.50000000  1
  B  B27  1  -0.00000000  0.50000000  0.50000000  1
  B  B28  1  0.50000000  -0.00000000  0.00000000  1
  B  B29  1  -0.00000000  0.50000000  0.00000000  1
  N  N30  1  0.03119662  0.38864496  0.44848492  1
  N  N31  1  0.61135504  0.96880338  0.55151508  1
  N  N32  1  0.11135504  0.46880338  0.94848492  1
  N  N33  1  0.53119662  0.88864496  0.05151508  1
  N  N34  1  0.96880338  0.61135504  0.55151508  1
  N  N35  1  0.38864496  0.03119662  0.44848492  1
  N  N36  1  0.88864496  0.53119662  0.05151508  1
  N  N37  1  0.46880338  0.11135504  0.94848492  1
  N  N38  1  0.55918378  0.87643502  0.20449565  1
  N  N39  1  0.12356498  0.44081622  0.79550435  1
  N  N40  1  0.62356498  0.94081622  0.70449565  1
  N  N41  1  0.05918378  0.37643502  0.29550435  1
  N  N42  1  0.44081622  0.12356498  0.79550435  1
  N  N43  1  0.87643502  0.55918378  0.20449565  1
  N  N44  1  0.37643502  0.05918378  0.29550435  1
  N  N45  1  0.94081622  0.62356498  0.70449565  1
  N  N46  1  0.55300888  0.55300888  0.35692458  1
  N  N47  1  0.44699112  0.44699112  0.64307542  1
  N  N48  1  0.94699112  0.94699112  0.85692458  1
  N  N49  1  0.05300888  0.05300888  0.14307542  1
  N  N50  1  0.91218917  0.91218917  0.37830093  1
  N  N51  1  0.08781083  0.08781083  0.62169907  1
  N  N52  1  0.58781083  0.58781083  0.87830093  1
  N  N53  1  0.41218917  0.41218917  0.12169907  1
