# generated using pymatgen
data_Ca3Tl4O9
_symmetry_space_group_name_H-M   'P 1'
_cell_length_a   5.84089887
_cell_length_b   5.84089887
_cell_length_c   12.30824971
_cell_angle_alpha   77.62507103
_cell_angle_beta   77.62507103
_cell_angle_gamma   33.41303080
_symmetry_Int_Tables_number   1
_chemical_formula_structural   Ca3Tl4O9
_chemical_formula_sum   'Ca3 Tl4 O9'
_cell_volume   225.36914377
_cell_formula_units_Z   1
loop_
 _symmetry_equiv_pos_site_id
 _symmetry_equiv_pos_as_xyz
  1  'x, y, z'
loop_
 _atom_site_type_symbol
 _atom_site_label
 _atom_site_symmetry_multiplicity
 _atom_site_fract_x
 _atom_site_fract_y
 _atom_site_fract_z
 _atom_site_occupancy
  Ca  Ca0  1  0.45324141  0.45324141  0.28743484  1
  Ca  Ca1  1  0.55131369  0.55131369  0.70969309  1
  Ca  Ca2  1  0.75804265  0.75804265  0.87206408  1
  Tl  Tl3  1  0.85316309  0.85316309  0.56256557  1
  Tl  Tl4  1  0.15385033  0.15385033  0.43778674  1
  Tl  Tl5  1  0.99727604  0.99727604  0.99846382  1
  Tl  Tl6  1  0.23666274  0.23666274  0.12711382  1
  O  O7  1  0.81136377  0.81136377  0.39792015  1
  O  O8  1  0.19480405  0.19480405  0.60259411  1
  O  O9  1  0.90702966  0.90702966  0.71507064  1
  O  O10  1  0.10059984  0.10059984  0.27975213  1
  O  O11  1  0.87418163  0.87418163  0.16204036  1
  O  O12  1  0.11955497  0.11955497  0.83955388  1
  O  O13  1  0.62249557  0.62249557  0.06146265  1
  O  O14  1  0.36107178  0.36107178  0.95613831  1
  O  O15  1  0.50534779  0.50534779  0.49034683  1
