# generated using pymatgen
data_NaErGeO4
_symmetry_space_group_name_H-M   'P 1'
_cell_length_a   5.23548754
_cell_length_b   6.36770343
_cell_length_c   11.30865342
_cell_angle_alpha   90.00000000
_cell_angle_beta   90.00000000
_cell_angle_gamma   90.00000000
_symmetry_Int_Tables_number   1
_chemical_formula_structural   NaErGeO4
_chemical_formula_sum   'Na4 Er4 Ge4 O16'
_cell_volume   377.00824921
_cell_formula_units_Z   4
loop_
 _symmetry_equiv_pos_site_id
 _symmetry_equiv_pos_as_xyz
  1  'x, y, z'
loop_
 _atom_site_type_symbol
 _atom_site_label
 _atom_site_symmetry_multiplicity
 _atom_site_fract_x
 _atom_site_fract_y
 _atom_site_fract_z
 _atom_site_occupancy
  Na  Na0  1  0.50000000  -0.00000000  0.00000000  1
  Na  Na1  1  0.00000000  -0.00000000  0.50000000  1
  Na  Na2  1  0.50000000  0.50000000  0.00000000  1
  Na  Na3  1  0.00000000  0.50000000  0.50000000  1
  Er  Er4  1  0.00497104  0.75000000  0.77684481  1
  Er  Er5  1  0.50497104  0.25000000  0.72315519  1
  Er  Er6  1  0.99502896  0.25000000  0.22315519  1
  Er  Er7  1  0.49502896  0.75000000  0.27684481  1
  Ge  Ge8  1  0.05392638  0.75000000  0.09688219  1
  Ge  Ge9  1  0.55392638  0.25000000  0.40311781  1
  Ge  Ge10  1  0.94607362  0.25000000  0.90311781  1
  Ge  Ge11  1  0.44607362  0.75000000  0.59688219  1
  O  O12  1  0.79121042  0.04029468  0.82574735  1
  O  O13  1  0.29121042  0.95970532  0.67425265  1
  O  O14  1  0.20878958  0.54029468  0.17425265  1
  O  O15  1  0.70878958  0.45970532  0.32574735  1
  O  O16  1  0.20878958  0.95970532  0.17425265  1
  O  O17  1  0.70878958  0.04029468  0.32574735  1
  O  O18  1  0.79121042  0.45970532  0.82574735  1
  O  O19  1  0.29121042  0.54029468  0.67425265  1
  O  O20  1  0.17553242  0.75000000  0.95303654  1
  O  O21  1  0.67553242  0.25000000  0.54696346  1
  O  O22  1  0.82446758  0.25000000  0.04696346  1
  O  O23  1  0.32446758  0.75000000  0.45303654  1
  O  O24  1  0.77518932  0.75000000  0.61000205  1
  O  O25  1  0.27518932  0.25000000  0.88999795  1
  O  O26  1  0.22481068  0.25000000  0.38999795  1
  O  O27  1  0.72481068  0.75000000  0.11000205  1
