# generated using pymatgen
data_ErMn2O5
_symmetry_space_group_name_H-M   'P 1'
_cell_length_a   5.66766408
_cell_length_b   7.17493242
_cell_length_c   8.42724539
_cell_angle_alpha   90.00000000
_cell_angle_beta   90.00000000
_cell_angle_gamma   90.00000000
_symmetry_Int_Tables_number   1
_chemical_formula_structural   ErMn2O5
_chemical_formula_sum   'Er4 Mn8 O20'
_cell_volume   342.69483342
_cell_formula_units_Z   4
loop_
 _symmetry_equiv_pos_site_id
 _symmetry_equiv_pos_as_xyz
  1  'x, y, z'
loop_
 _atom_site_type_symbol
 _atom_site_label
 _atom_site_symmetry_multiplicity
 _atom_site_fract_x
 _atom_site_fract_y
 _atom_site_fract_z
 _atom_site_occupancy
  Er  Er0  1  0.00000000  0.36366243  0.67063626  1
  Er  Er1  1  0.00000000  0.63633757  0.32936374  1
  Er  Er2  1  0.00000000  0.86366243  0.82936374  1
  Er  Er3  1  0.00000000  0.13633757  0.17063626  1
  Mn  Mn4  1  0.50000000  0.08725727  0.84855821  1
  Mn  Mn5  1  0.50000000  0.91274273  0.15144179  1
  Mn  Mn6  1  0.50000000  0.58725727  0.65144179  1
  Mn  Mn7  1  0.50000000  0.41274273  0.34855821  1
  Mn  Mn8  1  0.25336789  0.50000000  0.00000000  1
  Mn  Mn9  1  0.74663211  0.00000000  0.50000000  1
  Mn  Mn10  1  0.74663211  0.50000000  0.00000000  1
  Mn  Mn11  1  0.25336789  0.00000000  0.50000000  1
  O  O12  1  0.24164516  0.89206280  0.29357307  1
  O  O13  1  0.24164516  0.10793720  0.70642693  1
  O  O14  1  0.75835484  0.39206280  0.20642693  1
  O  O15  1  0.75835484  0.60793720  0.79357307  1
  O  O16  1  0.75835484  0.10793720  0.70642693  1
  O  O17  1  0.75835484  0.89206280  0.29357307  1
  O  O18  1  0.24164516  0.60793720  0.79357307  1
  O  O19  1  0.24164516  0.39206280  0.20642693  1
  O  O20  1  0.50000000  0.34714068  0.93170503  1
  O  O21  1  0.50000000  0.65285932  0.06829497  1
  O  O22  1  0.50000000  0.84714068  0.56829497  1
  O  O23  1  0.50000000  0.15285932  0.43170503  1
  O  O24  1  0.26968190  0.00000000  0.00000000  1
  O  O25  1  0.73031810  0.50000000  0.50000000  1
  O  O26  1  0.73031810  0.00000000  0.00000000  1
  O  O27  1  0.26968190  0.50000000  0.50000000  1
  O  O28  1  0.00000000  0.16474717  0.44233928  1
  O  O29  1  0.00000000  0.83525283  0.55766072  1
  O  O30  1  0.00000000  0.66474717  0.05766072  1
  O  O31  1  0.00000000  0.33525283  0.94233928  1
