# generated using pymatgen
data_BiN
_symmetry_space_group_name_H-M   'P 1'
_cell_length_a   5.43684000
_cell_length_b   3.69427900
_cell_length_c   3.74224837
_cell_angle_alpha   84.57757244
_cell_angle_beta   90.00000000
_cell_angle_gamma   90.00000000
_symmetry_Int_Tables_number   1
_chemical_formula_structural   BiN
_chemical_formula_sum   'Bi2 N2'
_cell_volume   74.82746707
_cell_formula_units_Z   2
loop_
 _symmetry_equiv_pos_site_id
 _symmetry_equiv_pos_as_xyz
  1  'x, y, z'
loop_
 _atom_site_type_symbol
 _atom_site_label
 _atom_site_symmetry_multiplicity
 _atom_site_fract_x
 _atom_site_fract_y
 _atom_site_fract_z
 _atom_site_occupancy
  Bi  Bi0  1  0.03880500  0.72566800  0.72380400  1
  Bi  Bi1  1  0.53880500  0.27433200  0.27619600  1
  N  N2  1  0.45432500  0.68229800  0.67822400  1
  N  N3  1  0.95432500  0.31770200  0.32177600  1
