# generated using pymatgen
data_Cs5YO4
_symmetry_space_group_name_H-M   'P 1'
_cell_length_a   13.09120435
_cell_length_b   7.46183788
_cell_length_c   11.79920842
_cell_angle_alpha   79.29673712
_cell_angle_beta   90.00000000
_cell_angle_gamma   90.00000000
_symmetry_Int_Tables_number   1
_chemical_formula_structural   Cs5YO4
_chemical_formula_sum   'Cs20 Y4 O16'
_cell_volume   1132.54645736
_cell_formula_units_Z   4
loop_
 _symmetry_equiv_pos_site_id
 _symmetry_equiv_pos_as_xyz
  1  'x, y, z'
loop_
 _atom_site_type_symbol
 _atom_site_label
 _atom_site_symmetry_multiplicity
 _atom_site_fract_x
 _atom_site_fract_y
 _atom_site_fract_z
 _atom_site_occupancy
  Cs  Cs0  1  0.92289365  0.24066457  0.00033639  1
  Cs  Cs1  1  0.57710635  0.74066457  0.00033639  1
  Cs  Cs2  1  0.17769094  0.17161589  0.15426305  1
  Cs  Cs3  1  0.32230906  0.67161589  0.15426305  1
  Cs  Cs4  1  0.69645620  0.98895079  0.22024693  1
  Cs  Cs5  1  0.80354380  0.48895079  0.22024693  1
  Cs  Cs6  1  0.06743834  0.42929283  0.37359554  1
  Cs  Cs7  1  0.43256166  0.92929283  0.37359554  1
  Cs  Cs8  1  0.83624861  0.09445664  0.49349709  1
  Cs  Cs9  1  0.33624861  0.40554336  0.50650291  1
  Cs  Cs10  1  0.66375139  0.59445664  0.49349709  1
  Cs  Cs11  1  0.16375139  0.90554336  0.50650291  1
  Cs  Cs12  1  0.56743834  0.07070717  0.62640446  1
  Cs  Cs13  1  0.93256166  0.57070717  0.62640446  1
  Cs  Cs14  1  0.19645620  0.51104921  0.77975307  1
  Cs  Cs15  1  0.30354380  0.01104921  0.77975307  1
  Cs  Cs16  1  0.67769094  0.32838411  0.84573695  1
  Cs  Cs17  1  0.82230906  0.82838411  0.84573695  1
  Cs  Cs18  1  0.42289365  0.25933543  0.99966361  1
  Cs  Cs19  1  0.07710635  0.75933543  0.99966361  1
  Y  Y20  1  0.53791788  0.38652053  0.25978057  1
  Y  Y21  1  0.96208212  0.88652053  0.25978057  1
  Y  Y22  1  0.03791788  0.11347947  0.74021943  1
  Y  Y23  1  0.46208212  0.61347947  0.74021943  1
  O  O24  1  0.60877987  0.35583769  0.09830753  1
  O  O25  1  0.89122013  0.85583769  0.09830753  1
  O  O26  1  0.37798574  0.31057883  0.25605738  1
  O  O27  1  0.95666837  0.17125427  0.26520587  1
  O  O28  1  0.12201426  0.81057883  0.25605738  1
  O  O29  1  0.54333163  0.67125427  0.26520587  1
  O  O30  1  0.62662090  0.23106256  0.39726087  1
  O  O31  1  0.87337910  0.73106256  0.39726087  1
  O  O32  1  0.12662090  0.26893744  0.60273913  1
  O  O33  1  0.37337910  0.76893744  0.60273913  1
  O  O34  1  0.45666837  0.32874573  0.73479413  1
  O  O35  1  0.87798574  0.18942117  0.74394262  1
  O  O36  1  0.04333163  0.82874573  0.73479413  1
  O  O37  1  0.62201426  0.68942117  0.74394262  1
  O  O38  1  0.10877987  0.14416231  0.90169247  1
  O  O39  1  0.39122013  0.64416231  0.90169247  1
