# generated using pymatgen
data_Na3CaFe4(SiO3)8
_symmetry_space_group_name_H-M   'P 1'
_cell_length_a   10.70870639
_cell_length_b   9.40021806
_cell_length_c   19.95528409
_cell_angle_alpha   78.93514090
_cell_angle_beta   77.52759216
_cell_angle_gamma   43.74713434
_symmetry_Int_Tables_number   1
_chemical_formula_structural   Na3CaFe4(SiO3)8
_chemical_formula_sum   'Na9 Ca3 Fe12 Si24 O72'
_cell_volume   1354.32662181
_cell_formula_units_Z   3
loop_
 _symmetry_equiv_pos_site_id
 _symmetry_equiv_pos_as_xyz
  1  'x, y, z'
loop_
 _atom_site_type_symbol
 _atom_site_label
 _atom_site_symmetry_multiplicity
 _atom_site_fract_x
 _atom_site_fract_y
 _atom_site_fract_z
 _atom_site_occupancy
  Na  Na0  1  0.22147255  0.30198912  0.56685715  1
  Na  Na1  1  0.22707417  0.30136130  0.89894010  1
  Na  Na2  1  0.27640557  0.70060817  0.10077249  1
  Na  Na3  1  0.27421864  0.69845507  0.43310460  1
  Na  Na4  1  0.27526348  0.69703619  0.76692529  1
  Na  Na5  1  0.72698812  0.30144883  0.23315014  1
  Na  Na6  1  0.77447981  0.69746767  0.10001546  1
  Na  Na7  1  0.77741551  0.69850744  0.43399751  1
  Na  Na8  1  0.77573799  0.70058278  0.76709681  1
  Ca  Ca9  1  0.21891622  0.30098062  0.23304297  1
  Ca  Ca10  1  0.72942312  0.30097827  0.56537712  1
  Ca  Ca11  1  0.71903893  0.30186845  0.90011592  1
  Fe  Fe12  1  0.07431593  0.09412682  0.30039696  1
  Fe  Fe13  1  0.07992143  0.09824655  0.63494069  1
  Fe  Fe14  1  0.07877766  0.09985155  0.96817808  1
  Fe  Fe15  1  0.57802933  0.09967925  0.30118540  1
  Fe  Fe16  1  0.57328631  0.09677763  0.63362699  1
  Fe  Fe17  1  0.57350989  0.09472485  0.96633168  1
  Fe  Fe18  1  0.42732392  0.90086605  0.03370415  1
  Fe  Fe19  1  0.42471925  0.89683796  0.36698475  1
  Fe  Fe20  1  0.42283869  0.89961910  0.69965216  1
  Fe  Fe21  1  0.92453724  0.89785020  0.03383314  1
  Fe  Fe22  1  0.92743363  0.90115956  0.36666193  1
  Fe  Fe23  1  0.92683352  0.89862093  0.70087093  1
  Si  Si24  1  0.03404528  0.19790419  0.12658406  1
  Si  Si25  1  0.03568831  0.19766744  0.45798280  1
  Si  Si26  1  0.03617507  0.19816389  0.79334329  1
  Si  Si27  1  0.19215797  0.37837163  0.06553423  1
  Si  Si28  1  0.19231462  0.38151766  0.40001059  1
  Si  Si29  1  0.19258950  0.38115157  0.73280764  1
  Si  Si30  1  0.53558724  0.19863851  0.12586370  1
  Si  Si31  1  0.30718976  0.61801877  0.26775789  1
  Si  Si32  1  0.53443832  0.19806252  0.46020301  1
  Si  Si33  1  0.30411392  0.62258001  0.60008243  1
  Si  Si34  1  0.53388112  0.19792282  0.79239798  1
  Si  Si35  1  0.69228802  0.38176438  0.06667301  1
  Si  Si36  1  0.30283213  0.62619665  0.93373652  1
  Si  Si37  1  0.46736477  0.79951644  0.20728787  1
  Si  Si38  1  0.69184947  0.37843659  0.39863584  1
  Si  Si39  1  0.46733379  0.80394704  0.54004600  1
  Si  Si40  1  0.69261627  0.37830546  0.73246501  1
  Si  Si41  1  0.46651020  0.80440244  0.87291774  1
  Si  Si42  1  0.80293143  0.62571840  0.26714142  1
  Si  Si43  1  0.80609450  0.62100145  0.60084736  1
  Si  Si44  1  0.80689544  0.61845907  0.93431385  1
  Si  Si45  1  0.96638036  0.80403768  0.20656623  1
  Si  Si46  1  0.96665692  0.79954286  0.53970341  1
  Si  Si47  1  0.96715414  0.79985502  0.87389420  1
  O  O48  1  0.04591055  0.10178426  0.20250371  1
  O  O49  1  0.16404513  0.03605382  0.06373202  1
  O  O50  1  0.03433095  0.11096340  0.53543170  1
  O  O51  1  0.16929199  0.02989993  0.39853057  1
  O  O52  1  0.07739754  0.33935554  0.12231862  1
  O  O53  1  0.03428042  0.11794153  0.87306148  1
  O  O54  1  0.17119411  0.02534677  0.73607859  1
  O  O55  1  0.04037084  0.61451343  0.03581647  1
  O  O56  1  0.07732423  0.33902285  0.45252630  1
  O  O57  1  0.32404566  0.19545234  0.01229907  1
  O  O58  1  0.03974401  0.61512604  0.36920187  1
  O  O59  1  0.07615044  0.34101636  0.78646195  1
  O  O60  1  0.33082135  0.19985740  0.34326079  1
  O  O61  1  0.31692641  0.35617774  0.11345681  1
  O  O62  1  0.03947775  0.61557096  0.70203229  1
  O  O63  1  0.18425605  0.63430180  0.22103716  1
  O  O64  1  0.33329350  0.19573394  0.67822527  1
  O  O65  1  0.53524770  0.11638585  0.20563259  1
  O  O66  1  0.31857070  0.35716618  0.44639766  1
  O  O67  1  0.66861106  0.02937952  0.06708296  1
  O  O68  1  0.18291752  0.64051809  0.55321145  1
  O  O69  1  0.16903136  0.79315501  0.32414234  1
  O  O70  1  0.54556151  0.10528228  0.53830656  1
  O  O71  1  0.31705304  0.36307508  0.77761980  1
  O  O72  1  0.46155367  0.38196507  0.29758774  1
  O  O73  1  0.66377296  0.03465556  0.39837147  1
  O  O74  1  0.57708073  0.33958006  0.11992631  1
  O  O75  1  0.18431142  0.64059124  0.88631854  1
  O  O76  1  0.16711725  0.79926606  0.65650356  1
  O  O77  1  0.54603999  0.10067492  0.86825468  1
  O  O78  1  0.42210475  0.66106031  0.21494400  1
  O  O79  1  0.46516497  0.38341065  0.62733736  1
  O  O80  1  0.66372964  0.03741841  0.72910707  1
  O  O81  1  0.53890361  0.61502555  0.03557098  1
  O  O82  1  0.57808063  0.33816281  0.45618384  1
  O  O83  1  0.83060940  0.19885533  0.01036284  1
  O  O84  1  0.16237020  0.81132312  0.98845530  1
  O  O85  1  0.42477968  0.66075846  0.54765742  1
  O  O86  1  0.46160880  0.39541075  0.96334109  1
  O  O87  1  0.34593961  0.96731499  0.26681981  1
  O  O88  1  0.53895524  0.61403803  0.36871534  1
  O  O89  1  0.57912480  0.33734185  0.78877456  1
  O  O90  1  0.45477876  0.89319889  0.12899283  1
  O  O91  1  0.82360693  0.19461265  0.34578987  1
  O  O92  1  0.81758250  0.36020383  0.11187332  1
  O  O93  1  0.42202719  0.66488770  0.87959289  1
  O  O94  1  0.34723801  0.96296274  0.60156547  1
  O  O95  1  0.54035490  0.61316931  0.70211353  1
  O  O96  1  0.68463762  0.63975842  0.21982049  1
  O  O97  1  0.45798714  0.89234341  0.46139825  1
  O  O98  1  0.82075159  0.19907842  0.67709782  1
  O  O99  1  0.81575440  0.35999938  0.44493789  1
  O  O100  1  0.33634651  0.96640081  0.93473618  1
  O  O101  1  0.68657870  0.63301894  0.55361782  1
  O  O102  1  0.45892379  0.89295084  0.79466163  1
  O  O103  1  0.66221982  0.81156621  0.32169577  1
  O  O104  1  0.81812235  0.35337692  0.78037629  1
  O  O105  1  0.96163330  0.39549667  0.29682168  1
  O  O106  1  0.68450706  0.63406922  0.88754206  1
  O  O107  1  0.66362058  0.80875324  0.65482884  1
  O  O108  1  0.92214674  0.66457354  0.21308657  1
  O  O109  1  0.95614371  0.39212832  0.63342950  1
  O  O110  1  0.66854937  0.79409174  0.99070030  1
  O  O111  1  0.92070678  0.66315648  0.54680366  1
  O  O112  1  0.96103597  0.38289938  0.96410184  1
  O  O113  1  0.83576990  0.96641323  0.26835818  1
  O  O114  1  0.95731182  0.89406971  0.12839858  1
  O  O115  1  0.92213236  0.66133275  0.88146336  1
  O  O116  1  0.83476529  0.96976124  0.60013623  1
  O  O117  1  0.95496526  0.89364701  0.46206705  1
  O  O118  1  0.84513135  0.96782073  0.93346108  1
  O  O119  1  0.95452063  0.89350111  0.79537458  1
