# generated using pymatgen
data_Ba2MgMo4(Se2O11)2
_symmetry_space_group_name_H-M   'P 1'
_cell_length_a   8.14536268
_cell_length_b   7.91597240
_cell_length_c   9.08013805
_cell_angle_alpha   114.58539853
_cell_angle_beta   90.10444608
_cell_angle_gamma   89.77442337
_symmetry_Int_Tables_number   1
_chemical_formula_structural   Ba2MgMo4(Se2O11)2
_chemical_formula_sum   'Ba2 Mg1 Mo4 Se4 O22'
_cell_volume   532.39148894
_cell_formula_units_Z   1
loop_
 _symmetry_equiv_pos_site_id
 _symmetry_equiv_pos_as_xyz
  1  'x, y, z'
loop_
 _atom_site_type_symbol
 _atom_site_label
 _atom_site_symmetry_multiplicity
 _atom_site_fract_x
 _atom_site_fract_y
 _atom_site_fract_z
 _atom_site_occupancy
  Ba  Ba0  1  0.64330100  0.22412100  0.00065300  1
  Ba  Ba1  1  0.14419600  0.79447900  0.04450600  1
  Mg  Mg2  1  0.02532500  0.56815200  0.65789700  1
  Mo  Mo3  1  0.64189900  0.84659900  0.20993500  1
  Mo  Mo4  1  0.14203400  0.17758900  0.77350400  1
  Mo  Mo5  1  0.67032300  0.62944400  0.78618800  1
  Mo  Mo6  1  0.15063100  0.37746300  0.21215700  1
  Se  Se7  1  0.81926600  0.24559800  0.39281100  1
  Se  Se8  1  0.31010500  0.11633800  0.42118700  1
  Se  Se9  1  0.79643200  0.87748100  0.57502100  1
  Se  Se10  1  0.32803300  0.70427000  0.58137800  1
  O  O11  1  0.08459200  0.57891900  0.18726800  1
  O  O12  1  0.57171900  0.82355700  0.00252000  1
  O  O13  1  0.39294400  0.90505500  0.28649000  1
  O  O14  1  0.64802300  0.86148800  0.70537300  1
  O  O15  1  0.42793700  0.58585200  0.67512600  1
  O  O16  1  0.85278200  0.88544500  0.19255900  1
  O  O17  1  0.36248000  0.32901900  0.16430100  1
  O  O18  1  0.89448900  0.31935600  0.25256300  1
  O  O19  1  0.17587700  0.02772800  0.52450700  1
  O  O20  1  0.89391300  0.07899900  0.70497200  1
  O  O21  1  0.63897700  0.43670900  0.82951000  1
  O  O22  1  0.79771500  0.47527100  0.55656700  1
  O  O23  1  0.62902400  0.17533100  0.30589000  1
  O  O24  1  0.63614900  0.61633500  0.18454100  1
  O  O25  1  0.35313100  0.18095700  0.80531500  1
  O  O26  1  0.07603900  0.19854100  0.97493100  1
  O  O27  1  0.16500500  0.13715200  0.29147700  1
  O  O28  1  0.17986100  0.81899500  0.72762200  1
  O  O29  1  0.66862900  0.96185600  0.46848000  1
  O  O30  1  0.88416400  0.72045000  0.84390500  1
  O  O31  1  0.18454700  0.52257700  0.46957500  1
  O  O32  1  0.10525800  0.40043500  0.76984000  1
