# generated using pymatgen
data_Li4Zn(PS4)2
_symmetry_space_group_name_H-M   'P 1'
_cell_length_a   9.53482022
_cell_length_b   11.51214618
_cell_length_c   22.98172240
_cell_angle_alpha   90.02326083
_cell_angle_beta   90.01953903
_cell_angle_gamma   90.05451779
_symmetry_Int_Tables_number   1
_chemical_formula_structural   Li4Zn(PS4)2
_chemical_formula_sum   'Li32 Zn8 P16 S64'
_cell_volume   2522.61585547
_cell_formula_units_Z   8
loop_
 _symmetry_equiv_pos_site_id
 _symmetry_equiv_pos_as_xyz
  1  'x, y, z'
loop_
 _atom_site_type_symbol
 _atom_site_label
 _atom_site_symmetry_multiplicity
 _atom_site_fract_x
 _atom_site_fract_y
 _atom_site_fract_z
 _atom_site_occupancy
  Li  Li0  1  0.75170491  0.25119542  0.99864395  1
  Li  Li1  1  0.74792785  0.74757973  0.75227998  1
  Li  Li2  1  0.74981436  0.25090138  0.75011620  1
  Li  Li3  1  0.25115925  0.50112325  0.87089242  1
  Li  Li4  1  0.24340778  0.00185563  0.87054863  1
  Li  Li5  1  0.75142713  0.25981479  0.25197041  1
  Li  Li6  1  0.24790768  0.49252555  0.37482876  1
  Li  Li7  1  0.24974050  0.00534345  0.37617583  1
  Li  Li8  1  0.99251127  0.75093466  0.87654208  1
  Li  Li9  1  0.99967419  0.24963387  0.87444411  1
  Li  Li10  1  0.49266184  0.50199219  0.74873327  1
  Li  Li11  1  0.49341959  0.00071760  0.74885302  1
  Li  Li12  1  0.99214799  0.24991238  0.37684137  1
  Li  Li13  1  0.50820175  0.49868215  0.50055976  1
  Li  Li14  1  0.01535848  0.24871062  0.12630193  1
  Li  Li15  1  0.49952756  0.50283274  0.24989966  1
  Li  Li16  1  0.00322465  0.99976935  0.00206185  1
  Li  Li17  1  0.00686948  0.50067227  0.00086868  1
  Li  Li18  1  0.00137128  0.00015777  0.74950146  1
  Li  Li19  1  0.00464391  0.50093315  0.75054470  1
  Li  Li20  1  0.50218079  0.74898740  0.87558629  1
  Li  Li21  1  0.49743820  0.24730152  0.87261421  1
  Li  Li22  1  0.99072398  0.99936732  0.49971698  1
  Li  Li23  1  0.99802907  0.49887167  0.50128731  1
  Li  Li24  1  0.49523070  0.74586595  0.62381578  1
  Li  Li25  1  0.50083718  0.25178197  0.62335596  1
  Li  Li26  1  0.99432432  0.99820507  0.24841291  1
  Li  Li27  1  0.00479946  0.49778988  0.24887392  1
  Li  Li28  1  0.50799341  0.74919226  0.37550489  1
  Li  Li29  1  0.51227603  0.25425569  0.37699196  1
  Li  Li30  1  0.49924922  0.75141510  0.12724949  1
  Li  Li31  1  0.49117512  0.25246978  0.12527862  1
  Zn  Zn32  1  0.00671599  0.74928376  0.62428627  1
  Zn  Zn33  1  0.00730533  0.25112669  0.62459023  1
  Zn  Zn34  1  0.98539854  0.74672126  0.37360685  1
  Zn  Zn35  1  0.50484414  0.00065491  0.50117014  1
  Zn  Zn36  1  0.99827185  0.74846660  0.12454358  1
  Zn  Zn37  1  0.49685202  0.99975960  0.25056937  1
  Zn  Zn38  1  0.50103577  0.50058100  0.00042622  1
  Zn  Zn39  1  0.49989802  0.99931811  0.00022794  1
  P  P40  1  0.75248276  0.99721148  0.87494345  1
  P  P41  1  0.74663247  0.49359457  0.87541149  1
  P  P42  1  0.75118992  0.00501907  0.62542808  1
  P  P43  1  0.75339277  0.50157829  0.62698499  1
  P  P44  1  0.24929610  0.75528643  0.75080907  1
  P  P45  1  0.24970844  0.25417333  0.75023081  1
  P  P46  1  0.74571899  0.99858360  0.37178233  1
  P  P47  1  0.75327406  0.50076366  0.37610096  1
  P  P48  1  0.24811408  0.75113994  0.50035926  1
  P  P49  1  0.25043701  0.24268930  0.49750120  1
  P  P50  1  0.74828769  0.00105789  0.12228323  1
  P  P51  1  0.75155453  0.50356116  0.12641387  1
  P  P52  1  0.24707350  0.75376523  0.25319442  1
  P  P53  1  0.25065288  0.24791929  0.25059365  1
  P  P54  1  0.25118257  0.74495879  0.00004795  1
  P  P55  1  0.25144117  0.24868819  0.99790842  1
  S  S56  1  0.62985679  0.89497298  0.06946599  1
  S  S57  1  0.63351674  0.39533191  0.06955363  1
  S  S58  1  0.62703973  0.89590037  0.82249602  1
  S  S59  1  0.62679469  0.39185975  0.82121111  1
  S  S60  1  0.13563441  0.64404908  0.94481668  1
  S  S61  1  0.13489785  0.14293448  0.94442866  1
  S  S62  1  0.63888945  0.89732495  0.57068345  1
  S  S63  1  0.64143446  0.39794121  0.57374678  1
  S  S64  1  0.12825908  0.64882790  0.69795813  1
  S  S65  1  0.12798439  0.14776551  0.69758907  1
  S  S66  1  0.63150503  0.89194763  0.31738206  1
  S  S67  1  0.63459844  0.39730430  0.32054107  1
  S  S68  1  0.12812149  0.64843437  0.44344448  1
  S  S69  1  0.12789088  0.13879740  0.44535931  1
  S  S70  1  0.13283768  0.65090056  0.19697493  1
  S  S71  1  0.13492741  0.14058807  0.19977495  1
  S  S72  1  0.86711992  0.60195817  0.82459328  1
  S  S73  1  0.86570178  0.10739181  0.82233191  1
  S  S74  1  0.87280916  0.60905918  0.57459581  1
  S  S75  1  0.86947232  0.11178694  0.57334952  1
  S  S76  1  0.36922965  0.35427178  0.69784487  1
  S  S77  1  0.36809010  0.85527683  0.69797605  1
  S  S78  1  0.86712257  0.60781093  0.31956638  1
  S  S79  1  0.86472412  0.10705140  0.32090550  1
  S  S80  1  0.36725471  0.35423526  0.44714944  1
  S  S81  1  0.36852353  0.86239221  0.44727776  1
  S  S82  1  0.86996804  0.60792738  0.07194881  1
  S  S83  1  0.86583917  0.11166310  0.07239957  1
  S  S84  1  0.37109888  0.35267056  0.20046983  1
  S  S85  1  0.35900911  0.86358847  0.19958834  1
  S  S86  1  0.37450403  0.35872318  0.94530129  1
  S  S87  1  0.36746532  0.85928242  0.94752003  1
  S  S88  1  0.62606669  0.10451705  0.92840242  1
  S  S89  1  0.62980652  0.60137799  0.92890810  1
  S  S90  1  0.63338114  0.10632669  0.67972823  1
  S  S91  1  0.63775214  0.60670041  0.68124254  1
  S  S92  1  0.12577933  0.85690569  0.80460683  1
  S  S93  1  0.13012634  0.35779135  0.80450222  1
  S  S94  1  0.63558095  0.10222266  0.42914667  1
  S  S95  1  0.63243393  0.60430625  0.42698102  1
  S  S96  1  0.12985770  0.85777896  0.55294645  1
  S  S97  1  0.13843344  0.34953918  0.55308757  1
  S  S98  1  0.62965836  0.10479101  0.17903431  1
  S  S99  1  0.63357877  0.60573883  0.17773030  1
  S  S100  1  0.12455408  0.85914667  0.30719858  1
  S  S101  1  0.13153597  0.35060397  0.30525685  1
  S  S102  1  0.13868477  0.85064169  0.05529852  1
  S  S103  1  0.13871686  0.35169531  0.05126954  1
  S  S104  1  0.86783354  0.89712255  0.92875154  1
  S  S105  1  0.87019985  0.39201233  0.92849833  1
  S  S106  1  0.86944159  0.89071502  0.67700072  1
  S  S107  1  0.87665100  0.39096442  0.67943652  1
  S  S108  1  0.36555384  0.64551520  0.80350590  1
  S  S109  1  0.36327820  0.14213532  0.80262606  1
  S  S110  1  0.85972787  0.88933423  0.42508412  1
  S  S111  1  0.87067273  0.39641106  0.42783346  1
  S  S112  1  0.36006496  0.64162899  0.54989711  1
  S  S113  1  0.36852627  0.13768163  0.55150696  1
  S  S114  1  0.86151905  0.89023724  0.17459109  1
  S  S115  1  0.86896567  0.39093682  0.17576968  1
  S  S116  1  0.36365918  0.64575362  0.30441545  1
  S  S117  1  0.37552606  0.14050394  0.30566416  1
  S  S118  1  0.37055164  0.64004581  0.05273255  1
  S  S119  1  0.37204214  0.14223832  0.05039328  1
