# generated using pymatgen
data_K2Hg6S7
_symmetry_space_group_name_H-M   'P 1'
_cell_length_a   4.11245859
_cell_length_b   13.95989296
_cell_length_c   13.96070146
_cell_angle_alpha   90.00166616
_cell_angle_beta   90.00239472
_cell_angle_gamma   90.00235147
_symmetry_Int_Tables_number   1
_chemical_formula_structural   K2Hg6S7
_chemical_formula_sum   'K4 Hg12 S14'
_cell_volume   801.47663439
_cell_formula_units_Z   2
loop_
 _symmetry_equiv_pos_site_id
 _symmetry_equiv_pos_as_xyz
  1  'x, y, z'
loop_
 _atom_site_type_symbol
 _atom_site_label
 _atom_site_symmetry_multiplicity
 _atom_site_fract_x
 _atom_site_fract_y
 _atom_site_fract_z
 _atom_site_occupancy
  K  K0  1  0.23471590  0.17145506  0.67141095  1
  K  K1  1  0.23470735  0.82856486  0.32862555  1
  K  K2  1  0.76525329  0.67142685  0.82855807  1
  K  K3  1  0.76528253  0.32855366  0.17139379  1
  Hg  Hg4  1  0.27673740  0.59779295  0.09786736  1
  Hg  Hg5  1  0.27678755  0.40221204  0.90213891  1
  Hg  Hg6  1  0.72323971  0.09787031  0.40220717  1
  Hg  Hg7  1  0.72321784  0.90224008  0.59791056  1
  Hg  Hg8  1  0.23807533  0.06765580  0.15901983  1
  Hg  Hg9  1  0.23797105  0.93235269  0.84105224  1
  Hg  Hg10  1  0.76196979  0.15902665  0.93231817  1
  Hg  Hg11  1  0.76201591  0.43233263  0.65898855  1
  Hg  Hg12  1  0.76198902  0.84097121  0.06769091  1
  Hg  Hg13  1  0.76203244  0.56767476  0.34100331  1
  Hg  Hg14  1  0.23795395  0.34099877  0.43228872  1
  Hg  Hg15  1  0.23806155  0.65906580  0.56771165  1
  S  S16  1  0.25291438  0.19710624  0.03590009  1
  S  S17  1  0.25284877  0.80284800  0.96410324  1
  S  S18  1  0.74710702  0.03590269  0.80285742  1
  S  S19  1  0.74707457  0.30288838  0.53586458  1
  S  S20  1  0.74716466  0.96407341  0.19716167  1
  S  S21  1  0.74711477  0.69712570  0.46411269  1
  S  S22  1  0.25286755  0.46410106  0.30282107  1
  S  S23  1  0.25291531  0.53590118  0.69713428  1
  S  S24  1  0.66675896  0.68615576  0.18618548  1
  S  S25  1  0.66674092  0.31385283  0.81382345  1
  S  S26  1  0.33328170  0.18616493  0.31382825  1
  S  S27  1  0.33324490  0.81385956  0.68619317  1
  S  S28  1  0.06378140  0.00006777  0.50007262  1
  S  S29  1  0.93617749  0.49999936  -0.00000376  1
