# generated using pymatgen
data_MgFe7(Ni3O8)2
_symmetry_space_group_name_H-M   'P 1'
_cell_length_a   6.02393261
_cell_length_b   6.02393261
_cell_length_c   10.41942614
_cell_angle_alpha   105.27481882
_cell_angle_beta   74.72518118
_cell_angle_gamma   119.34561322
_symmetry_Int_Tables_number   1
_chemical_formula_structural   MgFe7(Ni3O8)2
_chemical_formula_sum   'Mg1 Fe7 Ni6 O16'
_cell_volume   313.85342714
_cell_formula_units_Z   1
loop_
 _symmetry_equiv_pos_site_id
 _symmetry_equiv_pos_as_xyz
  1  'x, y, z'
loop_
 _atom_site_type_symbol
 _atom_site_label
 _atom_site_symmetry_multiplicity
 _atom_site_fract_x
 _atom_site_fract_y
 _atom_site_fract_z
 _atom_site_occupancy
  Mg  Mg0  1  0.81250000  0.18750000  0.06250000  1
  Fe  Fe1  1  0.31250000  0.68750000  0.06250000  1
  Fe  Fe2  1  0.06306749  0.93693251  0.82325035  1
  Fe  Fe3  1  0.56251532  0.93851331  0.31274239  1
  Fe  Fe4  1  0.06148669  0.43748468  0.31274239  1
  Fe  Fe5  1  0.56193251  0.43806749  0.30174965  1
  Fe  Fe6  1  0.56351331  0.93751532  0.81225761  1
  Fe  Fe7  1  0.06248468  0.43648669  0.81225761  1
  Ni  Ni8  1  0.06302633  0.93697367  0.29917617  1
  Ni  Ni9  1  0.31250000  0.68750000  0.56250000  1
  Ni  Ni10  1  0.81250000  0.68750000  0.56250000  1
  Ni  Ni11  1  0.31250000  0.18750000  0.56250000  1
  Ni  Ni12  1  0.81250000  0.18750000  0.56250000  1
  Ni  Ni13  1  0.56197367  0.43802633  0.82582383  1
  O  O14  1  0.41499090  0.58500910  0.21226670  1
  O  O15  1  0.18416102  0.81583898  0.44103731  1
  O  O16  1  0.68460396  0.82129419  0.44188108  1
  O  O17  1  0.17870581  0.31539604  0.44188108  1
  O  O18  1  0.94154623  0.55800670  0.19766948  1
  O  O19  1  0.44199330  0.05845377  0.19766948  1
  O  O20  1  0.68256871  0.31743129  0.44002641  1
  O  O21  1  0.91413434  0.08586566  0.21045744  1
  O  O22  1  0.21000910  0.78999090  0.91273330  1
  O  O23  1  0.44083898  0.55916102  0.68396269  1
  O  O24  1  0.68345377  0.81699330  0.92733052  1
  O  O25  1  0.18300670  0.31654623  0.92733052  1
  O  O26  1  0.94039604  0.55370581  0.68311892  1
  O  O27  1  0.44629419  0.05960396  0.68311892  1
  O  O28  1  0.94243129  0.05756871  0.68497359  1
  O  O29  1  0.71086566  0.28913434  0.91454256  1
