# generated using pymatgen
data_Rb2MgCl4
_symmetry_space_group_name_H-M   'P 1'
_cell_length_a   4.98979046
_cell_length_b   4.98979046
_cell_length_c   8.83986239
_cell_angle_alpha   106.39348080
_cell_angle_beta   106.39348080
_cell_angle_gamma   90.00000000
_symmetry_Int_Tables_number   1
_chemical_formula_structural   Rb2MgCl4
_chemical_formula_sum   'Rb2 Mg1 Cl4'
_cell_volume   201.80318883
_cell_formula_units_Z   1
loop_
 _symmetry_equiv_pos_site_id
 _symmetry_equiv_pos_as_xyz
  1  'x, y, z'
loop_
 _atom_site_type_symbol
 _atom_site_label
 _atom_site_symmetry_multiplicity
 _atom_site_fract_x
 _atom_site_fract_y
 _atom_site_fract_z
 _atom_site_occupancy
  Rb  Rb0  1  0.35697926  0.35697926  0.71395752  1
  Rb  Rb1  1  0.64302074  0.64302074  0.28604248  1
  Mg  Mg2  1  0.00000000  -0.00000000  -0.00000000  1
  Cl  Cl3  1  0.15486416  0.15486416  0.30972831  1
  Cl  Cl4  1  0.84513584  0.84513584  0.69027169  1
  Cl  Cl5  1  0.00000000  0.50000000  0.00000000  1
  Cl  Cl6  1  0.50000000  -0.00000000  0.00000000  1
