# generated using pymatgen
data_K3Au3Br8
_symmetry_space_group_name_H-M   'P 1'
_cell_length_a   7.27883945
_cell_length_b   7.27883945
_cell_length_c   18.79477660
_cell_angle_alpha   82.46266817
_cell_angle_beta   82.46266817
_cell_angle_gamma   64.95730982
_symmetry_Int_Tables_number   1
_chemical_formula_structural   K3Au3Br8
_chemical_formula_sum   'K6 Au6 Br16'
_cell_volume   891.19233676
_cell_formula_units_Z   2
loop_
 _symmetry_equiv_pos_site_id
 _symmetry_equiv_pos_as_xyz
  1  'x, y, z'
loop_
 _atom_site_type_symbol
 _atom_site_label
 _atom_site_symmetry_multiplicity
 _atom_site_fract_x
 _atom_site_fract_y
 _atom_site_fract_z
 _atom_site_occupancy
  K  K0  1  0.69121465  0.67879843  0.41792464  1
  K  K1  1  0.30878535  0.32120157  0.58207536  1
  K  K2  1  0.32120157  0.30878535  0.08207536  1
  K  K3  1  0.67879843  0.69121465  0.91792464  1
  K  K4  1  0.97624751  0.02375249  0.25000000  1
  K  K5  1  0.02375249  0.97624751  0.75000000  1
  Au  Au6  1  0.00000000  -0.00000000  0.00000000  1
  Au  Au7  1  0.00000000  -0.00000000  0.50000000  1
  Au  Au8  1  0.60469391  0.60394715  0.19621066  1
  Au  Au9  1  0.39530609  0.39605285  0.80378934  1
  Au  Au10  1  0.39605285  0.39530609  0.30378934  1
  Au  Au11  1  0.60394715  0.60469391  0.69621066  1
  Br  Br12  1  0.30662430  0.74200797  0.12793464  1
  Br  Br13  1  0.69337570  0.25799203  0.87206536  1
  Br  Br14  1  0.25799203  0.69337570  0.37206536  1
  Br  Br15  1  0.74200797  0.30662430  0.62793464  1
  Br  Br16  1  0.50207053  0.08506523  0.24428223  1
  Br  Br17  1  0.49792947  0.91493477  0.75571777  1
  Br  Br18  1  0.91493477  0.49792947  0.25571777  1
  Br  Br19  1  0.08506523  0.50207053  0.74428223  1
  Br  Br20  1  0.77350913  0.84591895  0.06540402  1
  Br  Br21  1  0.22649087  0.15408105  0.93459598  1
  Br  Br22  1  0.15408105  0.22649087  0.43459598  1
  Br  Br23  1  0.84591895  0.77350913  0.56540402  1
  Br  Br24  1  0.70719333  0.16191286  0.42371575  1
  Br  Br25  1  0.29280667  0.83808714  0.57628425  1
  Br  Br26  1  0.83808714  0.29280667  0.07628425  1
  Br  Br27  1  0.16191286  0.70719333  0.92371575  1
