# generated using pymatgen
data_K2Mg5(Si2O5)6
_symmetry_space_group_name_H-M   'P 1'
_cell_length_a   10.34651229
_cell_length_b   10.34653356
_cell_length_c   14.36809166
_cell_angle_alpha   90.00000000
_cell_angle_beta   90.00000000
_cell_angle_gamma   60.00006800
_symmetry_Int_Tables_number   1
_chemical_formula_structural   K2Mg5(Si2O5)6
_chemical_formula_sum   'K4 Mg10 Si24 O60'
_cell_volume   1332.04491111
_cell_formula_units_Z   2
loop_
 _symmetry_equiv_pos_site_id
 _symmetry_equiv_pos_as_xyz
  1  'x, y, z'
loop_
 _atom_site_type_symbol
 _atom_site_label
 _atom_site_symmetry_multiplicity
 _atom_site_fract_x
 _atom_site_fract_y
 _atom_site_fract_z
 _atom_site_occupancy
  K  K0  1  0.00000229  -0.00000000  0.25000000  1
  K  K1  1  0.00000229  -0.00000000  0.75000000  1
  K  K2  1  0.33335646  0.33332136  0.50000000  1
  K  K3  1  0.66667782  0.66667864  -0.00000000  1
  Mg  Mg4  1  0.33334932  0.33332770  0.24599183  1
  Mg  Mg5  1  0.33334932  0.33332770  0.75400817  1
  Mg  Mg6  1  0.66667702  0.66667230  0.74599183  1
  Mg  Mg7  1  0.66667702  0.66667230  0.25400817  1
  Mg  Mg8  1  0.49965762  0.00000000  0.25000000  1
  Mg  Mg9  1  0.00001271  0.50034113  0.25000063  1
  Mg  Mg10  1  0.50035385  0.49965887  0.24999937  1
  Mg  Mg11  1  0.49965762  0.00000000  0.75000000  1
  Mg  Mg12  1  0.00001271  0.50034113  0.74999937  1
  Mg  Mg13  1  0.50035385  0.49965887  0.75000063  1
  Si  Si14  1  0.35038703  0.88689924  0.38835238  1
  Si  Si15  1  0.88690161  0.76271261  0.38835264  1
  Si  Si16  1  0.76271510  0.35038761  0.38835241  1
  Si  Si17  1  0.35038703  0.88689924  0.61164762  1
  Si  Si18  1  0.88690161  0.76271261  0.61164736  1
  Si  Si19  1  0.76271510  0.35038761  0.61164759  1
  Si  Si20  1  0.23728627  0.11310076  0.88835238  1
  Si  Si21  1  0.64961422  0.23728739  0.88835264  1
  Si  Si22  1  0.11310271  0.64961239  0.88835241  1
  Si  Si23  1  0.23728627  0.11310076  0.11164762  1
  Si  Si24  1  0.64961422  0.23728739  0.11164736  1
  Si  Si25  1  0.11310271  0.64961239  0.11164759  1
  Si  Si26  1  0.65349099  0.11124145  0.61238627  1
  Si  Si27  1  0.11124582  0.23526966  0.61238602  1
  Si  Si28  1  0.23527350  0.65348211  0.61238682  1
  Si  Si29  1  0.65349099  0.11124145  0.38761373  1
  Si  Si30  1  0.11124582  0.23526966  0.38761398  1
  Si  Si31  1  0.23527350  0.65348211  0.38761318  1
  Si  Si32  1  0.76473243  0.88875855  0.11238627  1
  Si  Si33  1  0.34651548  0.76473034  0.11238602  1
  Si  Si34  1  0.88875561  0.34651789  0.11238682  1
  Si  Si35  1  0.76473243  0.88875855  0.88761373  1
  Si  Si36  1  0.34651548  0.76473034  0.88761398  1
  Si  Si37  1  0.88875561  0.34651789  0.88761318  1
  O  O38  1  0.49562703  0.84610875  0.32765187  1
  O  O39  1  0.84611209  0.65826617  0.32765001  1
  O  O40  1  0.65827219  0.49562787  0.32765221  1
  O  O41  1  0.49562703  0.84610875  0.67234813  1
  O  O42  1  0.84611209  0.65826617  0.67234999  1
  O  O43  1  0.65827219  0.49562787  0.67234779  1
  O  O44  1  0.34173578  0.15389125  0.82765187  1
  O  O45  1  0.50437825  0.34173383  0.82765001  1
  O  O46  1  0.15390006  0.50437213  0.82765221  1
  O  O47  1  0.34173578  0.15389125  0.17234813  1
  O  O48  1  0.50437825  0.34173383  0.17234999  1
  O  O49  1  0.15390006  0.50437213  0.17234779  1
  O  O50  1  0.50318571  0.15540339  0.66948489  1
  O  O51  1  0.15541165  0.34140872  0.66948525  1
  O  O52  1  0.34141754  0.50318077  0.66948587  1
  O  O53  1  0.50318571  0.15540339  0.33051511  1
  O  O54  1  0.15541165  0.34140872  0.33051475  1
  O  O55  1  0.34141754  0.50318077  0.33051413  1
  O  O56  1  0.65858909  0.84459661  0.16948489  1
  O  O57  1  0.49682037  0.65859128  0.16948525  1
  O  O58  1  0.84459832  0.49681923  0.16948587  1
  O  O59  1  0.65858909  0.84459661  0.83051511  1
  O  O60  1  0.49682037  0.65859128  0.83051475  1
  O  O61  1  0.84459832  0.49681923  0.83051413  1
  O  O62  1  0.27606159  0.78333618  0.36156346  1
  O  O63  1  0.78333756  0.94060043  0.36156269  1
  O  O64  1  0.94060419  0.27605973  0.36156364  1
  O  O65  1  0.27606159  0.78333618  0.63843654  1
  O  O66  1  0.78333756  0.94060043  0.63843731  1
  O  O67  1  0.94060419  0.27605973  0.63843636  1
  O  O68  1  0.05939777  0.21666382  0.86156346  1
  O  O69  1  0.72393799  0.05939957  0.86156269  1
  O  O70  1  0.21666393  0.72394027  0.86156364  1
  O  O71  1  0.05939777  0.21666382  0.13843654  1
  O  O72  1  0.72393799  0.05939957  0.13843731  1
  O  O73  1  0.21666393  0.72394027  0.13843636  1
  O  O74  1  0.72435795  0.21755589  0.63791434  1
  O  O75  1  0.21755568  0.05808572  0.63791398  1
  O  O76  1  0.05808942  0.72435657  0.63791427  1
  O  O77  1  0.72435795  0.21755589  0.36208566  1
  O  O78  1  0.21755568  0.05808572  0.36208602  1
  O  O79  1  0.05808942  0.72435657  0.36208573  1
  O  O80  1  0.94191384  0.78244411  0.13791434  1
  O  O81  1  0.27564140  0.94191428  0.13791398  1
  O  O82  1  0.78244600  0.27564343  0.13791427  1
  O  O83  1  0.94191384  0.78244411  0.86208566  1
  O  O84  1  0.27564140  0.94191428  0.86208602  1
  O  O85  1  0.78244600  0.27564343  0.86208573  1
  O  O86  1  0.37982911  0.87658788  0.50000000  1
  O  O87  1  0.87658759  0.74358335  0.50000000  1
  O  O88  1  0.74358203  0.37982721  0.50000000  1
  O  O89  1  0.25641699  0.12341212  -0.00000000  1
  O  O90  1  0.62017094  0.25641665  -0.00000000  1
  O  O91  1  0.12340924  0.62017279  -0.00000000  1
  O  O92  1  0.61919056  0.12490605  0.50000000  1
  O  O93  1  0.12491499  0.25590382  0.50000000  1
  O  O94  1  0.25590430  0.61918237  0.50000000  1
  O  O95  1  0.74409661  0.87509395  -0.00000000  1
  O  O96  1  0.38081880  0.74409618  -0.00000000  1
  O  O97  1  0.87508667  0.38081763  -0.00000000  1
