# generated using pymatgen
data_KV2SeO7
_symmetry_space_group_name_H-M   'P 1'
_cell_length_a   5.43500000
_cell_length_b   6.99203425
_cell_length_c   17.88393816
_cell_angle_alpha   90.00000000
_cell_angle_beta   90.00000000
_cell_angle_gamma   90.00000000
_symmetry_Int_Tables_number   1
_chemical_formula_structural   KV2SeO7
_chemical_formula_sum   'K4 V8 Se4 O28'
_cell_volume   679.62016274
_cell_formula_units_Z   4
loop_
 _symmetry_equiv_pos_site_id
 _symmetry_equiv_pos_as_xyz
  1  'x, y, z'
loop_
 _atom_site_type_symbol
 _atom_site_label
 _atom_site_symmetry_multiplicity
 _atom_site_fract_x
 _atom_site_fract_y
 _atom_site_fract_z
 _atom_site_occupancy
  K  K0  1  0.25000000  0.24265651  0.96391584  1
  K  K1  1  0.25000000  0.25734349  0.46391584  1
  K  K2  1  0.75000000  0.75734349  0.03608416  1
  K  K3  1  0.75000000  0.74265651  0.53608416  1
  V  V4  1  0.25000000  0.72442840  0.88443110  1
  V  V5  1  0.25000000  0.77557160  0.38443110  1
  V  V6  1  0.75000000  0.27557160  0.11556890  1
  V  V7  1  0.75000000  0.22442840  0.61556890  1
  V  V8  1  0.25000000  0.93999088  0.68833811  1
  V  V9  1  0.25000000  0.56000912  0.18833811  1
  V  V10  1  0.75000000  0.06000912  0.31166189  1
  V  V11  1  0.75000000  0.43999088  0.81166189  1
  Se  Se12  1  0.25000000  0.47004361  0.64898347  1
  Se  Se13  1  0.25000000  0.02995639  0.14898347  1
  Se  Se14  1  0.75000000  0.52995639  0.35101653  1
  Se  Se15  1  0.75000000  0.97004361  0.85101653  1
  O  O16  1  0.25000000  0.88918373  0.77919771  1
  O  O17  1  0.25000000  0.61081627  0.27919771  1
  O  O18  1  0.75000000  0.11081627  0.22080229  1
  O  O19  1  0.75000000  0.38918373  0.72080229  1
  O  O20  1  0.99478746  0.06686181  0.66526246  1
  O  O21  1  0.50521254  0.43313819  0.16526246  1
  O  O22  1  0.49478746  0.93313819  0.33473754  1
  O  O23  1  0.00521254  0.56686181  0.83473754  1
  O  O24  1  0.00521254  0.93313819  0.33473754  1
  O  O25  1  0.49478746  0.56686181  0.83473754  1
  O  O26  1  0.50521254  0.06686181  0.66526246  1
  O  O27  1  0.99478746  0.43313819  0.16526246  1
  O  O28  1  0.25000000  0.71808778  0.63387785  1
  O  O29  1  0.25000000  0.78191222  0.13387785  1
  O  O30  1  0.75000000  0.28191222  0.36612215  1
  O  O31  1  0.75000000  0.21808778  0.86612215  1
  O  O32  1  0.01155812  0.42223461  0.59070217  1
  O  O33  1  0.48844188  0.07776539  0.09070217  1
  O  O34  1  0.51155812  0.57776539  0.40929783  1
  O  O35  1  0.98844188  0.92223461  0.90929783  1
  O  O36  1  0.98844188  0.57776539  0.40929783  1
  O  O37  1  0.51155812  0.92223461  0.90929783  1
  O  O38  1  0.48844188  0.42223461  0.59070217  1
  O  O39  1  0.01155812  0.07776539  0.09070217  1
  O  O40  1  0.25000000  0.62944177  0.96765512  1
  O  O41  1  0.25000000  0.87055823  0.46765512  1
  O  O42  1  0.75000000  0.37055823  0.03234488  1
  O  O43  1  0.75000000  0.12944177  0.53234488  1
