# generated using pymatgen
data_NaSr2IO6
_symmetry_space_group_name_H-M   'P 1'
_cell_length_a   5.74995165
_cell_length_b   5.80174100
_cell_length_c   8.12706492
_cell_angle_alpha   90.00000000
_cell_angle_beta   90.03553752
_cell_angle_gamma   90.00000000
_symmetry_Int_Tables_number   1
_chemical_formula_structural   NaSr2IO6
_chemical_formula_sum   'Na2 Sr4 I2 O12'
_cell_volume   271.11664116
_cell_formula_units_Z   2
loop_
 _symmetry_equiv_pos_site_id
 _symmetry_equiv_pos_as_xyz
  1  'x, y, z'
loop_
 _atom_site_type_symbol
 _atom_site_label
 _atom_site_symmetry_multiplicity
 _atom_site_fract_x
 _atom_site_fract_y
 _atom_site_fract_z
 _atom_site_occupancy
  Na  Na0  1  0.50000000  0.50000000  -0.00000000  1
  Na  Na1  1  0.00000000  0.00000000  0.50000000  1
  Sr  Sr2  1  0.50715342  0.03637527  0.75074046  1
  Sr  Sr3  1  0.99284658  0.53637527  0.74925954  1
  Sr  Sr4  1  0.49284658  0.96362473  0.24925954  1
  Sr  Sr5  1  0.00715342  0.46362473  0.25074046  1
  I  I6  1  0.50000000  0.50000000  0.50000000  1
  I  I7  1  0.00000000  0.00000000  -0.00000000  1
  O  O8  1  0.68540575  0.76110205  0.53935101  1
  O  O9  1  0.81459425  0.26110205  0.96064899  1
  O  O10  1  0.31459425  0.23889795  0.46064899  1
  O  O11  1  0.18540575  0.73889795  0.03935101  1
  O  O12  1  0.43064045  0.48003804  0.72500854  1
  O  O13  1  0.06935955  0.98003804  0.77499146  1
  O  O14  1  0.56935955  0.51996196  0.27499146  1
  O  O15  1  0.93064045  0.01996196  0.22500854  1
  O  O16  1  0.76015810  0.31023451  0.53350579  1
  O  O17  1  0.73984190  0.81023451  0.96649421  1
  O  O18  1  0.23984190  0.68976549  0.46649421  1
  O  O19  1  0.26015810  0.18976549  0.03350579  1
