# generated using pymatgen
data_MgAg6Mo10O33
_symmetry_space_group_name_H-M   'P 1'
_cell_length_a   7.75149072
_cell_length_b   9.02786523
_cell_length_c   11.40741905
_cell_angle_alpha   73.61710071
_cell_angle_beta   79.57602867
_cell_angle_gamma   74.71632850
_symmetry_Int_Tables_number   1
_chemical_formula_structural   MgAg6Mo10O33
_chemical_formula_sum   'Mg1 Ag6 Mo10 O33'
_cell_volume   733.87015968
_cell_formula_units_Z   1
loop_
 _symmetry_equiv_pos_site_id
 _symmetry_equiv_pos_as_xyz
  1  'x, y, z'
loop_
 _atom_site_type_symbol
 _atom_site_label
 _atom_site_symmetry_multiplicity
 _atom_site_fract_x
 _atom_site_fract_y
 _atom_site_fract_z
 _atom_site_occupancy
  Mg  Mg0  1  0.38547262  0.61114908  0.33865672  1
  Ag  Ag1  1  0.34494512  0.01491214  0.24935040  1
  Ag  Ag2  1  0.66615279  0.99377875  0.74679808  1
  Ag  Ag3  1  0.25024016  0.36934204  0.18555624  1
  Ag  Ag4  1  0.76638496  0.59793480  0.83016808  1
  Ag  Ag5  1  0.69344181  0.42823882  0.18202145  1
  Ag  Ag6  1  0.43565385  0.46434140  0.74141040  1
  Mo  Mo7  1  0.44716638  0.21716475  0.47836678  1
  Mo  Mo8  1  0.54580844  0.79253570  0.52894413  1
  Mo  Mo9  1  0.94382781  0.23282234  0.46367231  1
  Mo  Mo10  1  0.04808029  0.77961897  0.54869924  1
  Mo  Mo11  1  0.84400687  0.81561789  0.05897769  1
  Mo  Mo12  1  0.12639714  0.19263629  0.94999713  1
  Mo  Mo13  1  0.70453624  0.18864410  0.98744174  1
  Mo  Mo14  1  0.30450478  0.78748378  0.02082962  1
  Mo  Mo15  1  0.81189285  0.00443773  0.32387831  1
  Mo  Mo16  1  0.19335815  0.99350322  0.68677967  1
  O  O17  1  0.95656356  0.02381523  0.99984908  1
  O  O18  1  0.10228067  0.69719369  0.05797874  1
  O  O19  1  0.88248839  0.32557278  0.94020010  1
  O  O20  1  0.63779905  0.98980433  0.07798020  1
  O  O21  1  0.32362033  0.99509073  0.94744234  1
  O  O22  1  0.51757896  0.31976381  0.04592937  1
  O  O23  1  0.49469022  0.65617369  0.97393400  1
  O  O24  1  0.75199844  0.65675867  0.15082130  1
  O  O25  1  0.24225045  0.33647264  0.86207649  1
  O  O26  1  0.16185593  0.18592969  0.10095314  1
  O  O27  1  0.81560692  0.81172090  0.90962545  1
  O  O28  1  0.33625701  0.77312496  0.17781226  1
  O  O29  1  0.65697124  0.19691873  0.84030435  1
  O  O30  1  0.78381791  0.16875329  0.19244906  1
  O  O31  1  0.22590604  0.83274549  0.81753510  1
  O  O32  1  0.87811224  0.85032604  0.24643306  1
  O  O33  1  0.12263833  0.15130013  0.76074156  1
  O  O34  1  0.42333581  0.38965611  0.32712600  1
  O  O35  1  0.57814212  0.65650356  0.67994573  1
  O  O36  1  0.98158246  0.35684212  0.31560610  1
  O  O37  1  0.01379544  0.65113788  0.69243867  1
  O  O38  1  0.03013372  0.00028944  0.37990589  1
  O  O39  1  0.97165677  0.99684177  0.62725369  1
  O  O40  1  0.54503699  0.01575828  0.38125740  1
  O  O41  1  0.45428612  0.99512655  0.62552408  1
  O  O42  1  0.16240686  0.65361904  0.45139926  1
  O  O43  1  0.84575512  0.35898658  0.55700516  1
  O  O44  1  0.54417808  0.69301409  0.41271230  1
  O  O45  1  0.43067093  0.32529172  0.58485322  1
  O  O46  1  0.72684897  0.17355175  0.44465015  1
  O  O47  1  0.27089873  0.83160320  0.56558639  1
  O  O48  1  0.80571939  0.82708531  0.50287172  1
  O  O49  1  0.19657951  0.17375399  0.50047263  1
