# generated using pymatgen
data_LaHoS3
_symmetry_space_group_name_H-M   'P 1'
_cell_length_a   4.01058461
_cell_length_b   11.10123958
_cell_length_c   21.67602939
_cell_angle_alpha   101.30999366
_cell_angle_beta   90.00000000
_cell_angle_gamma   90.00000000
_symmetry_Int_Tables_number   1
_chemical_formula_structural   LaHoS3
_chemical_formula_sum   'La8 Ho8 S24'
_cell_volume   946.32895216
_cell_formula_units_Z   8
loop_
 _symmetry_equiv_pos_site_id
 _symmetry_equiv_pos_as_xyz
  1  'x, y, z'
loop_
 _atom_site_type_symbol
 _atom_site_label
 _atom_site_symmetry_multiplicity
 _atom_site_fract_x
 _atom_site_fract_y
 _atom_site_fract_z
 _atom_site_occupancy
  La  La0  1  0.25000000  0.69829550  0.76611671  1
  La  La1  1  0.75000000  0.30170450  0.23388329  1
  La  La2  1  0.25000000  0.09170593  0.86456237  1
  La  La3  1  0.75000000  0.90829407  0.13543763  1
  La  La4  1  0.25000000  0.30945603  0.73327977  1
  La  La5  1  0.75000000  0.69054397  0.26672023  1
  La  La6  1  0.25000000  0.19995699  0.53637540  1
  La  La7  1  0.75000000  0.80004301  0.46362460  1
  Ho  Ho8  1  0.25000000  0.44714795  0.41655922  1
  Ho  Ho9  1  0.75000000  0.55285205  0.58344078  1
  Ho  Ho10  1  0.25000000  0.02916123  0.35013211  1
  Ho  Ho11  1  0.75000000  0.97083877  0.64986789  1
  Ho  Ho12  1  0.25000000  0.18047138  0.04662111  1
  Ho  Ho13  1  0.75000000  0.81952862  0.95337889  1
  Ho  Ho14  1  0.25000000  0.52235499  0.08721203  1
  Ho  Ho15  1  0.75000000  0.47764501  0.91278797  1
  S  S16  1  0.25000000  0.91322495  0.03541860  1
  S  S17  1  0.75000000  0.08677505  0.96458140  1
  S  S18  1  0.25000000  0.79506330  0.36504979  1
  S  S19  1  0.75000000  0.20493670  0.63495021  1
  S  S20  1  0.25000000  0.25419090  0.32464449  1
  S  S21  1  0.75000000  0.74580910  0.67535551  1
  S  S22  1  0.25000000  0.36505448  0.96435155  1
  S  S23  1  0.75000000  0.63494552  0.03564845  1
  S  S24  1  0.25000000  0.49293582  0.22005177  1
  S  S25  1  0.75000000  0.50706418  0.77994823  1
  S  S26  1  0.25000000  0.74739272  0.17275690  1
  S  S27  1  0.75000000  0.25260728  0.82724310  1
  S  S28  1  0.25000000  0.12463386  0.16281116  1
  S  S29  1  0.75000000  0.87536614  0.83718884  1
  S  S30  1  0.25000000  0.64298479  0.51372757  1
  S  S31  1  0.75000000  0.35701521  0.48627243  1
  S  S32  1  0.25000000  0.94238463  0.55682122  1
  S  S33  1  0.75000000  0.05761537  0.44317878  1
  S  S34  1  0.25000000  0.03661819  0.72949522  1
  S  S35  1  0.75000000  0.96338181  0.27050478  1
  S  S36  1  0.25000000  0.45432968  0.63406196  1
  S  S37  1  0.75000000  0.54567032  0.36593804  1
  S  S38  1  0.25000000  0.65774504  0.90187354  1
  S  S39  1  0.75000000  0.34225496  0.09812646  1
