# generated using pymatgen
data_BaCdSnS4
_symmetry_space_group_name_H-M   'P 1'
_cell_length_a   15.55882892
_cell_length_b   12.91419121
_cell_length_c   12.78101784
_cell_angle_alpha   74.52976580
_cell_angle_beta   53.12541377
_cell_angle_gamma   52.34482043
_symmetry_Int_Tables_number   1
_chemical_formula_structural   BaCdSnS4
_chemical_formula_sum   'Ba8 Cd8 Sn8 S32'
_cell_volume   1606.08661758
_cell_formula_units_Z   8
loop_
 _symmetry_equiv_pos_site_id
 _symmetry_equiv_pos_as_xyz
  1  'x, y, z'
loop_
 _atom_site_type_symbol
 _atom_site_label
 _atom_site_symmetry_multiplicity
 _atom_site_fract_x
 _atom_site_fract_y
 _atom_site_fract_z
 _atom_site_occupancy
  Ba  Ba0  1  0.24964197  0.74587093  0.24788363  1
  Ba  Ba1  1  0.75660347  0.24788363  0.74587093  1
  Ba  Ba2  1  0.00211637  0.49339653  0.00035803  1
  Ba  Ba3  1  0.50412907  0.00035803  0.49339653  1
  Ba  Ba4  1  0.25482323  0.74517677  0.74517677  1
  Ba  Ba5  1  0.50482323  0.99517677  0.99517677  1
  Ba  Ba6  1  0.75099478  0.24900522  0.24900522  1
  Ba  Ba7  1  0.00099478  0.49900522  0.49900522  1
  Cd  Cd8  1  0.91892599  0.83056149  0.22936008  1
  Cd  Cd9  1  0.41943851  0.33107401  0.22884757  1
  Cd  Cd10  1  0.02063992  0.22884757  0.33107401  1
  Cd  Cd11  1  0.02115243  0.22936008  0.83056149  1
  Cd  Cd12  1  0.98702783  0.76147400  0.73666711  1
  Cd  Cd13  1  0.51483106  0.73666711  0.76147400  1
  Cd  Cd14  1  0.51333289  0.73516894  0.26297217  1
  Cd  Cd15  1  0.48852600  0.26297217  0.73516894  1
  Sn  Sn16  1  0.34754494  0.40223002  0.51577864  1
  Sn  Sn17  1  0.26325765  0.48601693  0.01247501  1
  Sn  Sn18  1  0.76398307  0.98674235  0.01174960  1
  Sn  Sn19  1  0.23752499  0.01174960  0.98674235  1
  Sn  Sn20  1  0.73444640  0.51577864  0.40223002  1
  Sn  Sn21  1  0.84776998  0.90245506  0.51555360  1
  Sn  Sn22  1  0.73422136  0.51555360  0.90245506  1
  Sn  Sn23  1  0.23825040  0.01247501  0.48601693  1
  S  S24  1  0.95400020  0.96398177  0.30301694  1
  S  S25  1  0.77900009  0.30301694  0.96398177  1
  S  S26  1  0.94698306  0.47099991  0.29599980  1
  S  S27  1  0.28601823  0.29599980  0.47099991  1
  S  S28  1  0.44347844  0.97443320  0.79572406  1
  S  S29  1  0.78636430  0.79572406  0.97443320  1
  S  S30  1  0.45427594  0.46363570  0.80652156  1
  S  S31  1  0.27556680  0.80652156  0.46363570  1
  S  S32  1  0.06994271  0.67874437  0.01951390  1
  S  S33  1  0.23180002  0.01951390  0.67874437  1
  S  S34  1  0.23048610  0.01819998  0.18005729  1
  S  S35  1  0.57125563  0.18005729  0.01819998  1
  S  S36  1  0.03223046  0.71652722  0.52558683  1
  S  S37  1  0.72565549  0.52558683  0.71652722  1
  S  S38  1  0.72441317  0.52434451  0.21776954  1
  S  S39  1  0.53347278  0.21776954  0.52434451  1
  S  S40  1  0.19887062  0.54844740  0.71752370  1
  S  S41  1  0.53515829  0.71752370  0.54844740  1
  S  S42  1  0.53247630  0.71484171  0.05112938  1
  S  S43  1  0.70155260  0.05112938  0.71484171  1
  S  S44  1  0.22104554  0.52626712  0.21480928  1
  S  S45  1  0.03787806  0.21480928  0.52626712  1
  S  S46  1  0.03519072  0.21212194  0.02895446  1
  S  S47  1  0.72373288  0.02895446  0.21212194  1
  S  S48  1  0.95577992  0.96116686  0.80408548  1
  S  S49  1  0.27896774  0.80408548  0.96116686  1
  S  S50  1  0.44591452  0.97103226  0.29422008  1
  S  S51  1  0.28883314  0.29422008  0.97103226  1
  S  S52  1  0.78383015  0.79744822  0.47342582  1
  S  S53  1  0.94529581  0.47342582  0.79744822  1
  S  S54  1  0.77657418  0.30470419  0.46616985  1
  S  S55  1  0.45255178  0.46616985  0.30470419  1
