# generated using pymatgen
data_KLiWO4
_symmetry_space_group_name_H-M   'P 1'
_cell_length_a   9.23030219
_cell_length_b   9.66796673
_cell_length_c   16.85451221
_cell_angle_alpha   89.79640018
_cell_angle_beta   90.00000000
_cell_angle_gamma   90.00000000
_symmetry_Int_Tables_number   1
_chemical_formula_structural   KLiWO4
_chemical_formula_sum   'K12 Li12 W12 O48'
_cell_volume   1504.05775260
_cell_formula_units_Z   12
loop_
 _symmetry_equiv_pos_site_id
 _symmetry_equiv_pos_as_xyz
  1  'x, y, z'
loop_
 _atom_site_type_symbol
 _atom_site_label
 _atom_site_symmetry_multiplicity
 _atom_site_fract_x
 _atom_site_fract_y
 _atom_site_fract_z
 _atom_site_occupancy
  K  K0  1  0.97056052  0.25997062  0.58747967  1
  K  K1  1  0.02943948  0.74002938  0.41252033  1
  K  K2  1  0.47056052  0.24002938  0.91252033  1
  K  K3  1  0.52943948  0.75997062  0.08747967  1
  K  K4  1  0.50807922  0.75305669  0.74806398  1
  K  K5  1  0.49192078  0.24694331  0.25193602  1
  K  K6  1  0.00807922  0.74694331  0.75193602  1
  K  K7  1  0.99192078  0.25305669  0.24806398  1
  K  K8  1  0.53663929  0.23439178  0.57010989  1
  K  K9  1  0.46336071  0.76560822  0.42989011  1
  K  K10  1  0.03663929  0.26560822  0.92989011  1
  K  K11  1  0.96336071  0.73439178  0.07010989  1
  Li  Li12  1  0.16956035  0.93147565  0.90913616  1
  Li  Li13  1  0.83043965  0.06852435  0.09086384  1
  Li  Li14  1  0.66956035  0.56852435  0.59086384  1
  Li  Li15  1  0.33043965  0.43147565  0.40913616  1
  Li  Li16  1  0.67016080  0.59920618  0.92001543  1
  Li  Li17  1  0.32983920  0.40079382  0.07998457  1
  Li  Li18  1  0.17016080  0.90079382  0.57998457  1
  Li  Li19  1  0.82983920  0.09920618  0.42001543  1
  Li  Li20  1  0.66800613  0.08306625  0.73935750  1
  Li  Li21  1  0.33199387  0.91693375  0.26064250  1
  Li  Li22  1  0.16800613  0.41693375  0.76064250  1
  Li  Li23  1  0.83199387  0.58306625  0.23935750  1
  W  W24  1  0.78717708  0.89410091  0.58172281  1
  W  W25  1  0.21282292  0.10589909  0.41827719  1
  W  W26  1  0.28717708  0.60589909  0.91827719  1
  W  W27  1  0.71282292  0.39410091  0.08172281  1
  W  W28  1  0.78512669  0.93359364  0.90742809  1
  W  W29  1  0.21487331  0.06640636  0.09257191  1
  W  W30  1  0.28512669  0.56640636  0.59257191  1
  W  W31  1  0.71487331  0.43359364  0.40742809  1
  W  W32  1  0.28294055  0.07679192  0.73666419  1
  W  W33  1  0.71705945  0.92320808  0.26333581  1
  W  W34  1  0.78294055  0.42320808  0.76333581  1
  W  W35  1  0.21705945  0.57679192  0.23666419  1
  O  O36  1  0.76715367  0.92762010  0.68704112  1
  O  O37  1  0.23284633  0.07237990  0.31295888  1
  O  O38  1  0.26715367  0.57237990  0.81295888  1
  O  O39  1  0.73284633  0.42762010  0.18704112  1
  O  O40  1  0.75425353  0.05305616  0.52601943  1
  O  O41  1  0.24574647  0.94694384  0.47398057  1
  O  O42  1  0.25425353  0.44694384  0.97398057  1
  O  O43  1  0.74574647  0.55305616  0.02601943  1
  O  O44  1  0.65766437  0.04297752  0.85373095  1
  O  O45  1  0.34233563  0.95702248  0.14626905  1
  O  O46  1  0.15766437  0.45702248  0.64626905  1
  O  O47  1  0.84233563  0.54297752  0.35373095  1
  O  O48  1  0.75221389  0.43732739  0.51353005  1
  O  O49  1  0.24778611  0.56267261  0.48646995  1
  O  O50  1  0.25221389  0.06267261  0.98646995  1
  O  O51  1  0.74778611  0.93732739  0.01353005  1
  O  O52  1  0.66124157  0.76041739  0.55032520  1
  O  O53  1  0.33875843  0.23958261  0.44967480  1
  O  O54  1  0.16124157  0.73958261  0.94967480  1
  O  O55  1  0.83875843  0.26041739  0.05032520  1
  O  O56  1  0.74956530  0.26276361  0.71036044  1
  O  O57  1  0.25043470  0.73723639  0.28963956  1
  O  O58  1  0.24956530  0.23723639  0.78963956  1
  O  O59  1  0.75043470  0.76276361  0.21036044  1
  O  O60  1  0.26544478  0.93196527  0.80510482  1
  O  O61  1  0.73455522  0.06803473  0.19489518  1
  O  O62  1  0.76544478  0.56803473  0.69489518  1
  O  O63  1  0.23455522  0.43196527  0.30510482  1
  O  O64  1  0.65810025  0.44204167  0.84606556  1
  O  O65  1  0.34189975  0.55795833  0.15393444  1
  O  O66  1  0.15810025  0.05795833  0.65393444  1
  O  O67  1  0.84189975  0.94204167  0.34606556  1
  O  O68  1  0.96842157  0.99354953  0.88984931  1
  O  O69  1  0.03157843  0.00645047  0.11015069  1
  O  O70  1  0.46842157  0.50645047  0.61015069  1
  O  O71  1  0.53157843  0.49354953  0.38984931  1
  O  O72  1  0.46730828  0.07573745  0.69870578  1
  O  O73  1  0.53269172  0.92426255  0.30129422  1
  O  O74  1  0.96730828  0.42426255  0.80129422  1
  O  O75  1  0.03269172  0.57573745  0.19870578  1
  O  O76  1  0.77502040  0.75561614  0.87334739  1
  O  O77  1  0.22497960  0.24438386  0.12665261  1
  O  O78  1  0.27502040  0.74438386  0.62665261  1
  O  O79  1  0.72497960  0.25561614  0.37334739  1
  O  O80  1  0.47093474  0.66441989  0.93605857  1
  O  O81  1  0.52906526  0.33558011  0.06394143  1
  O  O82  1  0.97093474  0.83558011  0.56394143  1
  O  O83  1  0.02906526  0.16441989  0.43605857  1
