# generated using pymatgen
data_CuPHO4
_symmetry_space_group_name_H-M   'P 1'
_cell_length_a   9.48863537
_cell_length_b   9.48863536
_cell_length_c   9.48863631
_cell_angle_alpha   114.75624227
_cell_angle_beta   114.75624230
_cell_angle_gamma   114.75624575
_symmetry_Int_Tables_number   1
_chemical_formula_structural   CuPHO4
_chemical_formula_sum   'Cu6 P6 H6 O24'
_cell_volume   488.56606412
_cell_formula_units_Z   6
loop_
 _symmetry_equiv_pos_site_id
 _symmetry_equiv_pos_as_xyz
  1  'x, y, z'
loop_
 _atom_site_type_symbol
 _atom_site_label
 _atom_site_symmetry_multiplicity
 _atom_site_fract_x
 _atom_site_fract_y
 _atom_site_fract_z
 _atom_site_occupancy
  Cu  Cu0  1  0.08818480  0.81382417  0.57378455  1
  Cu  Cu1  1  0.81382417  0.57378455  0.08818480  1
  Cu  Cu2  1  0.57378455  0.08818480  0.81382417  1
  Cu  Cu3  1  0.91181520  0.18617583  0.42621545  1
  Cu  Cu4  1  0.18617583  0.42621545  0.91181520  1
  Cu  Cu5  1  0.42621545  0.91181520  0.18617583  1
  P  P6  1  0.68363009  0.31729466  0.25034307  1
  P  P7  1  0.31729466  0.25034307  0.68363009  1
  P  P8  1  0.25034307  0.68363009  0.31729466  1
  P  P9  1  0.31636991  0.68270534  0.74965693  1
  P  P10  1  0.68270534  0.74965693  0.31636991  1
  P  P11  1  0.74965693  0.31636991  0.68270534  1
  H  H12  1  0.43561163  0.32176947  0.12836448  1
  H  H13  1  0.32176947  0.12836448  0.43561163  1
  H  H14  1  0.12836448  0.43561163  0.32176947  1
  H  H15  1  0.56438837  0.67823053  0.87163552  1
  H  H16  1  0.67823053  0.87163552  0.56438837  1
  H  H17  1  0.87163552  0.56438837  0.67823053  1
  O  O18  1  0.87104688  0.55273737  0.48983063  1
  O  O19  1  0.55273737  0.48983063  0.87104688  1
  O  O20  1  0.48983063  0.87104688  0.55273737  1
  O  O21  1  0.12895312  0.44726263  0.51016937  1
  O  O22  1  0.44726263  0.51016937  0.12895312  1
  O  O23  1  0.51016937  0.12895312  0.44726263  1
  O  O24  1  0.45185341  0.23006592  0.14179668  1
  O  O25  1  0.23006592  0.14179668  0.45185341  1
  O  O26  1  0.14179668  0.45185341  0.23006592  1
  O  O27  1  0.54814659  0.76993408  0.85820332  1
  O  O28  1  0.76993408  0.85820332  0.54814659  1
  O  O29  1  0.85820332  0.54814659  0.76993408  1
  O  O30  1  0.66278902  0.14864461  0.25364108  1
  O  O31  1  0.14864461  0.25364108  0.66278902  1
  O  O32  1  0.25364108  0.66278902  0.14864461  1
  O  O33  1  0.33721098  0.85135539  0.74635892  1
  O  O34  1  0.85135539  0.74635892  0.33721098  1
  O  O35  1  0.74635892  0.33721098  0.85135539  1
  O  O36  1  0.73055686  0.32048514  0.11677932  1
  O  O37  1  0.32048514  0.11677932  0.73055686  1
  O  O38  1  0.11677932  0.73055686  0.32048514  1
  O  O39  1  0.26944314  0.67951486  0.88322068  1
  O  O40  1  0.67951486  0.88322068  0.26944314  1
  O  O41  1  0.88322068  0.26944314  0.67951486  1
