# generated using pymatgen
data_BaGe(S2O7)3
_symmetry_space_group_name_H-M   'P 1'
_cell_length_a   7.57818541
_cell_length_b   12.99827786
_cell_length_c   16.98386564
_cell_angle_alpha   90.00000000
_cell_angle_beta   90.00000000
_cell_angle_gamma   90.00000000
_symmetry_Int_Tables_number   1
_chemical_formula_structural   BaGe(S2O7)3
_chemical_formula_sum   'Ba4 Ge4 S24 O84'
_cell_volume   1672.96782511
_cell_formula_units_Z   4
loop_
 _symmetry_equiv_pos_site_id
 _symmetry_equiv_pos_as_xyz
  1  'x, y, z'
loop_
 _atom_site_type_symbol
 _atom_site_label
 _atom_site_symmetry_multiplicity
 _atom_site_fract_x
 _atom_site_fract_y
 _atom_site_fract_z
 _atom_site_occupancy
  Ba  Ba0  1  0.24955993  0.51331627  0.47861285  1
  Ba  Ba1  1  0.25044007  0.48668373  0.97861285  1
  Ba  Ba2  1  0.74955993  0.98668373  0.52138715  1
  Ba  Ba3  1  0.75044007  0.01331627  0.02138715  1
  Ge  Ge4  1  0.25342253  0.76725469  0.23210732  1
  Ge  Ge5  1  0.24657747  0.23274531  0.73210732  1
  Ge  Ge6  1  0.75342253  0.73274531  0.76789268  1
  Ge  Ge7  1  0.74657747  0.26725469  0.26789268  1
  S  S8  1  0.24561398  0.93647898  0.10588602  1
  S  S9  1  0.25438602  0.06352102  0.60588602  1
  S  S10  1  0.74561398  0.56352102  0.89411398  1
  S  S11  1  0.75438602  0.43647898  0.39411398  1
  S  S12  1  0.26905215  0.53353553  0.24864346  1
  S  S13  1  0.23094785  0.46646447  0.74864346  1
  S  S14  1  0.76905215  0.96646447  0.75135654  1
  S  S15  1  0.73094785  0.03353553  0.25135654  1
  S  S16  1  0.03511989  0.75822488  0.08066919  1
  S  S17  1  0.46488011  0.24177512  0.58066919  1
  S  S18  1  0.53511989  0.74177512  0.91933081  1
  S  S19  1  0.96488011  0.25822488  0.41933081  1
  S  S20  1  0.47669546  0.78083354  0.38308189  1
  S  S21  1  0.02330454  0.21916646  0.88308189  1
  S  S22  1  0.97669546  0.71916646  0.61691811  1
  S  S23  1  0.52330454  0.28083354  0.11691811  1
  S  S24  1  0.10681941  0.81407681  0.39744147  1
  S  S25  1  0.39318059  0.18592319  0.89744147  1
  S  S26  1  0.60681941  0.68592319  0.60255853  1
  S  S27  1  0.89318059  0.31407681  0.10255853  1
  S  S28  1  0.53591675  0.62237808  0.15311344  1
  S  S29  1  0.96408325  0.37762192  0.65311344  1
  S  S30  1  0.03591675  0.87762192  0.84688656  1
  S  S31  1  0.46408325  0.12237808  0.34688656  1
  O  O32  1  0.27357045  0.46538053  0.31387279  1
  O  O33  1  0.22642955  0.53461947  0.81387279  1
  O  O34  1  0.77357045  0.03461947  0.68612721  1
  O  O35  1  0.72642955  0.96538053  0.18612721  1
  O  O36  1  0.21260592  0.63862454  0.27812329  1
  O  O37  1  0.28739408  0.36137546  0.77812329  1
  O  O38  1  0.71260592  0.86137546  0.72187671  1
  O  O39  1  0.78739408  0.13862454  0.22187671  1
  O  O40  1  0.05256492  0.75058506  0.16869685  1
  O  O41  1  0.44743508  0.24941494  0.66869685  1
  O  O42  1  0.55256492  0.74941494  0.83130315  1
  O  O43  1  0.94743508  0.25058506  0.33130315  1
  O  O44  1  0.28636843  0.89775529  0.18786761  1
  O  O45  1  0.21363157  0.10224471  0.68786761  1
  O  O46  1  0.78636843  0.60224471  0.81213239  1
  O  O47  1  0.71363157  0.39775529  0.31213239  1
  O  O48  1  0.45375594  0.79442508  0.29540071  1
  O  O49  1  0.04624406  0.20557492  0.79540071  1
  O  O50  1  0.95375594  0.70557492  0.70459929  1
  O  O51  1  0.54624406  0.29442508  0.20459929  1
  O  O52  1  0.47735949  0.55302026  0.22920370  1
  O  O53  1  0.02264051  0.44697974  0.72920370  1
  O  O54  1  0.97735949  0.94697974  0.77079630  1
  O  O55  1  0.52264051  0.05302026  0.27079630  1
  O  O56  1  0.62554467  0.83756504  0.40842954  1
  O  O57  1  0.87445533  0.16243496  0.90842954  1
  O  O58  1  0.12554467  0.66243496  0.59157046  1
  O  O59  1  0.37445533  0.33756504  0.09157046  1
  O  O60  1  0.20299151  0.83191751  0.05709821  1
  O  O61  1  0.29700849  0.16808249  0.55709821  1
  O  O62  1  0.70299151  0.66808249  0.94290179  1
  O  O63  1  0.79700849  0.33191751  0.44290179  1
  O  O64  1  0.45851219  0.67646644  0.40644940  1
  O  O65  1  0.04148781  0.32353356  0.90644940  1
  O  O66  1  0.95851219  0.82353356  0.59355060  1
  O  O67  1  0.54148781  0.17646644  0.09355060  1
  O  O68  1  0.87881980  0.81207539  0.06055157  1
  O  O69  1  0.62118020  0.18792461  0.56055157  1
  O  O70  1  0.37881980  0.68792461  0.93944843  1
  O  O71  1  0.12118020  0.31207539  0.43944843  1
  O  O72  1  0.40452727  0.71014332  0.15520608  1
  O  O73  1  0.09547273  0.28985668  0.65520608  1
  O  O74  1  0.90452727  0.78985668  0.84479392  1
  O  O75  1  0.59547273  0.21014332  0.34479392  1
  O  O76  1  0.07416490  0.66463907  0.04186786  1
  O  O77  1  0.42583510  0.33536093  0.54186786  1
  O  O78  1  0.57416490  0.83536093  0.95813214  1
  O  O79  1  0.92583510  0.16463907  0.45813214  1
  O  O80  1  0.10420556  0.82443230  0.30903213  1
  O  O81  1  0.39579444  0.17556770  0.80903213  1
  O  O82  1  0.60420556  0.67556770  0.69096787  1
  O  O83  1  0.89579444  0.32443230  0.19096787  1
  O  O84  1  0.31111792  0.84496656  0.41910731  1
  O  O85  1  0.18888208  0.15503344  0.91910731  1
  O  O86  1  0.81111792  0.65503344  0.58089269  1
  O  O87  1  0.68888208  0.34496656  0.08089269  1
  O  O88  1  0.40066301  0.97403093  0.06978911  1
  O  O89  1  0.09933699  0.02596907  0.56978911  1
  O  O90  1  0.90066301  0.52596907  0.93021089  1
  O  O91  1  0.59933699  0.47403093  0.43021089  1
  O  O92  1  0.09084835  0.99840074  0.10538579  1
  O  O93  1  0.40915165  0.00159926  0.60538579  1
  O  O94  1  0.59084835  0.50159926  0.89461421  1
  O  O95  1  0.90915165  0.49840074  0.39461421  1
  O  O96  1  0.01037952  0.89539136  0.43149946  1
  O  O97  1  0.48962048  0.10460864  0.93149946  1
  O  O98  1  0.51037952  0.60460864  0.56850054  1
  O  O99  1  0.98962048  0.39539136  0.06850054  1
  O  O100  1  0.07761552  0.71174307  0.42368854  1
  O  O101  1  0.42238448  0.28825693  0.92368854  1
  O  O102  1  0.57761552  0.78825693  0.57631146  1
  O  O103  1  0.92238448  0.21174307  0.07631146  1
  O  O104  1  0.50372737  0.56311170  0.08393441  1
  O  O105  1  -0.00372737  0.43688830  0.58393441  1
  O  O106  1  0.00372737  0.93688830  0.91606559  1
  O  O107  1  0.49627263  0.06311170  0.41606559  1
  O  O108  1  0.18326494  0.50609022  0.17785318  1
  O  O109  1  0.31673506  0.49390978  0.67785318  1
  O  O110  1  0.68326494  0.99390978  0.82214682  1
  O  O111  1  0.81673506  0.00609022  0.32214682  1
  O  O112  1  0.70970620  0.65194181  0.17145276  1
  O  O113  1  0.79029380  0.34805819  0.67145276  1
  O  O114  1  0.20970620  0.84805819  0.82854724  1
  O  O115  1  0.29029380  0.15194181  0.32854724  1
