# generated using pymatgen
data_Na3Li3Rh2F12
_symmetry_space_group_name_H-M   'P 1'
_cell_length_a   10.97738265
_cell_length_b   10.97738265
_cell_length_c   10.97738265
_cell_angle_alpha   109.47122063
_cell_angle_beta   109.47122063
_cell_angle_gamma   109.47122063
_symmetry_Int_Tables_number   1
_chemical_formula_structural   Na3Li3Rh2F12
_chemical_formula_sum   'Na12 Li12 Rh8 F48'
_cell_volume   1018.29712834
_cell_formula_units_Z   4
loop_
 _symmetry_equiv_pos_site_id
 _symmetry_equiv_pos_as_xyz
  1  'x, y, z'
loop_
 _atom_site_type_symbol
 _atom_site_label
 _atom_site_symmetry_multiplicity
 _atom_site_fract_x
 _atom_site_fract_y
 _atom_site_fract_z
 _atom_site_occupancy
  Na  Na0  1  0.87500000  0.62500000  0.75000000  1
  Na  Na1  1  0.12500000  0.37500000  0.25000000  1
  Na  Na2  1  0.62500000  0.87500000  0.25000000  1
  Na  Na3  1  0.62500000  0.75000000  0.87500000  1
  Na  Na4  1  0.87500000  0.25000000  0.62500000  1
  Na  Na5  1  0.37500000  0.12500000  0.75000000  1
  Na  Na6  1  0.37500000  0.25000000  0.12500000  1
  Na  Na7  1  0.12500000  0.75000000  0.37500000  1
  Na  Na8  1  0.75000000  0.87500000  0.62500000  1
  Na  Na9  1  0.25000000  0.12500000  0.37500000  1
  Na  Na10  1  0.25000000  0.62500000  0.87500000  1
  Na  Na11  1  0.75000000  0.37500000  0.12500000  1
  Li  Li12  1  0.62500000  0.37500000  0.75000000  1
  Li  Li13  1  0.37500000  0.62500000  0.25000000  1
  Li  Li14  1  0.87500000  0.12500000  0.25000000  1
  Li  Li15  1  0.37500000  0.75000000  0.62500000  1
  Li  Li16  1  0.62500000  0.25000000  0.37500000  1
  Li  Li17  1  0.12500000  0.87500000  0.75000000  1
  Li  Li18  1  0.12500000  0.25000000  0.87500000  1
  Li  Li19  1  0.87500000  0.75000000  0.12500000  1
  Li  Li20  1  0.75000000  0.62500000  0.37500000  1
  Li  Li21  1  0.25000000  0.37500000  0.62500000  1
  Li  Li22  1  0.25000000  0.87500000  0.12500000  1
  Li  Li23  1  0.75000000  0.12500000  0.87500000  1
  Rh  Rh24  1  0.00000000  0.00000000  0.00000000  1
  Rh  Rh25  1  0.50000000  0.00000000  0.50000000  1
  Rh  Rh26  1  0.50000000  0.50000000  0.00000000  1
  Rh  Rh27  1  0.00000000  0.00000000  0.50000000  1
  Rh  Rh28  1  0.00000000  0.50000000  0.50000000  1
  Rh  Rh29  1  0.50000000  0.50000000  0.50000000  1
  Rh  Rh30  1  0.50000000  0.00000000  0.00000000  1
  Rh  Rh31  1  0.00000000  0.50000000  0.00000000  1
  F  F32  1  0.69796088  0.61937071  0.52090193  1
  F  F33  1  0.30203912  0.38062929  0.47909807  1
  F  F34  1  0.80203912  0.82294104  0.42140983  1
  F  F35  1  0.40153122  0.88062929  0.07859017  1
  F  F36  1  0.61937071  0.52090193  0.69796088  1
  F  F37  1  0.69796088  0.07859017  0.67705896  1
  F  F38  1  0.19796088  0.17705896  0.57859017  1
  F  F39  1  0.59846878  0.11937071  0.92140983  1
  F  F40  1  0.38062929  0.47909807  0.30203912  1
  F  F41  1  0.30203912  0.92140983  0.32294104  1
  F  F42  1  0.09846878  0.67705896  0.97909807  1
  F  F43  1  0.82294104  0.42140983  0.80203912  1
  F  F44  1  0.80203912  0.97909807  0.88062929  1
  F  F45  1  0.90153122  0.32294104  0.02090193  1
  F  F46  1  0.17705896  0.57859017  0.19796088  1
  F  F47  1  0.19796088  0.02090193  0.11937071  1
  F  F48  1  0.88062929  0.07859017  0.40153122  1
  F  F49  1  0.40153122  0.52090193  0.82294104  1
  F  F50  1  0.11937071  0.92140983  0.59846878  1
  F  F51  1  0.59846878  0.47909807  0.17705896  1
  F  F52  1  0.67705896  0.97909807  0.09846878  1
  F  F53  1  0.09846878  0.42140983  0.61937071  1
  F  F54  1  0.32294104  0.02090193  0.90153122  1
  F  F55  1  0.90153122  0.57859017  0.38062929  1
  F  F56  1  0.52090193  0.69796088  0.61937071  1
  F  F57  1  0.61937071  0.09846878  0.42140983  1
  F  F58  1  0.47909807  0.30203912  0.38062929  1
  F  F59  1  0.38062929  0.90153122  0.57859017  1
  F  F60  1  0.07859017  0.40153122  0.88062929  1
  F  F61  1  0.88062929  0.80203912  0.97909807  1
  F  F62  1  0.92140983  0.59846878  0.11937071  1
  F  F63  1  0.11937071  0.19796088  0.02090193  1
  F  F64  1  0.97909807  0.09846878  0.67705896  1
  F  F65  1  0.67705896  0.69796088  0.07859017  1
  F  F66  1  0.02090193  0.90153122  0.32294104  1
  F  F67  1  0.32294104  0.30203912  0.92140983  1
  F  F68  1  0.42140983  0.80203912  0.82294104  1
  F  F69  1  0.82294104  0.40153122  0.52090193  1
  F  F70  1  0.57859017  0.19796088  0.17705896  1
  F  F71  1  0.17705896  0.59846878  0.47909807  1
  F  F72  1  0.07859017  0.67705896  0.69796088  1
  F  F73  1  0.92140983  0.32294104  0.30203912  1
  F  F74  1  0.97909807  0.88062929  0.80203912  1
  F  F75  1  0.02090193  0.11937071  0.19796088  1
  F  F76  1  0.42140983  0.61937071  0.09846878  1
  F  F77  1  0.57859017  0.38062929  0.90153122  1
  F  F78  1  0.52090193  0.82294104  0.40153122  1
  F  F79  1  0.47909807  0.17705896  0.59846878  1
