# generated using pymatgen
data_CaTiFe5O8
_symmetry_space_group_name_H-M   'P 1'
_cell_length_a   6.66530188
_cell_length_b   6.32272898
_cell_length_c   6.13203064
_cell_angle_alpha   88.57251224
_cell_angle_beta   59.44620297
_cell_angle_gamma   118.48076929
_symmetry_Int_Tables_number   1
_chemical_formula_structural   CaTiFe5O8
_chemical_formula_sum   'Ca1 Ti1 Fe5 O8'
_cell_volume   183.00290024
_cell_formula_units_Z   1
loop_
 _symmetry_equiv_pos_site_id
 _symmetry_equiv_pos_as_xyz
  1  'x, y, z'
loop_
 _atom_site_type_symbol
 _atom_site_label
 _atom_site_symmetry_multiplicity
 _atom_site_fract_x
 _atom_site_fract_y
 _atom_site_fract_z
 _atom_site_occupancy
  Ca  Ca0  1  0.00000000  0.00000000  0.00000000  1
  Ti  Ti1  1  0.50000000  0.00000000  0.50000000  1
  Fe  Fe2  1  0.29166000  0.02381200  0.21728500  1
  Fe  Fe3  1  0.70834000  0.97618800  0.78271500  1
  Fe  Fe4  1  0.50000000  0.50000000  0.50000000  1
  Fe  Fe5  1  0.00000000  0.50000000  0.00000000  1
  Fe  Fe6  1  0.00000000  0.50000000  0.50000000  1
  O  O7  1  0.96028500  0.70605100  0.28499100  1
  O  O8  1  0.91183900  0.20110700  0.31772800  1
  O  O9  1  0.48275600  0.16900700  0.77747400  1
  O  O10  1  0.56001200  0.28990700  0.26714600  1
  O  O11  1  0.03971500  0.29394900  0.71500900  1
  O  O12  1  0.08816100  0.79889300  0.68227200  1
  O  O13  1  0.51724400  0.83099300  0.22252600  1
  O  O14  1  0.43998800  0.71009300  0.73285400  1
