# generated using pymatgen
data_MgV12Zn6O24
_symmetry_space_group_name_H-M   'P 1'
_cell_length_a   6.17214466
_cell_length_b   6.15432764
_cell_length_c   18.54886377
_cell_angle_alpha   60.26950974
_cell_angle_beta   60.09306672
_cell_angle_gamma   59.98427744
_symmetry_Int_Tables_number   1
_chemical_formula_structural   MgV12Zn6O24
_chemical_formula_sum   'Mg1 V12 Zn6 O24'
_cell_volume   499.51631064
_cell_formula_units_Z   1
loop_
 _symmetry_equiv_pos_site_id
 _symmetry_equiv_pos_as_xyz
  1  'x, y, z'
loop_
 _atom_site_type_symbol
 _atom_site_label
 _atom_site_symmetry_multiplicity
 _atom_site_fract_x
 _atom_site_fract_y
 _atom_site_fract_z
 _atom_site_occupancy
  Mg  Mg0  1  0.63202182  0.63274502  0.20624826  1
  V  V1  1  0.07470190  0.47638216  0.15459174  1
  V  V2  1  0.47763313  0.48176118  0.15778005  1
  V  V3  1  0.99282508  0.49210141  0.50695184  1
  V  V4  1  0.47557081  0.07604224  0.15348370  1
  V  V5  1  0.48050388  0.47155975  0.35685901  1
  V  V6  1  0.49581906  0.49258018  0.50736645  1
  V  V7  1  0.00458403  0.50459327  0.82925319  1
  V  V8  1  0.49605893  0.98938462  0.50719341  1
  V  V9  1  0.49988762  0.00705079  0.82930777  1
  V  V10  1  0.49705947  0.49999442  0.66788205  1
  V  V11  1  0.50199314  0.50199873  0.83007051  1
  V  V12  1  0.87874484  0.88001376  0.95348926  1
  Zn  Zn13  1  0.13301225  0.13514595  0.03503270  1
  Zn  Zn14  1  0.12464298  0.11953876  0.37827721  1
  Zn  Zn15  1  0.51266894  0.51450222  0.98850686  1
  Zn  Zn16  1  0.12149327  0.12305058  0.70993074  1
  Zn  Zn17  1  0.86931707  0.86725532  0.29794574  1
  Zn  Zn18  1  0.87240853  0.87273730  0.62662170  1
  O  O19  1  0.27838521  0.28101997  0.06648276  1
  O  O20  1  0.25435429  0.25308931  0.24762374  1
  O  O21  1  0.27389947  0.73997191  0.07816129  1
  O  O22  1  0.73825202  0.27479021  0.07842108  1
  O  O23  1  0.26567981  0.72647262  0.25109015  1
  O  O24  1  0.25377349  0.24663528  0.42824701  1
  O  O25  1  0.72902593  0.26492423  0.25322344  1
  O  O26  1  0.75238677  0.75261747  0.08201517  1
  O  O27  1  0.24918440  0.70834602  0.43227950  1
  O  O28  1  0.25244432  0.25059871  0.57681327  1
  O  O29  1  0.71775467  0.71520842  0.26928515  1
  O  O30  1  0.71422710  0.24443355  0.43250704  1
  O  O31  1  0.27839134  0.73430906  0.58316111  1
  O  O32  1  0.25564171  0.27487208  0.74959575  1
  O  O33  1  0.73704857  0.27753929  0.58228786  1
  O  O34  1  0.73850087  0.73510916  0.43628320  1
  O  O35  1  0.26397238  0.26475652  0.89953829  1
  O  O36  1  0.26604981  0.71973693  0.75330316  1
  O  O37  1  0.73201211  0.73041587  0.58656866  1
  O  O38  1  0.71612845  0.25841660  0.75170628  1
  O  O39  1  0.27225909  0.76661075  0.90229719  1
  O  O40  1  0.73891228  0.74331311  0.75994133  1
  O  O41  1  0.75557937  0.27307503  0.90164565  1
  O  O42  1  0.76059876  0.75030225  0.90429773  1
