# generated using pymatgen
data_Ba(HoTe2)2
_symmetry_space_group_name_H-M   'P 1'
_cell_length_a   4.46880363
_cell_length_b   13.76778327
_cell_length_c   16.21575645
_cell_angle_alpha   90.00000000
_cell_angle_beta   90.00000000
_cell_angle_gamma   90.00000000
_symmetry_Int_Tables_number   1
_chemical_formula_structural   Ba(HoTe2)2
_chemical_formula_sum   'Ba4 Ho8 Te16'
_cell_volume   997.68284541
_cell_formula_units_Z   4
loop_
 _symmetry_equiv_pos_site_id
 _symmetry_equiv_pos_as_xyz
  1  'x, y, z'
loop_
 _atom_site_type_symbol
 _atom_site_label
 _atom_site_symmetry_multiplicity
 _atom_site_fract_x
 _atom_site_fract_y
 _atom_site_fract_z
 _atom_site_occupancy
  Ba  Ba0  1  0.75000000  0.26129194  0.83050212  1
  Ba  Ba1  1  0.25000000  0.73870806  0.16949788  1
  Ba  Ba2  1  0.75000000  0.76129194  0.66949788  1
  Ba  Ba3  1  0.25000000  0.23870806  0.33050212  1
  Ho  Ho4  1  0.25000000  0.08091969  0.59676690  1
  Ho  Ho5  1  0.75000000  0.91908031  0.40323310  1
  Ho  Ho6  1  0.25000000  0.58091969  0.90323310  1
  Ho  Ho7  1  0.75000000  0.41908031  0.09676690  1
  Ho  Ho8  1  0.75000000  0.94111500  0.89015875  1
  Ho  Ho9  1  0.25000000  0.05888500  0.10984125  1
  Ho  Ho10  1  0.75000000  0.44111500  0.60984125  1
  Ho  Ho11  1  0.25000000  0.55888500  0.39015875  1
  Te  Te12  1  0.25000000  0.47259686  0.21574562  1
  Te  Te13  1  0.75000000  0.52740314  0.78425438  1
  Te  Te14  1  0.25000000  0.97259686  0.28425438  1
  Te  Te15  1  0.75000000  0.02740314  0.71574562  1
  Te  Te16  1  0.25000000  0.37397387  0.97192440  1
  Te  Te17  1  0.75000000  0.62602613  0.02807560  1
  Te  Te18  1  0.25000000  0.87397387  0.52807560  1
  Te  Te19  1  0.75000000  0.12602613  0.47192440  1
  Te  Te20  1  0.25000000  0.29570408  0.65934803  1
  Te  Te21  1  0.75000000  0.70429592  0.34065197  1
  Te  Te22  1  0.25000000  0.79570408  0.84065197  1
  Te  Te23  1  0.75000000  0.20429592  0.15934803  1
  Te  Te24  1  0.75000000  0.41065380  0.42432184  1
  Te  Te25  1  0.25000000  0.58934620  0.57567816  1
  Te  Te26  1  0.75000000  0.91065380  0.07567816  1
  Te  Te27  1  0.25000000  0.08934620  0.92432184  1
