# generated using pymatgen
data_MgMnF6
_symmetry_space_group_name_H-M   'P 1'
_cell_length_a   5.23554519
_cell_length_b   5.23530689
_cell_length_c   5.23563207
_cell_angle_alpha   56.17755798
_cell_angle_beta   56.17353935
_cell_angle_gamma   56.17493416
_symmetry_Int_Tables_number   1
_chemical_formula_structural   MgMnF6
_chemical_formula_sum   'Mg1 Mn1 F6'
_cell_volume   92.49068941
_cell_formula_units_Z   1
loop_
 _symmetry_equiv_pos_site_id
 _symmetry_equiv_pos_as_xyz
  1  'x, y, z'
loop_
 _atom_site_type_symbol
 _atom_site_label
 _atom_site_symmetry_multiplicity
 _atom_site_fract_x
 _atom_site_fract_y
 _atom_site_fract_z
 _atom_site_occupancy
  Mg  Mg0  1  0.50000000  0.50000000  0.50000000  1
  Mn  Mn1  1  -0.00000000  -0.00000000  -0.00000000  1
  F  F2  1  0.64049973  0.88528369  0.23561299  1
  F  F3  1  0.88528217  0.23563969  0.64044579  1
  F  F4  1  0.76441917  0.35947850  0.11467780  1
  F  F5  1  0.11471783  0.76436031  0.35955421  1
  F  F6  1  0.35950027  0.11471631  0.76438701  1
  F  F7  1  0.23558083  0.64052150  0.88532220  1
