# generated using pymatgen
data_HfCrO4
_symmetry_space_group_name_H-M   'P 1'
_cell_length_a   4.70932300
_cell_length_b   11.72224029
_cell_length_c   4.90640809
_cell_angle_alpha   88.95255826
_cell_angle_beta   89.99751624
_cell_angle_gamma   89.99601504
_symmetry_Int_Tables_number   1
_chemical_formula_structural   HfCrO4
_chemical_formula_sum   'Hf4 Cr4 O16'
_cell_volume   270.80718905
_cell_formula_units_Z   4
loop_
 _symmetry_equiv_pos_site_id
 _symmetry_equiv_pos_as_xyz
  1  'x, y, z'
loop_
 _atom_site_type_symbol
 _atom_site_label
 _atom_site_symmetry_multiplicity
 _atom_site_fract_x
 _atom_site_fract_y
 _atom_site_fract_z
 _atom_site_occupancy
  Hf  Hf0  1  0.99526300  0.16928600  0.23654700  1
  Hf  Hf1  1  0.00463000  0.83066300  0.76344300  1
  Hf  Hf2  1  0.50471600  0.66931100  0.23664500  1
  Hf  Hf3  1  0.49533800  0.33073300  0.76334500  1
  Cr  Cr4  1  0.99800900  0.56865000  0.74075800  1
  Cr  Cr5  1  0.49791900  0.93137800  0.25933100  1
  Cr  Cr6  1  0.00215300  0.43133800  0.25916400  1
  Cr  Cr7  1  0.50215800  0.06862000  0.74068300  1
  O  O8  1  0.21642200  0.31395300  0.41166400  1
  O  O9  1  0.22813800  0.68855300  0.91239800  1
  O  O10  1  0.27173900  0.18852900  0.91231600  1
  O  O11  1  0.28353000  0.81402100  0.41164800  1
  O  O12  1  0.71638400  0.18602900  0.58828100  1
  O  O13  1  0.72810800  0.81149000  0.08770000  1
  O  O14  1  0.78358400  0.68599500  0.58843000  1
  O  O15  1  0.77175800  0.31145200  0.08763100  1
  O  O16  1  0.26524900  0.05386500  0.43549500  1
  O  O17  1  0.27778400  0.94570100  0.92756300  1
  O  O18  1  0.22232200  0.44567400  0.92757300  1
  O  O19  1  0.23472800  0.55383500  0.43547900  1
  O  O20  1  0.76536100  0.44611600  0.56446300  1
  O  O21  1  0.77782800  0.55432100  0.07249600  1
  O  O22  1  0.72220000  0.05432400  0.07240600  1
  O  O23  1  0.73467800  0.94616600  0.56454100  1
