# generated using pymatgen
data_Li6V3P8O29
_symmetry_space_group_name_H-M   'P 1'
_cell_length_a   9.82220533
_cell_length_b   9.79938857
_cell_length_c   14.01086660
_cell_angle_alpha   89.42404880
_cell_angle_beta   90.09827885
_cell_angle_gamma   60.00545082
_symmetry_Int_Tables_number   1
_chemical_formula_structural   Li6V3P8O29
_chemical_formula_sum   'Li12 V6 P16 O58'
_cell_volume   1167.86426945
_cell_formula_units_Z   2
loop_
 _symmetry_equiv_pos_site_id
 _symmetry_equiv_pos_as_xyz
  1  'x, y, z'
loop_
 _atom_site_type_symbol
 _atom_site_label
 _atom_site_symmetry_multiplicity
 _atom_site_fract_x
 _atom_site_fract_y
 _atom_site_fract_z
 _atom_site_occupancy
  Li  Li0  1  0.89618199  0.75917767  0.06216226  1
  Li  Li1  1  0.76594690  0.90331164  0.56085516  1
  Li  Li2  1  0.90555887  0.32836929  0.55656121  1
  Li  Li3  1  0.76645436  0.32633481  0.05628613  1
  Li  Li4  1  0.32981905  0.90353234  0.06106132  1
  Li  Li5  1  0.68577647  0.22871906  0.43795894  1
  Li  Li6  1  0.34443151  0.75794972  0.56199244  1
  Li  Li7  1  0.32331177  0.34121070  0.60723466  1
  Li  Li8  1  0.33510520  0.34144232  0.10713858  1
  Li  Li9  1  0.08481113  0.22835816  0.93935865  1
  Li  Li10  1  0.97930944  0.96975006  0.99724658  1
  Li  Li11  1  0.05169340  0.96948791  0.49858542  1
  V  V12  1  0.56026458  0.44147084  0.24782089  1
  V  V13  1  0.43373965  0.56548124  0.75737385  1
  V  V14  1  0.56594938  0.99892976  0.74893576  1
  V  V15  1  0.43680896  0.99862825  0.24956340  1
  V  V16  1  0.00186416  0.56506115  0.25689308  1
  V  V17  1  0.99855196  0.44024358  0.74754491  1
  P  P18  1  0.91270832  0.77225414  0.84373215  1
  P  P19  1  0.77277634  0.91419463  0.34459293  1
  P  P20  1  0.91415824  0.30914539  0.34342488  1
  P  P21  1  0.67017717  0.66599253  0.12932125  1
  P  P22  1  0.66445086  0.66463804  0.62949595  1
  P  P23  1  0.77761650  0.30775016  0.84348039  1
  P  P24  1  0.67949390  0.23034460  0.65850778  1
  P  P25  1  0.31317038  0.91575597  0.84554197  1
  P  P26  1  0.69249988  0.08821241  0.15942277  1
  P  P27  1  0.31410960  0.77360916  0.34444449  1
  P  P28  1  0.21373964  0.69799022  0.16118907  1
  P  P29  1  0.33726387  0.32914786  0.36787511  1
  P  P30  1  0.33304667  0.33065238  0.86745917  1
  P  P31  1  0.08819225  0.69813073  0.66100451  1
  P  P32  1  0.22033307  0.08759525  0.65956035  1
  P  P33  1  0.09075961  0.22918001  0.15900893  1
  O  O34  1  0.98986379  0.80524611  0.58139385  1
  O  O35  1  0.91735872  0.75098872  0.33795115  1
  O  O36  1  0.79946948  0.98766092  0.08189380  1
  O  O37  1  0.74550969  0.91324755  0.82520700  1
  O  O38  1  0.91070384  0.61789584  0.83035918  1
  O  O39  1  0.81719146  0.66500854  0.17492777  1
  O  O40  1  0.91160015  0.46711691  0.33378188  1
  O  O41  1  0.99577798  0.23949645  0.07140395  1
  O  O42  1  0.92086904  0.33223657  0.83547852  1
  O  O43  1  0.66990447  0.81331547  0.66307984  1
  O  O44  1  0.62417889  0.90407500  0.32496521  1
  O  O45  1  0.81631573  0.51425408  0.67215289  1
  O  O46  1  0.68267555  0.65592476  0.02332908  1
  O  O47  1  0.66206228  0.65237311  0.52371688  1
  O  O48  1  0.66727289  0.51619618  0.17163347  1
  O  O49  1  0.46833156  0.91368785  0.82893020  1
  O  O50  1  0.51748263  0.81489743  0.16358574  1
  O  O51  1  0.74691538  0.33273203  0.33453832  1
  O  O52  1  0.78788845  0.20460026  0.75062902  1
  O  O53  1  0.76364868  0.23975038  0.57074719  1
  O  O54  1  0.79357761  0.21534705  0.93310321  1
  O  O55  1  0.62201998  0.46534729  0.83449184  1
  O  O56  1  0.51815644  0.66547043  0.67570008  1
  O  O57  1  0.65659646  0.26051045  0.15247534  1
  O  O58  1  0.46887560  0.61719068  0.33148835  1
  O  O59  1  0.34292432  0.91341314  0.32826934  1
  O  O60  1  0.78277821  0.02222105  0.25984115  1
  O  O61  1  0.76764940  0.99829832  0.43564560  1
  O  O62  1  0.21537161  0.98638621  0.58179240  1
  O  O63  1  0.65761689  0.08468936  0.65401180  1
  O  O64  1  0.51578764  0.37796171  0.67172234  1
  O  O65  1  0.33609760  0.75057581  0.83850824  1
  O  O66  1  0.48644973  0.32935075  0.32590136  1
  O  O67  1  0.36759675  0.53296592  0.16799195  1
  O  O68  1  0.20710312  0.80233884  0.08050046  1
  O  O69  1  0.23643330  0.78576033  0.43824227  1
  O  O70  1  0.19614518  0.78708414  0.26066765  1
  O  O71  1  0.25792637  0.66665969  0.65870881  1
  O  O72  1  0.47778671  0.19110444  0.82186714  1
  O  O73  1  0.53140128  0.09318963  0.16585558  1
  O  O74  1  0.32837973  0.48333108  0.82701454  1
  O  O75  1  0.32685657  0.32820372  0.97406680  1
  O  O76  1  0.34496590  0.32705798  0.47453546  1
  O  O77  1  0.18921792  0.48109451  0.32690754  1
  O  O78  1  0.37538466  0.09435252  0.66674133  1
  O  O79  1  0.33286933  0.18803404  0.32332587  1
  O  O80  1  0.07487639  0.66739746  0.15865614  1
  O  O81  1  0.01917847  0.78508867  0.76144520  1
  O  O82  1  0.97548194  0.78572325  0.93829560  1
  O  O83  1  0.09698880  0.53403533  0.66649588  1
  O  O84  1  0.18292958  0.33168953  0.82528171  1
  O  O85  1  0.10751285  0.37681948  0.17178447  1
  O  O86  1  0.25659586  0.08226396  0.15494156  1
  O  O87  1  0.23015247  0.99850291  0.93598707  1
  O  O88  1  0.19605194  0.02146881  0.75979096  1
  O  O89  1  0.08306842  0.25937688  0.65230200  1
  O  O90  1  0.98960960  0.21823250  0.43368354  1
  O  O91  1  0.00829368  0.20466496  0.25152352  1
