# generated using pymatgen
data_MgMn6(OF2)4
_symmetry_space_group_name_H-M   'P 1'
_cell_length_a   5.33156846
_cell_length_b   8.05186402
_cell_length_c   5.95265236
_cell_angle_alpha   91.60382457
_cell_angle_beta   87.74557531
_cell_angle_gamma   90.61680314
_symmetry_Int_Tables_number   1
_chemical_formula_structural   MgMn6(OF2)4
_chemical_formula_sum   'Mg1 Mn6 O4 F8'
_cell_volume   255.23202825
_cell_formula_units_Z   1
loop_
 _symmetry_equiv_pos_site_id
 _symmetry_equiv_pos_as_xyz
  1  'x, y, z'
loop_
 _atom_site_type_symbol
 _atom_site_label
 _atom_site_symmetry_multiplicity
 _atom_site_fract_x
 _atom_site_fract_y
 _atom_site_fract_z
 _atom_site_occupancy
  Mg  Mg0  1  0.82226700  0.62285000  0.27193900  1
  Mn  Mn1  1  0.53569700  0.97677500  0.52823500  1
  Mn  Mn2  1  0.38536800  0.70202600  0.02719600  1
  Mn  Mn3  1  0.48351900  0.32139700  0.83283500  1
  Mn  Mn4  1  0.83985000  0.63195000  0.76938000  1
  Mn  Mn5  1  0.10202400  0.29375700  0.40816300  1
  Mn  Mn6  1  0.00449400  0.00962400  0.01704800  1
  O  O7  1  0.81304300  0.78627000  0.01624100  1
  O  O8  1  0.74638400  0.77002200  0.53590500  1
  O  O9  1  0.65589600  0.49495200  0.00666400  1
  O  O10  1  0.34511800  0.19136900  0.60254400  1
  F  F11  1  0.78723800  0.44543600  0.53231200  1
  F  F12  1  0.83052200  0.10995600  0.32424400  1
  F  F13  1  0.75197100  0.14539400  0.82732900  1
  F  F14  1  0.21948800  0.51581100  0.78183400  1
  F  F15  1  0.30286800  0.89824600  0.25504400  1
  F  F16  1  0.16612800  0.54578500  0.26531900  1
  F  F17  1  0.23970700  0.22332800  0.07894900  1
  F  F18  1  0.27397000  0.87338100  0.79381900  1
