# generated using pymatgen
data_O2
_symmetry_space_group_name_H-M   'P 1'
_cell_length_a   3.24659296
_cell_length_b   3.24659296
_cell_length_c   4.14639671
_cell_angle_alpha   112.18031724
_cell_angle_beta   112.18031724
_cell_angle_gamma   89.45868855
_symmetry_Int_Tables_number   1
_chemical_formula_structural   O2
_chemical_formula_sum   O2
_cell_volume   37.02156088
_cell_formula_units_Z   1
loop_
 _symmetry_equiv_pos_site_id
 _symmetry_equiv_pos_as_xyz
  1  'x, y, z'
loop_
 _atom_site_type_symbol
 _atom_site_label
 _atom_site_symmetry_multiplicity
 _atom_site_fract_x
 _atom_site_fract_y
 _atom_site_fract_z
 _atom_site_occupancy
  O  O0  1  0.07220448  0.07220448  0.17351552  1
  O  O1  1  0.92779552  0.92779552  0.82648448  1
