# generated using pymatgen
data_Nd2ThS5
_symmetry_space_group_name_H-M   'P 1'
_cell_length_a   7.58202264
_cell_length_b   8.24522792
_cell_length_c   12.09700061
_cell_angle_alpha   90.00000000
_cell_angle_beta   90.00000000
_cell_angle_gamma   90.00000000
_symmetry_Int_Tables_number   1
_chemical_formula_structural   Nd2ThS5
_chemical_formula_sum   'Nd8 Th4 S20'
_cell_volume   756.25009923
_cell_formula_units_Z   4
loop_
 _symmetry_equiv_pos_site_id
 _symmetry_equiv_pos_as_xyz
  1  'x, y, z'
loop_
 _atom_site_type_symbol
 _atom_site_label
 _atom_site_symmetry_multiplicity
 _atom_site_fract_x
 _atom_site_fract_y
 _atom_site_fract_z
 _atom_site_occupancy
  Nd  Nd0  1  0.51830841  0.49948767  0.32189459  1
  Nd  Nd1  1  0.98169159  0.00051233  0.82189459  1
  Nd  Nd2  1  0.48169159  -0.00051233  0.67810541  1
  Nd  Nd3  1  0.01830841  0.50051233  0.17810541  1
  Nd  Nd4  1  0.48169159  0.50051233  0.67810541  1
  Nd  Nd5  1  0.01830841  -0.00051233  0.17810541  1
  Nd  Nd6  1  0.51830841  0.00051233  0.32189459  1
  Nd  Nd7  1  0.98169159  0.49948767  0.82189459  1
  Th  Th8  1  0.07515066  0.75000000  0.49132063  1
  Th  Th9  1  0.42484934  0.75000000  0.99132063  1
  Th  Th10  1  0.92484934  0.25000000  0.50867937  1
  Th  Th11  1  0.57515066  0.25000000  0.00867937  1
  S  S12  1  0.83814853  0.95777572  0.60054015  1
  S  S13  1  0.66185147  0.54222428  0.10054015  1
  S  S14  1  0.16185147  0.45777572  0.39945985  1
  S  S15  1  0.33814853  0.04222428  0.89945985  1
  S  S16  1  0.16185147  0.04222428  0.39945985  1
  S  S17  1  0.33814853  0.45777572  0.89945985  1
  S  S18  1  0.83814853  0.54222428  0.60054015  1
  S  S19  1  0.66185147  0.95777572  0.10054015  1
  S  S20  1  0.82805723  0.75000000  0.31327734  1
  S  S21  1  0.67194277  0.75000000  0.81327734  1
  S  S22  1  0.17194277  0.25000000  0.68672266  1
  S  S23  1  0.32805723  0.25000000  0.18672266  1
  S  S24  1  0.45850456  0.75000000  0.49900342  1
  S  S25  1  0.04149544  0.75000000  0.99900342  1
  S  S26  1  0.54149544  0.25000000  0.50099658  1
  S  S27  1  0.95850456  0.25000000  0.00099658  1
  S  S28  1  0.20003068  0.75000000  0.71676411  1
  S  S29  1  0.29996932  0.75000000  0.21676411  1
  S  S30  1  0.79996932  0.25000000  0.28323589  1
  S  S31  1  0.70003068  0.25000000  0.78323589  1
