# generated using pymatgen
data_BaSrV4(NiO4)4
_symmetry_space_group_name_H-M   'P 1'
_cell_length_a   9.59187661
_cell_length_b   9.59187661
_cell_length_c   9.59201842
_cell_angle_alpha   100.73255918
_cell_angle_beta   100.73255918
_cell_angle_gamma   128.86853329
_symmetry_Int_Tables_number   1
_chemical_formula_structural   BaSrV4(NiO4)4
_chemical_formula_sum   'Ba2 Sr2 V8 Ni8 O32'
_cell_volume   619.83906028
_cell_formula_units_Z   2
loop_
 _symmetry_equiv_pos_site_id
 _symmetry_equiv_pos_as_xyz
  1  'x, y, z'
loop_
 _atom_site_type_symbol
 _atom_site_label
 _atom_site_symmetry_multiplicity
 _atom_site_fract_x
 _atom_site_fract_y
 _atom_site_fract_z
 _atom_site_occupancy
  Ba  Ba0  1  0.25000002  0.74999861  0.49999852  1
  Ba  Ba1  1  0.75000139  0.24999998  0.50000148  1
  Sr  Sr2  1  0.49999643  0.49999936  -0.00000081  1
  Sr  Sr3  1  0.00000064  0.00000357  0.00000081  1
  V  V4  1  0.04449298  0.87699203  0.67246192  1
  V  V5  1  0.70453177  0.37699190  0.83250031  1
  V  V6  1  0.54449199  0.87203239  0.16750464  1
  V  V7  1  0.20453393  0.37203193  0.32754033  1
  V  V8  1  0.12300810  0.79546823  0.16749969  1
  V  V9  1  0.62300797  0.45550702  0.32753808  1
  V  V10  1  0.12796807  0.29546607  0.67245967  1
  V  V11  1  0.62796761  0.95550801  0.83249536  1
  Ni  Ni12  1  0.66918212  0.83081788  0.50000000  1
  Ni  Ni13  1  0.83081141  0.33081189  0.16162946  1
  Ni  Ni14  1  0.41742705  0.08257295  0.00000000  1
  Ni  Ni15  1  0.58257088  0.58257194  0.66514047  1
  Ni  Ni16  1  0.33081348  0.16918652  0.50000000  1
  Ni  Ni17  1  0.16918811  0.66918859  0.83837054  1
  Ni  Ni18  1  0.08256618  0.41743382  0.00000000  1
  Ni  Ni19  1  0.91742806  0.91742912  0.33485953  1
  O  O20  1  0.68090609  0.66954563  0.33234846  1
  O  O21  1  0.83719655  0.16954580  0.98863536  1
  O  O22  1  0.41854182  0.90375404  0.83670545  1
  O  O23  1  0.56704788  0.40375411  0.48520775  1
  O  O24  1  0.33719993  0.34855704  0.66764525  1
  O  O25  1  0.18091035  0.84855965  0.01136134  1
  O  O26  1  0.06704657  0.58183538  0.16329175  1
  O  O27  1  0.91854357  0.08183526  0.51478893  1
  O  O28  1  0.33045420  0.66280345  0.01136464  1
  O  O29  1  0.83045437  0.81909391  0.66765154  1
  O  O30  1  0.09624589  0.93295212  0.51479225  1
  O  O31  1  0.59624596  0.08145818  0.16329455  1
  O  O32  1  0.65144035  0.31908965  0.98863866  1
  O  O33  1  0.15144296  0.16280007  0.33235475  1
  O  O34  1  0.41816474  0.58145643  0.48521107  1
  O  O35  1  0.91816462  0.43295343  0.83670825  1
  O  O36  1  0.43287922  0.27204361  0.15497254  1
  O  O37  1  0.61707113  0.77204093  0.83916448  1
  O  O38  1  0.64294185  0.97416603  0.66098512  1
  O  O39  1  0.81317610  0.47416391  0.33122036  1
  O  O40  1  0.11707100  0.27790580  0.84502828  1
  O  O41  1  0.93287588  0.77790572  0.16083160  1
  O  O42  1  0.31316980  0.98194645  0.33900765  1
  O  O43  1  0.14294101  0.48195159  0.66877720  1
  O  O44  1  0.72795907  0.88292887  0.16083552  1
  O  O45  1  0.22795639  0.06712078  0.84502746  1
  O  O46  1  0.02583609  0.68682390  0.66877964  1
  O  O47  1  0.52583397  0.85705815  0.33901488  1
  O  O48  1  0.72209428  0.56712412  0.83916840  1
  O  O49  1  0.22209420  0.38292900  0.15497172  1
  O  O50  1  0.01804841  0.35705899  0.33122280  1
  O  O51  1  0.51805355  0.18683020  0.66099235  1
