# generated using pymatgen
data_CaTiO3
_symmetry_space_group_name_H-M   'P 1'
_cell_length_a   5.41136137
_cell_length_b   5.41136137
_cell_length_c   7.68509595
_cell_angle_alpha   90.00000000
_cell_angle_beta   90.00000000
_cell_angle_gamma   90.60100907
_symmetry_Int_Tables_number   1
_chemical_formula_structural   CaTiO3
_chemical_formula_sum   'Ca4 Ti4 O12'
_cell_volume   225.02899171
_cell_formula_units_Z   4
loop_
 _symmetry_equiv_pos_site_id
 _symmetry_equiv_pos_as_xyz
  1  'x, y, z'
loop_
 _atom_site_type_symbol
 _atom_site_label
 _atom_site_symmetry_multiplicity
 _atom_site_fract_x
 _atom_site_fract_y
 _atom_site_fract_z
 _atom_site_occupancy
  Ca  Ca0  1  0.51440365  0.48559635  0.25000000  1
  Ca  Ca1  1  0.48559635  0.51440365  0.75000000  1
  Ca  Ca2  1  0.01091858  0.98908142  0.25000000  1
  Ca  Ca3  1  0.98908142  0.01091858  0.75000000  1
  Ti  Ti4  1  -0.00000000  0.50000000  0.50000000  1
  Ti  Ti5  1  -0.00000000  0.50000000  0.00000000  1
  Ti  Ti6  1  0.50000000  -0.00000000  0.50000000  1
  Ti  Ti7  1  0.50000000  -0.00000000  0.00000000  1
  O  O8  1  0.94976066  0.46008287  0.25000000  1
  O  O9  1  0.05023934  0.53991713  0.75000000  1
  O  O10  1  0.53991713  0.05023934  0.25000000  1
  O  O11  1  0.46008287  0.94976066  0.75000000  1
  O  O12  1  0.29119500  0.70880500  0.04402455  1
  O  O13  1  0.70880500  0.29119500  0.54402455  1
  O  O14  1  0.70880500  0.29119500  0.95597545  1
  O  O15  1  0.29119500  0.70880500  0.45597545  1
  O  O16  1  0.20575031  0.20575031  0.00000000  1
  O  O17  1  0.79424969  0.79424969  0.50000000  1
  O  O18  1  0.79424969  0.79424969  0.00000000  1
  O  O19  1  0.20575031  0.20575031  0.50000000  1
