# generated using pymatgen
data_Mg2Mn3O8
_symmetry_space_group_name_H-M   'P 1'
_cell_length_a   5.73851802
_cell_length_b   5.73851861
_cell_length_c   9.24993111
_cell_angle_alpha   90.00003562
_cell_angle_beta   89.99998480
_cell_angle_gamma   120.00056040
_symmetry_Int_Tables_number   1
_chemical_formula_structural   Mg2Mn3O8
_chemical_formula_sum   'Mg4 Mn6 O16'
_cell_volume   263.79479497
_cell_formula_units_Z   2
loop_
 _symmetry_equiv_pos_site_id
 _symmetry_equiv_pos_as_xyz
  1  'x, y, z'
loop_
 _atom_site_type_symbol
 _atom_site_label
 _atom_site_symmetry_multiplicity
 _atom_site_fract_x
 _atom_site_fract_y
 _atom_site_fract_z
 _atom_site_occupancy
  Mg  Mg0  1  0.66666465  0.33333518  0.02497205  1
  Mg  Mg1  1  0.33333517  0.66666465  0.52497185  1
  Mg  Mg2  1  0.66666708  0.33333306  0.42083302  1
  Mg  Mg3  1  0.33333297  0.66666726  0.92083328  1
  Mn  Mn4  1  0.67236148  0.83617996  0.24574380  1
  Mn  Mn5  1  0.83618144  0.16381951  0.74574313  1
  Mn  Mn6  1  0.16381918  0.32763867  0.24574368  1
  Mn  Mn7  1  0.83618026  0.67236246  0.74574309  1
  Mn  Mn8  1  0.32763758  0.16381872  0.74574297  1
  Mn  Mn9  1  0.16382016  0.83618104  0.24574415  1
  O  O10  1  0.84093282  0.15906502  0.14383974  1
  O  O11  1  0.68186969  0.84093565  0.64383699  1
  O  O12  1  0.15906620  0.31813011  0.64383706  1
  O  O13  1  0.84093467  0.68186743  0.14383913  1
  O  O14  1  0.31813269  0.15906731  0.14383907  1
  O  O15  1  0.15906505  0.84093296  0.64383957  1
  O  O16  1  0.51853199  0.48146931  0.86334535  1
  O  O17  1  0.03706463  0.51853135  0.36334721  1
  O  O18  1  0.48146749  0.96293546  0.36334730  1
  O  O19  1  0.51853098  0.03706439  0.86334699  1
  O  O20  1  0.00000063  0.99999979  0.35180573  1
  O  O21  1  0.99999954  0.00000073  0.85180531  1
  O  O22  1  0.33333322  0.66666701  0.13710252  1
  O  O23  1  0.96293556  0.48146752  0.86334709  1
  O  O24  1  0.48146926  0.51853249  0.36334554  1
  O  O25  1  0.66666664  0.33333295  0.63710240  1
