# generated using pymatgen
data_Na3InH3(SO4)3
_symmetry_space_group_name_H-M   'P 1'
_cell_length_a   9.00518804
_cell_length_b   15.57071945
_cell_length_c   15.57071945
_cell_angle_alpha   119.99999829
_cell_angle_beta   90.00000000
_cell_angle_gamma   90.00000000
_symmetry_Int_Tables_number   1
_chemical_formula_structural   Na3InH3(SO4)3
_chemical_formula_sum   'Na18 In6 H18 S18 O72'
_cell_volume   1890.77906201
_cell_formula_units_Z   6
loop_
 _symmetry_equiv_pos_site_id
 _symmetry_equiv_pos_as_xyz
  1  'x, y, z'
loop_
 _atom_site_type_symbol
 _atom_site_label
 _atom_site_symmetry_multiplicity
 _atom_site_fract_x
 _atom_site_fract_y
 _atom_site_fract_z
 _atom_site_occupancy
  Na  Na0  1  0.91851037  0.75906158  0.79810539  1
  Na  Na1  1  0.08148963  0.24093842  0.20189461  1
  Na  Na2  1  0.91851037  0.03904380  0.24093842  1
  Na  Na3  1  0.08148963  0.96095620  0.75906158  1
  Na  Na4  1  0.91851037  0.20189461  0.96095620  1
  Na  Na5  1  0.08148963  0.79810539  0.03904380  1
  Na  Na6  1  0.59234495  0.55323446  0.64631217  1
  Na  Na7  1  0.40765505  0.44676554  0.35368783  1
  Na  Na8  1  0.59234495  0.09307771  0.44676554  1
  Na  Na9  1  0.40765505  0.90692229  0.55323446  1
  Na  Na10  1  0.59234495  0.35368783  0.90692229  1
  Na  Na11  1  0.40765505  0.64631217  0.09307771  1
  Na  Na12  1  0.79069345  0.57960552  0.88915682  1
  Na  Na13  1  0.20930655  0.42039448  0.11084318  1
  Na  Na14  1  0.79069345  0.30955129  0.42039448  1
  Na  Na15  1  0.20930655  0.69044871  0.57960552  1
  Na  Na16  1  0.79069345  0.11084318  0.69044871  1
  Na  Na17  1  0.20930655  0.88915682  0.30955129  1
  In  In18  1  0.30590153  0.66666700  0.33333300  1
  In  In19  1  0.69409847  0.33333300  0.66666700  1
  In  In20  1  0.50000000  -0.00000000  -0.00000000  1
  In  In21  1  0.80352819  0.66666700  0.33333300  1
  In  In22  1  0.19647181  0.33333300  0.66666700  1
  In  In23  1  0.00000000  -0.00000000  -0.00000000  1
  H  H24  1  0.61697484  0.74342890  0.76770257  1
  H  H25  1  0.38302516  0.25657110  0.23229743  1
  H  H26  1  0.61697484  0.02427367  0.25657110  1
  H  H27  1  0.38302516  0.97572633  0.74342890  1
  H  H28  1  0.61697484  0.23229743  0.97572633  1
  H  H29  1  0.38302516  0.76770257  0.02427367  1
  H  H30  1  0.71545079  0.64625680  0.07350254  1
  H  H31  1  0.28454921  0.35374320  0.92649746  1
  H  H32  1  0.71545079  0.42724574  0.35374320  1
  H  H33  1  0.28454921  0.57275426  0.64625680  1
  H  H34  1  0.71545079  0.92649746  0.57275426  1
  H  H35  1  0.28454921  0.07350254  0.42724574  1
  H  H36  1  0.90098494  0.91001816  0.31670503  1
  H  H37  1  0.09901506  0.08998184  0.68329497  1
  H  H38  1  0.90098494  0.40668687  0.08998184  1
  H  H39  1  0.09901506  0.59331313  0.91001816  1
  H  H40  1  0.90098494  0.68329497  0.59331313  1
  H  H41  1  0.09901506  0.31670503  0.40668687  1
  S  S42  1  0.93238903  0.49010181  0.65530074  1
  S  S43  1  0.06761097  0.50989819  0.34469926  1
  S  S44  1  0.93238903  0.16519893  0.50989819  1
  S  S45  1  0.06761097  0.83480107  0.49010181  1
  S  S46  1  0.93238903  0.34469926  0.83480107  1
  S  S47  1  0.06761097  0.65530074  0.16519893  1
  S  S48  1  0.75231236  0.84519874  0.01961280  1
  S  S49  1  0.24768764  0.15480126  0.98038720  1
  S  S50  1  0.75231236  0.17441406  0.15480126  1
  S  S51  1  0.24768764  0.82558594  0.84519874  1
  S  S52  1  0.75231236  0.98038720  0.82558594  1
  S  S53  1  0.24768764  0.01961280  0.17441406  1
  S  S54  1  0.54325268  0.82339105  0.32064609  1
  S  S55  1  0.45674732  0.17660895  0.67935391  1
  S  S56  1  0.54325268  0.49725504  0.17660895  1
  S  S57  1  0.45674732  0.50274496  0.82339105  1
  S  S58  1  0.54325268  0.67935391  0.50274496  1
  S  S59  1  0.45674732  0.32064609  0.49725504  1
  O  O60  1  0.82916708  0.75357565  0.94320902  1
  O  O61  1  0.17083292  0.24642435  0.05679098  1
  O  O62  1  0.82916708  0.18963337  0.24642435  1
  O  O63  1  0.17083292  0.81036663  0.75357565  1
  O  O64  1  0.82916708  0.05679098  0.81036663  1
  O  O65  1  0.17083292  0.94320902  0.18963337  1
  O  O66  1  0.87564251  0.92603701  0.06521032  1
  O  O67  1  0.12435749  0.07396299  0.93478968  1
  O  O68  1  0.87564251  0.13917332  0.07396299  1
  O  O69  1  0.12435749  0.86082668  0.92603701  1
  O  O70  1  0.87564251  0.93478968  0.86082668  1
  O  O71  1  0.12435749  0.06521032  0.13917332  1
  O  O72  1  0.93205811  0.79951299  0.42614259  1
  O  O73  1  0.06794189  0.20048701  0.57385741  1
  O  O74  1  0.93205811  0.62662960  0.20048701  1
  O  O75  1  0.06794189  0.37337040  0.79951299  1
  O  O76  1  0.93205811  0.57385741  0.37337040  1
  O  O77  1  0.06794189  0.42614259  0.62662960  1
  O  O78  1  0.84835673  0.46956983  0.56618755  1
  O  O79  1  0.15164327  0.53043017  0.43381245  1
  O  O80  1  0.84835673  0.09661772  0.53043017  1
  O  O81  1  0.15164327  0.90338228  0.46956983  1
  O  O82  1  0.84835673  0.43381245  0.90338228  1
  O  O83  1  0.15164327  0.56618755  0.09661772  1
  O  O84  1  0.83311071  0.46508540  0.72034497  1
  O  O85  1  0.16688929  0.53491460  0.27965503  1
  O  O86  1  0.83311071  0.25525956  0.53491460  1
  O  O87  1  0.16688929  0.74474044  0.46508540  1
  O  O88  1  0.83311071  0.27965503  0.74474044  1
  O  O89  1  0.16688929  0.72034497  0.25525956  1
  O  O90  1  0.58811262  0.92690671  0.38272989  1
  O  O91  1  0.41188738  0.07309329  0.61727011  1
  O  O92  1  0.58811262  0.45582318  0.07309329  1
  O  O93  1  0.41188738  0.54417682  0.92690671  1
  O  O94  1  0.58811262  0.61727011  0.54417682  1
  O  O95  1  0.41188738  0.38272989  0.45582318  1
  O  O96  1  0.54526871  0.57208509  0.80593040  1
  O  O97  1  0.45473129  0.42791491  0.19406960  1
  O  O98  1  0.54526871  0.23384532  0.42791491  1
  O  O99  1  0.45473129  0.76615468  0.57208509  1
  O  O100  1  0.54526871  0.19406960  0.76615468  1
  O  O101  1  0.45473129  0.80593040  0.23384532  1
  O  O102  1  0.64420909  0.87478155  0.96542307  1
  O  O103  1  0.35579091  0.12521845  0.03457693  1
  O  O104  1  0.64420909  0.09064152  0.12521845  1
  O  O105  1  0.35579091  0.90935848  0.87478155  1
  O  O106  1  0.64420909  0.03457693  0.90935848  1
  O  O107  1  0.35579091  0.96542307  0.09064152  1
  O  O108  1  0.55548217  0.38599042  0.58762695  1
  O  O109  1  0.44451783  0.61400958  0.41237305  1
  O  O110  1  0.55548217  0.20163653  0.61400958  1
  O  O111  1  0.44451783  0.79836347  0.38599042  1
  O  O112  1  0.55548217  0.41237305  0.79836347  1
  O  O113  1  0.44451783  0.58762695  0.20163653  1
  O  O114  1  0.67488254  0.75540202  0.28773691  1
  O  O115  1  0.32511746  0.24459798  0.71226309  1
  O  O116  1  0.67488254  0.53233489  0.24459798  1
  O  O117  1  0.32511746  0.46766511  0.75540202  1
  O  O118  1  0.67488254  0.71226309  0.46766511  1
  O  O119  1  0.32511746  0.28773691  0.53233489  1
  O  O120  1  0.68648349  0.83666743  0.09945105  1
  O  O121  1  0.31351651  0.16333257  0.90054895  1
  O  O122  1  0.68648349  0.26278362  0.16333257  1
  O  O123  1  0.31351651  0.73721638  0.83666743  1
  O  O124  1  0.68648349  0.90054895  0.73721638  1
  O  O125  1  0.31351651  0.09945105  0.26278362  1
  O  O126  1  0.97145745  0.59538569  0.71747072  1
  O  O127  1  0.02854255  0.40461431  0.28252928  1
  O  O128  1  0.97145745  0.12208503  0.40461431  1
  O  O129  1  0.02854255  0.87791497  0.59538569  1
  O  O130  1  0.97145745  0.28252928  0.87791497  1
  O  O131  1  0.02854255  0.71747072  0.12208503  1
