# generated using pymatgen
data_PrCrO3
_symmetry_space_group_name_H-M   'P 1'
_cell_length_a   5.46700644
_cell_length_b   5.52184358
_cell_length_c   7.75249120
_cell_angle_alpha   90.00000000
_cell_angle_beta   90.00000000
_cell_angle_gamma   90.00000000
_symmetry_Int_Tables_number   1
_chemical_formula_structural   PrCrO3
_chemical_formula_sum   'Pr4 Cr4 O12'
_cell_volume   234.03185093
_cell_formula_units_Z   4
loop_
 _symmetry_equiv_pos_site_id
 _symmetry_equiv_pos_as_xyz
  1  'x, y, z'
loop_
 _atom_site_type_symbol
 _atom_site_label
 _atom_site_symmetry_multiplicity
 _atom_site_fract_x
 _atom_site_fract_y
 _atom_site_fract_z
 _atom_site_occupancy
  Pr  Pr0  1  0.50898854  0.54157774  0.25000000  1
  Pr  Pr1  1  0.99101146  0.04157774  0.25000000  1
  Pr  Pr2  1  0.49101146  0.45842226  0.75000000  1
  Pr  Pr3  1  0.00898854  0.95842226  0.75000000  1
  Cr  Cr4  1  -0.00000000  0.50000000  0.00000000  1
  Cr  Cr5  1  0.50000000  0.00000000  0.50000000  1
  Cr  Cr6  1  -0.00000000  0.50000000  0.50000000  1
  Cr  Cr7  1  0.50000000  0.00000000  0.00000000  1
  O  O8  1  0.42242458  0.98398889  0.25000000  1
  O  O9  1  0.07757542  0.48398889  0.25000000  1
  O  O10  1  0.57757542  0.01601111  0.75000000  1
  O  O11  1  0.92242458  0.51601111  0.75000000  1
  O  O12  1  0.78768809  0.78743883  0.04143481  1
  O  O13  1  0.71231191  0.28743883  0.45856519  1
  O  O14  1  0.21231191  0.21256117  0.54143481  1
  O  O15  1  0.28768809  0.71256117  0.95856519  1
  O  O16  1  0.21231191  0.21256117  0.95856519  1
  O  O17  1  0.28768809  0.71256117  0.54143481  1
  O  O18  1  0.78768809  0.78743883  0.45856519  1
  O  O19  1  0.71231191  0.28743883  0.04143481  1
