# generated using pymatgen
data_Ir(SeBr3)3
_symmetry_space_group_name_H-M   'P 1'
_cell_length_a   9.68802508
_cell_length_b   12.26402471
_cell_length_c   14.15619962
_cell_angle_alpha   90.80305998
_cell_angle_beta   90.00000000
_cell_angle_gamma   90.00000000
_symmetry_Int_Tables_number   1
_chemical_formula_structural   Ir(SeBr3)3
_chemical_formula_sum   'Ir4 Se12 Br36'
_cell_volume   1681.79202819
_cell_formula_units_Z   4
loop_
 _symmetry_equiv_pos_site_id
 _symmetry_equiv_pos_as_xyz
  1  'x, y, z'
loop_
 _atom_site_type_symbol
 _atom_site_label
 _atom_site_symmetry_multiplicity
 _atom_site_fract_x
 _atom_site_fract_y
 _atom_site_fract_z
 _atom_site_occupancy
  Ir  Ir0  1  0.24459621  0.74737288  0.49382150  1
  Ir  Ir1  1  0.25540379  0.24737288  0.99382150  1
  Ir  Ir2  1  0.75540379  0.25262712  0.50617850  1
  Ir  Ir3  1  0.74459621  0.75262712  0.00617850  1
  Se  Se4  1  0.25909968  0.87291408  0.62308614  1
  Se  Se5  1  0.24090032  0.37291408  0.12308614  1
  Se  Se6  1  0.74090032  0.12708592  0.37691386  1
  Se  Se7  1  0.75909968  0.62708592  0.87691386  1
  Se  Se8  1  0.19565712  0.59170254  0.58639662  1
  Se  Se9  1  0.30434288  0.09170254  0.08639662  1
  Se  Se10  1  0.80434288  0.40829746  0.41360338  1
  Se  Se11  1  0.69565712  0.90829746  0.91360338  1
  Se  Se12  1  0.01128476  0.78642338  0.45692490  1
  Se  Se13  1  0.48871524  0.28642338  0.95692490  1
  Se  Se14  1  0.98871524  0.21357662  0.54307510  1
  Se  Se15  1  0.51128476  0.71357662  0.04307510  1
  Br  Br16  1  0.49900375  0.75609315  0.52937074  1
  Br  Br17  1  0.00099625  0.25609315  0.02937074  1
  Br  Br18  1  0.50099625  0.24390685  0.47062926  1
  Br  Br19  1  -0.00099625  0.74390685  0.97062926  1
  Br  Br20  1  0.27334962  0.59331627  0.37636082  1
  Br  Br21  1  0.22665038  0.09331627  0.87636082  1
  Br  Br22  1  0.72665038  0.40668373  0.62363918  1
  Br  Br23  1  0.77334962  0.90668373  0.12363918  1
  Br  Br24  1  0.26335891  0.88671900  0.36620706  1
  Br  Br25  1  0.23664109  0.38671900  0.86620706  1
  Br  Br26  1  0.73664109  0.11328100  0.63379294  1
  Br  Br27  1  0.76335891  0.61328100  0.13379294  1
  Br  Br28  1  0.03266176  0.93742652  0.65546603  1
  Br  Br29  1  0.46733824  0.43742652  0.15546603  1
  Br  Br30  1  0.96733824  0.06257348  0.34453397  1
  Br  Br31  1  0.53266176  0.56257348  0.84453397  1
  Br  Br32  1  0.35344327  0.04031093  0.57528327  1
  Br  Br33  1  0.14655673  0.54031093  0.07528327  1
  Br  Br34  1  0.64655673  0.95968907  0.42471673  1
  Br  Br35  1  0.85344327  0.45968907  0.92471673  1
  Br  Br36  1  0.14956040  0.65049205  0.74477047  1
  Br  Br37  1  0.35043960  0.15049205  0.24477047  1
  Br  Br38  1  0.85043960  0.34950795  0.25522953  1
  Br  Br39  1  0.64956040  0.84950795  0.75522953  1
  Br  Br40  1  0.39867157  0.49304065  0.61258795  1
  Br  Br41  1  0.10132843  -0.00695935  0.11258795  1
  Br  Br42  1  0.60132843  0.50695935  0.38741205  1
  Br  Br43  1  0.89867157  0.00695935  0.88741205  1
  Br  Br44  1  0.86991974  0.67262034  0.55180779  1
  Br  Br45  1  0.63008026  0.17262034  0.05180779  1
  Br  Br46  1  0.13008026  0.32737966  0.44819221  1
  Br  Br47  1  0.36992074  0.82737966  0.94819221  1
  Br  Br48  1  0.93926580  0.71249256  0.31041986  1
  Br  Br49  1  0.56073420  0.21249256  0.81041986  1
  Br  Br50  1  0.06073420  0.28750744  0.68958014  1
  Br  Br51  1  0.43926580  0.78750744  0.18958014  1
