# generated using pymatgen
data_Ba10MgMn6(O12F)2
_symmetry_space_group_name_H-M   'P 1'
_cell_length_a   7.79154415
_cell_length_b   11.21523058
_cell_length_c   10.86007209
_cell_angle_alpha   123.23448642
_cell_angle_beta   90.00000000
_cell_angle_gamma   90.00000000
_symmetry_Int_Tables_number   1
_chemical_formula_structural   Ba10MgMn6(O12F)2
_chemical_formula_sum   'Ba10 Mg1 Mn6 O24 F2'
_cell_volume   793.77319950
_cell_formula_units_Z   1
loop_
 _symmetry_equiv_pos_site_id
 _symmetry_equiv_pos_as_xyz
  1  'x, y, z'
loop_
 _atom_site_type_symbol
 _atom_site_label
 _atom_site_symmetry_multiplicity
 _atom_site_fract_x
 _atom_site_fract_y
 _atom_site_fract_z
 _atom_site_occupancy
  Ba  Ba0  1  0.49830951  0.65591304  0.34826470  1
  Ba  Ba1  1  0.00158790  0.32589018  0.64551944  1
  Ba  Ba2  1  0.49841210  0.32589018  0.64551944  1
  Ba  Ba3  1  0.00169049  0.65591304  0.34826470  1
  Ba  Ba4  1  0.75000000  0.25376366  0.98622712  1
  Ba  Ba5  1  0.75000000  0.99164733  0.27754097  1
  Ba  Ba6  1  0.75000000  0.75984116  0.76370967  1
  Ba  Ba7  1  0.25000000  0.71182700  0.05504452  1
  Ba  Ba8  1  0.25000000  0.00450391  0.70272698  1
  Ba  Ba9  1  0.25000000  0.23031420  0.24089500  1
  Mg  Mg10  1  0.25000000  0.87445954  0.89603805  1
  Mn  Mn11  1  0.75000000  0.96404045  0.59948138  1
  Mn  Mn12  1  0.75000000  0.39463275  0.36261264  1
  Mn  Mn13  1  0.75000000  0.62114955  0.03226228  1
  Mn  Mn14  1  0.25000000  0.02240065  0.39237989  1
  Mn  Mn15  1  0.25000000  0.61001656  0.65008279  1
  Mn  Mn16  1  0.25000000  0.37058321  0.95333742  1
  O  O17  1  0.75000000  0.13883206  0.65018997  1
  O  O18  1  0.75000000  0.31123073  0.45636059  1
  O  O19  1  0.75000000  0.51331899  0.84360160  1
  O  O20  1  0.25000000  0.85120186  0.37741362  1
  O  O21  1  0.25000000  0.66134367  0.51997033  1
  O  O22  1  0.25000000  0.51549847  0.13398333  1
  O  O23  1  0.75000000  0.85269414  0.41054809  1
  O  O24  1  0.75000000  0.57989988  0.47997464  1
  O  O25  1  0.75000000  0.52958847  0.11881129  1
  O  O26  1  0.25000000  0.14357946  0.58894321  1
  O  O27  1  0.25000000  0.41720716  0.53658158  1
  O  O28  1  0.25000000  0.44889816  0.85221506  1
  O  O29  1  0.57774041  0.91454304  0.66027715  1
  O  O30  1  0.57478054  0.35288957  0.24992266  1
  O  O31  1  0.57895124  0.73651002  0.10034745  1
  O  O32  1  0.07634354  0.07860219  0.32630954  1
  O  O33  1  0.08611057  0.70826211  0.79283037  1
  O  O34  1  0.07191571  0.26604160  0.90095185  1
  O  O35  1  0.42365646  0.07860219  0.32630954  1
  O  O36  1  0.41388943  0.70826211  0.79283037  1
  O  O37  1  0.42808429  0.26604160  0.90095185  1
  O  O38  1  0.92225959  0.91454304  0.66027715  1
  O  O39  1  0.92521946  0.35288957  0.24992266  1
  O  O40  1  0.92104876  0.73651002  0.10034745  1
  F  F41  1  0.42649832  0.01573726  0.97886082  1
  F  F42  1  0.07350168  0.01573726  0.97886082  1
