# generated using pymatgen
data_Ba7Sr5(MoN4)4
_symmetry_space_group_name_H-M   'P 1'
_cell_length_a   10.64914081
_cell_length_b   10.03826658
_cell_length_c   12.04525726
_cell_angle_alpha   89.85946566
_cell_angle_beta   90.00000000
_cell_angle_gamma   90.00000000
_symmetry_Int_Tables_number   1
_chemical_formula_structural   Ba7Sr5(MoN4)4
_chemical_formula_sum   'Ba14 Sr10 Mo8 N32'
_cell_volume   1287.62104982
_cell_formula_units_Z   2
loop_
 _symmetry_equiv_pos_site_id
 _symmetry_equiv_pos_as_xyz
  1  'x, y, z'
loop_
 _atom_site_type_symbol
 _atom_site_label
 _atom_site_symmetry_multiplicity
 _atom_site_fract_x
 _atom_site_fract_y
 _atom_site_fract_z
 _atom_site_occupancy
  Ba  Ba0  1  0.77205252  0.56325699  0.38474890  1
  Ba  Ba1  1  0.27205252  0.43674301  0.61525110  1
  Ba  Ba2  1  0.22822818  0.05278795  0.12009615  1
  Ba  Ba3  1  0.72822818  0.94721205  0.87990385  1
  Ba  Ba4  1  0.23046465  0.94429075  0.61640771  1
  Ba  Ba5  1  0.73046465  0.05570925  0.38359229  1
  Ba  Ba6  1  0.77169981  0.44211335  0.88534643  1
  Ba  Ba7  1  0.27169981  0.55788665  0.11465357  1
  Ba  Ba8  1  0.97127574  0.37509930  0.14877153  1
  Ba  Ba9  1  0.47127574  0.62490070  0.85122847  1
  Ba  Ba10  1  0.97205066  0.62257132  0.64717249  1
  Ba  Ba11  1  0.47205066  0.37742868  0.35282751  1
  Ba  Ba12  1  0.02937167  0.12281806  0.85549526  1
  Ba  Ba13  1  0.52937167  0.87718194  0.14450474  1
  Sr  Sr14  1  0.12451111  0.21700656  0.39521689  1
  Sr  Sr15  1  0.62451111  0.78299344  0.60478311  1
  Sr  Sr16  1  0.87756273  0.71747823  0.10547187  1
  Sr  Sr17  1  0.37756273  0.28252177  0.89452813  1
  Sr  Sr18  1  0.87638778  0.28287359  0.60310023  1
  Sr  Sr19  1  0.37638778  0.71712641  0.39689977  1
  Sr  Sr20  1  0.12289759  0.78322070  0.89441734  1
  Sr  Sr21  1  0.62289759  0.21677930  0.10558266  1
  Sr  Sr22  1  0.03500285  0.87269575  0.36321052  1
  Sr  Sr23  1  0.53500285  0.12730425  0.63678948  1
  Mo  Mo24  1  0.09582026  0.55085612  0.38412608  1
  Mo  Mo25  1  0.59582026  0.44914388  0.61587392  1
  Mo  Mo26  1  0.90400960  0.04326719  0.11831756  1
  Mo  Mo27  1  0.40400960  0.95673281  0.88168244  1
  Mo  Mo28  1  0.90267971  0.95316145  0.61181046  1
  Mo  Mo29  1  0.40267971  0.04683855  0.38818954  1
  Mo  Mo30  1  0.09630476  0.45344030  0.88431888  1
  Mo  Mo31  1  0.59630476  0.54655970  0.11568112  1
  N  N32  1  0.22226817  0.45070000  0.31733968  1
  N  N33  1  0.72226817  0.54930000  0.68266032  1
  N  N34  1  0.77513472  0.94463064  0.18175550  1
  N  N35  1  0.27513472  0.05536936  0.81824450  1
  N  N36  1  0.76988098  0.05061890  0.67235770  1
  N  N37  1  0.26988098  0.94938110  0.32764230  1
  N  N38  1  0.22305281  0.55271392  0.81694691  1
  N  N39  1  0.72305281  0.44728608  0.18305309  1
  N  N40  1  0.15955824  0.67817681  0.48200017  1
  N  N41  1  0.65955824  0.32182319  0.51799983  1
  N  N42  1  0.84122747  0.17496201  0.02252315  1
  N  N43  1  0.34122747  0.82503799  0.97747685  1
  N  N44  1  0.84333837  0.82260994  0.51438914  1
  N  N45  1  0.34333837  0.17739006  0.48561086  1
  N  N46  1  0.16003148  0.32478750  0.98164274  1
  N  N47  1  0.66003148  0.67521250  0.01835726  1
  N  N48  1  0.99325326  0.43267771  0.46381653  1
  N  N49  1  0.49325326  0.56732229  0.53618347  1
  N  N50  1  0.00550716  0.92885777  0.03500734  1
  N  N51  1  0.50550716  0.07114223  0.96499266  1
  N  N52  1  0.00597308  0.06837232  0.53055198  1
  N  N53  1  0.50597308  0.93162768  0.46944802  1
  N  N54  1  0.99540695  0.57002388  0.96609323  1
  N  N55  1  0.49540695  0.42997612  0.03390677  1
  N  N56  1  0.99606046  0.63716910  0.27924397  1
  N  N57  1  0.49606046  0.36283090  0.72075603  1
  N  N58  1  0.00410303  0.11994347  0.22799867  1
  N  N59  1  0.50410303  0.88005653  0.77200133  1
  N  N60  1  0.00017299  0.87544665  0.72295922  1
  N  N61  1  0.50017299  0.12455335  0.27704078  1
  N  N62  1  0.99471120  0.37274001  0.77768536  1
  N  N63  1  0.49471120  0.62725999  0.22231464  1
