# generated using pymatgen
data_CsFeNiF6
_symmetry_space_group_name_H-M   'P 1'
_cell_length_a   7.31134108
_cell_length_b   7.31134108
_cell_length_c   7.31134108
_cell_angle_alpha   120.47862274
_cell_angle_beta   119.43393104
_cell_angle_gamma   90.07812521
_symmetry_Int_Tables_number   1
_chemical_formula_structural   CsFeNiF6
_chemical_formula_sum   'Cs2 Fe2 Ni2 F12'
_cell_volume   276.51428425
_cell_formula_units_Z   2
loop_
 _symmetry_equiv_pos_site_id
 _symmetry_equiv_pos_as_xyz
  1  'x, y, z'
loop_
 _atom_site_type_symbol
 _atom_site_label
 _atom_site_symmetry_multiplicity
 _atom_site_fract_x
 _atom_site_fract_y
 _atom_site_fract_z
 _atom_site_occupancy
  Cs  Cs0  1  0.86860249  0.61860249  0.25000000  1
  Cs  Cs1  1  0.13139751  0.38139751  0.75000000  1
  Fe  Fe2  1  0.50000000  0.00000000  0.50000000  1
  Fe  Fe3  1  -0.00000000  0.00000000  0.00000000  1
  Ni  Ni4  1  0.50000000  0.00000000  0.00000000  1
  Ni  Ni5  1  0.50000000  0.50000000  0.50000000  1
  F  F6  1  0.81709695  0.06709695  0.75000000  1
  F  F7  1  0.42602321  0.67602321  0.75000000  1
  F  F8  1  0.82367124  0.68659273  0.75608752  1
  F  F9  1  0.43050421  0.06758272  0.74391248  1
  F  F10  1  0.82367124  0.06758272  0.13707851  1
  F  F11  1  0.43050421  0.68659273  0.36292149  1
  F  F12  1  0.18290305  0.93290305  0.25000000  1
  F  F13  1  0.57397679  0.32397679  0.25000000  1
  F  F14  1  0.17632876  0.31340727  0.24391248  1
  F  F15  1  0.56949579  0.93241728  0.25608752  1
  F  F16  1  0.17632876  0.93241728  0.86292149  1
  F  F17  1  0.56949579  0.31340727  0.63707851  1
