# generated using pymatgen
data_Pm2MgSe4
_symmetry_space_group_name_H-M   'P 1'
_cell_length_a   13.51857464
_cell_length_b   8.09105358
_cell_length_c   13.62382869
_cell_angle_alpha   90.00000000
_cell_angle_beta   90.00000000
_cell_angle_gamma   90.00000000
_symmetry_Int_Tables_number   1
_chemical_formula_structural   Pm2MgSe4
_chemical_formula_sum   'Pm16 Mg8 Se32'
_cell_volume   1490.16773011
_cell_formula_units_Z   8
loop_
 _symmetry_equiv_pos_site_id
 _symmetry_equiv_pos_as_xyz
  1  'x, y, z'
loop_
 _atom_site_type_symbol
 _atom_site_label
 _atom_site_symmetry_multiplicity
 _atom_site_fract_x
 _atom_site_fract_y
 _atom_site_fract_z
 _atom_site_occupancy
  Pm  Pm0  1  0.10806511  0.88352445  0.68497281  1
  Pm  Pm1  1  0.89193489  0.11647555  0.18497281  1
  Pm  Pm2  1  0.39193489  0.88352445  0.18497281  1
  Pm  Pm3  1  0.60806511  0.11647555  0.68497281  1
  Pm  Pm4  1  0.12744351  0.38205499  0.32635849  1
  Pm  Pm5  1  0.87255649  0.61794501  0.82635849  1
  Pm  Pm6  1  0.37255649  0.38205499  0.82635849  1
  Pm  Pm7  1  0.62744351  0.61794501  0.32635849  1
  Pm  Pm8  1  0.13362287  0.62851137  0.99180631  1
  Pm  Pm9  1  0.86637713  0.37148863  0.49180631  1
  Pm  Pm10  1  0.36637713  0.62851137  0.49180631  1
  Pm  Pm11  1  0.63362287  0.37148863  0.99180631  1
  Pm  Pm12  1  0.13453117  0.12882842  0.99273393  1
  Pm  Pm13  1  0.86546883  0.87117158  0.49273393  1
  Pm  Pm14  1  0.36546883  0.12882842  0.49273393  1
  Pm  Pm15  1  0.63453117  0.87117158  0.99273393  1
  Mg  Mg16  1  0.11135147  0.38285468  0.69241457  1
  Mg  Mg17  1  0.88864853  0.61714532  0.19241457  1
  Mg  Mg18  1  0.38864853  0.38285468  0.19241457  1
  Mg  Mg19  1  0.61135147  0.61714532  0.69241457  1
  Mg  Mg20  1  0.12638020  0.87877341  0.31983000  1
  Mg  Mg21  1  0.87361980  0.12122659  0.81983000  1
  Mg  Mg22  1  0.37361980  0.87877341  0.81983000  1
  Mg  Mg23  1  0.62638020  0.12122659  0.31983000  1
  Se  Se24  1  0.01073076  0.88039696  0.87936840  1
  Se  Se25  1  0.98926924  0.11960304  0.37936840  1
  Se  Se26  1  0.48926924  0.88039696  0.37936840  1
  Se  Se27  1  0.51073076  0.11960304  0.87936840  1
  Se  Se28  1  0.03090845  0.38034292  0.12861174  1
  Se  Se29  1  0.96909155  0.61965708  0.62861174  1
  Se  Se30  1  0.46909155  0.38034292  0.62861174  1
  Se  Se31  1  0.53090845  0.61965708  0.12861174  1
  Se  Se32  1  0.02341502  0.37105959  0.86714692  1
  Se  Se33  1  0.97658498  0.62894041  0.36714692  1
  Se  Se34  1  0.47658498  0.37105959  0.36714692  1
  Se  Se35  1  0.52341502  0.62894041  0.86714692  1
  Se  Se36  1  0.04511219  0.87154732  0.13865999  1
  Se  Se37  1  0.95488781  0.12845268  0.63865999  1
  Se  Se38  1  0.45488781  0.87154732  0.63865999  1
  Se  Se39  1  0.54511219  0.12845268  0.13865999  1
  Se  Se40  1  0.20989195  0.87912928  0.49841676  1
  Se  Se41  1  0.79010805  0.12087072  0.99841676  1
  Se  Se42  1  0.29010805  0.87912928  0.99841676  1
  Se  Se43  1  0.70989195  0.12087072  0.49841676  1
  Se  Se44  1  0.21040323  0.38017938  0.52239866  1
  Se  Se45  1  0.78959677  0.61982062  0.02239866  1
  Se  Se46  1  0.28959677  0.38017938  0.02239866  1
  Se  Se47  1  0.71040323  0.61982062  0.52239866  1
  Se  Se48  1  0.23235000  0.12865938  0.77613388  1
  Se  Se49  1  0.76765000  0.87134062  0.27613388  1
  Se  Se50  1  0.26765000  0.12865938  0.27613388  1
  Se  Se51  1  0.73235000  0.87134062  0.77613388  1
  Se  Se52  1  0.23045597  0.63251816  0.77814852  1
  Se  Se53  1  0.76954403  0.36748184  0.27814852  1
  Se  Se54  1  0.26954403  0.63251816  0.27814852  1
  Se  Se55  1  0.73045597  0.36748184  0.77814852  1
