# generated using pymatgen
data_K2Ga2As3
_symmetry_space_group_name_H-M   'P 1'
_cell_length_a   6.76220461
_cell_length_b   13.83648293
_cell_length_c   15.69994349
_cell_angle_alpha   89.61274069
_cell_angle_beta   90.00000000
_cell_angle_gamma   90.00000000
_symmetry_Int_Tables_number   1
_chemical_formula_structural   K2Ga2As3
_chemical_formula_sum   'K16 Ga16 As24'
_cell_volume   1468.93367972
_cell_formula_units_Z   8
loop_
 _symmetry_equiv_pos_site_id
 _symmetry_equiv_pos_as_xyz
  1  'x, y, z'
loop_
 _atom_site_type_symbol
 _atom_site_label
 _atom_site_symmetry_multiplicity
 _atom_site_fract_x
 _atom_site_fract_y
 _atom_site_fract_z
 _atom_site_occupancy
  K  K0  1  0.96944549  0.85604533  0.99510764  1
  K  K1  1  0.46944549  0.14395467  0.50489236  1
  K  K2  1  0.03055451  0.14395467  0.00489236  1
  K  K3  1  0.53055451  0.85604533  0.49510764  1
  K  K4  1  0.55223768  0.34673699  0.01843817  1
  K  K5  1  0.05223768  0.65326301  0.48156183  1
  K  K6  1  0.44776232  0.65326301  0.98156183  1
  K  K7  1  0.94776232  0.34673699  0.51843817  1
  K  K8  1  0.53405557  0.07837595  0.10744667  1
  K  K9  1  0.03405557  0.92162405  0.39255333  1
  K  K10  1  0.46594443  0.92162405  0.89255333  1
  K  K11  1  0.96594443  0.07837595  0.60744667  1
  K  K12  1  0.93282325  0.55753691  0.89957745  1
  K  K13  1  0.43282325  0.44246309  0.60042255  1
  K  K14  1  0.06717675  0.44246309  0.10042255  1
  K  K15  1  0.56717675  0.55753691  0.39957745  1
  Ga  Ga16  1  0.27428112  0.31448763  0.82497841  1
  Ga  Ga17  1  0.77428112  0.68551237  0.67502159  1
  Ga  Ga18  1  0.72571888  0.68551237  0.17502159  1
  Ga  Ga19  1  0.22571888  0.31448763  0.32497841  1
  Ga  Ga20  1  0.78887453  0.90894020  0.73130812  1
  Ga  Ga21  1  0.28887453  0.09105980  0.76869188  1
  Ga  Ga22  1  0.21112547  0.09105980  0.26869188  1
  Ga  Ga23  1  0.71112547  0.90894020  0.23130812  1
  Ga  Ga24  1  0.76075572  0.18340279  0.81876189  1
  Ga  Ga25  1  0.26075572  0.81659721  0.68123811  1
  Ga  Ga26  1  0.23924428  0.81659721  0.18123811  1
  Ga  Ga27  1  0.73924428  0.18340279  0.31876189  1
  Ga  Ga28  1  0.75347332  0.40793476  0.75890948  1
  Ga  Ga29  1  0.25347332  0.59206524  0.74109052  1
  Ga  Ga30  1  0.24652668  0.59206524  0.24109052  1
  Ga  Ga31  1  0.74652668  0.40793476  0.25890948  1
  As  As32  1  0.96073736  0.03184921  0.82130430  1
  As  As33  1  0.46073736  0.96815079  0.67869570  1
  As  As34  1  0.03926264  0.96815079  0.17869570  1
  As  As35  1  0.53926264  0.03184921  0.32130430  1
  As  As36  1  0.44726686  0.16542279  0.89654593  1
  As  As37  1  0.94726686  0.83457721  0.60345407  1
  As  As38  1  0.55273314  0.83457721  0.10345407  1
  As  As39  1  0.05273314  0.16542279  0.39654593  1
  As  As40  1  0.93644789  0.32811417  0.87982435  1
  As  As41  1  0.43644789  0.67188583  0.62017565  1
  As  As42  1  0.06355211  0.67188583  0.12017565  1
  As  As43  1  0.56355211  0.32811417  0.37982435  1
  As  As44  1  0.83711179  0.25427143  0.17680256  1
  As  As45  1  0.33711179  0.74572857  0.32319744  1
  As  As46  1  0.16288821  0.74572857  0.82319744  1
  As  As47  1  0.66288821  0.25427143  0.67680256  1
  As  As48  1  0.45022812  0.47343431  0.83210212  1
  As  As49  1  0.95022812  0.52656569  0.66789788  1
  As  As50  1  0.54977188  0.52656569  0.16789788  1
  As  As51  1  0.04977188  0.47343431  0.33210212  1
  As  As52  1  0.20346516  0.24366335  0.18055183  1
  As  As53  1  0.70346516  0.75633665  0.31944817  1
  As  As54  1  0.79653484  0.75633665  0.81944817  1
  As  As55  1  0.29653484  0.24366335  0.68055183  1
