# generated using pymatgen
data_BaSnS2
_symmetry_space_group_name_H-M   'P 1'
_cell_length_a   6.16379800
_cell_length_b   6.33619705
_cell_length_c   12.32491665
_cell_angle_alpha   90.00000000
_cell_angle_beta   90.00000000
_cell_angle_gamma   96.36065930
_symmetry_Int_Tables_number   1
_chemical_formula_structural   BaSnS2
_chemical_formula_sum   'Ba4 Sn4 S8'
_cell_volume   478.38701294
_cell_formula_units_Z   4
loop_
 _symmetry_equiv_pos_site_id
 _symmetry_equiv_pos_as_xyz
  1  'x, y, z'
loop_
 _atom_site_type_symbol
 _atom_site_label
 _atom_site_symmetry_multiplicity
 _atom_site_fract_x
 _atom_site_fract_y
 _atom_site_fract_z
 _atom_site_occupancy
  Ba  Ba0  1  0.93624959  0.23916793  0.88064159  1
  Ba  Ba1  1  0.06375041  0.26083207  0.38064159  1
  Ba  Ba2  1  0.06375041  0.76083207  0.11935841  1
  Ba  Ba3  1  0.93624959  0.73916793  0.61935841  1
  Sn  Sn4  1  0.45608637  0.70284187  0.86758521  1
  Sn  Sn5  1  0.54391363  0.29715813  0.13241479  1
  Sn  Sn6  1  0.54391363  0.79715813  0.36758521  1
  Sn  Sn7  1  0.45608637  0.20284187  0.63241479  1
  S  S8  1  0.42434401  0.10627300  0.83656087  1
  S  S9  1  0.57565599  0.39372700  0.33656087  1
  S  S10  1  0.57565599  0.89372700  0.16343913  1
  S  S11  1  0.42434401  0.60627300  0.66343913  1
  S  S12  1  0.86903481  0.23302308  0.62474603  1
  S  S13  1  0.86903481  0.73302308  0.87525397  1
  S  S14  1  0.13096519  0.76697692  0.37525397  1
  S  S15  1  0.13096519  0.26697692  0.12474603  1
