# generated using pymatgen
data_Na3GdV2O8
_symmetry_space_group_name_H-M   'P 1'
_cell_length_a   5.62747699
_cell_length_b   14.35592020
_cell_length_c   14.92606252
_cell_angle_alpha   91.40532194
_cell_angle_beta   100.86594567
_cell_angle_gamma   90.00000000
_symmetry_Int_Tables_number   1
_chemical_formula_structural   Na3GdV2O8
_chemical_formula_sum   'Na18 Gd6 V12 O48'
_cell_volume   1183.85199903
_cell_formula_units_Z   6
loop_
 _symmetry_equiv_pos_site_id
 _symmetry_equiv_pos_as_xyz
  1  'x, y, z'
loop_
 _atom_site_type_symbol
 _atom_site_label
 _atom_site_symmetry_multiplicity
 _atom_site_fract_x
 _atom_site_fract_y
 _atom_site_fract_z
 _atom_site_occupancy
  Na  Na0  1  0.70694471  0.41760853  0.42047869  1
  Na  Na1  1  0.71353398  0.91760853  0.42047869  1
  Na  Na2  1  0.81860696  0.32778092  0.67490317  1
  Na  Na3  1  0.85629620  0.82778092  0.67490317  1
  Na  Na4  1  0.66560920  0.07498696  0.22192107  1
  Na  Na5  1  0.55631187  0.57498696  0.22192107  1
  Na  Na6  1  0.45530166  0.23510072  0.00664630  1
  Na  Na7  1  0.55134464  0.73510072  0.00664630  1
  Na  Na8  1  0.94997727  0.00864667  0.87823361  1
  Na  Na9  1  0.92825634  0.50864667  0.87823361  1
  Na  Na10  1  0.39596888  0.39062604  0.80301966  1
  Na  Na11  1  0.40705079  0.89062604  0.80301966  1
  Na  Na12  1  0.06822530  0.15452778  0.11743557  1
  Na  Na13  1  0.04921026  0.65452778  0.11743557  1
  Na  Na14  1  0.28720382  0.47561371  0.55684667  1
  Na  Na15  1  0.26964285  0.97561371  0.55684667  1
  Na  Na16  1  0.19463052  0.29484341  0.35914797  1
  Na  Na17  1  0.16451746  0.79484341  0.35914797  1
  Gd  Gd18  1  0.41845255  0.63438261  0.76127375  1
  Gd  Gd19  1  0.34282120  0.13438261  0.76127375  1
  Gd  Gd20  1  0.95850846  0.40057558  0.11540844  1
  Gd  Gd21  1  0.15689998  0.90057558  0.11540844  1
  Gd  Gd22  1  0.77064125  0.16992728  0.46572042  1
  Gd  Gd23  1  0.69507917  0.66992728  0.46572042  1
  V  V24  1  0.29928476  0.25079126  0.57151851  1
  V  V25  1  0.27223375  0.75079126  0.57151851  1
  V  V26  1  0.91537063  0.25816173  0.89054690  1
  V  V27  1  0.97517626  0.75816173  0.89054690  1
  V  V28  1  0.81914052  0.04994243  0.65306441  1
  V  V29  1  0.83392389  0.54994243  0.65306441  1
  V  V30  1  0.20000203  0.04828252  0.33599892  1
  V  V31  1  0.13599689  0.54828252  0.33599892  1
  V  V32  1  0.57107715  0.30828190  0.22858498  1
  V  V33  1  0.65750783  0.80828190  0.22858498  1
  V  V34  1  0.54857305  0.00210876  0.00011183  1
  V  V35  1  0.45153878  0.50210876  0.00011183  1
  O  O36  1  0.07473433  0.16219699  0.85672828  1
  O  O37  1  0.78199395  0.66219699  0.85672828  1
  O  O38  1  0.57899116  0.01855731  0.70498275  1
  O  O39  1  0.12599159  0.51855731  0.70498275  1
  O  O40  1  0.59325452  0.39389265  0.00692746  1
  O  O41  1  0.41367293  0.89389265  0.00692746  1
  O  O42  1  0.54011302  0.28776916  0.52225781  1
  O  O43  1  0.98214479  0.78776916  0.52225781  1
  O  O44  1  0.68779558  0.41894353  0.21867387  1
  O  O45  1  0.53087829  0.91894353  0.21867387  1
  O  O46  1  0.98407488  0.35438909  0.83349493  1
  O  O47  1  0.84942005  0.85438909  0.83349493  1
  O  O48  1  0.86786887  0.16817575  0.65668944  1
  O  O49  1  0.78882057  0.66817575  0.65668944  1
  O  O50  1  0.41529806  0.07606410  0.06883067  1
  O  O51  1  0.65353261  0.57606410  0.06883067  1
  O  O52  1  0.12675524  0.52538838  0.21931407  1
  O  O53  1  0.09255883  0.02538838  0.21931407  1
  O  O54  1  0.64782366  0.27666488  0.34244530  1
  O  O55  1  0.69462164  0.77666488  0.34244530  1
  O  O56  1  0.33502080  0.64230389  0.36683402  1
  O  O57  1  0.03181322  0.14230389  0.36683402  1
  O  O58  1  0.25145208  0.30468394  0.19751473  1
  O  O59  1  0.94606264  0.80468394  0.19751473  1
  O  O60  1  0.50873716  0.07958994  0.35926472  1
  O  O61  1  0.85052756  0.57958994  0.35926472  1
  O  O62  1  0.27366794  0.13194309  0.56533151  1
  O  O63  1  0.29166357  0.63194309  0.56533151  1
  O  O64  1  0.03609677  0.29967576  0.51043669  1
  O  O65  1  0.47433991  0.79967576  0.51043669  1
  O  O66  1  0.76535005  0.01959081  0.53713204  1
  O  O67  1  0.77178198  0.51959081  0.53713204  1
  O  O68  1  0.48020784  0.03537718  0.88598904  1
  O  O69  1  0.40578120  0.53537718  0.88598904  1
  O  O70  1  0.60246616  0.23500849  0.86175398  1
  O  O71  1  0.25928782  0.73500849  0.86175398  1
  O  O72  1  0.24862348  0.45303403  0.39779764  1
  O  O73  1  0.14917416  0.95303403  0.39779764  1
  O  O74  1  0.62833604  0.49698765  0.71118293  1
  O  O75  1  0.08284689  0.99698765  0.71118293  1
  O  O76  1  0.01336949  0.27608274  0.00847012  1
  O  O77  1  0.99510064  0.77608274  0.00847012  1
  O  O78  1  0.71355682  0.23918036  0.15845160  1
  O  O79  1  0.44489477  0.73918036  0.15845160  1
  O  O80  1  0.16527401  0.49753415  0.03281152  1
  O  O81  1  0.86753752  0.99753415  0.03281152  1
  O  O82  1  0.34328048  0.78157732  0.68768403  1
  O  O83  1  0.34440356  0.28157732  0.68768403  1
