# generated using pymatgen
data_LaNb3O9
_symmetry_space_group_name_H-M   'P 1'
_cell_length_a   8.90359764
_cell_length_b   8.90359764
_cell_length_c   9.81733016
_cell_angle_alpha   57.00949239
_cell_angle_beta   57.00949239
_cell_angle_gamma   36.81770077
_symmetry_Int_Tables_number   1
_chemical_formula_structural   LaNb3O9
_chemical_formula_sum   'La2 Nb6 O18'
_cell_volume   381.94821846
_cell_formula_units_Z   2
loop_
 _symmetry_equiv_pos_site_id
 _symmetry_equiv_pos_as_xyz
  1  'x, y, z'
loop_
 _atom_site_type_symbol
 _atom_site_label
 _atom_site_symmetry_multiplicity
 _atom_site_fract_x
 _atom_site_fract_y
 _atom_site_fract_z
 _atom_site_occupancy
  La  La0  1  0.33371900  0.33371900  0.99886800  1
  La  La1  1  0.67322600  0.67322600  0.99814200  1
  Nb  Nb2  1  0.58899700  0.58899700  0.74741400  1
  Nb  Nb3  1  0.75026400  0.75026400  0.26419300  1
  Nb  Nb4  1  0.07868100  0.07868100  0.25716000  1
  Nb  Nb5  1  0.92892500  0.92892500  0.73945700  1
  Nb  Nb6  1  0.25718200  0.25718200  0.73219900  1
  Nb  Nb7  1  0.41822900  0.41822900  0.24821100  1
  O  O8  1  0.50371500  0.50371500  0.99957200  1
  O  O9  1  0.57939100  0.10214800  0.22971900  1
  O  O10  1  0.10214800  0.57939100  0.22971900  1
  O  O11  1  0.17886400  0.17886400  0.00136700  1
  O  O12  1  0.83058000  0.83058000  0.99796600  1
  O  O13  1  0.00517100  0.00517100  0.49910800  1
  O  O14  1  0.66924400  0.66924400  0.50241300  1
  O  O15  1  0.92449700  0.43647900  0.22364100  1
  O  O16  1  0.73046600  0.25861200  0.76657300  1
  O  O17  1  0.75030200  0.27821400  0.23245500  1
  O  O18  1  0.25861200  0.73046600  0.76657300  1
  O  O19  1  0.43647900  0.92449700  0.22364100  1
  O  O20  1  0.57396000  0.08309100  0.77492600  1
  O  O21  1  0.33902500  0.33902500  0.49660100  1
  O  O22  1  0.08309100  0.57396000  0.77492600  1
  O  O23  1  0.27821400  0.75030200  0.23245500  1
  O  O24  1  0.90748700  0.42816100  0.76903000  1
  O  O25  1  0.42816100  0.90748700  0.76903000  1
