# generated using pymatgen
data_KHo2Cl7
_symmetry_space_group_name_H-M   'P 1'
_cell_length_a   12.52478385
_cell_length_b   6.87719657
_cell_length_c   12.82273375
_cell_angle_alpha   89.82996650
_cell_angle_beta   90.00000000
_cell_angle_gamma   90.00000000
_symmetry_Int_Tables_number   1
_chemical_formula_structural   KHo2Cl7
_chemical_formula_sum   'K4 Ho8 Cl28'
_cell_volume   1104.48644363
_cell_formula_units_Z   4
loop_
 _symmetry_equiv_pos_site_id
 _symmetry_equiv_pos_as_xyz
  1  'x, y, z'
loop_
 _atom_site_type_symbol
 _atom_site_label
 _atom_site_symmetry_multiplicity
 _atom_site_fract_x
 _atom_site_fract_y
 _atom_site_fract_z
 _atom_site_occupancy
  K  K0  1  0.20346063  0.77948419  0.03582675  1
  K  K1  1  0.79653937  0.22051581  0.96417325  1
  K  K2  1  0.70346063  0.22051581  0.46417325  1
  K  K3  1  0.29653937  0.77948419  0.53582675  1
  Ho  Ho4  1  0.53714316  0.77214570  0.23745303  1
  Ho  Ho5  1  0.46285684  0.22785430  0.76254697  1
  Ho  Ho6  1  0.03714316  0.22785430  0.26254697  1
  Ho  Ho7  1  0.96285684  0.77214570  0.73745303  1
  Ho  Ho8  1  0.83999379  0.72596870  0.24821417  1
  Ho  Ho9  1  0.16000621  0.27403130  0.75178583  1
  Ho  Ho10  1  0.33999379  0.27403130  0.25178583  1
  Ho  Ho11  1  0.66000621  0.72596870  0.74821417  1
  Cl  Cl12  1  0.97198298  0.94756108  0.13087966  1
  Cl  Cl13  1  0.02801702  0.05243892  0.86912034  1
  Cl  Cl14  1  0.47198298  0.05243892  0.36912034  1
  Cl  Cl15  1  0.52801702  0.94756108  0.63087966  1
  Cl  Cl16  1  0.68575032  0.74669107  0.39597785  1
  Cl  Cl17  1  0.31424968  0.25330893  0.60402215  1
  Cl  Cl18  1  0.18575032  0.25330893  0.10402215  1
  Cl  Cl19  1  0.81424968  0.74669107  0.89597785  1
  Cl  Cl20  1  0.67885655  0.50990669  0.17204382  1
  Cl  Cl21  1  0.32114345  0.49009331  0.82795618  1
  Cl  Cl22  1  0.17885655  0.49009331  0.32795618  1
  Cl  Cl23  1  0.82114345  0.50990669  0.67204382  1
  Cl  Cl24  1  0.92564353  0.97931613  0.38199212  1
  Cl  Cl25  1  0.07435647  0.02068387  0.61800788  1
  Cl  Cl26  1  0.42564353  0.02068387  0.11800788  1
  Cl  Cl27  1  0.57435647  0.97931613  0.88199212  1
  Cl  Cl28  1  0.94308332  0.46573634  0.12664645  1
  Cl  Cl29  1  0.05691668  0.53426366  0.87335355  1
  Cl  Cl30  1  0.44308332  0.53426366  0.37335355  1
  Cl  Cl31  1  0.55691668  0.46573634  0.62664645  1
  Cl  Cl32  1  0.70218123  0.99629886  0.17421555  1
  Cl  Cl33  1  0.29781877  0.00370114  0.82578445  1
  Cl  Cl34  1  0.20218123  0.00370114  0.32578445  1
  Cl  Cl35  1  0.79781877  0.99629886  0.67421555  1
  Cl  Cl36  1  0.91146552  0.45895230  0.38143960  1
  Cl  Cl37  1  0.08853448  0.54104770  0.61856040  1
  Cl  Cl38  1  0.41146552  0.54104770  0.11856040  1
  Cl  Cl39  1  0.58853448  0.45895230  0.88143960  1
