# generated using pymatgen
data_MgFe4(PO4)4
_symmetry_space_group_name_H-M   'P 1'
_cell_length_a   8.51883486
_cell_length_b   8.81096081
_cell_length_c   5.22668320
_cell_angle_alpha   88.52149148
_cell_angle_beta   105.69571809
_cell_angle_gamma   89.07546711
_symmetry_Int_Tables_number   1
_chemical_formula_structural   MgFe4(PO4)4
_chemical_formula_sum   'Mg1 Fe4 P4 O16'
_cell_volume   377.44710078
_cell_formula_units_Z   1
loop_
 _symmetry_equiv_pos_site_id
 _symmetry_equiv_pos_as_xyz
  1  'x, y, z'
loop_
 _atom_site_type_symbol
 _atom_site_label
 _atom_site_symmetry_multiplicity
 _atom_site_fract_x
 _atom_site_fract_y
 _atom_site_fract_z
 _atom_site_occupancy
  Mg  Mg0  1  0.50000000  0.50000000  0.50000000  1
  Fe  Fe1  1  0.15577100  0.48630300  0.39893800  1
  Fe  Fe2  1  0.30959000  0.99543600  0.02646000  1
  Fe  Fe3  1  0.69041000  0.00456400  0.97354000  1
  Fe  Fe4  1  0.84422900  0.51369700  0.60106200  1
  P  P5  1  0.24709300  0.63810200  0.88722600  1
  P  P6  1  0.30746500  0.15611100  0.58191600  1
  P  P7  1  0.69253500  0.84388900  0.41808400  1
  P  P8  1  0.75290700  0.36189800  0.11277400  1
  O  O9  1  0.08282500  0.56595200  0.72595900  1
  O  O10  1  0.18254700  0.14056100  0.74810600  1
  O  O11  1  0.21401800  0.80816700  0.92308000  1
  O  O12  1  0.24847800  0.07522300  0.31762100  1
  O  O13  1  0.36603600  0.61317200  0.71916300  1
  O  O14  1  0.29824000  0.55601800  0.16504200  1
  O  O15  1  0.34527200  0.32255000  0.53393100  1
  O  O16  1  0.45939800  0.06751400  0.77266700  1
  O  O17  1  0.54060200  0.93248600  0.22733300  1
  O  O18  1  0.65472800  0.67745000  0.46606900  1
  O  O19  1  0.70176000  0.44398200  0.83495800  1
  O  O20  1  0.63396400  0.38682800  0.28083700  1
  O  O21  1  0.75152200  0.92477700  0.68237900  1
  O  O22  1  0.78598200  0.19183300  0.07692000  1
  O  O23  1  0.81745300  0.85943900  0.25189400  1
  O  O24  1  0.91717500  0.43404700  0.27404100  1
