# generated using pymatgen
data_KSm(CO3)2
_symmetry_space_group_name_H-M   'P 1'
_cell_length_a   6.46112567
_cell_length_b   6.46112567
_cell_length_c   6.96998235
_cell_angle_alpha   76.70437831
_cell_angle_beta   76.70437831
_cell_angle_gamma   98.00062580
_symmetry_Int_Tables_number   1
_chemical_formula_structural   KSm(CO3)2
_chemical_formula_sum   'K2 Sm2 C4 O12'
_cell_volume   269.85445681
_cell_formula_units_Z   2
loop_
 _symmetry_equiv_pos_site_id
 _symmetry_equiv_pos_as_xyz
  1  'x, y, z'
loop_
 _atom_site_type_symbol
 _atom_site_label
 _atom_site_symmetry_multiplicity
 _atom_site_fract_x
 _atom_site_fract_y
 _atom_site_fract_z
 _atom_site_occupancy
  K  K0  1  0.62746163  0.37253837  0.75000000  1
  K  K1  1  0.37253837  0.62746163  0.25000000  1
  Sm  Sm2  1  0.09748784  0.90251216  0.75000000  1
  Sm  Sm3  1  0.90251216  0.09748784  0.25000000  1
  C  C4  1  0.64439040  0.88770608  0.76383799  1
  C  C5  1  0.35560960  0.11229392  0.23616201  1
  C  C6  1  0.11229392  0.35560960  0.73616201  1
  C  C7  1  0.88770608  0.64439040  0.26383799  1
  O  O8  1  0.44563109  0.90031208  0.79048430  1
  O  O9  1  0.55436891  0.09968792  0.20951570  1
  O  O10  1  0.09968792  0.55436891  0.70951570  1
  O  O11  1  0.90031208  0.44563109  0.29048430  1
  O  O12  1  0.70911957  0.74572691  0.88619618  1
  O  O13  1  0.29088043  0.25427309  0.11380382  1
  O  O14  1  0.25427309  0.29088043  0.61380382  1
  O  O15  1  0.74572691  0.70911957  0.38619618  1
  O  O16  1  0.79486662  0.02683750  0.61225194  1
  O  O17  1  0.20513338  0.97316250  0.38774806  1
  O  O18  1  0.97316250  0.20513338  0.88774806  1
  O  O19  1  0.02683750  0.79486662  0.11225194  1
