# generated using pymatgen
data_PrLuS3
_symmetry_space_group_name_H-M   'P 1'
_cell_length_a   6.57786490
_cell_length_b   6.57786490
_cell_length_c   9.49266203
_cell_angle_alpha   90.00000000
_cell_angle_beta   90.00000000
_cell_angle_gamma   145.64587291
_symmetry_Int_Tables_number   1
_chemical_formula_structural   PrLuS3
_chemical_formula_sum   'Pr2 Lu2 S6'
_cell_volume   231.77828568
_cell_formula_units_Z   2
loop_
 _symmetry_equiv_pos_site_id
 _symmetry_equiv_pos_as_xyz
  1  'x, y, z'
loop_
 _atom_site_type_symbol
 _atom_site_label
 _atom_site_symmetry_multiplicity
 _atom_site_fract_x
 _atom_site_fract_y
 _atom_site_fract_z
 _atom_site_occupancy
  Pr  Pr0  1  0.74658065  0.25341935  0.25000000  1
  Pr  Pr1  1  0.25341935  0.74658065  0.75000000  1
  Lu  Lu2  1  0.00000000  0.00000000  0.50000000  1
  Lu  Lu3  1  0.00000000  0.00000000  -0.00000000  1
  S  S4  1  0.64059183  0.35940817  0.56185087  1
  S  S5  1  0.64059183  0.35940817  0.93814913  1
  S  S6  1  0.35940817  0.64059183  0.06185087  1
  S  S7  1  0.35940817  0.64059183  0.43814913  1
  S  S8  1  0.08428723  0.91571277  0.25000000  1
  S  S9  1  0.91571277  0.08428723  0.75000000  1
