# generated using pymatgen
data_Ho2MgSe4
_symmetry_space_group_name_H-M   'P 1'
_cell_length_a   13.18903838
_cell_length_b   7.86646475
_cell_length_c   13.42999330
_cell_angle_alpha   90.00000000
_cell_angle_beta   90.00000000
_cell_angle_gamma   90.00000000
_symmetry_Int_Tables_number   1
_chemical_formula_structural   Ho2MgSe4
_chemical_formula_sum   'Ho16 Mg8 Se32'
_cell_volume   1393.37665177
_cell_formula_units_Z   8
loop_
 _symmetry_equiv_pos_site_id
 _symmetry_equiv_pos_as_xyz
  1  'x, y, z'
loop_
 _atom_site_type_symbol
 _atom_site_label
 _atom_site_symmetry_multiplicity
 _atom_site_fract_x
 _atom_site_fract_y
 _atom_site_fract_z
 _atom_site_occupancy
  Ho  Ho0  1  0.10779584  0.88269684  0.68595485  1
  Ho  Ho1  1  0.89220416  0.11730316  0.18595485  1
  Ho  Ho2  1  0.39220416  0.88269684  0.18595485  1
  Ho  Ho3  1  0.60779584  0.11730316  0.68595485  1
  Ho  Ho4  1  0.12750656  0.38128873  0.32639472  1
  Ho  Ho5  1  0.87249344  0.61871127  0.82639472  1
  Ho  Ho6  1  0.37249344  0.38128873  0.82639472  1
  Ho  Ho7  1  0.62750656  0.61871127  0.32639472  1
  Ho  Ho8  1  0.13325372  0.62873081  0.99033970  1
  Ho  Ho9  1  0.86674628  0.37126919  0.49033970  1
  Ho  Ho10  1  0.36674628  0.62873081  0.49033970  1
  Ho  Ho11  1  0.63325372  0.37126919  0.99033970  1
  Ho  Ho12  1  0.13336960  0.12902718  0.99103325  1
  Ho  Ho13  1  0.86663040  0.87097282  0.49103325  1
  Ho  Ho14  1  0.36663040  0.12902718  0.49103325  1
  Ho  Ho15  1  0.63336960  0.87097282  0.99103325  1
  Mg  Mg16  1  0.11141570  0.38250243  0.69060530  1
  Mg  Mg17  1  0.88858430  0.61749757  0.19060530  1
  Mg  Mg18  1  0.38858430  0.38250243  0.19060530  1
  Mg  Mg19  1  0.61141570  0.61749757  0.69060530  1
  Mg  Mg20  1  0.12631493  0.87906947  0.32108681  1
  Mg  Mg21  1  0.87368507  0.12093053  0.82108681  1
  Mg  Mg22  1  0.37368507  0.87906947  0.82108681  1
  Mg  Mg23  1  0.62631493  0.12093053  0.32108681  1
  Se  Se24  1  0.01326299  0.87698864  0.87748048  1
  Se  Se25  1  0.98673701  0.12301136  0.37748048  1
  Se  Se26  1  0.48673701  0.87698864  0.37748048  1
  Se  Se27  1  0.51326299  0.12301136  0.87748048  1
  Se  Se28  1  0.03473205  0.37644749  0.13029147  1
  Se  Se29  1  0.96526795  0.62355251  0.63029147  1
  Se  Se30  1  0.46526795  0.37644749  0.63029147  1
  Se  Se31  1  0.53473205  0.62355251  0.13029147  1
  Se  Se32  1  0.02132035  0.37303734  0.86911109  1
  Se  Se33  1  0.97867965  0.62696266  0.36911109  1
  Se  Se34  1  0.47867965  0.37303734  0.36911109  1
  Se  Se35  1  0.52132035  0.62696266  0.86911109  1
  Se  Se36  1  0.04189891  0.87268740  0.13596628  1
  Se  Se37  1  0.95810109  0.12731260  0.63596628  1
  Se  Se38  1  0.45810109  0.87268740  0.63596628  1
  Se  Se39  1  0.54189891  0.12731260  0.13596628  1
  Se  Se40  1  0.21178865  0.87941823  0.50347570  1
  Se  Se41  1  0.78821135  0.12058177  0.00347570  1
  Se  Se42  1  0.28821135  0.87941823  0.00347570  1
  Se  Se43  1  0.71178865  0.12058177  0.50347570  1
  Se  Se44  1  0.21253069  0.37964373  0.51853583  1
  Se  Se45  1  0.78746931  0.62035627  0.01853583  1
  Se  Se46  1  0.28746931  0.37964373  0.01853583  1
  Se  Se47  1  0.71253069  0.62035627  0.51853583  1
  Se  Se48  1  0.23135932  0.12826678  0.77809545  1
  Se  Se49  1  0.76864068  0.87173322  0.27809545  1
  Se  Se50  1  0.26864068  0.12826678  0.27809545  1
  Se  Se51  1  0.73135932  0.87173322  0.77809545  1
  Se  Se52  1  0.23066639  0.63194281  0.77863006  1
  Se  Se53  1  0.76933361  0.36805719  0.27863006  1
  Se  Se54  1  0.26933361  0.63194281  0.27863006  1
  Se  Se55  1  0.73066639  0.36805719  0.77863006  1
