# generated using pymatgen
data_Al2O3
_symmetry_space_group_name_H-M   'P 1'
_cell_length_a   5.59210000
_cell_length_b   5.88181415
_cell_length_c   14.19202876
_cell_angle_alpha   101.80323032
_cell_angle_beta   86.74462460
_cell_angle_gamma   115.41176828
_symmetry_Int_Tables_number   1
_chemical_formula_structural   Al2O3
_chemical_formula_sum   'Al16 O24'
_cell_volume   412.46690885
_cell_formula_units_Z   8
loop_
 _symmetry_equiv_pos_site_id
 _symmetry_equiv_pos_as_xyz
  1  'x, y, z'
loop_
 _atom_site_type_symbol
 _atom_site_label
 _atom_site_symmetry_multiplicity
 _atom_site_fract_x
 _atom_site_fract_y
 _atom_site_fract_z
 _atom_site_occupancy
  Al  Al0  1  0.91939400  0.12232400  0.09253600  1
  Al  Al1  1  0.96724400  0.75400100  0.26737800  1
  Al  Al2  1  0.63196600  0.48021800  0.42710000  1
  Al  Al3  1  0.40971500  0.13940600  0.12124900  1
  Al  Al4  1  0.74987000  0.22976300  0.28445500  1
  Al  Al5  1  0.26922700  0.32105100  0.26167500  1
  Al  Al6  1  0.38270800  0.92716400  0.44222700  1
  Al  Al7  1  0.12884600  0.76988900  0.81799000  1
  Al  Al8  1  0.29573400  0.15204500  0.61971600  1
  Al  Al9  1  0.10913900  0.40650000  0.44884000  1
  Al  Al10  1  0.22053500  0.64395700  0.65510100  1
  Al  Al11  1  0.68174400  0.69150800  0.60755100  1
  Al  Al12  1  0.04954800  0.21193600  0.84936700  1
  Al  Al13  1  0.61470900  0.63962100  0.84214300  1
  Al  Al14  1  0.00031400  0.64914100  0.05175900  1
  Al  Al15  1  0.51945100  0.03977700  0.93905900  1
  O  O16  1  0.39145600  0.04750400  0.25074200  1
  O  O17  1  0.07831700  0.50369600  0.26296500  1
  O  O18  1  0.35235700  0.90109600  0.05218900  1
  O  O19  1  0.91922500  0.04909200  0.25409400  1
  O  O20  1  0.12452500  0.36304400  0.58149900  1
  O  O21  1  0.75659100  0.31991700  0.10380100  1
  O  O22  1  0.47579200  0.86354200  0.56571500  1
  O  O23  1  0.74794800  0.19975200  0.41460900  1
  O  O24  1  0.62639600  0.50377500  0.27984100  1
  O  O25  1  0.92769000  0.81948600  0.12621700  1
  O  O26  1  0.60068100  0.40101500  0.56007000  1
  O  O27  1  0.90269800  0.63212300  0.93060900  1
  O  O28  1  0.25074300  0.34605500  0.11464400  1
  O  O29  1  0.44330200  0.67334500  0.41266200  1
  O  O30  1  0.39126700  0.27303300  0.89082100  1
  O  O31  1  0.51126800  0.57161600  0.71952100  1
  O  O32  1  0.02459200  0.83985400  0.59333200  1
  O  O33  1  0.28225200  0.20713900  0.40881900  1
  O  O34  1  0.41457000  0.75398100  0.89478000  1
  O  O35  1  0.00302400  0.68741700  0.40759800  1
  O  O36  1  0.91188300  0.94292200  0.79301400  1
  O  O37  1  0.86625300  0.13391300  0.96006500  1
  O  O38  1  0.02271500  0.47792100  0.76999600  1
  O  O39  1  0.35517700  0.96971200  0.72577500  1
