# generated using pymatgen
data_Ir2S3
_symmetry_space_group_name_H-M   'P 1'
_cell_length_a   6.04035176
_cell_length_b   6.17499299
_cell_length_c   8.51360774
_cell_angle_alpha   90.00000000
_cell_angle_beta   90.00000000
_cell_angle_gamma   90.00000000
_symmetry_Int_Tables_number   1
_chemical_formula_structural   Ir2S3
_chemical_formula_sum   'Ir8 S12'
_cell_volume   317.55015995
_cell_formula_units_Z   4
loop_
 _symmetry_equiv_pos_site_id
 _symmetry_equiv_pos_as_xyz
  1  'x, y, z'
loop_
 _atom_site_type_symbol
 _atom_site_label
 _atom_site_symmetry_multiplicity
 _atom_site_fract_x
 _atom_site_fract_y
 _atom_site_fract_z
 _atom_site_occupancy
  Ir  Ir0  1  0.74920613  0.52963482  0.10797451  1
  Ir  Ir1  1  0.75079387  0.02963482  0.39202549  1
  Ir  Ir2  1  0.75079387  0.47036518  0.60797451  1
  Ir  Ir3  1  0.74920613  0.97036518  0.89202549  1
  Ir  Ir4  1  0.25079387  0.47036518  0.89202549  1
  Ir  Ir5  1  0.24920613  0.97036518  0.60797451  1
  Ir  Ir6  1  0.24920613  0.52963482  0.39202549  1
  Ir  Ir7  1  0.25079387  0.02963482  0.10797451  1
  S  S8  1  0.60940142  0.89106780  0.15008206  1
  S  S9  1  0.89059858  0.39106780  0.34991794  1
  S  S10  1  0.89059858  0.10893220  0.65008206  1
  S  S11  1  0.60940142  0.60893220  0.84991794  1
  S  S12  1  0.39059858  0.10893220  0.84991794  1
  S  S13  1  0.10940142  0.60893220  0.65008206  1
  S  S14  1  0.10940142  0.89106780  0.34991794  1
  S  S15  1  0.39059858  0.39106780  0.15008206  1
  S  S16  1  0.04472453  0.75000000  0.00000000  1
  S  S17  1  0.45527547  0.25000000  0.50000000  1
  S  S18  1  0.95527547  0.25000000  0.00000000  1
  S  S19  1  0.54472453  0.75000000  0.50000000  1
