# generated using pymatgen
data_KGaP2O7
_symmetry_space_group_name_H-M   'P 1'
_cell_length_a   9.85918401
_cell_length_b   7.33046147
_cell_length_c   8.17088395
_cell_angle_alpha   73.12824925
_cell_angle_beta   90.00000000
_cell_angle_gamma   90.00000000
_symmetry_Int_Tables_number   1
_chemical_formula_structural   KGaP2O7
_chemical_formula_sum   'K4 Ga4 P8 O28'
_cell_volume   565.11086981
_cell_formula_units_Z   4
loop_
 _symmetry_equiv_pos_site_id
 _symmetry_equiv_pos_as_xyz
  1  'x, y, z'
loop_
 _atom_site_type_symbol
 _atom_site_label
 _atom_site_symmetry_multiplicity
 _atom_site_fract_x
 _atom_site_fract_y
 _atom_site_fract_z
 _atom_site_occupancy
  K  K0  1  0.32147145  0.17635926  0.94412973  1
  K  K1  1  0.82147145  0.82364074  0.55587027  1
  K  K2  1  0.67852855  0.82364074  0.05587027  1
  K  K3  1  0.17852855  0.17635926  0.44412973  1
  Ga  Ga4  1  0.59964281  0.23669702  0.23945391  1
  Ga  Ga5  1  0.09964281  0.76330298  0.26054609  1
  Ga  Ga6  1  0.40035719  0.76330298  0.76054609  1
  Ga  Ga7  1  0.90035719  0.23669702  0.73945391  1
  P  P8  1  0.59683368  0.13017278  0.66910411  1
  P  P9  1  0.09683368  0.86982722  0.83089589  1
  P  P10  1  0.40316632  0.86982722  0.33089589  1
  P  P11  1  0.90316632  0.13017278  0.16910411  1
  P  P12  1  0.86450459  0.44063906  0.30800687  1
  P  P13  1  0.36450459  0.55936094  0.19199313  1
  P  P14  1  0.13549541  0.55936094  0.69199313  1
  P  P15  1  0.63549541  0.44063906  0.80800687  1
  O  O16  1  0.55747040  0.33698257  0.68594457  1
  O  O17  1  0.05747040  0.66301743  0.81405543  1
  O  O18  1  0.44252960  0.66301743  0.31405543  1
  O  O19  1  0.94252960  0.33698257  0.18594457  1
  O  O20  1  0.76316116  0.08063687  0.24737658  1
  O  O21  1  0.26316116  0.91936313  0.25262342  1
  O  O22  1  0.23683884  0.91936313  0.75262342  1
  O  O23  1  0.73683884  0.08063687  0.74737658  1
  O  O24  1  0.00534532  0.99383137  0.27905930  1
  O  O25  1  0.50534532  0.00616863  0.22094070  1
  O  O26  1  0.99465468  0.00616863  0.72094070  1
  O  O27  1  0.49465468  0.99383137  0.77905930  1
  O  O28  1  0.90756113  0.14176423  0.98463596  1
  O  O29  1  0.40756113  0.85823577  0.51536404  1
  O  O30  1  0.09243887  0.85823577  0.01536404  1
  O  O31  1  0.59243887  0.14176423  0.48463596  1
  O  O32  1  0.60471169  0.32084558  0.98756654  1
  O  O33  1  0.10471169  0.67915442  0.51243346  1
  O  O34  1  0.39528831  0.67915442  0.01243346  1
  O  O35  1  0.89528831  0.32084558  0.48756654  1
  O  O36  1  0.57772722  0.64058110  0.76343132  1
  O  O37  1  0.07772722  0.35941890  0.73656868  1
  O  O38  1  0.42227278  0.35941890  0.23656868  1
  O  O39  1  0.92227278  0.64058110  0.26343132  1
  O  O40  1  0.78458717  0.45234371  0.75646931  1
  O  O41  1  0.28458717  0.54765629  0.74353069  1
  O  O42  1  0.21541283  0.54765629  0.24353069  1
  O  O43  1  0.71541283  0.45234371  0.25646931  1
