# generated using pymatgen
data_Na3Nd(PO4)2
_symmetry_space_group_name_H-M   'P 1'
_cell_length_a   5.39137927
_cell_length_b   14.07503728
_cell_length_c   18.82862521
_cell_angle_alpha   90.00000000
_cell_angle_beta   90.00000000
_cell_angle_gamma   90.00000000
_symmetry_Int_Tables_number   1
_chemical_formula_structural   Na3Nd(PO4)2
_chemical_formula_sum   'Na24 Nd8 P16 O64'
_cell_volume   1428.78883881
_cell_formula_units_Z   8
loop_
 _symmetry_equiv_pos_site_id
 _symmetry_equiv_pos_as_xyz
  1  'x, y, z'
loop_
 _atom_site_type_symbol
 _atom_site_label
 _atom_site_symmetry_multiplicity
 _atom_site_fract_x
 _atom_site_fract_y
 _atom_site_fract_z
 _atom_site_occupancy
  Na  Na0  1  0.98432842  0.21640200  0.99335951  1
  Na  Na1  1  0.01567158  0.78359800  0.49335951  1
  Na  Na2  1  0.01567158  0.71640200  0.99335951  1
  Na  Na3  1  0.98432842  0.28359800  0.49335951  1
  Na  Na4  1  0.98915950  0.95191397  0.64805426  1
  Na  Na5  1  0.01084050  0.04808603  0.14805426  1
  Na  Na6  1  0.01084050  0.45191397  0.64805426  1
  Na  Na7  1  0.98915950  0.54808603  0.14805426  1
  Na  Na8  1  0.99125216  0.86185131  0.82859858  1
  Na  Na9  1  0.00874784  0.13814869  0.32859858  1
  Na  Na10  1  0.00874784  0.36185131  0.82859858  1
  Na  Na11  1  0.99125216  0.63814869  0.32859858  1
  Na  Na12  1  0.47523807  0.79758295  0.73134242  1
  Na  Na13  1  0.52476193  0.20241705  0.23134242  1
  Na  Na14  1  0.52476193  0.29758295  0.73134242  1
  Na  Na15  1  0.47523807  0.70241705  0.23134242  1
  Na  Na16  1  0.53999687  0.96742555  0.88795856  1
  Na  Na17  1  0.46000313  0.03257445  0.38795856  1
  Na  Na18  1  0.46000313  0.46742555  0.88795856  1
  Na  Na19  1  0.53999687  0.53257445  0.38795856  1
  Na  Na20  1  0.49789946  0.88480603  0.55039801  1
  Na  Na21  1  0.50210054  0.11519397  0.05039801  1
  Na  Na22  1  0.50210054  0.38480603  0.55039801  1
  Na  Na23  1  0.49789946  0.61519397  0.05039801  1
  Nd  Nd24  1  0.92781105  0.61349218  0.80276834  1
  Nd  Nd25  1  0.07218895  0.38650782  0.30276834  1
  Nd  Nd26  1  0.07218895  0.11349218  0.80276834  1
  Nd  Nd27  1  0.92781105  0.88650782  0.30276834  1
  Nd  Nd28  1  0.55607067  0.63546130  0.57479339  1
  Nd  Nd29  1  0.44392933  0.36453870  0.07479339  1
  Nd  Nd30  1  0.44392933  0.13546130  0.57479339  1
  Nd  Nd31  1  0.55607067  0.86453870  0.07479339  1
  P  P32  1  0.96850504  0.47505256  0.98060682  1
  P  P33  1  0.03149496  0.52494744  0.48060682  1
  P  P34  1  0.03149496  0.97505256  0.98060682  1
  P  P35  1  0.96850504  0.02494744  0.48060682  1
  P  P36  1  0.98653734  0.22856625  0.65298595  1
  P  P37  1  0.01346266  0.77143375  0.15298595  1
  P  P38  1  0.01346266  0.72856625  0.65298595  1
  P  P39  1  0.98653734  0.27143375  0.15298595  1
  P  P40  1  0.47499486  0.52088748  0.72394270  1
  P  P41  1  0.52500514  0.47911252  0.22394270  1
  P  P42  1  0.52500514  0.02088748  0.72394270  1
  P  P43  1  0.47499486  0.97911252  0.22394270  1
  P  P44  1  0.46025956  0.72631894  0.89652345  1
  P  P45  1  0.53974044  0.27368106  0.39652345  1
  P  P46  1  0.53974044  0.22631894  0.89652345  1
  P  P47  1  0.46025956  0.77368106  0.39652345  1
  O  O48  1  0.58353055  0.80445190  0.85095974  1
  O  O49  1  0.41646945  0.19554810  0.35095974  1
  O  O50  1  0.41646945  0.30445190  0.85095974  1
  O  O51  1  0.58353055  0.69554810  0.35095974  1
  O  O52  1  0.69314869  0.47039859  0.76296244  1
  O  O53  1  0.30685131  0.52960141  0.26296244  1
  O  O54  1  0.30685131  0.97039859  0.76296244  1
  O  O55  1  0.69314869  0.02960141  0.26296244  1
  O  O56  1  0.89968595  0.87808668  0.99487779  1
  O  O57  1  0.10031405  0.12191332  0.49487779  1
  O  O58  1  0.10031405  0.37808668  0.99487779  1
  O  O59  1  0.89968595  0.62191332  0.49487779  1
  O  O60  1  0.80217094  0.77990530  0.61139058  1
  O  O61  1  0.19782906  0.22009470  0.11139058  1
  O  O62  1  0.19782906  0.27990530  0.61139058  1
  O  O63  1  0.80217094  0.72009470  0.11139058  1
  O  O64  1  0.68474452  0.46595300  0.99789917  1
  O  O65  1  0.31525548  0.53404700  0.49789917  1
  O  O66  1  0.31525548  0.96595300  0.99789917  1
  O  O67  1  0.68474452  0.03404700  0.49789917  1
  O  O68  1  0.91248143  0.44651338  0.52697174  1
  O  O69  1  0.08751857  0.55348662  0.02697174  1
  O  O70  1  0.08751857  0.94651338  0.52697174  1
  O  O71  1  0.91248143  0.05348662  0.02697174  1
  O  O72  1  0.77356949  0.99310865  0.76028936  1
  O  O73  1  0.22643051  0.00689135  0.26028936  1
  O  O74  1  0.22643051  0.49310865  0.76028936  1
  O  O75  1  0.77356949  0.50689135  0.26028936  1
  O  O76  1  0.59588684  0.62994249  0.88394142  1
  O  O77  1  0.40411316  0.37005751  0.38394142  1
  O  O78  1  0.40411316  0.12994249  0.88394142  1
  O  O79  1  0.59588684  0.87005751  0.38394142  1
  O  O80  1  0.52079619  0.62979880  0.72639866  1
  O  O81  1  0.47920381  0.37020120  0.22639866  1
  O  O82  1  0.47920381  0.12979880  0.72639866  1
  O  O83  1  0.52079619  0.87020120  0.22639866  1
  O  O84  1  0.96525372  0.61981857  0.65061189  1
  O  O85  1  0.03474628  0.38018143  0.15061189  1
  O  O86  1  0.03474628  0.11981857  0.65061189  1
  O  O87  1  0.96525372  0.88018143  0.15061189  1
  O  O88  1  0.82051710  0.21609626  0.87589875  1
  O  O89  1  0.17948290  0.78390374  0.37589875  1
  O  O90  1  0.17948290  0.71609626  0.87589875  1
  O  O91  1  0.82051710  0.28390374  0.37589875  1
  O  O92  1  0.98983732  0.26085181  0.73207378  1
  O  O93  1  0.01016268  0.73914819  0.23207378  1
  O  O94  1  0.01016268  0.76085181  0.73207378  1
  O  O95  1  0.98983732  0.23914819  0.23207378  1
  O  O96  1  0.52928413  0.98906612  0.64458988  1
  O  O97  1  0.47071587  0.01093388  0.14458988  1
  O  O98  1  0.47071587  0.48906612  0.64458988  1
  O  O99  1  0.52928413  0.51093388  0.14458988  1
  O  O100  1  0.99557317  0.99793095  0.89993779  1
  O  O101  1  0.00442683  0.00206905  0.39993779  1
  O  O102  1  0.00442683  0.49793095  0.89993779  1
  O  O103  1  0.99557317  0.50206905  0.39993779  1
  O  O104  1  0.26656862  0.75521586  0.61873188  1
  O  O105  1  0.73343138  0.24478414  0.11873188  1
  O  O106  1  0.73343138  0.25521586  0.61873188  1
  O  O107  1  0.26656862  0.74478414  0.11873188  1
  O  O108  1  0.47226025  0.74904377  0.97773313  1
  O  O109  1  0.52773975  0.25095623  0.47773313  1
  O  O110  1  0.52773975  0.24904377  0.97773313  1
  O  O111  1  0.47226025  0.75095623  0.47773313  1
