# generated using pymatgen
data_Ba2HgS3
_symmetry_space_group_name_H-M   'P 1'
_cell_length_a   4.39295778
_cell_length_b   9.02360136
_cell_length_c   17.46974988
_cell_angle_alpha   90.00000000
_cell_angle_beta   90.00000000
_cell_angle_gamma   90.00000000
_symmetry_Int_Tables_number   1
_chemical_formula_structural   Ba2HgS3
_chemical_formula_sum   'Ba8 Hg4 S12'
_cell_volume   692.50612264
_cell_formula_units_Z   4
loop_
 _symmetry_equiv_pos_site_id
 _symmetry_equiv_pos_as_xyz
  1  'x, y, z'
loop_
 _atom_site_type_symbol
 _atom_site_label
 _atom_site_symmetry_multiplicity
 _atom_site_fract_x
 _atom_site_fract_y
 _atom_site_fract_z
 _atom_site_occupancy
  Ba  Ba0  1  0.25000000  0.75959849  0.53971382  1
  Ba  Ba1  1  0.25000000  0.92180760  0.28445751  1
  Ba  Ba2  1  0.75000000  0.57819240  0.78445751  1
  Ba  Ba3  1  0.25000000  0.42180760  0.21554249  1
  Ba  Ba4  1  0.25000000  0.25959849  0.96028618  1
  Ba  Ba5  1  0.75000000  0.74040151  0.03971382  1
  Ba  Ba6  1  0.75000000  0.24040151  0.46028618  1
  Ba  Ba7  1  0.75000000  0.07819240  0.71554249  1
  Hg  Hg8  1  0.75000000  0.12390345  0.13299486  1
  Hg  Hg9  1  0.25000000  0.87609655  0.86700514  1
  Hg  Hg10  1  0.75000000  0.62390345  0.36700514  1
  Hg  Hg11  1  0.25000000  0.37609655  0.63299486  1
  S  S12  1  0.25000000  0.31416550  0.77729574  1
  S  S13  1  0.75000000  0.68583450  0.22270426  1
  S  S14  1  0.25000000  0.81416550  0.72270426  1
  S  S15  1  0.75000000  0.18583450  0.27729574  1
  S  S16  1  0.25000000  0.48499616  0.40375103  1
  S  S17  1  0.75000000  0.51500384  0.59624897  1
  S  S18  1  0.25000000  0.98499616  0.09624897  1
  S  S19  1  0.75000000  0.01500384  0.90375103  1
  S  S20  1  0.25000000  0.11776863  0.57226487  1
  S  S21  1  0.75000000  0.38223137  0.07226487  1
  S  S22  1  0.25000000  0.61776863  0.92773513  1
  S  S23  1  0.75000000  0.88223137  0.42773513  1
