# generated using pymatgen
data_Ba2SnS3F2
_symmetry_space_group_name_H-M   'P 1'
_cell_length_a   6.26695444
_cell_length_b   6.37174221
_cell_length_c   19.42080419
_cell_angle_alpha   90.00000000
_cell_angle_beta   90.00000000
_cell_angle_gamma   90.00000000
_symmetry_Int_Tables_number   1
_chemical_formula_structural   Ba2SnS3F2
_chemical_formula_sum   'Ba8 Sn4 S12 F8'
_cell_volume   775.50025260
_cell_formula_units_Z   4
loop_
 _symmetry_equiv_pos_site_id
 _symmetry_equiv_pos_as_xyz
  1  'x, y, z'
loop_
 _atom_site_type_symbol
 _atom_site_label
 _atom_site_symmetry_multiplicity
 _atom_site_fract_x
 _atom_site_fract_y
 _atom_site_fract_z
 _atom_site_occupancy
  Ba  Ba0  1  0.24706704  0.49711643  0.42339865  1
  Ba  Ba1  1  0.74706704  0.00288357  0.07660135  1
  Ba  Ba2  1  0.25293296  0.99711643  0.57660135  1
  Ba  Ba3  1  0.75293296  0.50288357  0.92339865  1
  Ba  Ba4  1  0.75293296  0.50288357  0.57660135  1
  Ba  Ba5  1  0.25293296  0.99711643  0.92339865  1
  Ba  Ba6  1  0.74706704  0.00288357  0.42339865  1
  Ba  Ba7  1  0.24706704  0.49711643  0.07660135  1
  Sn  Sn8  1  0.15619633  0.58439211  0.75000000  1
  Sn  Sn9  1  0.65619633  0.91560789  0.75000000  1
  Sn  Sn10  1  0.34380367  0.08439211  0.25000000  1
  Sn  Sn11  1  0.84380367  0.41560789  0.25000000  1
  S  S12  1  0.74392113  0.51528224  0.13784514  1
  S  S13  1  0.76313839  0.54175007  0.75000000  1
  S  S14  1  0.73686161  0.04175007  0.25000000  1
  S  S15  1  0.23686161  0.45824993  0.25000000  1
  S  S16  1  0.24392113  0.98471776  0.36215486  1
  S  S17  1  0.75607887  0.01528224  0.86215486  1
  S  S18  1  0.25607887  0.48471776  0.63784514  1
  S  S19  1  0.25607887  0.48471776  0.86215486  1
  S  S20  1  0.74392113  0.51528224  0.36215486  1
  S  S21  1  0.24392113  0.98471776  0.13784514  1
  S  S22  1  0.26313839  0.95824993  0.75000000  1
  S  S23  1  0.75607887  0.01528224  0.63784514  1
  F  F24  1  0.49913179  0.25263534  0.99912708  1
  F  F25  1  0.99913179  0.24736466  0.50087292  1
  F  F26  1  0.50086821  0.74736466  0.49912708  1
  F  F27  1  0.49913179  0.25263534  0.50087292  1
  F  F28  1  0.99913179  0.24736466  0.99912708  1
  F  F29  1  0.00086821  0.75263534  0.49912708  1
  F  F30  1  0.50086821  0.74736466  0.00087292  1
  F  F31  1  0.00086821  0.75263534  0.00087292  1
