# generated using pymatgen
data_MgH16C4S4N2(O4F3)4
_symmetry_space_group_name_H-M   'P 1'
_cell_length_a   6.87209368
_cell_length_b   16.03411665
_cell_length_c   16.26691233
_cell_angle_alpha   90.00000000
_cell_angle_beta   98.06868249
_cell_angle_gamma   90.00000000
_symmetry_Int_Tables_number   1
_chemical_formula_structural   MgH16C4S4N2(O4F3)4
_chemical_formula_sum   'Mg2 H32 C8 S8 N4 O32 F24'
_cell_volume   1774.67375714
_cell_formula_units_Z   2
loop_
 _symmetry_equiv_pos_site_id
 _symmetry_equiv_pos_as_xyz
  1  'x, y, z'
loop_
 _atom_site_type_symbol
 _atom_site_label
 _atom_site_symmetry_multiplicity
 _atom_site_fract_x
 _atom_site_fract_y
 _atom_site_fract_z
 _atom_site_occupancy
  Mg  Mg0  1  -0.00000000  0.00000000  0.00000000  1
  Mg  Mg1  1  0.50000000  0.50000000  0.50000000  1
  H  H2  1  0.67265948  0.05336707  0.77337266  1
  H  H3  1  0.78014116  0.23710191  0.34130939  1
  H  H4  1  0.14349370  0.17807199  0.61291239  1
  H  H5  1  0.17265948  0.44663293  0.27337266  1
  H  H6  1  0.64769118  0.60806395  0.63218702  1
  H  H7  1  0.85650630  0.82192801  0.38708761  1
  H  H8  1  0.55734282  0.13372093  0.80328556  1
  H  H9  1  0.21985884  0.76289809  0.65869061  1
  H  H10  1  0.35230882  0.39193605  0.36781298  1
  H  H11  1  0.74643747  0.32585098  0.36993980  1
  H  H12  1  0.75356253  0.82585098  0.13006020  1
  H  H13  1  0.68008645  0.90426371  0.79599428  1
  H  H14  1  0.82734052  0.55336707  0.72662734  1
  H  H15  1  0.44265718  0.86627907  0.19671444  1
  H  H16  1  0.71985884  0.73710191  0.15869061  1
  H  H17  1  0.85230882  0.10806395  0.86781298  1
  H  H18  1  0.19079729  0.81664326  0.34081285  1
  H  H19  1  0.81991355  0.40426371  0.70400572  1
  H  H20  1  0.80920271  0.18335674  0.65918715  1
  H  H21  1  0.28014116  0.26289809  0.84130939  1
  H  H22  1  0.32734052  0.94663293  0.22662734  1
  H  H23  1  0.35650630  0.67807199  0.88708761  1
  H  H24  1  0.30920271  0.31664326  0.15918715  1
  H  H25  1  0.25356253  0.67414902  0.63006020  1
  H  H26  1  0.64349370  0.32192801  0.11291239  1
  H  H27  1  0.31991355  0.09573629  0.20400572  1
  H  H28  1  0.94265718  0.63372093  0.69671444  1
  H  H29  1  0.14769118  0.89193605  0.13218702  1
  H  H30  1  0.18008645  0.59573629  0.29599428  1
  H  H31  1  0.69079729  0.68335674  0.84081285  1
  H  H32  1  0.24643747  0.17414902  0.86993980  1
  H  H33  1  0.05734282  0.36627907  0.30328556  1
  C  C34  1  0.87850034  0.88033499  0.42257309  1
  C  C35  1  0.94005832  0.64145362  0.10542586  1
  C  C36  1  0.44005832  0.85854638  0.60542586  1
  C  C37  1  0.05994168  0.35854638  0.89457414  1
  C  C38  1  0.62149966  0.38033499  0.07742691  1
  C  C39  1  0.12149966  0.11966501  0.57742691  1
  C  C40  1  0.55994168  0.14145362  0.39457414  1
  C  C41  1  0.37850034  0.61966501  0.92257309  1
  S  S42  1  0.60883270  0.66706200  0.49770912  1
  S  S43  1  0.24045201  0.75567744  0.28958713  1
  S  S44  1  0.39116730  0.33293800  0.50229088  1
  S  S45  1  0.10883270  0.83293800  0.99770912  1
  S  S46  1  0.25954799  0.25567744  0.21041287  1
  S  S47  1  0.75954799  0.24432256  0.71041287  1
  S  S48  1  0.89116730  0.16706200  0.00229088  1
  S  S49  1  0.74045201  0.74432256  0.78958713  1
  N  N50  1  0.64725132  0.82668561  0.83657643  1
  N  N51  1  0.35274868  0.17331439  0.16342357  1
  N  N52  1  0.14725132  0.67331439  0.33657643  1
  N  N53  1  0.85274868  0.32668561  0.66342357  1
  O  O54  1  0.31769550  0.20486116  0.83185661  1
  O  O55  1  0.25094669  0.97823329  0.77189577  1
  O  O56  1  0.81582793  0.61347968  0.71008528  1
  O  O57  1  0.68230450  0.79513884  0.16814339  1
  O  O58  1  0.53974662  0.26690167  0.50841980  1
  O  O59  1  0.84326037  0.50360524  0.33986101  1
  O  O60  1  0.65673963  0.00360524  0.16013899  1
  O  O61  1  0.95151735  0.09945071  0.92039314  1
  O  O62  1  0.05826723  0.68076798  0.39631994  1
  O  O63  1  0.96025338  0.76690167  0.99158020  1
  O  O64  1  0.46025338  0.73309833  0.49158020  1
  O  O65  1  0.03974662  0.23309833  0.00841980  1
  O  O66  1  0.18230450  0.70486116  0.66814339  1
  O  O67  1  0.15673963  0.49639476  0.66013899  1
  O  O68  1  0.68417207  0.11347968  0.78991472  1
  O  O69  1  0.74905331  0.02176671  0.22810423  1
  O  O70  1  0.05037576  0.90105321  0.93232659  1
  O  O71  1  0.94173277  0.31923202  0.60368006  1
  O  O72  1  0.55037576  0.59894679  0.43232659  1
  O  O73  1  0.81769550  0.29513884  0.33185661  1
  O  O74  1  0.44962424  0.40105321  0.56767341  1
  O  O75  1  0.45151735  0.40054929  0.42039314  1
  O  O76  1  0.55826723  0.81923202  0.89631994  1
  O  O77  1  0.75094669  0.52176671  0.27189577  1
  O  O78  1  0.94962424  0.09894679  0.06767341  1
  O  O79  1  0.31582793  0.88652032  0.21008528  1
  O  O80  1  0.34326037  0.99639476  0.83986101  1
  O  O81  1  0.54848265  0.59945071  0.57960686  1
  O  O82  1  0.04848265  0.90054929  0.07960686  1
  O  O83  1  0.24905331  0.47823329  0.72810423  1
  O  O84  1  0.18417207  0.38652032  0.28991472  1
  O  O85  1  0.44173277  0.18076798  0.10368006  1
  F  F86  1  0.51793469  0.57171443  0.89306231  1
  F  F87  1  0.70583458  0.95666499  0.76121114  1
  F  F88  1  0.20947181  0.57506007  0.91590520  1
  F  F89  1  0.06030245  0.13545481  0.49604377  1
  F  F90  1  0.13490394  0.64255994  0.11754746  1
  F  F91  1  0.29052819  0.07506007  0.58409480  1
  F  F92  1  0.86509606  0.35744006  0.88245254  1
  F  F93  1  0.79416542  0.45666499  0.73878886  1
  F  F94  1  0.43969755  0.63545481  0.00395623  1
  F  F95  1  0.48206531  0.42828557  0.10693769  1
  F  F96  1  0.29416542  0.04333501  0.23878886  1
  F  F97  1  0.98206531  0.07171443  0.60693769  1
  F  F98  1  0.39254336  0.91133944  0.54389874  1
  F  F99  1  0.60745664  0.08866056  0.45610126  1
  F  F100  1  0.79052819  0.42493993  0.08409480  1
  F  F101  1  0.36509606  0.14255994  0.38245254  1
  F  F102  1  0.63490394  0.85744006  0.61754746  1
  F  F103  1  0.20583458  0.54333501  0.26121114  1
  F  F104  1  0.01793469  0.92828557  0.39306231  1
  F  F105  1  0.56030245  0.36454519  0.99604377  1
  F  F106  1  0.10745664  0.41133944  0.95610126  1
  F  F107  1  0.93969755  0.86454519  0.50395623  1
  F  F108  1  0.89254336  0.58866056  0.04389874  1
  F  F109  1  0.70947181  0.92493993  0.41590520  1
