# generated using pymatgen
data_Nb4P2S21
_symmetry_space_group_name_H-M   'P 1'
_cell_length_a   13.96612825
_cell_length_b   13.96612825
_cell_length_c   13.13813664
_cell_angle_alpha   77.67370746
_cell_angle_beta   77.67370746
_cell_angle_gamma   32.30674734
_symmetry_Int_Tables_number   1
_chemical_formula_structural   Nb4P2S21
_chemical_formula_sum   'Nb8 P4 S42'
_cell_volume   1335.34704536
_cell_formula_units_Z   2
loop_
 _symmetry_equiv_pos_site_id
 _symmetry_equiv_pos_as_xyz
  1  'x, y, z'
loop_
 _atom_site_type_symbol
 _atom_site_label
 _atom_site_symmetry_multiplicity
 _atom_site_fract_x
 _atom_site_fract_y
 _atom_site_fract_z
 _atom_site_occupancy
  Nb  Nb0  1  0.29886030  0.41678378  0.67802774  1
  Nb  Nb1  1  0.58321622  0.70113970  0.32197226  1
  Nb  Nb2  1  0.69926228  0.58347650  0.82233084  1
  Nb  Nb3  1  0.41652350  0.30073772  0.17766916  1
  Nb  Nb4  1  0.41901064  0.29747664  0.47008762  1
  Nb  Nb5  1  0.70252336  0.58098936  0.52991238  1
  Nb  Nb6  1  0.58141885  0.70101816  0.03021070  1
  Nb  Nb7  1  0.29898184  0.41858115  0.96978930  1
  P  P8  1  0.77010934  0.01371995  0.30849855  1
  P  P9  1  0.98628005  0.22989066  0.69150145  1
  P  P10  1  0.23018021  0.98727449  0.19188927  1
  P  P11  1  0.01272551  0.76981979  0.80811073  1
  S  S12  1  0.16922853  0.40980140  0.58272366  1
  S  S13  1  0.59019860  0.83077147  0.41727634  1
  S  S14  1  0.83135758  0.58808857  0.91714965  1
  S  S15  1  0.41191143  0.16864242  0.08285035  1
  S  S16  1  0.95464798  0.74386631  0.69982064  1
  S  S17  1  0.25613369  0.04535202  0.30017936  1
  S  S18  1  0.03859967  0.25564769  0.80489112  1
  S  S19  1  0.74435231  0.96140033  0.19510888  1
  S  S20  1  0.30146464  0.55107918  0.51609928  1
  S  S21  1  0.44892082  0.69853536  0.48390072  1
  S  S22  1  0.69614223  0.44933425  0.98458532  1
  S  S23  1  0.55066575  0.30385777  0.01541468  1
  S  S24  1  0.74985659  0.95467526  0.45650900  1
  S  S25  1  0.04532474  0.25014341  0.54349100  1
  S  S26  1  0.25169115  0.03965354  0.04182040  1
  S  S27  1  0.96034646  0.74830885  0.95817960  1
  S  S28  1  0.34100177  0.24325521  0.35364467  1
  S  S29  1  0.75674479  0.65899823  0.64635533  1
  S  S30  1  0.66021690  0.75581128  0.14571026  1
  S  S31  1  0.24418872  0.33978310  0.85428974  1
  S  S32  1  0.41799209  0.16220221  0.62737982  1
  S  S33  1  0.83779779  0.58200791  0.37262018  1
  S  S34  1  0.58269240  0.83635476  0.87320734  1
  S  S35  1  0.16364524  0.41730760  0.12679266  1
  S  S36  1  0.57037019  0.28388140  0.29279395  1
  S  S37  1  0.71611860  0.42962981  0.70720605  1
  S  S38  1  0.42869433  0.71748771  0.20871335  1
  S  S39  1  0.28251229  0.57130567  0.79128665  1
  S  S40  1  0.03047856  0.86040282  0.28902678  1
  S  S41  1  0.13959718  0.96952144  0.71097322  1
  S  S42  1  0.96873173  0.14202925  0.22589985  1
  S  S43  1  0.85797075  0.03126827  0.77410015  1
  S  S44  1  0.54796400  0.30654437  0.56941346  1
  S  S45  1  0.69345563  0.45203600  0.43058654  1
  S  S46  1  0.45015351  0.69412859  0.93086545  1
  S  S47  1  0.30587141  0.54984649  0.06913455  1
  S  S48  1  0.18663805  0.49584840  0.33217139  1
  S  S49  1  0.50415160  0.81336195  0.66782861  1
  S  S50  1  0.81343265  0.50377330  0.16758167  1
  S  S51  1  0.49622670  0.18656735  0.83241833  1
  S  S52  1  0.00331470  0.00089088  0.83984292  1
  S  S53  1  0.99910912  0.99668530  0.16015708  1
