# generated using pymatgen
data_CsLiMg14O15
_symmetry_space_group_name_H-M   'P 1'
_cell_length_a   10.69812493
_cell_length_b   8.23513889
_cell_length_c   4.18019652
_cell_angle_alpha   90.00000000
_cell_angle_beta   90.00000000
_cell_angle_gamma   90.00000000
_symmetry_Int_Tables_number   1
_chemical_formula_structural   CsLiMg14O15
_chemical_formula_sum   'Cs1 Li1 Mg14 O15'
_cell_volume   368.27759020
_cell_formula_units_Z   1
loop_
 _symmetry_equiv_pos_site_id
 _symmetry_equiv_pos_as_xyz
  1  'x, y, z'
loop_
 _atom_site_type_symbol
 _atom_site_label
 _atom_site_symmetry_multiplicity
 _atom_site_fract_x
 _atom_site_fract_y
 _atom_site_fract_z
 _atom_site_occupancy
  Cs  Cs0  1  0.56360609  0.50000000  0.00000000  1
  Li  Li1  1  0.99299079  -0.00000000  0.00000000  1
  Mg  Mg2  1  0.01973685  0.50000000  0.00000000  1
  Mg  Mg3  1  0.52139823  -0.00000000  0.00000000  1
  Mg  Mg4  1  0.00927296  0.24008459  0.50000000  1
  Mg  Mg5  1  0.00927296  0.75991541  0.50000000  1
  Mg  Mg6  1  0.42350962  0.23831086  0.50000000  1
  Mg  Mg7  1  0.42350962  0.76168914  0.50000000  1
  Mg  Mg8  1  0.19471524  -0.00000000  0.50000000  1
  Mg  Mg9  1  0.22739241  0.50000000  0.50000000  1
  Mg  Mg10  1  0.73543907  -0.00000000  0.50000000  1
  Mg  Mg11  1  0.82772585  0.50000000  0.50000000  1
  Mg  Mg12  1  0.23057389  0.26781414  -0.00000000  1
  Mg  Mg13  1  0.23057389  0.73218586  0.00000000  1
  Mg  Mg14  1  0.82038627  0.24090532  0.00000000  1
  Mg  Mg15  1  0.82038627  0.75909468  0.00000000  1
  O  O16  1  0.20760515  0.50000000  0.00000000  1
  O  O17  1  0.74874171  -0.00000000  0.00000000  1
  O  O18  1  0.82722785  0.50000000  0.00000000  1
  O  O19  1  0.22635843  0.23008468  0.50000000  1
  O  O20  1  0.22635843  0.76991532  0.50000000  1
  O  O21  1  0.80542833  0.25015915  0.50000000  1
  O  O22  1  0.80542833  0.74984085  0.50000000  1
  O  O23  1  0.01707337  -0.00000000  0.50000000  1
  O  O24  1  0.02165116  0.50000000  0.50000000  1
  O  O25  1  0.53698538  -0.00000000  0.50000000  1
  O  O26  1  0.41345623  0.50000000  0.50000000  1
  O  O27  1  0.02073494  0.24113062  0.00000000  1
  O  O28  1  0.02073494  0.75886938  0.00000000  1
  O  O29  1  0.41086286  0.19692481  -0.00000000  1
  O  O30  1  0.41086286  0.80307519  0.00000000  1
