# generated using pymatgen
data_Li6Nd(BO3)3
_symmetry_space_group_name_H-M   'P 1'
_cell_length_a   16.52549965
_cell_length_b   6.71038757
_cell_length_c   7.25495199
_cell_angle_alpha   74.75759765
_cell_angle_beta   90.00000000
_cell_angle_gamma   90.00000000
_symmetry_Int_Tables_number   1
_chemical_formula_structural   Li6Nd(BO3)3
_chemical_formula_sum   'Li24 Nd4 B12 O36'
_cell_volume   776.21857672
_cell_formula_units_Z   4
loop_
 _symmetry_equiv_pos_site_id
 _symmetry_equiv_pos_as_xyz
  1  'x, y, z'
loop_
 _atom_site_type_symbol
 _atom_site_label
 _atom_site_symmetry_multiplicity
 _atom_site_fract_x
 _atom_site_fract_y
 _atom_site_fract_z
 _atom_site_occupancy
  Li  Li0  1  0.00285190  0.32488605  0.07215120  1
  Li  Li1  1  0.50285190  0.17511395  0.92784880  1
  Li  Li2  1  0.99714810  0.67511395  0.92784880  1
  Li  Li3  1  0.49714810  0.82488605  0.07215120  1
  Li  Li4  1  0.97076614  0.82936783  0.54794333  1
  Li  Li5  1  0.47076614  0.67063217  0.45205667  1
  Li  Li6  1  0.02923386  0.17063217  0.45205667  1
  Li  Li7  1  0.52923386  0.32936783  0.54794333  1
  Li  Li8  1  0.70495471  0.63009785  0.71092604  1
  Li  Li9  1  0.20495471  0.86990215  0.28907396  1
  Li  Li10  1  0.29504529  0.36990215  0.28907396  1
  Li  Li11  1  0.79504529  0.13009785  0.71092604  1
  Li  Li12  1  0.96534371  0.55611515  0.30582488  1
  Li  Li13  1  0.46534371  0.94388485  0.69417512  1
  Li  Li14  1  0.03465629  0.44388485  0.69417512  1
  Li  Li15  1  0.53465629  0.05611515  0.30582488  1
  Li  Li16  1  0.79690465  0.55224016  0.44367703  1
  Li  Li17  1  0.29690465  0.94775984  0.55632297  1
  Li  Li18  1  0.20309535  0.44775984  0.55632297  1
  Li  Li19  1  0.70309535  0.05224016  0.44367703  1
  Li  Li20  1  0.55035823  0.58154100  0.85946141  1
  Li  Li21  1  0.05035823  0.91845900  0.14053859  1
  Li  Li22  1  0.44964177  0.41845900  0.14053859  1
  Li  Li23  1  0.94964177  0.08154100  0.85946141  1
  Nd  Nd24  1  0.81067185  0.34758298  0.07970692  1
  Nd  Nd25  1  0.31067185  0.15241702  0.92029308  1
  Nd  Nd26  1  0.18932815  0.65241702  0.92029308  1
  Nd  Nd27  1  0.68932815  0.84758298  0.07970692  1
  B  B28  1  0.88719180  0.18689831  0.44354410  1
  B  B29  1  0.38719180  0.31310169  0.55645590  1
  B  B30  1  0.11280820  0.81310169  0.55645590  1
  B  B31  1  0.61280820  0.68689831  0.44354410  1
  B  B32  1  0.61810180  0.00279333  0.70838946  1
  B  B33  1  0.11810180  0.49720667  0.29161054  1
  B  B34  1  0.38189820  0.99720667  0.29161054  1
  B  B35  1  0.88189820  0.50279333  0.70838946  1
  B  B36  1  0.63373169  0.33863652  0.08173644  1
  B  B37  1  0.13373169  0.16136348  0.91826356  1
  B  B38  1  0.36626831  0.66136348  0.91826356  1
  B  B39  1  0.86626831  0.83863652  0.08173644  1
  O  O40  1  0.92470247  0.07567520  0.60692140  1
  O  O41  1  0.42470247  0.42432480  0.39307860  1
  O  O42  1  0.07529753  0.92432480  0.39307860  1
  O  O43  1  0.57529753  0.57567520  0.60692140  1
  O  O44  1  0.80454210  0.22082783  0.42966355  1
  O  O45  1  0.30454210  0.27917217  0.57033645  1
  O  O46  1  0.19545790  0.77917217  0.57033645  1
  O  O47  1  0.69545790  0.72082783  0.42966355  1
  O  O48  1  0.56646629  0.77059690  0.28108135  1
  O  O49  1  0.06646629  0.72940310  0.71891865  1
  O  O50  1  0.43353371  0.22940310  0.71891865  1
  O  O51  1  0.93353371  0.27059690  0.28108135  1
  O  O52  1  0.58616394  0.08999519  0.53274646  1
  O  O53  1  0.08616394  0.41000481  0.46725354  1
  O  O54  1  0.41383606  0.91000481  0.46725354  1
  O  O55  1  0.91383606  0.58999519  0.53274646  1
  O  O56  1  0.80036768  0.44942026  0.73164558  1
  O  O57  1  0.30036768  0.05057974  0.26835442  1
  O  O58  1  0.19963232  0.55057974  0.26835442  1
  O  O59  1  0.69963232  0.94942026  0.73164558  1
  O  O60  1  0.57068133  0.96021352  0.87285844  1
  O  O61  1  0.07068133  0.53978648  0.12714156  1
  O  O62  1  0.42931867  0.03978648  0.12714156  1
  O  O63  1  0.92931867  0.46021352  0.87285844  1
  O  O64  1  0.55207600  0.32546935  0.08132262  1
  O  O65  1  0.05207600  0.17453065  0.91867738  1
  O  O66  1  0.44792400  0.67453065  0.91867738  1
  O  O67  1  0.94792400  0.82546935  0.08132262  1
  O  O68  1  0.68210754  0.16851916  0.15901959  1
  O  O69  1  0.18210754  0.33148084  0.84098041  1
  O  O70  1  0.31789246  0.83148084  0.84098041  1
  O  O71  1  0.81789246  0.66851916  0.15901959  1
  O  O72  1  0.82728863  0.02388383  0.99612988  1
  O  O73  1  0.32728863  0.47611617  0.00387012  1
  O  O74  1  0.17271137  0.97611617  0.00387012  1
  O  O75  1  0.67271137  0.52388383  0.99612988  1
