# generated using pymatgen
data_Rb2V(PO4)2
_symmetry_space_group_name_H-M   'P 1'
_cell_length_a   7.04227672
_cell_length_b   9.08098296
_cell_length_c   12.86542746
_cell_angle_alpha   89.99610581
_cell_angle_beta   89.99996368
_cell_angle_gamma   89.99999436
_symmetry_Int_Tables_number   1
_chemical_formula_structural   Rb2V(PO4)2
_chemical_formula_sum   'Rb8 V4 P8 O32'
_cell_volume   822.75431074
_cell_formula_units_Z   4
loop_
 _symmetry_equiv_pos_site_id
 _symmetry_equiv_pos_as_xyz
  1  'x, y, z'
loop_
 _atom_site_type_symbol
 _atom_site_label
 _atom_site_symmetry_multiplicity
 _atom_site_fract_x
 _atom_site_fract_y
 _atom_site_fract_z
 _atom_site_occupancy
  Rb  Rb0  1  0.76949575  0.39053384  0.59273388  1
  Rb  Rb1  1  0.26949559  0.10946555  0.40726482  1
  Rb  Rb2  1  0.23045770  0.89057193  0.90723570  1
  Rb  Rb3  1  0.73045734  0.60942861  0.09276509  1
  Rb  Rb4  1  0.72935286  0.16864277  0.90696774  1
  Rb  Rb5  1  0.22935207  0.33135771  0.09303272  1
  Rb  Rb6  1  0.27057266  0.66858561  0.59303455  1
  Rb  Rb7  1  0.77057381  0.83141319  0.40696599  1
  V  V8  1  0.74632003  0.24293409  0.30810156  1
  V  V9  1  0.24632208  0.25706634  0.69189670  1
  V  V10  1  0.75365656  0.75704755  0.80807277  1
  V  V11  1  0.25365434  0.74295391  0.19192865  1
  P  P12  1  0.58605529  0.00975690  0.66205636  1
  P  P13  1  0.08605261  0.49024269  0.33794405  1
  P  P14  1  0.41392329  0.50978849  0.83792677  1
  P  P15  1  0.91392241  0.99021100  0.16207325  1
  P  P16  1  0.49362065  0.52963402  0.34936137  1
  P  P17  1  0.00634390  0.47037547  0.84934638  1
  P  P18  1  0.50634333  0.02962367  0.15065232  1
  P  P19  1  0.99362404  0.97036585  0.65063912  1
  O  O20  1  0.52508520  0.92271195  0.57056968  1
  O  O21  1  0.02508119  0.57728605  0.42943155  1
  O  O22  1  0.47496566  0.42290259  0.92948586  1
  O  O23  1  0.97496674  0.07709776  0.07051429  1
  O  O24  1  0.59066494  0.92368034  0.76473340  1
  O  O25  1  0.09066194  0.57632106  0.23526790  1
  O  O26  1  0.40946611  0.42354003  0.73532565  1
  O  O27  1  0.90946440  0.07646010  0.26467467  1
  O  O28  1  0.30280195  0.43237262  0.35235123  1
  O  O29  1  0.80280497  0.06762742  0.64764942  1
  O  O30  1  0.69717091  0.93235295  0.14772615  1
  O  O31  1  0.19717136  0.56764765  0.85227261  1
  O  O32  1  0.48837170  0.15720419  0.68025179  1
  O  O33  1  0.98836924  0.34279535  0.31974746  1
  O  O34  1  0.51155655  0.65723512  0.81960939  1
  O  O35  1  0.01155471  0.84276513  0.18039112  1
  O  O36  1  0.55498479  0.17119756  0.21076214  1
  O  O37  1  0.05498677  0.32880263  0.78923695  1
  O  O38  1  0.44503899  0.67121314  0.28923019  1
  O  O39  1  0.94504102  0.82878701  0.71077037  1
  O  O40  1  0.86833355  0.56085429  0.78380664  1
  O  O41  1  0.36833340  0.93914567  0.21619194  1
  O  O42  1  0.13160726  0.06088456  0.71616935  1
  O  O43  1  0.63160388  0.43911534  0.28383101  1
  O  O44  1  0.82681789  0.80459525  0.92229381  1
  O  O45  1  0.32681522  0.69540385  0.07770790  1
  O  O46  1  0.55539481  0.56153729  0.45715758  1
  O  O47  1  0.67326099  0.19508795  0.42228232  1
  O  O48  1  0.94468189  0.43847573  0.95716250  1
  O  O49  1  0.44468200  0.06152415  0.04283593  1
  O  O50  1  0.05539821  0.93846256  0.54284305  1
  O  O51  1  0.17326347  0.30491151  0.57771536  1
