# generated using pymatgen
data_Na3Pr(AsO4)2
_symmetry_space_group_name_H-M   'P 1'
_cell_length_a   5.62412746
_cell_length_b   14.39927698
_cell_length_c   19.57540436
_cell_angle_alpha   90.00000000
_cell_angle_beta   90.00000000
_cell_angle_gamma   90.00000000
_symmetry_Int_Tables_number   1
_chemical_formula_structural   Na3Pr(AsO4)2
_chemical_formula_sum   'Na24 Pr8 As16 O64'
_cell_volume   1585.28219593
_cell_formula_units_Z   8
loop_
 _symmetry_equiv_pos_site_id
 _symmetry_equiv_pos_as_xyz
  1  'x, y, z'
loop_
 _atom_site_type_symbol
 _atom_site_label
 _atom_site_symmetry_multiplicity
 _atom_site_fract_x
 _atom_site_fract_y
 _atom_site_fract_z
 _atom_site_occupancy
  Na  Na0  1  0.97828384  0.21651017  0.99392573  1
  Na  Na1  1  0.02171616  0.78348983  0.49392573  1
  Na  Na2  1  0.02171616  0.71651017  0.99392573  1
  Na  Na3  1  0.97828384  0.28348983  0.49392573  1
  Na  Na4  1  0.98366789  0.95264452  0.64729642  1
  Na  Na5  1  0.01633211  0.04735548  0.14729642  1
  Na  Na6  1  0.01633211  0.45264452  0.64729642  1
  Na  Na7  1  0.98366789  0.54735548  0.14729642  1
  Na  Na8  1  0.98747949  0.86202202  0.82745718  1
  Na  Na9  1  0.01252051  0.13797798  0.32745718  1
  Na  Na10  1  0.01252051  0.36202202  0.82745718  1
  Na  Na11  1  0.98747949  0.63797798  0.32745718  1
  Na  Na12  1  0.46984566  0.79727322  0.73245599  1
  Na  Na13  1  0.53015434  0.20272678  0.23245599  1
  Na  Na14  1  0.53015434  0.29727322  0.73245599  1
  Na  Na15  1  0.46984566  0.70272678  0.23245599  1
  Na  Na16  1  0.54263264  0.96706821  0.88790164  1
  Na  Na17  1  0.45736736  0.03293179  0.38790164  1
  Na  Na18  1  0.45736736  0.46706821  0.88790164  1
  Na  Na19  1  0.54263264  0.53293179  0.38790164  1
  Na  Na20  1  0.49407657  0.88376807  0.55193407  1
  Na  Na21  1  0.50592343  0.11623193  0.05193407  1
  Na  Na22  1  0.50592343  0.38376807  0.55193407  1
  Na  Na23  1  0.49407657  0.61623193  0.05193407  1
  Pr  Pr24  1  0.92762484  0.61217411  0.80321173  1
  Pr  Pr25  1  0.07237516  0.38782589  0.30321173  1
  Pr  Pr26  1  0.07237516  0.11217411  0.80321173  1
  Pr  Pr27  1  0.92762484  0.88782589  0.30321173  1
  Pr  Pr28  1  0.55984248  0.63681806  0.57421164  1
  Pr  Pr29  1  0.44015752  0.36318194  0.07421164  1
  Pr  Pr30  1  0.44015752  0.13681806  0.57421164  1
  Pr  Pr31  1  0.55984248  0.86318194  0.07421164  1
  As  As32  1  0.96543847  0.47545711  0.98113738  1
  As  As33  1  0.03456153  0.52454289  0.48113738  1
  As  As34  1  0.03456153  0.97545711  0.98113738  1
  As  As35  1  0.96543847  0.02454289  0.48113738  1
  As  As36  1  0.98519025  0.22663333  0.65281627  1
  As  As37  1  0.01480975  0.77336667  0.15281627  1
  As  As38  1  0.01480975  0.72663333  0.65281627  1
  As  As39  1  0.98519025  0.27336667  0.15281627  1
  As  As40  1  0.47372870  0.52262688  0.72381033  1
  As  As41  1  0.52627130  0.47737312  0.22381033  1
  As  As42  1  0.52627130  0.02262688  0.72381033  1
  As  As43  1  0.47372870  0.97737312  0.22381033  1
  As  As44  1  0.45876245  0.72658255  0.89598697  1
  As  As45  1  0.54123755  0.27341745  0.39598697  1
  As  As46  1  0.54123755  0.22658255  0.89598697  1
  As  As47  1  0.45876245  0.77341745  0.39598697  1
  O  O48  1  0.58735771  0.81122021  0.84722849  1
  O  O49  1  0.41264229  0.18877979  0.34722849  1
  O  O50  1  0.41264229  0.31122021  0.84722849  1
  O  O51  1  0.58735771  0.68877979  0.34722849  1
  O  O52  1  0.70380209  0.46725178  0.76555445  1
  O  O53  1  0.29619791  0.53274822  0.26555445  1
  O  O54  1  0.29619791  0.96725178  0.76555445  1
  O  O55  1  0.70380209  0.03274822  0.26555445  1
  O  O56  1  0.89173440  0.87113915  0.99700029  1
  O  O57  1  0.10826560  0.12886085  0.49700029  1
  O  O58  1  0.10826560  0.37113915  0.99700029  1
  O  O59  1  0.89173440  0.62886085  0.49700029  1
  O  O60  1  0.79389459  0.78295130  0.60802660  1
  O  O61  1  0.20610541  0.21704870  0.10802660  1
  O  O62  1  0.20610541  0.28295130  0.60802660  1
  O  O63  1  0.79389459  0.71704870  0.10802660  1
  O  O64  1  0.66370943  0.46494419  0.99748844  1
  O  O65  1  0.33629057  0.53505581  0.49748844  1
  O  O66  1  0.33629057  0.96494419  0.99748844  1
  O  O67  1  0.66370943  0.03505581  0.49748844  1
  O  O68  1  0.90852686  0.43955431  0.53049266  1
  O  O69  1  0.09147314  0.56044569  0.03049266  1
  O  O70  1  0.09147314  0.93955431  0.53049266  1
  O  O71  1  0.90852686  0.06044569  0.03049266  1
  O  O72  1  0.79109839  0.99235845  0.76163562  1
  O  O73  1  0.20890161  0.00764155  0.26163562  1
  O  O74  1  0.20890161  0.49235845  0.76163562  1
  O  O75  1  0.79109839  0.50764155  0.26163562  1
  O  O76  1  0.60503987  0.62265902  0.88207344  1
  O  O77  1  0.39496013  0.37734098  0.38207344  1
  O  O78  1  0.39496013  0.12265902  0.88207344  1
  O  O79  1  0.60503987  0.87734098  0.38207344  1
  O  O80  1  0.53036885  0.63972046  0.72688451  1
  O  O81  1  0.46963115  0.36027954  0.22688451  1
  O  O82  1  0.46963115  0.13972046  0.72688451  1
  O  O83  1  0.53036885  0.86027954  0.22688451  1
  O  O84  1  0.95165722  0.61006249  0.64961719  1
  O  O85  1  0.04834278  0.38993751  0.14961719  1
  O  O86  1  0.04834278  0.11006249  0.64961719  1
  O  O87  1  0.95165722  0.88993751  0.14961719  1
  O  O88  1  0.84061298  0.21540963  0.87618665  1
  O  O89  1  0.15938702  0.78459037  0.37618665  1
  O  O90  1  0.15938702  0.71540963  0.87618665  1
  O  O91  1  0.84061298  0.28459037  0.37618665  1
  O  O92  1  0.98514088  0.25853189  0.73753802  1
  O  O93  1  0.01485912  0.74146811  0.23753802  1
  O  O94  1  0.01485912  0.75853189  0.73753802  1
  O  O95  1  0.98514088  0.24146811  0.23753802  1
  O  O96  1  0.53398815  0.99090190  0.63905589  1
  O  O97  1  0.46601185  0.00909810  0.13905589  1
  O  O98  1  0.46601185  0.49090190  0.63905589  1
  O  O99  1  0.53398815  0.50909810  0.13905589  1
  O  O100  1  0.98578663  0.99645722  0.89522165  1
  O  O101  1  0.01421337  0.00354278  0.39522165  1
  O  O102  1  0.01421337  0.49645722  0.89522165  1
  O  O103  1  0.98578663  0.50354278  0.39522165  1
  O  O104  1  0.28491610  0.75598426  0.61768429  1
  O  O105  1  0.71508390  0.24401574  0.11768429  1
  O  O106  1  0.71508390  0.25598426  0.61768429  1
  O  O107  1  0.28491610  0.74401574  0.11768429  1
  O  O108  1  0.46748289  0.74785579  0.98276646  1
  O  O109  1  0.53251711  0.25214421  0.48276646  1
  O  O110  1  0.53251711  0.24785579  0.98276646  1
  O  O111  1  0.46748289  0.75214421  0.48276646  1
