# generated using pymatgen
data_MgS8(O5F2)4
_symmetry_space_group_name_H-M   'P 1'
_cell_length_a   8.22979407
_cell_length_b   7.70093230
_cell_length_c   9.94352975
_cell_angle_alpha   90.00000000
_cell_angle_beta   90.00000000
_cell_angle_gamma   92.47699978
_symmetry_Int_Tables_number   1
_chemical_formula_structural   MgS8(O5F2)4
_chemical_formula_sum   'Mg1 S8 O20 F8'
_cell_volume   629.60313054
_cell_formula_units_Z   1
loop_
 _symmetry_equiv_pos_site_id
 _symmetry_equiv_pos_as_xyz
  1  'x, y, z'
loop_
 _atom_site_type_symbol
 _atom_site_label
 _atom_site_symmetry_multiplicity
 _atom_site_fract_x
 _atom_site_fract_y
 _atom_site_fract_z
 _atom_site_occupancy
  Mg  Mg0  1  0.50000000  0.50000000  0.41141598  1
  S  S1  1  0.59299631  0.16854026  0.63995937  1
  S  S2  1  0.40700369  0.83145974  0.63995937  1
  S  S3  1  0.33233064  0.92972217  0.12967848  1
  S  S4  1  0.80397793  0.59332689  0.35170488  1
  S  S5  1  0.19602207  0.40667311  0.35170488  1
  S  S6  1  0.92753149  0.66930889  0.86578616  1
  S  S7  1  0.07246851  0.33069111  0.86578616  1
  S  S8  1  0.66766936  0.07027783  0.12967848  1
  O  O9  1  0.49980308  0.77734814  0.52714025  1
  O  O10  1  0.36057752  0.72185984  0.74845550  1
  O  O11  1  0.22130555  0.89528780  0.23598436  1
  O  O12  1  0.65186682  0.63628139  0.27483218  1
  O  O13  1  0.34813318  0.36371861  0.27483218  1
  O  O14  1  0.89433629  0.78644222  0.76045277  1
  O  O15  1  0.10566371  0.21355778  0.76045277  1
  O  O16  1  0.77869445  0.10471220  0.23598436  1
  O  O17  1  0.50000000  0.00000000  0.20649059  1
  O  O18  1  0.00000000  0.50000000  0.78762587  1
  O  O19  1  0.00000000  0.50000000  0.30914150  1
  O  O20  1  0.50000000  0.00000000  0.71173353  1
  O  O21  1  0.69665342  0.96791721  0.01415701  1
  O  O22  1  0.50019692  0.22265186  0.52714025  1
  O  O23  1  0.02086915  0.70978000  0.98235099  1
  O  O24  1  0.26067716  0.50955690  0.47044882  1
  O  O25  1  0.73932284  0.49044310  0.47044882  1
  O  O26  1  0.30334658  0.03208279  0.01415701  1
  O  O27  1  0.97913085  0.29022000  0.98235099  1
  O  O28  1  0.63942248  0.27814016  0.74845550  1
  F  F29  1  0.60538698  0.24964098  0.07874423  1
  F  F30  1  0.23959973  0.41768258  0.91314505  1
  F  F31  1  0.76040027  0.58231742  0.91314505  1
  F  F32  1  0.13935439  0.22009922  0.42086189  1
  F  F33  1  0.86064561  0.77990078  0.42086189  1
  F  F34  1  0.39461302  0.75035902  0.07874423  1
  F  F35  1  0.25522249  0.92200052  0.58489984  1
  F  F36  1  0.74477751  0.07799948  0.58489984  1
