# generated using pymatgen
data_MgFe3Co2Sb(PO4)6
_symmetry_space_group_name_H-M   'P 1'
_cell_length_a   8.93671520
_cell_length_b   8.80897725
_cell_length_c   8.79664598
_cell_angle_alpha   59.87642583
_cell_angle_beta   60.69635529
_cell_angle_gamma   59.79178612
_symmetry_Int_Tables_number   1
_chemical_formula_structural   MgFe3Co2Sb(PO4)6
_chemical_formula_sum   'Mg1 Fe3 Co2 Sb1 P6 O24'
_cell_volume   490.94557946
_cell_formula_units_Z   1
loop_
 _symmetry_equiv_pos_site_id
 _symmetry_equiv_pos_as_xyz
  1  'x, y, z'
loop_
 _atom_site_type_symbol
 _atom_site_label
 _atom_site_symmetry_multiplicity
 _atom_site_fract_x
 _atom_site_fract_y
 _atom_site_fract_z
 _atom_site_occupancy
  Mg  Mg0  1  0.96547400  0.01447900  0.00821600  1
  Fe  Fe1  1  0.08641900  0.63326100  0.64129500  1
  Fe  Fe2  1  0.70896600  0.77310700  0.75662800  1
  Fe  Fe3  1  0.91477000  0.36013200  0.36418000  1
  Co  Co4  1  0.35037100  0.87040700  0.89599300  1
  Co  Co5  1  0.49630900  0.51523600  0.48852000  1
  Sb  Sb6  1  0.52016200  0.15672600  0.16173300  1
  P  P7  1  0.20791300  0.25513200  0.56797000  1
  P  P8  1  0.21398600  0.96149600  0.26329600  1
  P  P9  1  0.20379800  0.56254200  0.97232500  1
  P  P10  1  0.73478200  0.46557200  0.05342900  1
  P  P11  1  0.74199600  0.06141900  0.73984000  1
  P  P12  1  0.74327800  0.74559900  0.45542800  1
  O  O13  1  0.05151400  0.11405100  0.33714800  1
  O  O14  1  0.04194500  0.49962100  0.12107000  1
  O  O15  1  0.04013700  0.33117400  0.51046900  1
  O  O16  1  0.17846100  0.10656100  0.76402800  1
  O  O17  1  0.38247400  0.17403700  0.42508200  1
  O  O18  1  0.24536000  0.41091200  0.57034100  1
  O  O19  1  0.17519300  0.94558800  0.11909500  1
  O  O20  1  0.25431100  0.76213800  0.41981000  1
  O  O21  1  0.56378400  0.62176200  0.98843000  1
  O  O22  1  0.24388100  0.56262500  0.77661100  1
  O  O23  1  0.78077600  0.27333600  0.05527200  1
  O  O24  1  0.56998200  0.00354300  0.81977900  1
  O  O25  1  0.39281800  0.00206300  0.17838200  1
  O  O26  1  0.16718500  0.76084900  0.95487600  1
  O  O27  1  0.70165400  0.46052500  0.24577700  1
  O  O28  1  0.38183800  0.42510100  0.02086800  1
  O  O29  1  0.70930400  0.25344700  0.58284200  1
  O  O30  1  0.78784900  0.06406300  0.88354200  1
  O  O31  1  0.70921800  0.59238100  0.44986700  1
  O  O32  1  0.57066200  0.82796300  0.60524500  1
  O  O33  1  0.78981100  0.88875900  0.26337600  1
  O  O34  1  0.89577800  0.66876600  0.54297200  1
  O  O35  1  0.88777700  0.54978500  0.89407600  1
  O  O36  1  0.89475500  0.89615500  0.66468900  1
