# generated using pymatgen
data_La2HfSe5
_symmetry_space_group_name_H-M   'P 1'
_cell_length_a   7.75866555
_cell_length_b   8.55404092
_cell_length_c   12.02685201
_cell_angle_alpha   90.00000000
_cell_angle_beta   90.00000000
_cell_angle_gamma   90.00000000
_symmetry_Int_Tables_number   1
_chemical_formula_structural   La2HfSe5
_chemical_formula_sum   'La8 Hf4 Se20'
_cell_volume   798.19742385
_cell_formula_units_Z   4
loop_
 _symmetry_equiv_pos_site_id
 _symmetry_equiv_pos_as_xyz
  1  'x, y, z'
loop_
 _atom_site_type_symbol
 _atom_site_label
 _atom_site_symmetry_multiplicity
 _atom_site_fract_x
 _atom_site_fract_y
 _atom_site_fract_z
 _atom_site_occupancy
  La  La0  1  0.94239830  0.00000706  0.17199515  1
  La  La1  1  0.55760170  0.49999294  0.67199515  1
  La  La2  1  0.05760170  0.50000706  0.82800485  1
  La  La3  1  0.44239830  -0.00000706  0.32800485  1
  La  La4  1  0.05760170  -0.00000706  0.82800485  1
  La  La5  1  0.44239830  0.50000706  0.32800485  1
  La  La6  1  0.94239830  0.49999294  0.17199515  1
  La  La7  1  0.55760170  0.00000706  0.67199515  1
  Hf  Hf8  1  0.42712351  0.75000000  0.00865352  1
  Hf  Hf9  1  0.07287649  0.75000000  0.50865352  1
  Hf  Hf10  1  0.57287649  0.25000000  0.99134648  1
  Hf  Hf11  1  0.92712351  0.25000000  0.49134648  1
  Se  Se12  1  0.82385330  0.96502973  0.42693421  1
  Se  Se13  1  0.67614670  0.53497027  0.92693421  1
  Se  Se14  1  0.17614670  0.46502973  0.57306579  1
  Se  Se15  1  0.32385330  0.03497027  0.07306579  1
  Se  Se16  1  0.17614670  0.03497027  0.57306579  1
  Se  Se17  1  0.32385330  0.46502973  0.07306579  1
  Se  Se18  1  0.82385330  0.53497027  0.42693421  1
  Se  Se19  1  0.67614670  0.96502973  0.92693421  1
  Se  Se20  1  0.63954121  0.75000000  0.19000918  1
  Se  Se21  1  0.86045879  0.75000000  0.69000918  1
  Se  Se22  1  0.36045879  0.25000000  0.80999082  1
  Se  Se23  1  0.13954121  0.25000000  0.30999082  1
  Se  Se24  1  0.44145431  0.75000000  0.50576673  1
  Se  Se25  1  0.05854569  0.75000000  0.00576673  1
  Se  Se26  1  0.55854569  0.25000000  0.49423327  1
  Se  Se27  1  0.94145431  0.25000000  0.99423327  1
  Se  Se28  1  0.15831184  0.75000000  0.29303946  1
  Se  Se29  1  0.34168816  0.75000000  0.79303946  1
  Se  Se30  1  0.84168816  0.25000000  0.70696054  1
  Se  Se31  1  0.65831184  0.25000000  0.20696054  1
