# generated using pymatgen
data_Ga7Te10
_symmetry_space_group_name_H-M   'P 1'
_cell_length_a   10.34446576
_cell_length_b   10.34446625
_cell_length_c   10.34446608
_cell_angle_alpha   89.63052165
_cell_angle_beta   89.63053054
_cell_angle_gamma   89.63052205
_symmetry_Int_Tables_number   1
_chemical_formula_structural   Ga7Te10
_chemical_formula_sum   'Ga14 Te20'
_cell_volume   1106.87163694
_cell_formula_units_Z   2
loop_
 _symmetry_equiv_pos_site_id
 _symmetry_equiv_pos_as_xyz
  1  'x, y, z'
loop_
 _atom_site_type_symbol
 _atom_site_label
 _atom_site_symmetry_multiplicity
 _atom_site_fract_x
 _atom_site_fract_y
 _atom_site_fract_z
 _atom_site_occupancy
  Ga  Ga0  1  0.56915333  0.56915333  0.56915333  1
  Ga  Ga1  1  0.43084667  0.43084667  0.43084667  1
  Ga  Ga2  1  0.16659037  0.34118757  0.74477314  1
  Ga  Ga3  1  0.74477314  0.16659037  0.34118757  1
  Ga  Ga4  1  0.34118757  0.74477314  0.16659037  1
  Ga  Ga5  1  0.65881243  0.83340963  0.25522686  1
  Ga  Ga6  1  0.25522686  0.65881243  0.83340963  1
  Ga  Ga7  1  0.83340963  0.25522686  0.65881243  1
  Ga  Ga8  1  0.88570671  0.57754877  0.84674522  1
  Ga  Ga9  1  0.84674522  0.88570671  0.57754877  1
  Ga  Ga10  1  0.57754877  0.84674522  0.88570671  1
  Ga  Ga11  1  0.42245123  0.11429329  0.15325478  1
  Ga  Ga12  1  0.15325478  0.42245123  0.11429329  1
  Ga  Ga13  1  0.11429329  0.15325478  0.42245123  1
  Te  Te14  1  0.83110973  0.83110973  0.83110973  1
  Te  Te15  1  0.16889027  0.16889027  0.16889027  1
  Te  Te16  1  0.82413981  -0.00000000  0.17586019  1
  Te  Te17  1  0.17586019  0.82413981  0.00000000  1
  Te  Te18  1  -0.00000000  0.17586019  0.82413981  1
  Te  Te19  1  0.91642160  0.50000000  0.08357840  1
  Te  Te20  1  0.08357840  0.91642160  0.50000000  1
  Te  Te21  1  0.50000000  0.08357840  0.91642160  1
  Te  Te22  1  0.68526558  0.43836043  0.76185963  1
  Te  Te23  1  0.76185963  0.68526558  0.43836043  1
  Te  Te24  1  0.43836043  0.76185963  0.68526558  1
  Te  Te25  1  0.56163957  0.31473442  0.23814037  1
  Te  Te26  1  0.23814037  0.56163957  0.31473442  1
  Te  Te27  1  0.31473442  0.23814037  0.56163957  1
  Te  Te28  1  0.07441235  0.57288895  0.67149998  1
  Te  Te29  1  0.67149998  0.07441235  0.57288895  1
  Te  Te30  1  0.57288895  0.67149998  0.07441235  1
  Te  Te31  1  0.42711105  0.92558765  0.32850002  1
  Te  Te32  1  0.32850002  0.42711105  0.92558765  1
  Te  Te33  1  0.92558765  0.32850002  0.42711105  1
