# generated using pymatgen
data_Ca3SbI3
_symmetry_space_group_name_H-M   'P 1'
_cell_length_a   11.09357643
_cell_length_b   11.09351519
_cell_length_c   11.09345916
_cell_angle_alpha   109.47096167
_cell_angle_beta   109.47091566
_cell_angle_gamma   109.47146478
_symmetry_Int_Tables_number   1
_chemical_formula_structural   Ca3SbI3
_chemical_formula_sum   'Ca12 Sb4 I12'
_cell_volume   1050.96335674
_cell_formula_units_Z   4
loop_
 _symmetry_equiv_pos_site_id
 _symmetry_equiv_pos_as_xyz
  1  'x, y, z'
loop_
 _atom_site_type_symbol
 _atom_site_label
 _atom_site_symmetry_multiplicity
 _atom_site_fract_x
 _atom_site_fract_y
 _atom_site_fract_z
 _atom_site_occupancy
  Ca  Ca0  1  0.48297759  0.49149168  0.24149148  1
  Ca  Ca1  1  0.75000140  0.24148747  0.25851451  1
  Ca  Ca2  1  0.75000094  0.00851499  0.49148893  1
  Ca  Ca3  1  0.24148960  0.48297508  0.49148899  1
  Ca  Ca4  1  0.25851341  0.74999948  0.24148731  1
  Ca  Ca5  1  0.01702483  0.25851248  0.00851218  1
  Ca  Ca6  1  0.00851165  0.01702625  0.25851095  1
  Ca  Ca7  1  0.49148822  0.75000179  0.00851252  1
  Ca  Ca8  1  0.49148996  0.24148910  0.48297546  1
  Ca  Ca9  1  0.00851194  0.49148618  0.75000010  1
  Ca  Ca10  1  0.25851193  0.00851074  0.01702588  1
  Ca  Ca11  1  0.24148869  0.25851225  0.75000028  1
  Sb  Sb12  1  0.25000166  0.25000148  0.25000044  1
  Sb  Sb13  1  0.49999050  0.99999714  0.24999702  1
  Sb  Sb14  1  0.00000255  0.25000114  0.50000242  1
  Sb  Sb15  1  0.25000273  0.50000076  1.00000117  1
  I  I16  1  0.24996479  0.75154455  0.74838806  1
  I  I17  1  0.50317629  0.50161689  0.75162202  1
  I  I18  1  0.99682713  0.74836798  0.99838459  1
  I  I19  1  0.74839980  0.25000079  0.75157915  1
  I  I20  1  0.99838795  0.99682872  0.74838192  1
  I  I21  1  0.24998701  0.99839143  0.50153659  1
  I  I22  1  0.75162251  0.50317626  0.50161906  1
  I  I23  1  0.50161203  0.25001597  0.99846401  1
  I  I24  1  0.75161646  0.74846640  0.24999954  1
  I  I25  1  0.74838036  0.99838582  0.99682539  1
  I  I26  1  0.99839947  0.50157129  0.25001347  1
  I  I27  1  0.50161859  0.75162391  0.50317657  1
