# generated using pymatgen
data_KTeP2
_symmetry_space_group_name_H-M   'P 1'
_cell_length_a   6.59320533
_cell_length_b   7.03815440
_cell_length_c   10.10362872
_cell_angle_alpha   90.01980414
_cell_angle_beta   90.00000000
_cell_angle_gamma   90.00000000
_symmetry_Int_Tables_number   1
_chemical_formula_structural   KTeP2
_chemical_formula_sum   'K4 Te4 P8'
_cell_volume   468.84872989
_cell_formula_units_Z   4
loop_
 _symmetry_equiv_pos_site_id
 _symmetry_equiv_pos_as_xyz
  1  'x, y, z'
loop_
 _atom_site_type_symbol
 _atom_site_label
 _atom_site_symmetry_multiplicity
 _atom_site_fract_x
 _atom_site_fract_y
 _atom_site_fract_z
 _atom_site_occupancy
  K  K0  1  0.25000000  0.02567312  0.38846297  1
  K  K1  1  0.75000000  0.97432688  0.61153703  1
  K  K2  1  0.25000000  0.22469106  0.00846051  1
  K  K3  1  0.75000000  0.77530894  0.99153949  1
  Te  Te4  1  0.25000000  0.70640132  0.10307724  1
  Te  Te5  1  0.75000000  0.29359868  0.89692276  1
  Te  Te6  1  0.25000000  0.84319932  0.73524724  1
  Te  Te7  1  0.75000000  0.15680068  0.26475276  1
  P  P8  1  0.49439584  0.39248201  0.58024367  1
  P  P9  1  0.99439584  0.60751799  0.41975633  1
  P  P10  1  0.50560416  0.60751799  0.41975633  1
  P  P11  1  0.00560416  0.39248201  0.58024367  1
  P  P12  1  0.25000000  0.49447730  0.29909706  1
  P  P13  1  0.75000000  0.50552270  0.70090294  1
  P  P14  1  0.25000000  0.49145711  0.71359531  1
  P  P15  1  0.75000000  0.50854289  0.28640469  1
