# generated using pymatgen
data_Ga4B2O9
_symmetry_space_group_name_H-M   'P 1'
_cell_length_a   8.11417153
_cell_length_b   8.11417153
_cell_length_c   10.84526349
_cell_angle_alpha   49.45061575
_cell_angle_beta   49.45061575
_cell_angle_gamma   41.54844919
_symmetry_Int_Tables_number   1
_chemical_formula_structural   Ga4B2O9
_chemical_formula_sum   'Ga8 B4 O18'
_cell_volume   340.37867469
_cell_formula_units_Z   2
loop_
 _symmetry_equiv_pos_site_id
 _symmetry_equiv_pos_as_xyz
  1  'x, y, z'
loop_
 _atom_site_type_symbol
 _atom_site_label
 _atom_site_symmetry_multiplicity
 _atom_site_fract_x
 _atom_site_fract_y
 _atom_site_fract_z
 _atom_site_occupancy
  Ga  Ga0  1  0.49713156  0.99909248  0.50105454  1
  Ga  Ga1  1  0.99909248  0.49713156  0.50105454  1
  Ga  Ga2  1  0.34240375  0.34240375  0.63241487  1
  Ga  Ga3  1  0.67231822  0.67231822  0.34221175  1
  Ga  Ga4  1  0.99699180  0.49195003  0.00899540  1
  Ga  Ga5  1  0.49195003  0.99699180  0.00899540  1
  Ga  Ga6  1  0.47561064  0.47561064  0.73326150  1
  Ga  Ga7  1  0.49150969  0.49150969  0.17598606  1
  B  B8  1  0.99885714  0.99885714  0.21436409  1
  B  B9  1  0.99849281  0.99849281  0.77519512  1
  B  B10  1  0.76081349  0.76081349  0.73873449  1
  B  B11  1  0.28623971  0.28623971  0.21907282  1
  O  O12  1  0.56478661  0.97875211  0.66399087  1
  O  O13  1  0.97875211  0.56478661  0.66399087  1
  O  O14  1  0.44506382  0.02068930  0.33834949  1
  O  O15  1  0.02068930  0.44506382  0.33834949  1
  O  O16  1  0.29657540  0.29657540  0.84975156  1
  O  O17  1  0.70398288  0.70398288  0.14728185  1
  O  O18  1  0.87609012  0.87609012  0.35232439  1
  O  O19  1  0.12428080  0.12428080  0.65557913  1
  O  O20  1  0.85686160  0.27148742  0.14171164  1
  O  O21  1  0.27148742  0.85686160  0.14171164  1
  O  O22  1  0.13596720  0.72758529  0.83724459  1
  O  O23  1  0.72758529  0.13596720  0.83724459  1
  O  O24  1  0.73869410  0.73869410  0.88422481  1
  O  O25  1  0.24332982  0.24332982  0.13154992  1
  O  O26  1  0.36384267  0.36384267  0.42204462  1
  O  O27  1  0.64098228  0.64098228  0.60125844  1
  O  O28  1  0.50240456  0.50240456  0.53260334  1
  O  O29  1  0.41781169  0.41781169  0.10054815  1
