# generated using pymatgen
data_Li3SbS3
_symmetry_space_group_name_H-M   'P 1'
_cell_length_a   6.78736344
_cell_length_b   7.96189372
_cell_length_c   10.10470383
_cell_angle_alpha   90.00000000
_cell_angle_beta   90.00000000
_cell_angle_gamma   90.00000000
_symmetry_Int_Tables_number   1
_chemical_formula_structural   Li3SbS3
_chemical_formula_sum   'Li12 Sb4 S12'
_cell_volume   546.06088634
_cell_formula_units_Z   4
loop_
 _symmetry_equiv_pos_site_id
 _symmetry_equiv_pos_as_xyz
  1  'x, y, z'
loop_
 _atom_site_type_symbol
 _atom_site_label
 _atom_site_symmetry_multiplicity
 _atom_site_fract_x
 _atom_site_fract_y
 _atom_site_fract_z
 _atom_site_occupancy
  Li  Li0  1  0.54186479  0.55801173  0.27460228  1
  Li  Li1  1  0.45813521  0.44198827  0.77460228  1
  Li  Li2  1  0.04186479  0.94198827  0.77460228  1
  Li  Li3  1  0.95813521  0.05801173  0.27460228  1
  Li  Li4  1  0.15458494  0.41096497  0.31778894  1
  Li  Li5  1  0.84541506  0.58903503  0.81778894  1
  Li  Li6  1  0.65458494  0.08903503  0.81778894  1
  Li  Li7  1  0.34541506  0.91096497  0.31778894  1
  Li  Li8  1  0.12604476  0.25787821  0.61528524  1
  Li  Li9  1  0.87395524  0.74212179  0.11528524  1
  Li  Li10  1  0.62604476  0.24212179  0.11528524  1
  Li  Li11  1  0.37395524  0.75787821  0.61528524  1
  Sb  Sb12  1  0.60601564  0.23475470  0.50006214  1
  Sb  Sb13  1  0.39398436  0.76524530  0.00006214  1
  Sb  Sb14  1  0.10601564  0.26524530  0.00006214  1
  Sb  Sb15  1  0.89398436  0.73475470  0.50006214  1
  S  S16  1  0.80486419  0.33799229  0.31618426  1
  S  S17  1  0.19513581  0.66200771  0.81618426  1
  S  S18  1  0.30486419  0.16200771  0.81618426  1
  S  S19  1  0.69513581  0.83799229  0.31618426  1
  S  S20  1  0.36362721  0.46431884  0.50834158  1
  S  S21  1  0.63637279  0.53568116  0.00834158  1
  S  S22  1  0.86362721  0.03568116  0.00834158  1
  S  S23  1  0.13637279  0.96431884  0.50834158  1
  S  S24  1  0.79740058  0.32186605  0.69343555  1
  S  S25  1  0.20259942  0.67813395  0.19343555  1
  S  S26  1  0.29740058  0.17813395  0.19343555  1
  S  S27  1  0.70259942  0.82186605  0.69343555  1
