# generated using pymatgen
data_Cs2CdBr4
_symmetry_space_group_name_H-M   'P 1'
_cell_length_a   10.29056502
_cell_length_b   7.93097727
_cell_length_c   14.23828582
_cell_angle_alpha   88.96272665
_cell_angle_beta   90.00000000
_cell_angle_gamma   90.00000000
_symmetry_Int_Tables_number   1
_chemical_formula_structural   Cs2CdBr4
_chemical_formula_sum   'Cs8 Cd4 Br16'
_cell_volume   1161.85641236
_cell_formula_units_Z   4
loop_
 _symmetry_equiv_pos_site_id
 _symmetry_equiv_pos_as_xyz
  1  'x, y, z'
loop_
 _atom_site_type_symbol
 _atom_site_label
 _atom_site_symmetry_multiplicity
 _atom_site_fract_x
 _atom_site_fract_y
 _atom_site_fract_z
 _atom_site_occupancy
  Cs  Cs0  1  0.61846806  0.23396642  0.39642380  1
  Cs  Cs1  1  0.38153194  0.76603358  0.60357620  1
  Cs  Cs2  1  0.88153194  0.73396642  0.89642380  1
  Cs  Cs3  1  0.11846806  0.26603358  0.10357620  1
  Cs  Cs4  1  0.48861165  0.22723330  0.82266770  1
  Cs  Cs5  1  0.51138835  0.77276670  0.17733230  1
  Cs  Cs6  1  0.01138835  0.72723330  0.32266770  1
  Cs  Cs7  1  0.98861165  0.27276670  0.67733230  1
  Cd  Cd8  1  0.72087243  0.25201638  0.07578758  1
  Cd  Cd9  1  0.27912757  0.74798362  0.92421242  1
  Cd  Cd10  1  0.77912757  0.75201638  0.57578758  1
  Cd  Cd11  1  0.22087243  0.24798362  0.42421242  1
  Br  Br12  1  0.46985100  0.23513052  0.07985946  1
  Br  Br13  1  0.53014900  0.76486948  0.92014054  1
  Br  Br14  1  0.03014900  0.73513052  0.57985946  1
  Br  Br15  1  0.96985100  0.26486948  0.42014054  1
  Br  Br16  1  0.83049015  0.20152387  0.91276003  1
  Br  Br17  1  0.16950985  0.79847613  0.08723997  1
  Br  Br18  1  0.66950985  0.70152387  0.41276003  1
  Br  Br19  1  0.33049015  0.29847613  0.58723997  1
  Br  Br20  1  0.81693073  0.53946725  0.13069384  1
  Br  Br21  1  0.18306927  0.46053275  0.86930616  1
  Br  Br22  1  0.68306927  0.03946725  0.63069384  1
  Br  Br23  1  0.31693073  0.96053275  0.36930616  1
  Br  Br24  1  0.80946489  0.02870924  0.19680184  1
  Br  Br25  1  0.19053511  0.97129076  0.80319816  1
  Br  Br26  1  0.69053511  0.52870924  0.69680184  1
  Br  Br27  1  0.30946489  0.47129076  0.30319816  1
