# generated using pymatgen
data_MgTe4Pb6(BrO3)4
_symmetry_space_group_name_H-M   'P 1'
_cell_length_a   5.84333690
_cell_length_b   9.50071862
_cell_length_c   11.36397908
_cell_angle_alpha   106.34528622
_cell_angle_beta   90.00000000
_cell_angle_gamma   107.90988484
_symmetry_Int_Tables_number   1
_chemical_formula_structural   MgTe4Pb6(BrO3)4
_chemical_formula_sum   'Mg1 Te4 Pb6 Br4 O12'
_cell_volume   573.45388313
_cell_formula_units_Z   1
loop_
 _symmetry_equiv_pos_site_id
 _symmetry_equiv_pos_as_xyz
  1  'x, y, z'
loop_
 _atom_site_type_symbol
 _atom_site_label
 _atom_site_symmetry_multiplicity
 _atom_site_fract_x
 _atom_site_fract_y
 _atom_site_fract_z
 _atom_site_occupancy
  Mg  Mg0  1  0.33977474  -0.00000000  0.50000000  1
  Te  Te1  1  0.60077223  0.19531508  0.05150280  1
  Te  Te2  1  0.40545615  0.80468492  0.94849720  1
  Te  Te3  1  0.84917590  0.73663373  0.41932323  1
  Te  Te4  1  0.11254117  0.26336627  0.58067677  1
  Pb  Pb5  1  0.26059344  0.49911036  0.20705345  1
  Pb  Pb6  1  0.76148408  0.50088964  0.79294655  1
  Pb  Pb7  1  0.03145612  0.06451483  0.19943949  1
  Pb  Pb8  1  0.96694129  0.93548517  0.80056051  1
  Pb  Pb9  1  0.69297597  0.34997612  0.39920954  1
  Pb  Pb10  1  0.34300085  0.65002388  0.60079046  1
  Br  Br11  1  0.81439309  0.63474272  0.10528644  1
  Br  Br12  1  0.17965137  0.36525728  0.89471356  1
  Br  Br13  1  0.49038591  0.91498536  0.28971224  1
  Br  Br14  1  0.57540155  0.08501464  0.71028776  1
  O  O15  1  0.86046567  0.26010185  0.18438898  1
  O  O16  1  0.39775078  0.26258131  0.17934280  1
  O  O17  1  0.13517047  0.73741869  0.82065720  1
  O  O18  1  0.60036482  0.73989815  0.81561102  1
  O  O19  1  0.71828081  -0.00000000  0.00000000  1
  O  O20  1  0.29713501  -0.00000000  0.00000000  1
  O  O21  1  0.81416326  0.76273512  0.59126271  1
  O  O22  1  0.05142914  0.23726488  0.40873729  1
  O  O23  1  0.01190295  0.58279566  0.39078948  1
  O  O24  1  0.52782414  0.56625534  0.38772021  1
  O  O25  1  0.96156880  0.43374466  0.61227979  1
  O  O26  1  0.42910729  0.41720434  0.60921052  1
