# generated using pymatgen
data_MgZn3Cu2H14(SO9)2
_symmetry_space_group_name_H-M   'P 1'
_cell_length_a   5.55378514
_cell_length_b   6.79003977
_cell_length_c   10.72971321
_cell_angle_alpha   94.78692756
_cell_angle_beta   82.64069210
_cell_angle_gamma   86.26941791
_symmetry_Int_Tables_number   1
_chemical_formula_structural   MgZn3Cu2H14(SO9)2
_chemical_formula_sum   'Mg1 Zn3 Cu2 H14 S2 O18'
_cell_volume   398.71269281
_cell_formula_units_Z   1
loop_
 _symmetry_equiv_pos_site_id
 _symmetry_equiv_pos_as_xyz
  1  'x, y, z'
loop_
 _atom_site_type_symbol
 _atom_site_label
 _atom_site_symmetry_multiplicity
 _atom_site_fract_x
 _atom_site_fract_y
 _atom_site_fract_z
 _atom_site_occupancy
  Mg  Mg0  1  0.87497302  0.75212673  0.68235733  1
  Zn  Zn1  1  0.02436688  0.02708422  0.01285258  1
  Zn  Zn2  1  0.45749630  0.73393573  0.52674336  1
  Zn  Zn3  1  0.40482053  0.23212035  0.46089887  1
  Cu  Cu4  1  0.98155861  0.01887709  0.48847057  1
  Cu  Cu5  1  0.98155806  0.39006910  0.41408911  1
  H  H6  1  0.76016458  0.35859422  0.05708949  1
  H  H7  1  0.24964682  0.66577245  0.94099100  1
  H  H8  1  0.66274172  0.25338910  0.93423416  1
  H  H9  1  0.35153768  0.75265029  0.06866944  1
  H  H10  1  0.84919860  0.65584636  0.90368726  1
  H  H11  1  0.14130580  0.34577776  0.13523762  1
  H  H12  1  0.59703254  0.79020048  0.91306220  1
  H  H13  1  0.39525122  0.21539609  0.09233362  1
  H  H14  1  0.77692506  0.12078718  0.30125826  1
  H  H15  1  0.23598368  0.90481174  0.72643547  1
  H  H16  1  0.34290369  0.90291448  0.33289901  1
  H  H17  1  0.65119682  0.08760680  0.66766825  1
  H  H18  1  0.35177436  0.53144783  0.33637110  1
  H  H19  1  0.64404374  0.45800543  0.64193832  1
  S  S20  1  0.27270984  0.29905838  0.79035386  1
  S  S21  1  0.75126747  0.71353939  0.20511786  1
  O  O22  1  0.24607600  0.29822048  0.65401118  1
  O  O23  1  0.79024540  0.70097421  0.33765403  1
  O  O24  1  0.53898971  0.29406393  0.80246616  1
  O  O25  1  0.48348851  0.70647254  0.19505006  1
  O  O26  1  0.13858752  0.47433654  0.86498648  1
  O  O27  1  0.89022686  0.54854471  0.11935701  1
  O  O28  1  0.16941862  0.11498305  0.83835518  1
  O  O29  1  0.83302118  0.90877956  0.16366113  1
  O  O30  1  0.31769928  0.95207734  0.42302624  1
  O  O31  1  0.70460870  0.97175007  0.60698749  1
  O  O32  1  0.28678269  0.50908161  0.42318872  1
  O  O33  1  0.71848962  0.55096272  0.58659832  1
  O  O34  1  0.73518561  0.22701065  0.37003048  1
  O  O35  1  0.21734662  0.77854543  0.67843196  1
  O  O36  1  0.30380650  0.78883934  0.98516065  1
  O  O37  1  0.70840994  0.22907968  0.01975641  1
  O  O38  1  0.77342407  0.77710221  0.87552288  1
  O  O39  1  0.21906911  0.20916471  0.12299587  1
