# generated using pymatgen
data_MoSeS
_symmetry_space_group_name_H-M   'P 1'
_cell_length_a   3.25019824
_cell_length_b   3.25019826
_cell_length_c   35.59536014
_cell_angle_alpha   89.99979669
_cell_angle_beta   90.00021343
_cell_angle_gamma   119.99999831
_symmetry_Int_Tables_number   1
_chemical_formula_structural   MoSeS
_chemical_formula_sum   'Mo4 Se4 S4'
_cell_volume   325.64448974
_cell_formula_units_Z   4
loop_
 _symmetry_equiv_pos_site_id
 _symmetry_equiv_pos_as_xyz
  1  'x, y, z'
loop_
 _atom_site_type_symbol
 _atom_site_label
 _atom_site_symmetry_multiplicity
 _atom_site_fract_x
 _atom_site_fract_y
 _atom_site_fract_z
 _atom_site_occupancy
  Mo  Mo0  1  0.00000111  -0.00000204  0.09426139  1
  Mo  Mo1  1  -0.00000013  -0.00000091  0.46970388  1
  Mo  Mo2  1  0.33333410  0.66666771  0.28219037  1
  Mo  Mo3  1  0.33332988  0.66666982  0.65677631  1
  Se  Se4  1  0.00000151  0.00000116  0.32934151  1
  Se  Se5  1  -0.00000422  0.00000450  0.70389674  1
  Se  Se6  1  0.00000053  0.00000168  0.23500369  1
  Se  Se7  1  -0.00000494  0.00000392  0.60961924  1
  S  S8  1  0.33333926  0.66665989  0.05125044  1
  S  S9  1  0.33333316  0.66666584  0.42666894  1
  S  S10  1  0.33333442  0.66666467  0.13729610  1
  S  S11  1  0.33333333  0.66666576  0.51274141  1
