# generated using pymatgen
data_Cs3Pb4Au
_symmetry_space_group_name_H-M   'P 1'
_cell_length_a   6.93488664
_cell_length_b   7.52765984
_cell_length_c   14.05494218
_cell_angle_alpha   90.00000000
_cell_angle_beta   90.00000000
_cell_angle_gamma   90.00000000
_symmetry_Int_Tables_number   1
_chemical_formula_structural   Cs3Pb4Au
_chemical_formula_sum   'Cs6 Pb8 Au2'
_cell_volume   733.71671948
_cell_formula_units_Z   2
loop_
 _symmetry_equiv_pos_site_id
 _symmetry_equiv_pos_as_xyz
  1  'x, y, z'
loop_
 _atom_site_type_symbol
 _atom_site_label
 _atom_site_symmetry_multiplicity
 _atom_site_fract_x
 _atom_site_fract_y
 _atom_site_fract_z
 _atom_site_occupancy
  Cs  Cs0  1  0.16646072  -0.00000000  0.75311169  1
  Cs  Cs1  1  0.16646072  -0.00000000  0.24688831  1
  Cs  Cs2  1  0.43890586  0.50000000  0.50000000  1
  Cs  Cs3  1  0.56109414  -0.00000000  -0.00000000  1
  Cs  Cs4  1  0.83353928  0.50000000  0.25311169  1
  Cs  Cs5  1  0.83353928  0.50000000  0.74688831  1
  Pb  Pb6  1  0.04796113  0.28337992  -0.00000000  1
  Pb  Pb7  1  0.04796113  0.71662008  -0.00000000  1
  Pb  Pb8  1  0.34522580  0.50000000  0.88507316  1
  Pb  Pb9  1  0.34522580  0.50000000  0.11492684  1
  Pb  Pb10  1  0.65477420  -0.00000000  0.38507316  1
  Pb  Pb11  1  0.65477420  -0.00000000  0.61492684  1
  Pb  Pb12  1  0.95203887  0.78337992  0.50000000  1
  Pb  Pb13  1  0.95203887  0.21662008  0.50000000  1
  Au  Au14  1  0.30244693  -0.00000000  0.50000000  1
  Au  Au15  1  0.69755307  0.50000000  -0.00000000  1
