# generated using pymatgen
data_Ba5(CN3)2
_symmetry_space_group_name_H-M   'P 1'
_cell_length_a   6.12403048
_cell_length_b   7.27107734
_cell_length_c   14.12123456
_cell_angle_alpha   89.99999801
_cell_angle_beta   90.28598472
_cell_angle_gamma   126.41654514
_symmetry_Int_Tables_number   1
_chemical_formula_structural   Ba5(CN3)2
_chemical_formula_sum   'Ba10 C4 N12'
_cell_volume   505.99533476
_cell_formula_units_Z   2
loop_
 _symmetry_equiv_pos_site_id
 _symmetry_equiv_pos_as_xyz
  1  'x, y, z'
loop_
 _atom_site_type_symbol
 _atom_site_label
 _atom_site_symmetry_multiplicity
 _atom_site_fract_x
 _atom_site_fract_y
 _atom_site_fract_z
 _atom_site_occupancy
  Ba  Ba0  1  0.07376026  0.77539105  0.99679998  1
  Ba  Ba1  1  0.92623974  0.70163079  0.50320002  1
  Ba  Ba2  1  0.92623974  0.22460895  0.00320002  1
  Ba  Ba3  1  0.07376026  0.29836921  0.49679998  1
  Ba  Ba4  1  0.34571806  0.06457868  0.68159377  1
  Ba  Ba5  1  0.65428194  0.71886062  0.81840623  1
  Ba  Ba6  1  0.65428194  0.93542132  0.31840623  1
  Ba  Ba7  1  0.34571806  0.28113938  0.18159377  1
  Ba  Ba8  1  0.00000000  0.33206278  0.75000000  1
  Ba  Ba9  1  0.00000000  0.66793722  0.25000000  1
  C  C10  1  0.55878643  0.80771112  0.59163319  1
  C  C11  1  0.44121357  0.24892569  0.90836681  1
  C  C12  1  0.44121357  0.19228888  0.40836681  1
  C  C13  1  0.55878643  0.75107431  0.09163319  1
  N  N14  1  0.80353361  0.95914796  0.64147146  1
  N  N15  1  0.19646639  0.15561534  0.85852854  1
  N  N16  1  0.19646639  0.04085204  0.35852854  1
  N  N17  1  0.80353361  0.84438466  0.14147146  1
  N  N18  1  0.31725278  0.67698575  0.64367854  1
  N  N19  1  0.68274722  0.35973397  0.85632146  1
  N  N20  1  0.68274722  0.32301425  0.35632146  1
  N  N21  1  0.31725278  0.64026603  0.14367854  1
  N  N22  1  0.44232537  0.21205555  0.50480639  1
  N  N23  1  0.55767463  0.76973118  0.99519361  1
  N  N24  1  0.55767463  0.78794445  0.49519361  1
  N  N25  1  0.44232537  0.23026882  0.00480639  1
