# generated using pymatgen
data_Cu3Ag3(PS4)2
_symmetry_space_group_name_H-M   'P 1'
_cell_length_a   6.26054981
_cell_length_b   6.35123772
_cell_length_c   7.69943952
_cell_angle_alpha   89.54133114
_cell_angle_beta   89.65000586
_cell_angle_gamma   89.52383945
_symmetry_Int_Tables_number   1
_chemical_formula_structural   Cu3Ag3(PS4)2
_chemical_formula_sum   'Cu3 Ag3 P2 S8'
_cell_volume   306.12099281
_cell_formula_units_Z   1
loop_
 _symmetry_equiv_pos_site_id
 _symmetry_equiv_pos_as_xyz
  1  'x, y, z'
loop_
 _atom_site_type_symbol
 _atom_site_label
 _atom_site_symmetry_multiplicity
 _atom_site_fract_x
 _atom_site_fract_y
 _atom_site_fract_z
 _atom_site_occupancy
  Cu  Cu0  1  0.50513385  0.68050449  0.74971166  1
  Cu  Cu1  1  0.50382741  0.69854642  0.25137368  1
  Cu  Cu2  1  0.01440377  0.32846411  0.74987197  1
  Ag  Ag3  1  0.02138318  0.31250955  0.24470750  1
  Ag  Ag4  1  0.01337676  0.84039994  0.50424564  1
  Ag  Ag5  1  0.49802450  0.13677418  0.99549619  1
  P  P6  1  0.50683127  0.18750829  0.50545576  1
  P  P7  1  0.99333779  0.81432691  0.99577727  1
  S  S8  1  0.41313696  0.87170189  0.50340796  1
  S  S9  1  0.90316148  0.12503737  0.97933210  1
  S  S10  1  0.83243162  0.20312706  0.51838844  1
  S  S11  1  0.32500257  0.77450103  0.99938242  1
  S  S12  1  0.87072228  0.65742724  0.78230480  1
  S  S13  1  0.86679748  0.68687061  0.21971971  1
  S  S14  1  0.37498677  0.34072102  0.71971767  1
  S  S15  1  0.41344231  0.34157886  0.28110623  1
