# generated using pymatgen
data_AgPO3
_symmetry_space_group_name_H-M   'P 1'
_cell_length_a   5.97752081
_cell_length_b   7.31704427
_cell_length_c   13.59925276
_cell_angle_alpha   61.66666124
_cell_angle_beta   90.00000000
_cell_angle_gamma   90.00000000
_symmetry_Int_Tables_number   1
_chemical_formula_structural   AgPO3
_chemical_formula_sum   'Ag8 P8 O24'
_cell_volume   523.54480413
_cell_formula_units_Z   8
loop_
 _symmetry_equiv_pos_site_id
 _symmetry_equiv_pos_as_xyz
  1  'x, y, z'
loop_
 _atom_site_type_symbol
 _atom_site_label
 _atom_site_symmetry_multiplicity
 _atom_site_fract_x
 _atom_site_fract_y
 _atom_site_fract_z
 _atom_site_occupancy
  Ag  Ag0  1  0.41447256  0.26747859  0.46573502  1
  Ag  Ag1  1  0.91447256  0.73252141  0.03426498  1
  Ag  Ag2  1  0.58552744  0.73252141  0.53426498  1
  Ag  Ag3  1  0.08552744  0.26747859  0.96573502  1
  Ag  Ag4  1  0.82775870  0.50702937  0.37936970  1
  Ag  Ag5  1  0.32775870  0.49297063  0.12063030  1
  Ag  Ag6  1  0.17224130  0.49297063  0.62063030  1
  Ag  Ag7  1  0.67224130  0.50702937  0.87936970  1
  P  P8  1  0.10659509  0.93559313  0.38873956  1
  P  P9  1  0.60659509  0.06440687  0.11126044  1
  P  P10  1  0.89340491  0.06440687  0.61126044  1
  P  P11  1  0.39340491  0.93559313  0.88873956  1
  P  P12  1  0.30561217  0.74120485  0.27183385  1
  P  P13  1  0.80561217  0.25879515  0.22816615  1
  P  P14  1  0.69438783  0.25879515  0.72816615  1
  P  P15  1  0.19438783  0.74120485  0.77183385  1
  O  O16  1  0.96796318  0.74556235  0.45555521  1
  O  O17  1  0.46796318  0.25443765  0.04444479  1
  O  O18  1  0.03203682  0.25443765  0.54444479  1
  O  O19  1  0.53203682  0.74556235  0.95555521  1
  O  O20  1  0.29831939  0.97897792  0.44375108  1
  O  O21  1  0.79831939  0.02102208  0.05624892  1
  O  O22  1  0.70168061  0.02102208  0.55624892  1
  O  O23  1  0.20168061  0.97897792  0.94375108  1
  O  O24  1  0.95480579  0.13846156  0.33696425  1
  O  O25  1  0.45480579  0.86153844  0.16303575  1
  O  O26  1  0.04519421  0.86153844  0.66303575  1
  O  O27  1  0.54519421  0.13846156  0.83696425  1
  O  O28  1  0.45010011  0.63341017  0.37349255  1
  O  O29  1  0.95010011  0.36658983  0.12650745  1
  O  O30  1  0.54989989  0.36658983  0.62650745  1
  O  O31  1  0.04989989  0.63341017  0.87349255  1
  O  O32  1  0.35980020  0.61548782  0.74763092  1
  O  O33  1  0.85980020  0.38451218  0.75236908  1
  O  O34  1  0.64019980  0.38451218  0.25236908  1
  O  O35  1  0.14019980  0.61548782  0.24763092  1
  O  O36  1  0.31514543  0.93292676  0.77628132  1
  O  O37  1  0.81514543  0.06707324  0.72371868  1
  O  O38  1  0.68485457  0.06707324  0.22371868  1
  O  O39  1  0.18485457  0.93292676  0.27628132  1
