# generated using pymatgen
data_Li6V3P8O29
_symmetry_space_group_name_H-M   'P 1'
_cell_length_a   9.87154830
_cell_length_b   9.86823504
_cell_length_c   13.93941085
_cell_angle_alpha   90.28959988
_cell_angle_beta   90.25927223
_cell_angle_gamma   59.56676218
_symmetry_Int_Tables_number   1
_chemical_formula_structural   Li6V3P8O29
_chemical_formula_sum   'Li12 V6 P16 O58'
_cell_volume   1170.79424738
_cell_formula_units_Z   2
loop_
 _symmetry_equiv_pos_site_id
 _symmetry_equiv_pos_as_xyz
  1  'x, y, z'
loop_
 _atom_site_type_symbol
 _atom_site_label
 _atom_site_symmetry_multiplicity
 _atom_site_fract_x
 _atom_site_fract_y
 _atom_site_fract_z
 _atom_site_occupancy
  Li  Li0  1  0.90293599  0.77618480  0.05884729  1
  Li  Li1  1  0.77630851  0.90260041  0.55869688  1
  Li  Li2  1  0.90459186  0.32136466  0.55952099  1
  Li  Li3  1  0.77158095  0.31834026  0.06018594  1
  Li  Li4  1  0.32078448  0.90508222  0.05942454  1
  Li  Li5  1  0.68439682  0.22377445  0.43908829  1
  Li  Li6  1  0.31857944  0.77161737  0.56015957  1
  Li  Li7  1  0.22401962  0.68423449  0.93909990  1
  Li  Li8  1  0.33273492  0.33449381  0.61600160  1
  Li  Li9  1  0.33455764  0.33244699  0.11589888  1
  Li  Li10  1  0.22750486  0.08730915  0.43852835  1
  Li  Li11  1  0.08733589  0.22784983  0.93827218  1
  V  V12  1  0.56883953  0.43223826  0.25248963  1
  V  V13  1  0.43208939  0.56900234  0.75237173  1
  V  V14  1  0.56843749  0.00027530  0.75381035  1
  V  V15  1  0.43877430  0.99652931  0.24871185  1
  V  V16  1  0.00052562  0.56825486  0.25381444  1
  V  V17  1  0.99654428  0.43851096  0.74881101  1
  P  P18  1  0.91298448  0.76958085  0.84376123  1
  P  P19  1  0.76959490  0.91272076  0.34359547  1
  P  P20  1  0.91317261  0.32083195  0.34115214  1
  P  P21  1  0.67013775  0.66343831  0.12693726  1
  P  P22  1  0.66340634  0.66975397  0.62689667  1
  P  P23  1  0.76969053  0.31783399  0.84277425  1
  P  P24  1  0.68022628  0.22926636  0.65795258  1
  P  P25  1  0.32073692  0.91339113  0.84123964  1
  P  P26  1  0.68301212  0.08806757  0.15931683  1
  P  P27  1  0.31749520  0.77013806  0.34289094  1
  P  P28  1  0.22941326  0.68018249  0.15805965  1
  P  P29  1  0.33480127  0.33036715  0.37312891  1
  P  P30  1  0.33050472  0.33474321  0.87309591  1
  P  P31  1  0.08805225  0.68292024  0.65927593  1
  P  P32  1  0.23109114  0.08957277  0.65744606  1
  P  P33  1  0.08937862  0.23099439  0.15726688  1
  O  O34  1  0.99492834  0.76725625  0.57383562  1
  O  O35  1  0.91415114  0.74936061  0.33862475  1
  O  O36  1  0.76752785  0.99489095  0.07385418  1
  O  O37  1  0.74914278  0.91319058  0.83908848  1
  O  O38  1  0.90572362  0.61813780  0.82596541  1
  O  O39  1  0.81905030  0.66580894  0.16861174  1
  O  O40  1  0.89655617  0.48176853  0.32451331  1
  O  O41  1  0.99686340  0.24479333  0.06821596  1
  O  O42  1  0.91465300  0.33774451  0.83833427  1
  O  O43  1  0.66591860  0.81860286  0.66891945  1
  O  O44  1  0.61908438  0.90420439  0.32579270  1
  O  O45  1  0.81582541  0.51682428  0.66813991  1
  O  O46  1  0.66546278  0.67002128  0.02031906  1
  O  O47  1  0.66909953  0.66610849  0.52023832  1
  O  O48  1  0.67213474  0.51462033  0.16706459  1
  O  O49  1  0.48160380  0.89671808  0.82461348  1
  O  O50  1  0.51739888  0.81634332  0.16852388  1
  O  O51  1  0.75059752  0.33190452  0.34104961  1
  O  O52  1  0.78763994  0.21112816  0.75005395  1
  O  O53  1  0.75785061  0.24425412  0.56907220  1
  O  O54  1  0.75722566  0.24896526  0.93403045  1
  O  O55  1  0.61591228  0.47761770  0.82036845  1
  O  O56  1  0.51418076  0.67237641  0.66705485  1
  O  O57  1  0.66115724  0.25682770  0.16114350  1
  O  O58  1  0.47728610  0.61626634  0.32029187  1
  O  O59  1  0.33760681  0.91495005  0.33872302  1
  O  O60  1  0.78421205  0.00956175  0.25493189  1
  O  O61  1  0.75513456  0.00231984  0.43408479  1
  O  O62  1  0.24405102  0.99737660  0.56836146  1
  O  O63  1  0.66773533  0.08002841  0.65728254  1
  O  O64  1  0.51346841  0.37322931  0.67409228  1
  O  O65  1  0.33162684  0.75085157  0.84097450  1
  O  O66  1  0.48709361  0.32718796  0.33704472  1
  O  O67  1  0.37326821  0.51339702  0.17424926  1
  O  O68  1  0.24454783  0.75764412  0.06915353  1
  O  O69  1  0.24871423  0.75724433  0.43410773  1
  O  O70  1  0.21107689  0.78795076  0.25008499  1
  O  O71  1  0.25667543  0.66120268  0.66107968  1
  O  O72  1  0.47737920  0.18676192  0.82818633  1
  O  O73  1  0.51500309  0.11234440  0.17384823  1
  O  O74  1  0.32714039  0.48714443  0.83692729  1
  O  O75  1  0.32844618  0.33292516  0.98061806  1
  O  O76  1  0.33287153  0.32771995  0.48063022  1
  O  O77  1  0.18679710  0.47704041  0.32839884  1
  O  O78  1  0.37522276  0.10975435  0.67259627  1
  O  O79  1  0.33261828  0.18144629  0.33242814  1
  O  O80  1  0.08029662  0.66755230  0.15733128  1
  O  O81  1  0.00917309  0.78447117  0.75488203  1
  O  O82  1  0.00254775  0.75535574  0.93414834  1
  O  O83  1  0.11249714  0.51489334  0.67414245  1
  O  O84  1  0.18191411  0.33189343  0.83278024  1
  O  O85  1  0.10975203  0.37507062  0.17272710  1
  O  O86  1  0.25350717  0.08130716  0.15634649  1
  O  O87  1  0.24202250  0.00340984  0.93123127  1
  O  O88  1  0.21086411  0.00253007  0.74940976  1
  O  O89  1  0.08138922  0.25396373  0.65668584  1
  O  O90  1  0.00314472  0.24221792  0.43112250  1
  O  O91  1  0.00212901  0.21088693  0.24925413  1
