# generated using pymatgen
data_K2NdCl5
_symmetry_space_group_name_H-M   'P 1'
_cell_length_a   7.99707699
_cell_length_b   8.73436541
_cell_length_c   12.77135314
_cell_angle_alpha   90.00000000
_cell_angle_beta   90.00000000
_cell_angle_gamma   90.00000000
_symmetry_Int_Tables_number   1
_chemical_formula_structural   K2NdCl5
_chemical_formula_sum   'K8 Nd4 Cl20'
_cell_volume   892.07126005
_cell_formula_units_Z   4
loop_
 _symmetry_equiv_pos_site_id
 _symmetry_equiv_pos_as_xyz
  1  'x, y, z'
loop_
 _atom_site_type_symbol
 _atom_site_label
 _atom_site_symmetry_multiplicity
 _atom_site_fract_x
 _atom_site_fract_y
 _atom_site_fract_z
 _atom_site_occupancy
  K  K0  1  0.54936556  0.49478445  0.82765740  1
  K  K1  1  0.45063444  0.50521555  0.17234260  1
  K  K2  1  0.04936556  0.50521555  0.67234260  1
  K  K3  1  0.45063444  -0.00521555  0.17234260  1
  K  K4  1  0.95063444  0.49478445  0.32765740  1
  K  K5  1  0.54936556  0.00521555  0.82765740  1
  K  K6  1  0.95063444  0.00521555  0.32765740  1
  K  K7  1  0.04936556  -0.00521555  0.67234260  1
  Nd  Nd8  1  0.57812977  0.75000000  0.50562821  1
  Nd  Nd9  1  0.42187023  0.25000000  0.49437179  1
  Nd  Nd10  1  0.07812977  0.25000000  0.99437179  1
  Nd  Nd11  1  0.92187023  0.75000000  0.00562821  1
  Cl  Cl12  1  0.83329774  0.75000000  0.79432510  1
  Cl  Cl13  1  0.16670226  0.25000000  0.20567490  1
  Cl  Cl14  1  0.33329774  0.25000000  0.70567490  1
  Cl  Cl15  1  0.66670226  0.75000000  0.29432510  1
  Cl  Cl16  1  0.36901229  0.75000000  0.67900811  1
  Cl  Cl17  1  0.63098771  0.25000000  0.32099189  1
  Cl  Cl18  1  0.86901229  0.25000000  0.82099189  1
  Cl  Cl19  1  0.13098771  0.75000000  0.17900811  1
  Cl  Cl20  1  0.92713276  0.75000000  0.50731308  1
  Cl  Cl21  1  0.07286724  0.25000000  0.49268692  1
  Cl  Cl22  1  0.42713276  0.25000000  0.99268692  1
  Cl  Cl23  1  0.57286724  0.75000000  0.00731308  1
  Cl  Cl24  1  0.66490925  0.04339659  0.57910890  1
  Cl  Cl25  1  0.33509075  0.95660341  0.42089110  1
  Cl  Cl26  1  0.16490925  0.95660341  0.92089110  1
  Cl  Cl27  1  0.33509075  0.54339659  0.42089110  1
  Cl  Cl28  1  0.83509075  0.04339659  0.07910890  1
  Cl  Cl29  1  0.66490925  0.45660341  0.57910890  1
  Cl  Cl30  1  0.83509075  0.45660341  0.07910890  1
  Cl  Cl31  1  0.16490925  0.54339659  0.92089110  1
