# generated using pymatgen
data_Cs6Ho21Te34Cl
_symmetry_space_group_name_H-M   'P 1'
_cell_length_a   14.37974846
_cell_length_b   14.37974846
_cell_length_c   14.39221876
_cell_angle_alpha   65.71776136
_cell_angle_beta   65.71776136
_cell_angle_gamma   97.64974517
_symmetry_Int_Tables_number   1
_chemical_formula_structural   Cs6Ho21Te34Cl
_chemical_formula_sum   'Cs6 Ho21 Te34 Cl1'
_cell_volume   2303.32841692
_cell_formula_units_Z   1
loop_
 _symmetry_equiv_pos_site_id
 _symmetry_equiv_pos_as_xyz
  1  'x, y, z'
loop_
 _atom_site_type_symbol
 _atom_site_label
 _atom_site_symmetry_multiplicity
 _atom_site_fract_x
 _atom_site_fract_y
 _atom_site_fract_z
 _atom_site_occupancy
  Cs  Cs0  1  0.04208890  0.80624410  0.72203414  1
  Cs  Cs1  1  0.80624410  0.04208890  0.72203414  1
  Cs  Cs2  1  0.95791110  0.19375590  0.27796586  1
  Cs  Cs3  1  0.19375590  0.95791110  0.27796586  1
  Cs  Cs4  1  0.78129088  0.78129088  0.57417802  1
  Cs  Cs5  1  0.21870912  0.21870912  0.42582198  1
  Ho  Ho6  1  0.69950333  0.30049667  0.00000000  1
  Ho  Ho7  1  0.30049667  0.69950333  0.00000000  1
  Ho  Ho8  1  0.04574417  0.45757981  0.75041821  1
  Ho  Ho9  1  0.45757981  0.04574417  0.75041821  1
  Ho  Ho10  1  0.95425583  0.54242019  0.24958179  1
  Ho  Ho11  1  0.54242019  0.95425583  0.24958179  1
  Ho  Ho12  1  0.83070057  0.42719157  0.62203010  1
  Ho  Ho13  1  0.42719157  0.83070057  0.62203010  1
  Ho  Ho14  1  0.16929943  0.57280843  0.37796990  1
  Ho  Ho15  1  0.57280843  0.16929943  0.37796990  1
  Ho  Ho16  1  0.90226487  0.09773513  0.00000000  1
  Ho  Ho17  1  0.09773513  0.90226487  0.00000000  1
  Ho  Ho18  1  0.26637954  0.47042982  0.88968557  1
  Ho  Ho19  1  0.47042982  0.26637954  0.88968557  1
  Ho  Ho20  1  0.73362046  0.52957018  0.11031443  1
  Ho  Ho21  1  0.52957018  0.73362046  0.11031443  1
  Ho  Ho22  1  0.39822866  0.60177134  0.50000000  1
  Ho  Ho23  1  0.60177134  0.39822866  0.50000000  1
  Ho  Ho24  1  0.50000000  0.50000000  0.00000000  1
  Ho  Ho25  1  0.24450315  0.24450315  0.74899602  1
  Ho  Ho26  1  0.75549685  0.75549685  0.25100398  1
  Te  Te27  1  0.68946048  0.68946048  0.93168801  1
  Te  Te28  1  0.31053952  0.31053952  0.06831199  1
  Te  Te29  1  0.05937357  0.05937357  0.81160504  1
  Te  Te30  1  0.94062643  0.94062643  0.18839496  1
  Te  Te31  1  0.08731111  0.28832406  0.93283190  1
  Te  Te32  1  0.28832406  0.08731111  0.93283190  1
  Te  Te33  1  0.91268889  0.71167594  0.06716810  1
  Te  Te34  1  0.71167594  0.91268889  0.06716810  1
  Te  Te35  1  0.88682043  0.48568818  0.93777653  1
  Te  Te36  1  0.48568818  0.88682043  0.93777653  1
  Te  Te37  1  0.11317957  0.51431182  0.06222347  1
  Te  Te38  1  0.51431182  0.11317957  0.06222347  1
  Te  Te39  1  0.86517538  0.26512368  0.81229441  1
  Te  Te40  1  0.26512368  0.86517538  0.81229441  1
  Te  Te41  1  0.13482462  0.73487632  0.18770559  1
  Te  Te42  1  0.73487632  0.13482462  0.18770559  1
  Te  Te43  1  0.24067225  0.63671250  0.68935118  1
  Te  Te44  1  0.63671250  0.24067225  0.68935118  1
  Te  Te45  1  0.75932775  0.36328750  0.31064882  1
  Te  Te46  1  0.36328750  0.75932775  0.31064882  1
  Te  Te47  1  0.01256587  0.61745547  0.55828707  1
  Te  Te48  1  0.61745547  0.01256587  0.55828707  1
  Te  Te49  1  0.98743413  0.38254453  0.44171293  1
  Te  Te50  1  0.38254453  0.98743413  0.44171293  1
  Te  Te51  1  0.21199757  0.41546672  0.56267860  1
  Te  Te52  1  0.41546672  0.21199757  0.56267860  1
  Te  Te53  1  0.78800243  0.58453328  0.43732140  1
  Te  Te54  1  0.58453328  0.78800243  0.43732140  1
  Te  Te55  1  0.65855299  0.45975846  0.81226977  1
  Te  Te56  1  0.45975846  0.65855299  0.81226977  1
  Te  Te57  1  0.34144701  0.54024154  0.18773023  1
  Te  Te58  1  0.54024154  0.34144701  0.18773023  1
  Te  Te59  1  0.43266126  0.43266126  0.69091263  1
  Te  Te60  1  0.56733874  0.56733874  0.30908737  1
  Cl  Cl61  1  0.00000000  0.00000000  0.50000000  1
