# generated using pymatgen
data_Ba6Dy2Al4O15
_symmetry_space_group_name_H-M   'P 1'
_cell_length_a   5.91666209
_cell_length_b   7.85773626
_cell_length_c   18.42713525
_cell_angle_alpha   88.28361154
_cell_angle_beta   90.00000000
_cell_angle_gamma   90.00000000
_symmetry_Int_Tables_number   1
_chemical_formula_structural   Ba6Dy2Al4O15
_chemical_formula_sum   'Ba12 Dy4 Al8 O30'
_cell_volume   856.32207773
_cell_formula_units_Z   2
loop_
 _symmetry_equiv_pos_site_id
 _symmetry_equiv_pos_as_xyz
  1  'x, y, z'
loop_
 _atom_site_type_symbol
 _atom_site_label
 _atom_site_symmetry_multiplicity
 _atom_site_fract_x
 _atom_site_fract_y
 _atom_site_fract_z
 _atom_site_occupancy
  Ba  Ba0  1  0.75553739  0.50126120  0.08207211  1
  Ba  Ba1  1  0.24446261  0.49873880  0.91792789  1
  Ba  Ba2  1  0.75553739  0.49873880  0.41792789  1
  Ba  Ba3  1  0.24446261  0.50126120  0.58207211  1
  Ba  Ba4  1  0.74836683  0.97068078  0.08989609  1
  Ba  Ba5  1  0.25163317  0.02931922  0.91010391  1
  Ba  Ba6  1  0.74836683  0.02931922  0.41010391  1
  Ba  Ba7  1  0.25163317  0.97068078  0.58989609  1
  Ba  Ba8  1  0.72644907  -0.00000000  0.75000000  1
  Ba  Ba9  1  0.27355093  -0.00000000  0.25000000  1
  Ba  Ba10  1  0.67913740  0.50000000  0.75000000  1
  Ba  Ba11  1  0.32086260  0.50000000  0.25000000  1
  Dy  Dy12  1  0.74864945  0.75291747  0.91075055  1
  Dy  Dy13  1  0.25135055  0.24708253  0.08924945  1
  Dy  Dy14  1  0.74864945  0.24708253  0.58924945  1
  Dy  Dy15  1  0.25135055  0.75291747  0.41075055  1
  Al  Al16  1  0.74777237  0.75236608  0.55576422  1
  Al  Al17  1  0.25222763  0.24763392  0.44423578  1
  Al  Al18  1  0.74777237  0.24763392  0.94423578  1
  Al  Al19  1  0.25222763  0.75236608  0.05576422  1
  Al  Al20  1  0.76709185  0.77929732  0.26841272  1
  Al  Al21  1  0.23290815  0.22070268  0.73158728  1
  Al  Al22  1  0.76709185  0.22070268  0.23158728  1
  Al  Al23  1  0.23290815  0.77929732  0.76841272  1
  O  O24  1  0.20856744  -0.00000000  0.75000000  1
  O  O25  1  0.79143256  -0.00000000  0.25000000  1
  O  O26  1  0.49983814  0.76436883  0.00120017  1
  O  O27  1  0.50016186  0.23563117  0.99879983  1
  O  O28  1  0.49983814  0.23563117  0.49879983  1
  O  O29  1  0.50016186  0.76436883  0.50120017  1
  O  O30  1  0.76119071  0.94302261  0.60568829  1
  O  O31  1  0.23880929  0.05697739  0.39431171  1
  O  O32  1  0.76119071  0.05697739  0.89431171  1
  O  O33  1  0.23880929  0.94302261  0.10568829  1
  O  O34  1  0.01588062  0.76321855  0.99529632  1
  O  O35  1  0.98411938  0.23678145  0.00470368  1
  O  O36  1  0.01588062  0.23678145  0.50470368  1
  O  O37  1  0.98411938  0.76321855  0.49529632  1
  O  O38  1  0.31923598  0.69081379  0.68819041  1
  O  O39  1  0.68076402  0.30918621  0.31180959  1
  O  O40  1  0.31923598  0.30918621  0.81180959  1
  O  O41  1  0.68076402  0.69081379  0.18819041  1
  O  O42  1  0.45482400  0.75633641  0.83312706  1
  O  O43  1  0.54517600  0.24366359  0.16687294  1
  O  O44  1  0.45482400  0.24366359  0.66687294  1
  O  O45  1  0.54517600  0.75633641  0.33312706  1
  O  O46  1  0.97740288  0.72908595  0.81291004  1
  O  O47  1  0.02259712  0.27091405  0.18708996  1
  O  O48  1  0.97740288  0.27091405  0.68708996  1
  O  O49  1  0.02259712  0.72908595  0.31291004  1
  O  O50  1  0.75209956  0.53948606  0.59161196  1
  O  O51  1  0.24790044  0.46051394  0.40838804  1
  O  O52  1  0.75209956  0.46051394  0.90838804  1
  O  O53  1  0.24790044  0.53948606  0.09161196  1
