# generated using pymatgen
data_Ca2P4H11NO18
_symmetry_space_group_name_H-M   'P 1'
_cell_length_a   5.55589291
_cell_length_b   6.16495989
_cell_length_c   12.59732419
_cell_angle_alpha   76.42733745
_cell_angle_beta   84.11372102
_cell_angle_gamma   66.34213600
_symmetry_Int_Tables_number   1
_chemical_formula_structural   Ca2P4H11NO18
_chemical_formula_sum   'Ca2 P4 H11 N1 O18'
_cell_volume   384.16484814
_cell_formula_units_Z   1
loop_
 _symmetry_equiv_pos_site_id
 _symmetry_equiv_pos_as_xyz
  1  'x, y, z'
loop_
 _atom_site_type_symbol
 _atom_site_label
 _atom_site_symmetry_multiplicity
 _atom_site_fract_x
 _atom_site_fract_y
 _atom_site_fract_z
 _atom_site_occupancy
  Ca  Ca0  1  0.00845847  0.29116294  0.89974231  1
  Ca  Ca1  1  0.99947794  0.69529747  0.09990963  1
  P  P2  1  0.50319438  0.20519423  0.09361294  1
  P  P3  1  0.50349452  0.78504216  0.90441263  1
  P  P4  1  0.80081094  0.41076356  0.36209328  1
  P  P5  1  0.15234365  0.61322706  0.63862075  1
  H  H6  1  0.96899128  0.06519854  0.70557766  1
  H  H7  1  0.02621499  0.94222120  0.28486101  1
  H  H8  1  0.37771641  0.92223659  0.19934563  1
  H  H9  1  0.62607160  0.07208743  0.79778468  1
  H  H10  1  0.98269226  0.49389230  0.50579854  1
  H  H11  1  0.03229594  0.97487584  0.53046317  1
  H  H12  1  0.75563675  0.32216326  0.69946013  1
  H  H13  1  0.26543590  0.69427725  0.30559276  1
  H  H14  1  0.62256888  0.40696249  0.19050176  1
  H  H15  1  0.37905871  0.58577637  0.80826352  1
  H  H16  1  0.46883536  0.50709730  0.51613821  1
  N  N17  1  0.63764500  0.04876533  0.40975987  1
  O  O18  1  0.52369986  0.54826916  0.39515064  1
  O  O19  1  0.43509068  0.47239052  0.59889444  1
  O  O20  1  0.84446820  0.10906855  0.40810103  1
  O  O21  1  0.09989140  0.89378739  0.60436962  1
  O  O22  1  0.53866073  0.95449662  0.17260535  1
  O  O23  1  0.46791013  0.03520283  0.82491638  1
  O  O24  1  0.46118881  0.39656313  0.16492009  1
  O  O25  1  0.54208539  0.59453661  0.83279343  1
  O  O26  1  0.25203807  0.31244872  0.03117574  1
  O  O27  1  0.75481769  0.67689739  0.96684029  1
  O  O28  1  0.85467280  0.17486353  0.75188196  1
  O  O29  1  0.14973477  0.82116550  0.24721785  1
  O  O30  1  0.85160017  0.43022255  0.24107071  1
  O  O31  1  0.14549324  0.55745558  0.76103041  1
  O  O32  1  0.76198939  0.14420558  0.03423819  1
  O  O33  1  0.24592049  0.84536432  0.96491937  1
  O  O34  1  0.01680552  0.41607560  0.42284278  1
  O  O35  1  0.94858865  0.56884510  0.58569322  1
