# generated using pymatgen
data_Na3CrO4
_symmetry_space_group_name_H-M   'P 1'
_cell_length_a   5.46474728
_cell_length_b   7.10126316
_cell_length_c   12.09697384
_cell_angle_alpha   90.00000000
_cell_angle_beta   90.00000000
_cell_angle_gamma   90.00000000
_symmetry_Int_Tables_number   1
_chemical_formula_structural   Na3CrO4
_chemical_formula_sum   'Na12 Cr4 O16'
_cell_volume   469.44252831
_cell_formula_units_Z   4
loop_
 _symmetry_equiv_pos_site_id
 _symmetry_equiv_pos_as_xyz
  1  'x, y, z'
loop_
 _atom_site_type_symbol
 _atom_site_label
 _atom_site_symmetry_multiplicity
 _atom_site_fract_x
 _atom_site_fract_y
 _atom_site_fract_z
 _atom_site_occupancy
  Na  Na0  1  0.78711816  0.99492605  0.83674781  1
  Na  Na1  1  0.21288184  0.00507395  0.16325219  1
  Na  Na2  1  0.28711816  0.00507395  0.66325219  1
  Na  Na3  1  0.21288184  0.49492605  0.16325219  1
  Na  Na4  1  0.71288184  0.99492605  0.33674781  1
  Na  Na5  1  0.78711816  0.50507395  0.83674781  1
  Na  Na6  1  0.71288184  0.50507395  0.33674781  1
  Na  Na7  1  0.28711816  0.49492605  0.66325219  1
  Na  Na8  1  0.22728391  0.75000000  0.92564222  1
  Na  Na9  1  0.77271609  0.25000000  0.07435778  1
  Na  Na10  1  0.72728391  0.25000000  0.57435778  1
  Na  Na11  1  0.27271609  0.75000000  0.42564222  1
  Cr  Cr12  1  0.79952322  0.75000000  0.59028055  1
  Cr  Cr13  1  0.20047678  0.25000000  0.40971945  1
  Cr  Cr14  1  0.29952322  0.25000000  0.90971945  1
  Cr  Cr15  1  0.70047678  0.75000000  0.09028055  1
  O  O16  1  0.11061659  0.75000000  0.59595412  1
  O  O17  1  0.88938341  0.25000000  0.40404588  1
  O  O18  1  0.61061659  0.25000000  0.90404588  1
  O  O19  1  0.38938341  0.75000000  0.09595412  1
  O  O20  1  0.70428285  0.54800049  0.65423742  1
  O  O21  1  0.29571715  0.45199951  0.34576258  1
  O  O22  1  0.20428285  0.45199951  0.84576258  1
  O  O23  1  0.29571715  0.04800049  0.34576258  1
  O  O24  1  0.79571715  0.54800049  0.15423742  1
  O  O25  1  0.70428285  0.95199951  0.65423742  1
  O  O26  1  0.79571715  0.95199951  0.15423742  1
  O  O27  1  0.20428285  0.04800049  0.84576258  1
  O  O28  1  0.80031394  0.75000000  0.95635994  1
  O  O29  1  0.19968606  0.25000000  0.04364006  1
  O  O30  1  0.30031394  0.25000000  0.54364006  1
  O  O31  1  0.69968606  0.75000000  0.45635994  1
