# generated using pymatgen
data_BaAl2(SiO4)2
_symmetry_space_group_name_H-M   'P 1'
_cell_length_a   8.65805811
_cell_length_b   9.31826985
_cell_length_c   9.31827040
_cell_angle_alpha   88.97170133
_cell_angle_beta   82.17256342
_cell_angle_gamma   82.17255638
_symmetry_Int_Tables_number   1
_chemical_formula_structural   BaAl2(SiO4)2
_chemical_formula_sum   'Ba4 Al8 Si8 O32'
_cell_volume   737.83659440
_cell_formula_units_Z   4
loop_
 _symmetry_equiv_pos_site_id
 _symmetry_equiv_pos_as_xyz
  1  'x, y, z'
loop_
 _atom_site_type_symbol
 _atom_site_label
 _atom_site_symmetry_multiplicity
 _atom_site_fract_x
 _atom_site_fract_y
 _atom_site_fract_z
 _atom_site_occupancy
  Ba  Ba0  1  0.71813459  0.56443312  0.06446459  1
  Ba  Ba1  1  0.78186541  0.93553541  0.43556688  1
  Ba  Ba2  1  0.28186541  0.43556688  0.93553541  1
  Ba  Ba3  1  0.21813459  0.06446459  0.56443312  1
  Al  Al4  1  0.10910176  0.06616085  0.20016539  1
  Al  Al5  1  0.39089824  0.79983461  0.93383915  1
  Al  Al6  1  0.60910176  0.20016539  0.06616085  1
  Al  Al7  1  0.89089824  0.93383915  0.79983461  1
  Al  Al8  1  0.03420811  0.55076786  0.29597975  1
  Al  Al9  1  0.46579189  0.70402025  0.44923214  1
  Al  Al10  1  0.96579189  0.44923214  0.70402025  1
  Al  Al11  1  0.53420811  0.29597975  0.55076786  1
  Si  Si12  1  0.52540986  0.05894234  0.78870797  1
  Si  Si13  1  0.47459014  0.94105766  0.21129203  1
  Si  Si14  1  0.59827430  0.57270093  0.71021123  1
  Si  Si15  1  0.97459014  0.21129203  0.94105766  1
  Si  Si16  1  0.40172570  0.42729907  0.28978877  1
  Si  Si17  1  0.09827430  0.71021123  0.57270093  1
  Si  Si18  1  0.90172570  0.28978877  0.42729907  1
  Si  Si19  1  0.02540986  0.78870797  0.05894234  1
  O  O20  1  0.98909624  0.08192319  0.82444950  1
  O  O21  1  0.51090376  0.17555050  0.91807681  1
  O  O22  1  0.01090376  0.91807681  0.17555050  1
  O  O23  1  0.48909624  0.82444950  0.08192319  1
  O  O24  1  0.48895765  0.56395338  0.32468533  1
  O  O25  1  0.01104235  0.67531467  0.43604662  1
  O  O26  1  0.51104235  0.43604662  0.67531467  1
  O  O27  1  0.98895765  0.32468533  0.56395338  1
  O  O28  1  0.89727771  0.81842993  0.94699921  1
  O  O29  1  0.60272229  0.05300079  0.18157007  1
  O  O30  1  0.10272129  0.18157007  0.05300079  1
  O  O31  1  0.39727871  0.94699921  0.81842993  1
  O  O32  1  0.40226123  0.31574263  0.42387542  1
  O  O33  1  0.09773877  0.57612458  0.68425737  1
  O  O34  1  0.59773877  0.68425737  0.57612458  1
  O  O35  1  0.90226123  0.42387542  0.31574263  1
  O  O36  1  0.70364193  0.97852617  0.75199873  1
  O  O37  1  0.79635807  0.24800127  0.02147383  1
  O  O38  1  0.29635807  0.02147383  0.24800127  1
  O  O39  1  0.20364193  0.75199873  0.97852617  1
  O  O40  1  0.00278202  0.13859756  0.36223731  1
  O  O41  1  0.49721798  0.63776269  0.86140244  1
  O  O42  1  0.99721798  0.86140244  0.63776269  1
  O  O43  1  0.50278202  0.36223731  0.13859756  1
  O  O44  1  0.47764264  0.14267907  0.64281299  1
  O  O45  1  0.02235736  0.35718701  0.85732093  1
  O  O46  1  0.52235836  0.85732093  0.35718701  1
  O  O47  1  0.97764164  0.64281299  0.14267907  1
  O  O48  1  0.72734190  0.24763422  0.47392834  1
  O  O49  1  0.77265810  0.52607166  0.75236578  1
  O  O50  1  0.27265810  0.75236578  0.52607166  1
  O  O51  1  0.22734190  0.47392834  0.24763422  1
