# generated using pymatgen
data_Lu2PbS4
_symmetry_space_group_name_H-M   'P 1'
_cell_length_a   3.88704826
_cell_length_b   11.92761408
_cell_length_c   14.08429137
_cell_angle_alpha   90.00000000
_cell_angle_beta   90.00000000
_cell_angle_gamma   90.00000000
_symmetry_Int_Tables_number   1
_chemical_formula_structural   Lu2PbS4
_chemical_formula_sum   'Lu8 Pb4 S16'
_cell_volume   652.99298040
_cell_formula_units_Z   4
loop_
 _symmetry_equiv_pos_site_id
 _symmetry_equiv_pos_as_xyz
  1  'x, y, z'
loop_
 _atom_site_type_symbol
 _atom_site_label
 _atom_site_symmetry_multiplicity
 _atom_site_fract_x
 _atom_site_fract_y
 _atom_site_fract_z
 _atom_site_occupancy
  Lu  Lu0  1  0.25000000  0.44098482  0.38767703  1
  Lu  Lu1  1  0.25000000  0.94098482  0.11232297  1
  Lu  Lu2  1  0.75000000  0.55901518  0.61232297  1
  Lu  Lu3  1  0.75000000  0.05901518  0.88767703  1
  Lu  Lu4  1  0.25000000  0.41493442  0.90138712  1
  Lu  Lu5  1  0.25000000  0.91493442  0.59861288  1
  Lu  Lu6  1  0.75000000  0.58506558  0.09861288  1
  Lu  Lu7  1  0.75000000  0.08506558  0.40138712  1
  Pb  Pb8  1  0.25000000  0.76077380  0.33521327  1
  Pb  Pb9  1  0.25000000  0.26077380  0.16478673  1
  Pb  Pb10  1  0.75000000  0.23922620  0.66478673  1
  Pb  Pb11  1  0.75000000  0.73922620  0.83521327  1
  S  S12  1  0.25000000  0.20313818  0.83460688  1
  S  S13  1  0.25000000  0.70313818  0.66539312  1
  S  S14  1  0.75000000  0.79686182  0.16539312  1
  S  S15  1  0.75000000  0.29686182  0.33460688  1
  S  S16  1  0.25000000  0.12403499  0.52967090  1
  S  S17  1  0.25000000  0.62403499  0.97032910  1
  S  S18  1  0.75000000  0.87596501  0.47032910  1
  S  S19  1  0.75000000  0.37596501  0.02967090  1
  S  S20  1  0.25000000  0.03031904  0.28476980  1
  S  S21  1  0.25000000  0.53031904  0.21523020  1
  S  S22  1  0.75000000  0.96968096  0.71523020  1
  S  S23  1  0.75000000  0.46968096  0.78476980  1
  S  S24  1  0.25000000  0.41080602  0.57392085  1
  S  S25  1  0.25000000  0.91080602  0.92607915  1
  S  S26  1  0.75000000  0.58919398  0.42607915  1
  S  S27  1  0.75000000  0.08919398  0.07392085  1
