# generated using pymatgen
data_CsGaO2
_symmetry_space_group_name_H-M   'P 1'
_cell_length_a   5.84362056
_cell_length_b   11.73080346
_cell_length_c   16.69410231
_cell_angle_alpha   90.00000000
_cell_angle_beta   90.00000000
_cell_angle_gamma   90.00000000
_symmetry_Int_Tables_number   1
_chemical_formula_structural   CsGaO2
_chemical_formula_sum   'Cs16 Ga16 O32'
_cell_volume   1144.38679475
_cell_formula_units_Z   16
loop_
 _symmetry_equiv_pos_site_id
 _symmetry_equiv_pos_as_xyz
  1  'x, y, z'
loop_
 _atom_site_type_symbol
 _atom_site_label
 _atom_site_symmetry_multiplicity
 _atom_site_fract_x
 _atom_site_fract_y
 _atom_site_fract_z
 _atom_site_occupancy
  Cs  Cs0  1  0.29118804  0.25704225  0.18707163  1
  Cs  Cs1  1  0.70881196  0.74295775  0.81292837  1
  Cs  Cs2  1  0.20881196  0.74295775  0.68707163  1
  Cs  Cs3  1  0.70881196  0.75704225  0.31292837  1
  Cs  Cs4  1  0.79118804  0.25704225  0.31292837  1
  Cs  Cs5  1  0.29118804  0.24295775  0.68707163  1
  Cs  Cs6  1  0.79118804  0.24295775  0.81292837  1
  Cs  Cs7  1  0.20881196  0.75704225  0.18707163  1
  Cs  Cs8  1  0.25138063  0.00792584  0.06283732  1
  Cs  Cs9  1  0.74861937  0.99207416  0.93716268  1
  Cs  Cs10  1  0.24861937  0.99207416  0.56283732  1
  Cs  Cs11  1  0.74861937  0.50792584  0.43716268  1
  Cs  Cs12  1  0.75138063  0.00792584  0.43716268  1
  Cs  Cs13  1  0.25138063  0.49207416  0.56283732  1
  Cs  Cs14  1  0.75138063  0.49207416  0.93716268  1
  Cs  Cs15  1  0.24861937  0.50792584  0.06283732  1
  Ga  Ga16  1  0.25391543  0.00442266  0.31210919  1
  Ga  Ga17  1  0.74608457  0.99557734  0.68789081  1
  Ga  Ga18  1  0.24608457  0.99557734  0.81210919  1
  Ga  Ga19  1  0.74608457  0.50442266  0.18789081  1
  Ga  Ga20  1  0.75391543  0.00442266  0.18789081  1
  Ga  Ga21  1  0.25391543  0.49557734  0.81210919  1
  Ga  Ga22  1  0.75391543  0.49557734  0.68789081  1
  Ga  Ga23  1  0.24608457  0.50442266  0.31210919  1
  Ga  Ga24  1  0.27738509  0.25672942  0.43724794  1
  Ga  Ga25  1  0.72261491  0.74327058  0.56275206  1
  Ga  Ga26  1  0.22261491  0.74327058  0.93724794  1
  Ga  Ga27  1  0.72261491  0.75672942  0.06275206  1
  Ga  Ga28  1  0.77738509  0.25672942  0.06275206  1
  Ga  Ga29  1  0.27738509  0.24327058  0.93724794  1
  Ga  Ga30  1  0.77738509  0.24327058  0.56275206  1
  Ga  Ga31  1  0.22261491  0.75672942  0.43724794  1
  O  O32  1  0.03809405  0.48757124  0.22917279  1
  O  O33  1  0.96190595  0.51242876  0.77082721  1
  O  O34  1  0.46190595  0.51242876  0.72917279  1
  O  O35  1  0.96190595  0.98757124  0.27082721  1
  O  O36  1  0.53809405  0.48757124  0.27082721  1
  O  O37  1  0.03809405  0.01242876  0.72917279  1
  O  O38  1  0.53809405  0.01242876  0.77082721  1
  O  O39  1  0.46190595  0.98757124  0.22917279  1
  O  O40  1  0.06001466  0.27665538  0.01442087  1
  O  O41  1  0.93998534  0.72334462  0.98557913  1
  O  O42  1  0.43998534  0.72334462  0.51442087  1
  O  O43  1  0.93998534  0.77665538  0.48557913  1
  O  O44  1  0.56001466  0.27665538  0.48557913  1
  O  O45  1  0.06001466  0.22334462  0.51442087  1
  O  O46  1  0.56001466  0.22334462  0.98557913  1
  O  O47  1  0.43998534  0.77665538  0.01442087  1
  O  O48  1  0.29515630  0.14644599  0.35837533  1
  O  O49  1  0.70484370  0.85355401  0.64162467  1
  O  O50  1  0.20484370  0.85355401  0.85837533  1
  O  O51  1  0.70484370  0.64644599  0.14162467  1
  O  O52  1  0.79515630  0.14644599  0.14162467  1
  O  O53  1  0.29515630  0.35355401  0.85837533  1
  O  O54  1  0.79515630  0.35355401  0.64162467  1
  O  O55  1  0.20484370  0.64644599  0.35837533  1
  O  O56  1  0.19754811  0.39408010  0.38955178  1
  O  O57  1  0.80245189  0.60591990  0.61044822  1
  O  O58  1  0.30245189  0.60591990  0.88955178  1
  O  O59  1  0.80245189  0.89408010  0.11044822  1
  O  O60  1  0.69754811  0.39408010  0.11044822  1
  O  O61  1  0.19754811  0.10591990  0.88955178  1
  O  O62  1  0.69754811  0.10591990  0.61044822  1
  O  O63  1  0.30245189  0.89408010  0.38955178  1
