# generated using pymatgen
data_Cs2RuO4
_symmetry_space_group_name_H-M   'P 1'
_cell_length_a   6.47080269
_cell_length_b   8.51285019
_cell_length_c   11.48954890
_cell_angle_alpha   90.00000000
_cell_angle_beta   90.00000000
_cell_angle_gamma   90.00000000
_symmetry_Int_Tables_number   1
_chemical_formula_structural   Cs2RuO4
_chemical_formula_sum   'Cs8 Ru4 O16'
_cell_volume   632.90150138
_cell_formula_units_Z   4
loop_
 _symmetry_equiv_pos_site_id
 _symmetry_equiv_pos_as_xyz
  1  'x, y, z'
loop_
 _atom_site_type_symbol
 _atom_site_label
 _atom_site_symmetry_multiplicity
 _atom_site_fract_x
 _atom_site_fract_y
 _atom_site_fract_z
 _atom_site_occupancy
  Cs  Cs0  1  0.25000000  0.66299717  0.58461131  1
  Cs  Cs1  1  0.75000000  0.33700283  0.41538869  1
  Cs  Cs2  1  0.25000000  0.16299717  0.91538869  1
  Cs  Cs3  1  0.75000000  0.83700283  0.08461131  1
  Cs  Cs4  1  0.75000000  0.00865264  0.70382431  1
  Cs  Cs5  1  0.25000000  0.99134736  0.29617569  1
  Cs  Cs6  1  0.75000000  0.50865264  0.79617569  1
  Cs  Cs7  1  0.25000000  0.49134736  0.20382431  1
  Ru  Ru8  1  0.75000000  0.27619886  0.07912801  1
  Ru  Ru9  1  0.25000000  0.72380114  0.92087199  1
  Ru  Ru10  1  0.75000000  0.77619886  0.42087199  1
  Ru  Ru11  1  0.25000000  0.22380114  0.57912801  1
  O  O12  1  0.97392753  0.70077627  0.35074047  1
  O  O13  1  0.47392753  0.29922373  0.64925953  1
  O  O14  1  0.52607247  0.20077627  0.14925953  1
  O  O15  1  0.02607247  0.79922373  0.85074047  1
  O  O16  1  0.02607247  0.29922373  0.64925953  1
  O  O17  1  0.52607247  0.70077627  0.35074047  1
  O  O18  1  0.47392753  0.79922373  0.85074047  1
  O  O19  1  0.97392753  0.20077627  0.14925953  1
  O  O20  1  0.25000000  0.01622902  0.58040238  1
  O  O21  1  0.75000000  0.98377098  0.41959762  1
  O  O22  1  0.25000000  0.51622902  0.91959762  1
  O  O23  1  0.75000000  0.48377098  0.08040238  1
  O  O24  1  0.75000000  0.20015967  0.93431988  1
  O  O25  1  0.25000000  0.79984033  0.06568012  1
  O  O26  1  0.75000000  0.70015967  0.56568012  1
  O  O27  1  0.25000000  0.29984033  0.43431988  1
