# generated using pymatgen
data_Ga2Sn2S5
_symmetry_space_group_name_H-M   'P 1'
_cell_length_a   6.32470912
_cell_length_b   10.96325871
_cell_length_c   12.56695288
_cell_angle_alpha   90.00000000
_cell_angle_beta   90.00000000
_cell_angle_gamma   90.00000000
_symmetry_Int_Tables_number   1
_chemical_formula_structural   Ga2Sn2S5
_chemical_formula_sum   'Ga8 Sn8 S20'
_cell_volume   871.38525337
_cell_formula_units_Z   4
loop_
 _symmetry_equiv_pos_site_id
 _symmetry_equiv_pos_as_xyz
  1  'x, y, z'
loop_
 _atom_site_type_symbol
 _atom_site_label
 _atom_site_symmetry_multiplicity
 _atom_site_fract_x
 _atom_site_fract_y
 _atom_site_fract_z
 _atom_site_occupancy
  Ga  Ga0  1  0.64362469  0.11505813  0.76803044  1
  Ga  Ga1  1  0.35637531  0.61505813  0.23196956  1
  Ga  Ga2  1  0.85637531  0.11505813  0.26803044  1
  Ga  Ga3  1  0.14362469  0.61505813  0.73196956  1
  Ga  Ga4  1  0.15030350  0.28139707  0.81872438  1
  Ga  Ga5  1  0.84969650  0.78139707  0.18127562  1
  Ga  Ga6  1  0.34969650  0.28139707  0.31872438  1
  Ga  Ga7  1  0.65030350  0.78139707  0.68127562  1
  Sn  Sn8  1  0.54769650  0.48259836  0.54005288  1
  Sn  Sn9  1  0.45230350  0.98259836  0.45994712  1
  Sn  Sn10  1  0.95230350  0.48259836  0.04005288  1
  Sn  Sn11  1  0.04769650  0.98259836  0.95994712  1
  Sn  Sn12  1  0.55204107  0.25521223  0.01972931  1
  Sn  Sn13  1  0.44795893  0.75521223  0.98027069  1
  Sn  Sn14  1  0.94795893  0.25521223  0.51972931  1
  Sn  Sn15  1  0.05204107  0.75521223  0.48027069  1
  S  S16  1  0.47712584  0.96588329  0.67170464  1
  S  S17  1  0.52287416  0.46588329  0.32829536  1
  S  S18  1  0.02287416  0.96588329  0.17170464  1
  S  S19  1  0.97712584  0.46588329  0.82829536  1
  S  S20  1  0.50838911  0.80156037  0.22791645  1
  S  S21  1  0.49161089  0.30156037  0.77208355  1
  S  S22  1  0.99161089  0.80156037  0.72791645  1
  S  S23  1  0.00838911  0.30156037  0.27208355  1
  S  S24  1  0.14423765  0.53829683  0.56142657  1
  S  S25  1  0.85576235  0.03829683  0.43857343  1
  S  S26  1  0.35576235  0.53829683  0.06142657  1
  S  S27  1  0.64423765  0.03829683  0.93857343  1
  S  S28  1  0.64242255  0.72106453  0.50627180  1
  S  S29  1  0.35757745  0.22106453  0.49372820  1
  S  S30  1  0.85757745  0.72106453  0.00627180  1
  S  S31  1  0.14242255  0.22106453  0.99372820  1
  S  S32  1  0.98725403  0.13932619  0.71246943  1
  S  S33  1  0.01274597  0.63932619  0.28753057  1
  S  S34  1  0.51274597  0.13932619  0.21246943  1
  S  S35  1  0.48725403  0.63932619  0.78753057  1
