# generated using pymatgen
data_CaCO3
_symmetry_space_group_name_H-M   'P 1'
_cell_length_a   7.12538187
_cell_length_b   7.12538187
_cell_length_c   9.41390244
_cell_angle_alpha   68.34036705
_cell_angle_beta   68.34036705
_cell_angle_gamma   60.54706716
_symmetry_Int_Tables_number   1
_chemical_formula_structural   CaCO3
_chemical_formula_sum   'Ca6 C6 O18'
_cell_volume   376.26074989
_cell_formula_units_Z   6
loop_
 _symmetry_equiv_pos_site_id
 _symmetry_equiv_pos_as_xyz
  1  'x, y, z'
loop_
 _atom_site_type_symbol
 _atom_site_label
 _atom_site_symmetry_multiplicity
 _atom_site_fract_x
 _atom_site_fract_y
 _atom_site_fract_z
 _atom_site_occupancy
  Ca  Ca0  1  0.00000000  0.50000000  0.50000000  1
  Ca  Ca1  1  0.50000000  0.00000000  -0.00000000  1
  Ca  Ca2  1  0.19723481  0.65290023  0.99919240  1
  Ca  Ca3  1  0.34709977  0.80276519  0.50080760  1
  Ca  Ca4  1  0.80276519  0.34709977  0.00080760  1
  Ca  Ca5  1  0.65290023  0.19723481  0.49919240  1
  C  C6  1  0.20653408  0.41271764  0.76572834  1
  C  C7  1  0.58728236  0.79346592  0.73427166  1
  C  C8  1  0.79346592  0.58728236  0.23427166  1
  C  C9  1  0.41271764  0.20653408  0.26572834  1
  C  C10  1  0.95133188  0.04866812  0.75000000  1
  C  C11  1  0.04866812  0.95133188  0.25000000  1
  O  O12  1  0.34546596  0.45515730  0.63891010  1
  O  O13  1  0.54484270  0.65453404  0.86108990  1
  O  O14  1  0.65453404  0.54484270  0.36108990  1
  O  O15  1  0.45515730  0.34546596  0.13891010  1
  O  O16  1  0.24084863  0.36130951  0.90360166  1
  O  O17  1  0.63869049  0.75915137  0.59639834  1
  O  O18  1  0.75915137  0.63869049  0.09639834  1
  O  O19  1  0.36130951  0.24084863  0.40360166  1
  O  O20  1  0.81942193  0.09042927  0.88321271  1
  O  O21  1  0.90957073  0.18057807  0.61678729  1
  O  O22  1  0.18057807  0.90957073  0.11678729  1
  O  O23  1  0.09042927  0.81942193  0.38321271  1
  O  O24  1  0.02671621  0.42177828  0.75566672  1
  O  O25  1  0.57822172  0.97328379  0.74433328  1
  O  O26  1  0.97328379  0.57822172  0.24433328  1
  O  O27  1  0.42177828  0.02671621  0.25566672  1
  O  O28  1  0.13093714  0.86906286  0.75000000  1
  O  O29  1  0.86906286  0.13093714  0.25000000  1
