# generated using pymatgen
data_LaN2Cl5
_symmetry_space_group_name_H-M   'P 1'
_cell_length_a   8.04215479
_cell_length_b   8.83113409
_cell_length_c   12.44257628
_cell_angle_alpha   90.00000000
_cell_angle_beta   90.00000000
_cell_angle_gamma   90.00000000
_symmetry_Int_Tables_number   1
_chemical_formula_structural   LaN2Cl5
_chemical_formula_sum   'La4 N8 Cl20'
_cell_volume   883.68853158
_cell_formula_units_Z   4
loop_
 _symmetry_equiv_pos_site_id
 _symmetry_equiv_pos_as_xyz
  1  'x, y, z'
loop_
 _atom_site_type_symbol
 _atom_site_label
 _atom_site_symmetry_multiplicity
 _atom_site_fract_x
 _atom_site_fract_y
 _atom_site_fract_z
 _atom_site_occupancy
  La  La0  1  0.25000000  0.49039694  0.90587026  1
  La  La1  1  0.75000000  0.50960306  0.09412974  1
  La  La2  1  0.75000000  0.00960306  0.40587026  1
  La  La3  1  0.25000000  0.99039694  0.59412974  1
  N  N4  1  0.54665468  0.99400103  0.03235290  1
  N  N5  1  0.45334532  0.00599897  0.96764710  1
  N  N6  1  0.45334532  0.50599897  0.53235290  1
  N  N7  1  0.04665468  0.00599897  0.96764710  1
  N  N8  1  0.54665468  0.49400103  0.46764710  1
  N  N9  1  0.95334532  0.99400103  0.03235290  1
  N  N10  1  0.95334532  0.49400103  0.46764710  1
  N  N11  1  0.04665468  0.50599897  0.53235290  1
  Cl  Cl12  1  0.25000000  0.72574065  0.17414770  1
  Cl  Cl13  1  0.75000000  0.27425935  0.82585230  1
  Cl  Cl14  1  0.75000000  0.77425935  0.67414770  1
  Cl  Cl15  1  0.25000000  0.22574065  0.32585230  1
  Cl  Cl16  1  0.54360118  0.65252611  0.93569527  1
  Cl  Cl17  1  0.45639882  0.34747389  0.06430473  1
  Cl  Cl18  1  0.45639882  0.84747389  0.43569527  1
  Cl  Cl19  1  0.04360118  0.34747389  0.06430473  1
  Cl  Cl20  1  0.54360118  0.15252611  0.56430473  1
  Cl  Cl21  1  0.95639882  0.65252611  0.93569527  1
  Cl  Cl22  1  0.95639882  0.15252611  0.56430473  1
  Cl  Cl23  1  0.04360118  0.84747389  0.43569527  1
  Cl  Cl24  1  0.25000000  0.44823348  0.30067049  1
  Cl  Cl25  1  0.75000000  0.55176652  0.69932951  1
  Cl  Cl26  1  0.75000000  0.05176652  0.80067049  1
  Cl  Cl27  1  0.25000000  0.94823348  0.19932951  1
  Cl  Cl28  1  0.25000000  0.75126860  0.73417090  1
  Cl  Cl29  1  0.75000000  0.24873140  0.26582910  1
  Cl  Cl30  1  0.75000000  0.74873140  0.23417090  1
  Cl  Cl31  1  0.25000000  0.25126860  0.76582910  1
