# generated using pymatgen
data_CsTmZnTe3
_symmetry_space_group_name_H-M   'P 1'
_cell_length_a   4.38728985
_cell_length_b   8.83805845
_cell_length_c   11.60971738
_cell_angle_alpha   90.00000000
_cell_angle_beta   90.00000000
_cell_angle_gamma   104.37127946
_symmetry_Int_Tables_number   1
_chemical_formula_structural   CsTmZnTe3
_chemical_formula_sum   'Cs2 Tm2 Zn2 Te6'
_cell_volume   436.08143298
_cell_formula_units_Z   2
loop_
 _symmetry_equiv_pos_site_id
 _symmetry_equiv_pos_as_xyz
  1  'x, y, z'
loop_
 _atom_site_type_symbol
 _atom_site_label
 _atom_site_symmetry_multiplicity
 _atom_site_fract_x
 _atom_site_fract_y
 _atom_site_fract_z
 _atom_site_occupancy
  Cs  Cs0  1  0.74616823  0.49233646  0.25000000  1
  Cs  Cs1  1  0.25383177  0.50766354  0.75000000  1
  Tm  Tm2  1  0.00000000  0.00000000  0.50000000  1
  Tm  Tm3  1  0.00000000  0.00000000  0.00000000  1
  Zn  Zn4  1  0.46195315  0.92390630  0.25000000  1
  Zn  Zn5  1  0.53804685  0.07609370  0.75000000  1
  Te  Te6  1  0.38164700  0.76329400  0.44368952  1
  Te  Te7  1  0.61835300  0.23670600  0.55631048  1
  Te  Te8  1  0.38164700  0.76329400  0.05631048  1
  Te  Te9  1  0.61835300  0.23670600  0.94368952  1
  Te  Te10  1  0.05785999  0.11571998  0.25000000  1
  Te  Te11  1  0.94214001  0.88428002  0.75000000  1
