# generated using pymatgen
data_BaSrHfZrO6
_symmetry_space_group_name_H-M   'P 1'
_cell_length_a   5.91783882
_cell_length_b   5.91811344
_cell_length_c   8.36991718
_cell_angle_alpha   90.00000000
_cell_angle_beta   89.98661634
_cell_angle_gamma   90.00000000
_symmetry_Int_Tables_number   1
_chemical_formula_structural   BaSrHfZrO6
_chemical_formula_sum   'Ba2 Sr2 Hf2 Zr2 O12'
_cell_volume   293.13492635
_cell_formula_units_Z   2
loop_
 _symmetry_equiv_pos_site_id
 _symmetry_equiv_pos_as_xyz
  1  'x, y, z'
loop_
 _atom_site_type_symbol
 _atom_site_label
 _atom_site_symmetry_multiplicity
 _atom_site_fract_x
 _atom_site_fract_y
 _atom_site_fract_z
 _atom_site_occupancy
  Ba  Ba0  1  0.24621133  0.49309373  0.49994749  1
  Ba  Ba1  1  0.75378867  0.99309373  0.50005251  1
  Sr  Sr2  1  0.24813755  0.51044319  0.00008574  1
  Sr  Sr3  1  0.75186245  0.01044319  0.99991426  1
  Hf  Hf4  1  0.75032165  0.50032524  0.75466891  1
  Hf  Hf5  1  0.24967835  0.00032524  0.24533109  1
  Zr  Zr6  1  0.24968483  0.00032768  0.75482955  1
  Zr  Zr7  1  0.75031517  0.50032768  0.24517045  1
  O  O8  1  0.97910188  0.23260422  0.73607415  1
  O  O9  1  0.02089812  0.73260422  0.26392585  1
  O  O10  1  0.52180156  0.76799639  0.78078705  1
  O  O11  1  0.47819844  0.26799639  0.21921295  1
  O  O12  1  0.01720101  0.72923310  0.73607894  1
  O  O13  1  0.98279899  0.22923310  0.26392106  1
  O  O14  1  0.48216827  0.27169842  0.78080515  1
  O  O15  1  0.51783173  0.77169842  0.21919485  1
  O  O16  1  0.19655323  0.99249058  0.00159772  1
  O  O17  1  0.80344677  0.49249058  0.99840228  1
  O  O18  1  0.28392046  0.00178746  0.49779566  1
  O  O19  1  0.71607954  0.50178746  0.50220434  1
