# generated using pymatgen
data_Mg3Fe2O5
_symmetry_space_group_name_H-M   'P 1'
_cell_length_a   5.22169875
_cell_length_b   7.73878214
_cell_length_c   5.27625327
_cell_angle_alpha   101.76842592
_cell_angle_beta   79.06163139
_cell_angle_gamma   70.63846779
_symmetry_Int_Tables_number   1
_chemical_formula_structural   Mg3Fe2O5
_chemical_formula_sum   'Mg6 Fe4 O10'
_cell_volume   189.12492977
_cell_formula_units_Z   2
loop_
 _symmetry_equiv_pos_site_id
 _symmetry_equiv_pos_as_xyz
  1  'x, y, z'
loop_
 _atom_site_type_symbol
 _atom_site_label
 _atom_site_symmetry_multiplicity
 _atom_site_fract_x
 _atom_site_fract_y
 _atom_site_fract_z
 _atom_site_occupancy
  Mg  Mg0  1  0.79985238  0.39974916  0.99968390  1
  Mg  Mg1  1  0.79991641  0.89977177  0.49961739  1
  Mg  Mg2  1  0.99692091  0.99854106  0.99949701  1
  Mg  Mg3  1  0.99691205  0.49852198  0.49977604  1
  Mg  Mg4  1  0.60284181  0.30047748  0.49947562  1
  Mg  Mg5  1  0.60286280  0.80040800  -0.00043376  1
  Fe  Fe6  1  0.21658111  0.56989723  0.99461736  1
  Fe  Fe7  1  0.38227302  0.22872600  0.00460087  1
  Fe  Fe8  1  0.21650074  0.07012509  0.49456852  1
  Fe  Fe9  1  0.38210447  0.72900103  0.50456608  1
  O  O10  1  0.79931130  0.14945858  0.74951867  1
  O  O11  1  0.79922964  0.64957630  0.24978616  1
  O  O12  1  0.19244483  0.34363397  0.72853082  1
  O  O13  1  0.19209708  0.84401569  0.22869911  1
  O  O14  1  0.40633032  0.45499979  0.27046478  1
  O  O15  1  0.40654717  0.95494809  0.77036236  1
  O  O16  1  0.99305694  0.25114390  0.24375913  1
  O  O17  1  0.99328690  0.75108661  0.74403226  1
  O  O18  1  0.60522466  0.04791224  0.25512353  1
  O  O19  1  0.60558544  0.54769304  0.75541416  1
