# generated using pymatgen
data_Ba2ZnS3
_symmetry_space_group_name_H-M   'P 1'
_cell_length_a   4.28105556
_cell_length_b   8.87812429
_cell_length_c   17.17383568
_cell_angle_alpha   90.00000000
_cell_angle_beta   90.00000000
_cell_angle_gamma   90.00000000
_symmetry_Int_Tables_number   1
_chemical_formula_structural   Ba2ZnS3
_chemical_formula_sum   'Ba8 Zn4 S12'
_cell_volume   652.73873893
_cell_formula_units_Z   4
loop_
 _symmetry_equiv_pos_site_id
 _symmetry_equiv_pos_as_xyz
  1  'x, y, z'
loop_
 _atom_site_type_symbol
 _atom_site_label
 _atom_site_symmetry_multiplicity
 _atom_site_fract_x
 _atom_site_fract_y
 _atom_site_fract_z
 _atom_site_occupancy
  Ba  Ba0  1  0.75000000  0.75186988  0.95569685  1
  Ba  Ba1  1  0.75000000  0.25186988  0.54430315  1
  Ba  Ba2  1  0.25000000  0.24813012  0.04430315  1
  Ba  Ba3  1  0.25000000  0.74813012  0.45569685  1
  Ba  Ba4  1  0.25000000  0.58148647  0.71310582  1
  Ba  Ba5  1  0.25000000  0.08148647  0.78689418  1
  Ba  Ba6  1  0.75000000  0.41851353  0.28689418  1
  Ba  Ba7  1  0.75000000  0.91851353  0.21310582  1
  Zn  Zn8  1  0.75000000  0.36422556  0.86483803  1
  Zn  Zn9  1  0.75000000  0.86422556  0.63516197  1
  Zn  Zn10  1  0.25000000  0.63577444  0.13516197  1
  Zn  Zn11  1  0.25000000  0.13577444  0.36483803  1
  S  S12  1  0.75000000  0.32020194  0.72970215  1
  S  S13  1  0.75000000  0.82020194  0.77029785  1
  S  S14  1  0.25000000  0.67979806  0.27029785  1
  S  S15  1  0.25000000  0.17979806  0.22970215  1
  S  S16  1  0.75000000  0.13086608  0.92794975  1
  S  S17  1  0.75000000  0.63086608  0.57205025  1
  S  S18  1  0.25000000  0.86913392  0.07205025  1
  S  S19  1  0.25000000  0.36913392  0.42794975  1
  S  S20  1  0.25000000  0.49055751  0.89783691  1
  S  S21  1  0.25000000  0.99055751  0.60216309  1
  S  S22  1  0.75000000  0.50944249  0.10216309  1
  S  S23  1  0.75000000  0.00944249  0.39783691  1
