# generated using pymatgen
data_PrVO3
_symmetry_space_group_name_H-M   'P 1'
_cell_length_a   5.48384877
_cell_length_b   5.49925769
_cell_length_c   7.94591615
_cell_angle_alpha   90.00000000
_cell_angle_beta   90.00000000
_cell_angle_gamma   90.00000000
_symmetry_Int_Tables_number   1
_chemical_formula_structural   PrVO3
_chemical_formula_sum   'Pr4 V4 O12'
_cell_volume   239.62576822
_cell_formula_units_Z   4
loop_
 _symmetry_equiv_pos_site_id
 _symmetry_equiv_pos_as_xyz
  1  'x, y, z'
loop_
 _atom_site_type_symbol
 _atom_site_label
 _atom_site_symmetry_multiplicity
 _atom_site_fract_x
 _atom_site_fract_y
 _atom_site_fract_z
 _atom_site_occupancy
  Pr  Pr0  1  0.00666457  0.45948922  0.25000000  1
  Pr  Pr1  1  0.99333543  0.54051078  0.75000000  1
  Pr  Pr2  1  0.50666457  0.04051078  0.75000000  1
  Pr  Pr3  1  0.49333543  0.95948922  0.25000000  1
  V  V4  1  0.00000000  -0.00000000  -0.00000000  1
  V  V5  1  0.50000000  0.50000000  -0.00000000  1
  V  V6  1  0.00000000  -0.00000000  0.50000000  1
  V  V7  1  0.50000000  0.50000000  0.50000000  1
  O  O8  1  0.28780811  0.21221480  0.04392389  1
  O  O9  1  0.71219189  0.78778520  0.95607611  1
  O  O10  1  0.78780811  0.28778520  0.95607611  1
  O  O11  1  0.71219189  0.78778520  0.54392389  1
  O  O12  1  0.21219189  0.71221480  0.04392389  1
  O  O13  1  0.28780811  0.21221480  0.45607611  1
  O  O14  1  0.21219189  0.71221480  0.45607611  1
  O  O15  1  0.78780811  0.28778520  0.54392389  1
  O  O16  1  0.58133550  0.51999278  0.25000000  1
  O  O17  1  0.41866450  0.48000722  0.75000000  1
  O  O18  1  0.08133550  0.98000722  0.75000000  1
  O  O19  1  0.91866450  0.01999278  0.25000000  1
