# generated using pymatgen
data_K3SmSi2O7
_symmetry_space_group_name_H-M   'P 1'
_cell_length_a   10.07876209
_cell_length_b   10.07875259
_cell_length_c   14.64007326
_cell_angle_alpha   90.00000000
_cell_angle_beta   90.00000000
_cell_angle_gamma   120.00002435
_symmetry_Int_Tables_number   1
_chemical_formula_structural   K3SmSi2O7
_chemical_formula_sum   'K18 Sm6 Si12 O42'
_cell_volume   1287.91663661
_cell_formula_units_Z   6
loop_
 _symmetry_equiv_pos_site_id
 _symmetry_equiv_pos_as_xyz
  1  'x, y, z'
loop_
 _atom_site_type_symbol
 _atom_site_label
 _atom_site_symmetry_multiplicity
 _atom_site_fract_x
 _atom_site_fract_y
 _atom_site_fract_z
 _atom_site_occupancy
  K  K0  1  0.33087477  1.00000000  0.59061714  1
  K  K1  1  0.66912118  0.66912285  0.59061586  1
  K  K2  1  0.99999833  0.33087715  0.59061586  1
  K  K3  1  0.66912480  0.00000000  0.40938456  1
  K  K4  1  0.33087557  0.33088029  0.40938326  1
  K  K5  1  0.99999528  0.66911971  0.40938326  1
  K  K6  1  0.66912523  0.00000000  0.09061714  1
  K  K7  1  0.33087882  0.33087715  0.09061586  1
  K  K8  1  0.00000167  0.66912285  0.09061586  1
  K  K9  1  0.33087520  1.00000000  0.90938456  1
  K  K10  1  0.66912443  0.66911971  0.90938326  1
  K  K11  1  0.00000472  0.33088029  0.90938326  1
  K  K12  1  0.33329932  0.66669790  0.74999993  1
  K  K13  1  0.66660143  0.33330210  0.74999993  1
  K  K14  1  0.66670068  0.33330210  0.24999993  1
  K  K15  1  0.33339857  0.66669790  0.24999993  1
  K  K16  1  0.99999937  -0.00000000  0.50000007  1
  K  K17  1  0.00000063  0.00000000  0.00000007  1
  Sm  Sm18  1  0.00000076  -0.00000000  0.75000000  1
  Sm  Sm19  1  0.99999924  0.00000000  0.25000000  1
  Sm  Sm20  1  0.33331834  0.66667851  0.49999998  1
  Sm  Sm21  1  0.66663983  0.33332149  0.49999998  1
  Sm  Sm22  1  0.66668166  0.33332149  -0.00000002  1
  Sm  Sm23  1  0.33336017  0.66667851  -0.00000002  1
  Si  Si24  1  0.65950267  0.00000000  0.64326538  1
  Si  Si25  1  0.34049295  0.34050155  0.64326661  1
  Si  Si26  1  0.99999140  0.65949845  0.64326661  1
  Si  Si27  1  0.34049408  1.00000000  0.35673103  1
  Si  Si28  1  0.65950032  0.65950206  0.35673521  1
  Si  Si29  1  0.99999826  0.34049794  0.35673521  1
  Si  Si30  1  0.34049733  1.00000000  0.14326538  1
  Si  Si31  1  0.65950705  0.65949845  0.14326661  1
  Si  Si32  1  0.00000860  0.34050155  0.14326661  1
  Si  Si33  1  0.65950592  0.00000000  0.85673103  1
  Si  Si34  1  0.34049968  0.34049794  0.85673521  1
  Si  Si35  1  0.00000174  0.65950206  0.85673521  1
  O  O36  1  0.67825985  0.52427620  0.40645608  1
  O  O37  1  0.84601264  0.32173743  0.40645682  1
  O  O38  1  0.47571823  0.15397978  0.40645478  1
  O  O39  1  0.15398365  0.47572380  0.40645608  1
  O  O40  1  0.52427521  0.67826257  0.40645682  1
  O  O41  1  0.32173845  0.84602022  0.40645478  1
  O  O42  1  0.32173814  0.47572617  0.59354210  1
  O  O43  1  0.15397989  0.67826389  0.59354610  1
  O  O44  1  0.52427583  0.84601737  0.59354413  1
  O  O45  1  0.84601198  0.52427383  0.59354210  1
  O  O46  1  0.47571600  0.32173611  0.59354610  1
  O  O47  1  0.67825846  0.15398263  0.59354413  1
  O  O48  1  0.32174015  0.47572380  0.90645608  1
  O  O49  1  0.15398736  0.67826257  0.90645682  1
  O  O50  1  0.52428177  0.84602022  0.90645478  1
  O  O51  1  0.84601635  0.52427620  0.90645608  1
  O  O52  1  0.47572479  0.32173743  0.90645682  1
  O  O53  1  0.67826155  0.15397978  0.90645478  1
  O  O54  1  0.67826186  0.52427383  0.09354210  1
  O  O55  1  0.84602011  0.32173611  0.09354610  1
  O  O56  1  0.47572417  0.15398263  0.09354413  1
  O  O57  1  0.15398802  0.47572617  0.09354210  1
  O  O58  1  0.52428400  0.67826389  0.09354610  1
  O  O59  1  0.32174154  0.84601737  0.09354413  1
  O  O60  1  0.82199562  0.00000000  0.64555078  1
  O  O61  1  0.17800454  0.17800312  0.64555050  1
  O  O62  1  0.00000141  0.82199688  0.64555050  1
  O  O63  1  0.17800300  1.00000000  0.35444985  1
  O  O64  1  0.82199535  0.82199501  0.35444925  1
  O  O65  1  0.00000034  0.17800499  0.35444925  1
  O  O66  1  0.17800438  1.00000000  0.14555078  1
  O  O67  1  0.82199546  0.82199688  0.14555050  1
  O  O68  1  0.99999859  0.17800312  0.14555050  1
  O  O69  1  0.82199700  0.00000000  0.85444985  1
  O  O70  1  0.17800465  0.17800499  0.85444925  1
  O  O71  1  0.99999966  0.82199501  0.85444925  1
  O  O72  1  0.59665637  1.00000000  0.74999952  1
  O  O73  1  0.40334324  0.40334157  0.75000023  1
  O  O74  1  0.00000167  0.59665843  0.75000023  1
  O  O75  1  0.40334363  0.00000000  0.24999952  1
  O  O76  1  0.59665676  0.59665843  0.25000023  1
  O  O77  1  0.99999833  0.40334157  0.25000023  1
