# generated using pymatgen
data_FeTe3ClO7
_symmetry_space_group_name_H-M   'P 1'
_cell_length_a   7.35581105
_cell_length_b   10.88933777
_cell_length_c   10.91151922
_cell_angle_alpha   68.69728776
_cell_angle_beta   90.00000000
_cell_angle_gamma   90.00000000
_symmetry_Int_Tables_number   1
_chemical_formula_structural   FeTe3ClO7
_chemical_formula_sum   'Fe4 Te12 Cl4 O28'
_cell_volume   814.29402159
_cell_formula_units_Z   4
loop_
 _symmetry_equiv_pos_site_id
 _symmetry_equiv_pos_as_xyz
  1  'x, y, z'
loop_
 _atom_site_type_symbol
 _atom_site_label
 _atom_site_symmetry_multiplicity
 _atom_site_fract_x
 _atom_site_fract_y
 _atom_site_fract_z
 _atom_site_occupancy
  Fe  Fe0  1  0.37069752  0.88226091  0.09048664  1
  Fe  Fe1  1  0.87069752  0.11773909  0.40951336  1
  Fe  Fe2  1  0.62930248  0.11773909  0.90951336  1
  Fe  Fe3  1  0.12930248  0.88226091  0.59048664  1
  Te  Te4  1  0.00817846  0.90122822  0.26752947  1
  Te  Te5  1  0.50817846  0.09877178  0.23247053  1
  Te  Te6  1  0.99182154  0.09877178  0.73247053  1
  Te  Te7  1  0.49182154  0.90122822  0.76752947  1
  Te  Te8  1  0.47354398  0.75719162  0.43734677  1
  Te  Te9  1  0.97354398  0.24280838  0.06265323  1
  Te  Te10  1  0.52645602  0.24280838  0.56265323  1
  Te  Te11  1  0.02645602  0.75719162  0.93734677  1
  Te  Te12  1  0.60082530  0.61935001  0.08246615  1
  Te  Te13  1  0.10082530  0.38064999  0.41753385  1
  Te  Te14  1  0.39917470  0.38064999  0.91753385  1
  Te  Te15  1  0.89917470  0.61935001  0.58246615  1
  Cl  Cl16  1  0.21925998  0.50849189  0.11848062  1
  Cl  Cl17  1  0.71925998  0.49150811  0.38151938  1
  Cl  Cl18  1  0.78074002  0.49150811  0.88151938  1
  Cl  Cl19  1  0.28074002  0.50849189  0.61848062  1
  O  O20  1  0.01093092  0.96022327  0.41092366  1
  O  O21  1  0.51093092  0.03977673  0.08907634  1
  O  O22  1  0.98906908  0.03977673  0.58907634  1
  O  O23  1  0.48906908  0.96022327  0.91092366  1
  O  O24  1  0.26106318  0.86701277  0.26442424  1
  O  O25  1  0.76106318  0.13298723  0.23557576  1
  O  O26  1  0.73893682  0.13298723  0.73557576  1
  O  O27  1  0.23893682  0.86701277  0.76442424  1
  O  O28  1  0.60929689  0.90896437  0.33845525  1
  O  O29  1  0.10929689  0.09103563  0.16154475  1
  O  O30  1  0.39070311  0.09103563  0.66154475  1
  O  O31  1  0.89070311  0.90896437  0.83845525  1
  O  O32  1  0.14355148  0.84596664  0.03354454  1
  O  O33  1  0.64355148  0.15403336  0.46645546  1
  O  O34  1  0.85644852  0.15403336  0.96645546  1
  O  O35  1  0.35644852  0.84596664  0.53354454  1
  O  O36  1  0.50299626  0.72831890  0.16499523  1
  O  O37  1  0.00299626  0.27168110  0.33500477  1
  O  O38  1  0.49700374  0.27168110  0.83500477  1
  O  O39  1  -0.00299626  0.72831890  0.66499523  1
  O  O40  1  0.83078584  0.70832688  0.06775004  1
  O  O41  1  0.33078584  0.29167312  0.43224996  1
  O  O42  1  0.16921416  0.29167312  0.93224996  1
  O  O43  1  0.66921416  0.70832688  0.56775004  1
  O  O44  1  0.50919909  0.71494249  0.91202071  1
  O  O45  1  0.00919909  0.28505751  0.58797929  1
  O  O46  1  0.49080091  0.28505751  0.08797929  1
  O  O47  1  0.99080091  0.71494249  0.41202071  1
