# generated using pymatgen
data_K2FeO4
_symmetry_space_group_name_H-M   'P 1'
_cell_length_a   5.79055205
_cell_length_b   7.63812963
_cell_length_c   10.24409864
_cell_angle_alpha   90.00023606
_cell_angle_beta   89.99991504
_cell_angle_gamma   89.99991892
_symmetry_Int_Tables_number   1
_chemical_formula_structural   K2FeO4
_chemical_formula_sum   'K8 Fe4 O16'
_cell_volume   453.08610749
_cell_formula_units_Z   4
loop_
 _symmetry_equiv_pos_site_id
 _symmetry_equiv_pos_as_xyz
  1  'x, y, z'
loop_
 _atom_site_type_symbol
 _atom_site_label
 _atom_site_symmetry_multiplicity
 _atom_site_fract_x
 _atom_site_fract_y
 _atom_site_fract_z
 _atom_site_occupancy
  K  K0  1  0.25000122  0.51427677  0.80404187  1
  K  K1  1  0.75000388  0.48572059  0.19595639  1
  K  K2  1  0.25000460  0.01429660  0.69595127  1
  K  K3  1  0.75000599  0.98571998  0.30404109  1
  K  K4  1  0.25000207  0.83982453  0.08787317  1
  K  K5  1  0.75000079  0.16018201  0.91212091  1
  K  K6  1  0.74999849  0.66017117  0.58786306  1
  K  K7  1  0.24999936  0.33982281  0.41213804  1
  Fe  Fe8  1  0.25000053  0.26976138  0.07812970  1
  Fe  Fe9  1  0.75000137  0.73023905  0.92187137  1
  Fe  Fe10  1  0.25000203  0.76976058  0.42187242  1
  Fe  Fe11  1  0.75000217  0.23023678  0.57812934  1
  O  O12  1  0.98142682  0.80816855  0.84928841  1
  O  O13  1  0.48143205  0.19182874  0.15071382  1
  O  O14  1  0.51857285  0.30817848  0.65070869  1
  O  O15  1  0.01856726  0.69181684  0.34929232  1
  O  O16  1  0.01856916  0.19182106  0.15071059  1
  O  O17  1  0.51857592  0.80817794  0.84929292  1
  O  O18  1  0.48143542  0.69182788  0.34928701  1
  O  O19  1  0.98143009  0.30816767  0.65071291  1
  O  O20  1  0.25000250  0.19938933  0.92589854  1
  O  O21  1  0.75000279  0.80060743  0.07409753  1
  O  O22  1  0.25000384  0.69938267  0.57410641  1
  O  O23  1  0.75000413  0.30061404  0.42589883  1
  O  O24  1  0.74998820  0.01600975  0.58427941  1
  O  O25  1  0.24998944  0.98399184  0.41572241  1
  O  O26  1  0.24998850  0.48398966  0.08427898  1
  O  O27  1  0.74998851  0.51601488  0.91572159  1
