# generated using pymatgen
data_MgAu4Se4(ClO3)4
_symmetry_space_group_name_H-M   'P 1'
_cell_length_a   4.76063350
_cell_length_b   10.68363287
_cell_length_c   11.13356638
_cell_angle_alpha   89.13488605
_cell_angle_beta   94.40673240
_cell_angle_gamma   88.95191716
_symmetry_Int_Tables_number   1
_chemical_formula_structural   MgAu4Se4(ClO3)4
_chemical_formula_sum   'Mg1 Au4 Se4 Cl4 O12'
_cell_volume   564.41691826
_cell_formula_units_Z   1
loop_
 _symmetry_equiv_pos_site_id
 _symmetry_equiv_pos_as_xyz
  1  'x, y, z'
loop_
 _atom_site_type_symbol
 _atom_site_label
 _atom_site_symmetry_multiplicity
 _atom_site_fract_x
 _atom_site_fract_y
 _atom_site_fract_z
 _atom_site_occupancy
  Mg  Mg0  1  0.53086437  0.13048982  0.02807241  1
  Au  Au1  1  0.06412704  0.61637325  0.18055508  1
  Au  Au2  1  0.08273492  0.93141304  0.89590167  1
  Au  Au3  1  0.89051629  0.37377010  0.85122034  1
  Au  Au4  1  0.98865784  0.01620920  0.48356256  1
  Se  Se5  1  0.71568934  0.88744194  0.22834496  1
  Se  Se6  1  0.08454244  0.66044990  0.89713920  1
  Se  Se7  1  0.00280591  0.30161272  0.15736188  1
  Se  Se8  1  0.22769054  0.15764582  0.72909986  1
  Cl  Cl9  1  0.00736245  0.46778521  0.67712284  1
  Cl  Cl10  1  0.82694243  0.55133409  0.34079294  1
  Cl  Cl11  1  0.19778585  0.20891720  0.45799385  1
  Cl  Cl12  1  0.76635165  0.83037748  0.51441579  1
  O  O13  1  0.67673424  0.97179617  0.09753181  1
  O  O14  1  0.78912734  0.28326959  0.01227541  1
  O  O15  1  0.03597368  0.80291936  0.21411408  1
  O  O16  1  0.26655142  0.20039544  0.13739127  1
  O  O17  1  0.18476481  0.43849379  0.13736231  1
  O  O18  1  0.83466631  0.77797751  0.90898299  1
  O  O19  1  0.28398241  0.66248798  0.03536654  1
  O  O20  1  0.88921579  0.20551769  0.76697124  1
  O  O21  1  0.86245683  0.01729626  0.30717105  1
  O  O22  1  0.83857516  0.54087072  0.92688092  1
  O  O23  1  0.33892993  0.08474431  0.86946766  1
  O  O24  1  0.12683999  0.01791141  0.66275833  1
