# generated using pymatgen
data_Ba2TlF7
_symmetry_space_group_name_H-M   'P 1'
_cell_length_a   5.74415582
_cell_length_b   8.83977686
_cell_length_c   13.10196474
_cell_angle_alpha   90.00000000
_cell_angle_beta   90.00000000
_cell_angle_gamma   89.43437671
_symmetry_Int_Tables_number   1
_chemical_formula_structural   Ba2TlF7
_chemical_formula_sum   'Ba8 Tl4 F28'
_cell_volume   665.24677625
_cell_formula_units_Z   4
loop_
 _symmetry_equiv_pos_site_id
 _symmetry_equiv_pos_as_xyz
  1  'x, y, z'
loop_
 _atom_site_type_symbol
 _atom_site_label
 _atom_site_symmetry_multiplicity
 _atom_site_fract_x
 _atom_site_fract_y
 _atom_site_fract_z
 _atom_site_occupancy
  Ba  Ba0  1  0.25939176  0.94561945  0.72074539  1
  Ba  Ba1  1  0.74060824  0.05438055  0.27925461  1
  Ba  Ba2  1  0.74060824  0.55438055  0.22074539  1
  Ba  Ba3  1  0.25939176  0.44561945  0.77925461  1
  Ba  Ba4  1  0.74258023  0.67509615  0.56247212  1
  Ba  Ba5  1  0.25741977  0.32490385  0.43752788  1
  Ba  Ba6  1  0.25741977  0.82490385  0.06247212  1
  Ba  Ba7  1  0.74258023  0.17509615  0.93752788  1
  Tl  Tl8  1  0.77720406  0.71214900  0.87607313  1
  Tl  Tl9  1  0.22279594  0.28785100  0.12392687  1
  Tl  Tl10  1  0.22279594  0.78785100  0.37607313  1
  Tl  Tl11  1  0.77720406  0.21214900  0.62392687  1
  F  F12  1  0.00620007  0.80120904  0.23300962  1
  F  F13  1  0.99379993  0.19879096  0.76699038  1
  F  F14  1  0.99379993  0.69879096  0.73300962  1
  F  F15  1  0.00620007  0.30120904  0.26699038  1
  F  F16  1  0.71168647  0.96848446  0.64125472  1
  F  F17  1  0.28831353  0.03151554  0.35874528  1
  F  F18  1  0.28831353  0.53151554  0.14125472  1
  F  F19  1  0.71168647  0.46848446  0.85874528  1
  F  F20  1  0.51954331  0.69396602  0.74695532  1
  F  F21  1  0.48045669  0.30603398  0.25304468  1
  F  F22  1  0.48045669  0.80603398  0.24695532  1
  F  F23  1  0.51954331  0.19396602  0.75304468  1
  F  F24  1  0.51895736  0.90480827  0.89582690  1
  F  F25  1  0.48104264  0.09519173  0.10417310  1
  F  F26  1  0.48104264  0.59519173  0.39582690  1
  F  F27  1  0.51895736  0.40480827  0.60417310  1
  F  F28  1  0.87557628  0.87351649  0.42719232  1
  F  F29  1  0.12442372  0.12648351  0.57280768  1
  F  F30  1  0.12442372  0.62648351  0.92719232  1
  F  F31  1  0.87557628  0.37351649  0.07280768  1
  F  F32  1  0.28727219  0.78026057  0.54219209  1
  F  F33  1  0.71272781  0.21973943  0.45780791  1
  F  F34  1  0.71272781  0.71973943  0.04219209  1
  F  F35  1  0.28727219  0.28026057  0.95780791  1
  F  F36  1  0.99351470  0.92173130  0.89528926  1
  F  F37  1  0.00648530  0.07826870  0.10471074  1
  F  F38  1  0.00648530  0.57826870  0.39528926  1
  F  F39  1  0.99351470  0.42173130  0.60471074  1
