# generated using pymatgen
data_MgFe6Sb10(IO3)6
_symmetry_space_group_name_H-M   'P 1'
_cell_length_a   8.26617376
_cell_length_b   9.08603523
_cell_length_c   13.32299594
_cell_angle_alpha   78.49798126
_cell_angle_beta   87.90778378
_cell_angle_gamma   73.85648759
_symmetry_Int_Tables_number   1
_chemical_formula_structural   MgFe6Sb10(IO3)6
_chemical_formula_sum   'Mg1 Fe6 Sb10 I6 O18'
_cell_volume   941.69613241
_cell_formula_units_Z   1
loop_
 _symmetry_equiv_pos_site_id
 _symmetry_equiv_pos_as_xyz
  1  'x, y, z'
loop_
 _atom_site_type_symbol
 _atom_site_label
 _atom_site_symmetry_multiplicity
 _atom_site_fract_x
 _atom_site_fract_y
 _atom_site_fract_z
 _atom_site_occupancy
  Mg  Mg0  1  0.97364520  0.05677533  0.67287825  1
  Fe  Fe1  1  0.75084753  0.95909978  0.32153309  1
  Fe  Fe2  1  0.33202033  0.03536467  0.61225548  1
  Fe  Fe3  1  0.04446516  0.95174410  0.12364794  1
  Fe  Fe4  1  0.97179243  0.04766236  0.89200924  1
  Fe  Fe5  1  0.63437218  0.09159361  0.05875852  1
  Fe  Fe6  1  0.39654633  0.91633764  0.96012556  1
  Sb  Sb7  1  0.81174436  0.22289961  0.43462954  1
  Sb  Sb8  1  0.08156014  0.83717253  0.51589269  1
  Sb  Sb9  1  0.26943964  0.15893440  0.24544627  1
  Sb  Sb10  1  0.71382482  0.82843770  0.76496394  1
  Sb  Sb11  1  0.52681922  0.20235650  0.77008171  1
  Sb  Sb12  1  0.47665641  0.78625858  0.23424822  1
  Sb  Sb13  1  0.21631024  0.26405675  0.99186709  1
  Sb  Sb14  1  0.80368199  0.73140650  0.02195966  1
  Sb  Sb15  1  0.83690262  0.29489064  0.20694202  1
  Sb  Sb16  1  0.15126577  0.71409071  0.79598608  1
  I  I17  1  0.75011036  0.34343214  0.92862473  1
  I  I18  1  0.27860549  0.64941927  0.04615908  1
  I  I19  1  0.94403055  0.66907156  0.28854402  1
  I  I20  1  0.08031697  0.32387045  0.70008290  1
  I  I21  1  0.43149357  0.26839791  0.48222698  1
  I  I22  1  0.47131836  0.70725970  0.59844019  1
  O  O23  1  0.16720132  0.05569584  0.99094814  1
  O  O24  1  0.85980503  0.93666205  0.01698011  1
  O  O25  1  0.85169418  0.98132251  0.45165392  1
  O  O26  1  0.12227177  0.02768090  0.54927482  1
  O  O27  1  0.81823154  0.08621634  0.18359309  1
  O  O28  1  0.13569106  0.93581267  0.79600077  1
  O  O29  1  0.46095149  0.13400497  0.91460125  1
  O  O30  1  0.57444093  0.85727653  0.09587848  1
  O  O31  1  0.77217826  0.04628350  0.77089434  1
  O  O32  1  0.24353487  0.94563007  0.21529372  1
  O  O33  1  0.47836171  0.01508696  0.73132689  1
  O  O34  1  0.52520917  0.94637502  0.29812651  1
  O  O35  1  0.08109863  0.26025363  0.13057646  1
  O  O36  1  0.93107071  0.72742563  0.86877190  1
  O  O37  1  0.99647680  0.81032849  0.66279035  1
  O  O38  1  0.01458933  0.19565237  0.32167715  1
  O  O39  1  0.62028398  0.80076311  0.90946799  1
  O  O40  1  0.39913954  0.19128198  0.10192392  1
