# generated using pymatgen
data_GaHSeO4
_symmetry_space_group_name_H-M   'P 1'
_cell_length_a   4.44080120
_cell_length_b   6.06216389
_cell_length_c   11.64012806
_cell_angle_alpha   90.00000000
_cell_angle_beta   90.00000000
_cell_angle_gamma   90.00000000
_symmetry_Int_Tables_number   1
_chemical_formula_structural   GaHSeO4
_chemical_formula_sum   'Ga4 H4 Se4 O16'
_cell_volume   313.36231233
_cell_formula_units_Z   4
loop_
 _symmetry_equiv_pos_site_id
 _symmetry_equiv_pos_as_xyz
  1  'x, y, z'
loop_
 _atom_site_type_symbol
 _atom_site_label
 _atom_site_symmetry_multiplicity
 _atom_site_fract_x
 _atom_site_fract_y
 _atom_site_fract_z
 _atom_site_occupancy
  Ga  Ga0  1  -0.00000000  0.50000000  0.00000000  1
  Ga  Ga1  1  0.50000000  -0.00000000  0.50000000  1
  Ga  Ga2  1  -0.00000000  -0.00000000  0.00000000  1
  Ga  Ga3  1  0.50000000  0.50000000  0.50000000  1
  H  H4  1  0.40714125  0.75000000  0.07542021  1
  H  H5  1  0.09285875  0.75000000  0.57542021  1
  H  H6  1  0.59285875  0.25000000  0.92457979  1
  H  H7  1  0.90714125  0.25000000  0.42457979  1
  Se  Se8  1  0.47984287  0.75000000  0.82608007  1
  Se  Se9  1  0.02015713  0.75000000  0.32608007  1
  Se  Se10  1  0.52015713  0.25000000  0.17391993  1
  Se  Se11  1  0.97984287  0.25000000  0.67391993  1
  O  O12  1  0.73471707  0.75000000  0.94532110  1
  O  O13  1  0.76528293  0.75000000  0.44532110  1
  O  O14  1  0.26528293  0.25000000  0.05467890  1
  O  O15  1  0.23471707  0.25000000  0.55467890  1
  O  O16  1  0.18784731  0.75000000  0.07851366  1
  O  O17  1  0.31215269  0.75000000  0.57851366  1
  O  O18  1  0.81215269  0.25000000  0.92148634  1
  O  O19  1  0.68784731  0.25000000  0.42148634  1
  O  O20  1  0.26784172  0.52917623  0.86407076  1
  O  O21  1  0.23215828  0.97082377  0.36407076  1
  O  O22  1  0.73215828  0.02917623  0.13592924  1
  O  O23  1  0.76784172  0.47082377  0.63592924  1
  O  O24  1  0.73215828  0.47082377  0.13592924  1
  O  O25  1  0.76784172  0.02917623  0.63592924  1
  O  O26  1  0.26784172  0.97082377  0.86407076  1
  O  O27  1  0.23215828  0.52917623  0.36407076  1
