# generated using pymatgen
data_CrPO4
_symmetry_space_group_name_H-M   'P 1'
_cell_length_a   8.88295103
_cell_length_b   8.88299023
_cell_length_c   8.88293965
_cell_angle_alpha   138.41236414
_cell_angle_beta   108.23168615
_cell_angle_gamma   86.51407077
_symmetry_Int_Tables_number   1
_chemical_formula_structural   CrPO4
_chemical_formula_sum   'Cr6 P6 O24'
_cell_volume   424.89240263
_cell_formula_units_Z   6
loop_
 _symmetry_equiv_pos_site_id
 _symmetry_equiv_pos_as_xyz
  1  'x, y, z'
loop_
 _atom_site_type_symbol
 _atom_site_label
 _atom_site_symmetry_multiplicity
 _atom_site_fract_x
 _atom_site_fract_y
 _atom_site_fract_z
 _atom_site_occupancy
  Cr  Cr0  1  0.88379751  0.88380023  0.50000208  1
  Cr  Cr1  1  0.61620037  0.11620118  -0.00000130  1
  Cr  Cr2  1  0.11620182  0.11620227  0.50000185  1
  Cr  Cr3  1  0.38379835  0.88380179  0.00000417  1
  Cr  Cr4  1  0.50000016  0.00000075  0.50000073  1
  Cr  Cr5  1  0.00000007  0.50000024  0.50000014  1
  P  P6  1  0.67654706  0.67654804  0.50000203  1
  P  P7  1  0.82345397  0.32345125  -0.00000206  1
  P  P8  1  0.32345316  0.32345191  0.49999755  1
  P  P9  1  0.17654559  0.67654831  0.00000130  1
  P  P10  1  0.74999894  0.16771027  0.41771138  1
  P  P11  1  0.25000127  0.83228963  0.58228825  1
  O  O12  1  0.65067851  0.19391167  0.54323449  1
  O  O13  1  0.84932042  0.39255348  0.54323275  1
  O  O14  1  0.34932197  0.80608804  0.45676552  1
  O  O15  1  0.15068009  0.60744641  0.45676704  1
  O  O16  1  0.91198654  0.19170928  0.83159189  1
  O  O17  1  0.58801509  0.41960936  0.27972523  1
  O  O18  1  0.63988262  0.80828889  0.72027543  1
  O  O19  1  0.86011641  0.58038905  0.16840371  1
  O  O20  1  0.08801344  0.80828893  0.16840651  1
  O  O21  1  0.41198444  0.58038988  0.72027357  1
  O  O22  1  0.36011707  0.19170997  0.27972332  1
  O  O23  1  0.13988433  0.41960995  0.83159486  1
  O  O24  1  0.37274269  0.97658701  0.84932670  1
  O  O25  1  0.12726007  0.97658617  0.60384478  1
  O  O26  1  0.87274064  0.02341443  0.39615606  1
  O  O27  1  0.62725697  0.02341343  0.15067334  1
  O  O28  1  0.14781767  0.72442836  0.85392230  1
  O  O29  1  0.35218074  0.20610010  0.57660522  1
  O  O30  1  0.12949367  0.27557109  0.42338886  1
  O  O31  1  0.37050472  0.79390049  0.14608101  1
  O  O32  1  0.85218234  0.27557106  0.14607655  1
  O  O33  1  0.64781979  0.79389971  0.42339524  1
  O  O34  1  0.87050635  0.72442837  0.57661099  1
  O  O35  1  0.62949516  0.20610002  0.85391850  1
