# generated using pymatgen
data_Rb2W3SeO12
_symmetry_space_group_name_H-M   'P 1'
_cell_length_a   7.26384379
_cell_length_b   7.26384379
_cell_length_c   12.15947548
_cell_angle_alpha   90.00000000
_cell_angle_beta   90.00000000
_cell_angle_gamma   119.99999692
_symmetry_Int_Tables_number   1
_chemical_formula_structural   Rb2W3SeO12
_chemical_formula_sum   'Rb4 W6 Se2 O24'
_cell_volume   555.62077867
_cell_formula_units_Z   2
loop_
 _symmetry_equiv_pos_site_id
 _symmetry_equiv_pos_as_xyz
  1  'x, y, z'
loop_
 _atom_site_type_symbol
 _atom_site_label
 _atom_site_symmetry_multiplicity
 _atom_site_fract_x
 _atom_site_fract_y
 _atom_site_fract_z
 _atom_site_occupancy
  Rb  Rb0  1  0.66666700  0.33333300  0.55159393  1
  Rb  Rb1  1  0.33333300  0.66666700  0.05159393  1
  Rb  Rb2  1  0.66666700  0.33333300  0.92987870  1
  Rb  Rb3  1  0.33333300  0.66666700  0.42987870  1
  W  W4  1  0.66069992  0.81475800  0.76306714  1
  W  W5  1  0.15405708  0.33930008  0.76306714  1
  W  W6  1  0.33930008  0.18524200  0.26306714  1
  W  W7  1  0.18524200  0.84594292  0.76306714  1
  W  W8  1  0.84594292  0.66069992  0.26306714  1
  W  W9  1  0.81475800  0.15405708  0.26306714  1
  Se  Se10  1  -0.00000000  -0.00000000  0.99512874  1
  Se  Se11  1  -0.00000000  -0.00000000  0.49512874  1
  O  O12  1  0.75264473  0.87537246  0.93457884  1
  O  O13  1  0.12272774  0.24735527  0.93457884  1
  O  O14  1  0.24735527  0.12462754  0.43457884  1
  O  O15  1  0.12462754  0.87727226  0.93457884  1
  O  O16  1  0.87727226  0.75264473  0.43457884  1
  O  O17  1  0.87537246  0.12272774  0.43457884  1
  O  O18  1  0.45226553  0.54043420  0.80876560  1
  O  O19  1  0.08816868  0.54773447  0.80876560  1
  O  O20  1  0.54773447  0.45956580  0.30876560  1
  O  O21  1  0.45956580  0.91183132  0.80876560  1
  O  O22  1  0.91183132  0.45226553  0.30876560  1
  O  O23  1  0.54043420  0.08816868  0.30876560  1
  O  O24  1  0.59670239  0.79373490  0.62418573  1
  O  O25  1  0.19703252  0.40329761  0.62418573  1
  O  O26  1  0.40329761  0.20626510  0.12418573  1
  O  O27  1  0.20626510  0.80296748  0.62418573  1
  O  O28  1  0.80296748  0.59670239  0.12418573  1
  O  O29  1  0.79373490  0.19703252  0.12418573  1
  O  O30  1  0.87156249  0.12124520  0.75183624  1
  O  O31  1  0.24968371  0.12843751  0.75183624  1
  O  O32  1  0.12843751  0.87875480  0.25183624  1
  O  O33  1  0.87875480  0.75031629  0.75183624  1
  O  O34  1  0.75031629  0.87156249  0.25183624  1
  O  O35  1  0.12124520  0.24968371  0.25183624  1
