# generated using pymatgen
data_MgWF6
_symmetry_space_group_name_H-M   'P 1'
_cell_length_a   5.52279631
_cell_length_b   5.52279585
_cell_length_c   5.52279677
_cell_angle_alpha   55.45723147
_cell_angle_beta   55.45722749
_cell_angle_gamma   55.45723280
_symmetry_Int_Tables_number   1
_chemical_formula_structural   MgWF6
_chemical_formula_sum   'Mg1 W1 F6'
_cell_volume   106.54797081
_cell_formula_units_Z   1
loop_
 _symmetry_equiv_pos_site_id
 _symmetry_equiv_pos_as_xyz
  1  'x, y, z'
loop_
 _atom_site_type_symbol
 _atom_site_label
 _atom_site_symmetry_multiplicity
 _atom_site_fract_x
 _atom_site_fract_y
 _atom_site_fract_z
 _atom_site_occupancy
  Mg  Mg0  1  0.50000000  0.50000000  0.50000000  1
  W  W1  1  0.00000000  -0.00000000  0.00000000  1
  F  F2  1  0.63491447  0.86538134  0.24539675  1
  F  F3  1  0.86538134  0.24539675  0.63491447  1
  F  F4  1  0.75460325  0.36508553  0.13461866  1
  F  F5  1  0.13461866  0.75460325  0.36508553  1
  F  F6  1  0.36508553  0.13461866  0.75460325  1
  F  F7  1  0.24539675  0.63491447  0.86538134  1
