# generated using pymatgen
data_GdPO4
_symmetry_space_group_name_H-M   'P 1'
_cell_length_a   5.79911490
_cell_length_b   5.79911490
_cell_length_c   5.79911490
_cell_angle_alpha   106.09562657
_cell_angle_beta   106.09562657
_cell_angle_gamma   116.45644463
_symmetry_Int_Tables_number   1
_chemical_formula_structural   GdPO4
_chemical_formula_sum   'Gd2 P2 O8'
_cell_volume   148.43538071
_cell_formula_units_Z   2
loop_
 _symmetry_equiv_pos_site_id
 _symmetry_equiv_pos_as_xyz
  1  'x, y, z'
loop_
 _atom_site_type_symbol
 _atom_site_label
 _atom_site_symmetry_multiplicity
 _atom_site_fract_x
 _atom_site_fract_y
 _atom_site_fract_z
 _atom_site_occupancy
  Gd  Gd0  1  0.87500000  0.12500000  0.25000000  1
  Gd  Gd1  1  0.12500000  0.87500000  0.75000000  1
  P  P2  1  0.62500000  0.37500000  0.75000000  1
  P  P3  1  0.37500000  0.62500000  0.25000000  1
  O  O4  1  0.64202649  0.21880748  0.92321902  1
  O  O5  1  0.21880748  0.64202649  0.42321902  1
  O  O6  1  0.21880748  0.29558746  0.07678098  1
  O  O7  1  0.29558746  0.21880748  0.57678098  1
  O  O8  1  0.35797351  0.78119252  0.07678098  1
  O  O9  1  0.78119252  0.35797351  0.57678098  1
  O  O10  1  0.78119252  0.70441254  0.92321902  1
  O  O11  1  0.70441254  0.78119252  0.42321902  1
