# generated using pymatgen
data_FeH7(CO2)4
_symmetry_space_group_name_H-M   'P 1'
_cell_length_a   7.41577076
_cell_length_b   7.48535007
_cell_length_c   8.17126957
_cell_angle_alpha   107.06778998
_cell_angle_beta   95.02332860
_cell_angle_gamma   113.61627775
_symmetry_Int_Tables_number   1
_chemical_formula_structural   FeH7(CO2)4
_chemical_formula_sum   'Fe2 H14 C8 O16'
_cell_volume   386.24241920
_cell_formula_units_Z   2
loop_
 _symmetry_equiv_pos_site_id
 _symmetry_equiv_pos_as_xyz
  1  'x, y, z'
loop_
 _atom_site_type_symbol
 _atom_site_label
 _atom_site_symmetry_multiplicity
 _atom_site_fract_x
 _atom_site_fract_y
 _atom_site_fract_z
 _atom_site_occupancy
  Fe  Fe0  1  0.69503470  0.70051073  0.60746264  1
  Fe  Fe1  1  0.30496530  0.29948927  0.39253736  1
  H  H2  1  0.58697882  0.34768076  0.64665890  1
  H  H3  1  0.41302118  0.65231924  0.35334110  1
  H  H4  1  0.77115173  0.05460726  0.55169788  1
  H  H5  1  0.22884827  0.94539274  0.44830212  1
  H  H6  1  0.85990740  0.11306983  0.76068213  1
  H  H7  1  0.14009260  0.88693017  0.23931787  1
  H  H8  1  0.97505972  0.74421654  0.86676629  1
  H  H9  1  0.02494028  0.25578346  0.13323371  1
  H  H10  1  0.08647002  0.80576739  0.71000569  1
  H  H11  1  0.91352998  0.19423261  0.28999431  1
  H  H12  1  0.39327214  0.01237526  0.71061957  1
  H  H13  1  0.60672786  0.98762474  0.28938043  1
  H  H14  1  0.33424445  0.78113911  0.57979656  1
  H  H15  1  0.66575555  0.21886089  0.42020344  1
  C  C16  1  0.75417526  0.57002515  0.24350586  1
  C  C17  1  0.24582474  0.42997485  0.75649414  1
  C  C18  1  0.57177014  0.38015857  0.14067562  1
  C  C19  1  0.42822986  0.61984143  0.85932438  1
  C  C20  1  0.64489548  0.38123436  0.97930809  1
  C  C21  1  0.35510452  0.61876564  0.02069191  1
  C  C22  1  0.82802116  0.57694497  0.08445966  1
  C  C23  1  0.17197884  0.42305503  0.91554034  1
  O  O24  1  0.82421874  0.69237257  0.40200249  1
  O  O25  1  0.17578126  0.30762743  0.59799751  1
  O  O26  1  0.40854218  0.26552058  0.16950906  1
  O  O27  1  0.59145782  0.73447942  0.83049094  1
  O  O28  1  0.57454900  0.26927142  0.82058549  1
  O  O29  1  0.42545100  0.73072858  0.17941451  1
  O  O30  1  0.98013240  0.70524652  0.05538949  1
  O  O31  1  0.01986760  0.29475348  0.94461051  1
  O  O32  1  0.58031458  0.38808463  0.54228696  1
  O  O33  1  0.41968542  0.61191537  0.45771304  1
  O  O34  1  0.76462088  0.00135080  0.64957688  1
  O  O35  1  0.23537912  0.99864920  0.35042312  1
  O  O36  1  0.95897224  0.76525696  0.75316987  1
  O  O37  1  0.04102776  0.23474304  0.24683013  1
  O  O38  1  0.28010484  0.88151884  0.62851256  1
  O  O39  1  0.71989516  0.11848116  0.37148744  1
