# generated using pymatgen
data_MgAu4Se4(ClO3)4
_symmetry_space_group_name_H-M   'P 1'
_cell_length_a   4.91367028
_cell_length_b   10.24249073
_cell_length_c   11.22382181
_cell_angle_alpha   78.52859004
_cell_angle_beta   86.37482755
_cell_angle_gamma   90.36877504
_symmetry_Int_Tables_number   1
_chemical_formula_structural   MgAu4Se4(ClO3)4
_chemical_formula_sum   'Mg1 Au4 Se4 Cl4 O12'
_cell_volume   552.37900346
_cell_formula_units_Z   1
loop_
 _symmetry_equiv_pos_site_id
 _symmetry_equiv_pos_as_xyz
  1  'x, y, z'
loop_
 _atom_site_type_symbol
 _atom_site_label
 _atom_site_symmetry_multiplicity
 _atom_site_fract_x
 _atom_site_fract_y
 _atom_site_fract_z
 _atom_site_occupancy
  Mg  Mg0  1  0.52972888  0.26111463  0.83934675  1
  Au  Au1  1  0.00581812  0.58933652  0.17587896  1
  Au  Au2  1  0.99236301  0.02408212  0.00615274  1
  Au  Au3  1  0.07517784  0.43332401  0.82355115  1
  Au  Au4  1  0.02366485  0.97220798  0.49961823  1
  Se  Se5  1  0.75175703  0.85374644  0.27892494  1
  Se  Se6  1  0.17294419  0.75564929  0.90197074  1
  Se  Se7  1  0.84593952  0.29775097  0.10221233  1
  Se  Se8  1  0.09885766  0.14011111  0.70467229  1
  Cl  Cl9  1  0.44470900  0.45914028  0.68347360  1
  Cl  Cl10  1  0.68450212  0.48303803  0.32171271  1
  Cl  Cl11  1  0.28333163  0.16547016  0.43059559  1
  Cl  Cl12  1  0.76337514  0.77960748  0.55905569  1
  O  O13  1  0.69396185  0.95530373  0.13858763  1
  O  O14  1  0.74132856  0.34568490  0.95139555  1
  O  O15  1  0.02696500  0.75567317  0.24737693  1
  O  O16  1  0.10284111  0.18773295  0.07711015  1
  O  O17  1  0.07982256  0.42448196  0.10328860  1
  O  O18  1  0.90409875  0.86233402  0.94081339  1
  O  O19  1  0.28881269  0.68414941  0.04601030  1
  O  O20  1  0.76757063  0.15945612  0.74381371  1
  O  O21  1  0.95817818  0.97354244  0.32405089  1
  O  O22  1  0.94676186  0.64834394  0.86852082  1
  O  O23  1  0.24575669  0.10456984  0.85382310  1
  O  O24  1  0.09951115  0.97789850  0.67566219  1
