# generated using pymatgen
data_Ba2MgMo4(P2O7)4
_symmetry_space_group_name_H-M   'P 1'
_cell_length_a   7.81441626
_cell_length_b   8.03606686
_cell_length_c   10.28033051
_cell_angle_alpha   79.21020070
_cell_angle_beta   80.52248692
_cell_angle_gamma   88.81365098
_symmetry_Int_Tables_number   1
_chemical_formula_structural   Ba2MgMo4(P2O7)4
_chemical_formula_sum   'Ba2 Mg1 Mo4 P8 O28'
_cell_volume   625.47203332
_cell_formula_units_Z   1
loop_
 _symmetry_equiv_pos_site_id
 _symmetry_equiv_pos_as_xyz
  1  'x, y, z'
loop_
 _atom_site_type_symbol
 _atom_site_label
 _atom_site_symmetry_multiplicity
 _atom_site_fract_x
 _atom_site_fract_y
 _atom_site_fract_z
 _atom_site_occupancy
  Ba  Ba0  1  0.99458566  0.52335418  0.97964397  1
  Ba  Ba1  1  0.55077278  0.94945753  0.46458741  1
  Mg  Mg2  1  0.26426900  0.33362859  0.42342464  1
  Mo  Mo3  1  0.00277175  0.00371336  0.49882496  1
  Mo  Mo4  1  0.99828180  0.98820475  0.00344223  1
  Mo  Mo5  1  0.47381179  0.56986110  0.21825980  1
  Mo  Mo6  1  0.55198537  0.46247583  0.75564229  1
  P  P7  1  0.82340337  0.71224261  0.29073382  1
  P  P8  1  0.26827420  0.19193487  0.19691163  1
  P  P9  1  0.18085528  0.28851667  0.72876829  1
  P  P10  1  0.73404025  0.82292541  0.79234303  1
  P  P11  1  0.71962804  0.35988587  0.44025410  1
  P  P12  1  0.64553165  0.23353202  0.04790918  1
  P  P13  1  0.24358216  0.63207500  0.58153014  1
  P  P14  1  0.37325413  0.76224301  0.93415155  1
  O  O15  1  0.94775314  0.75174447  0.15499103  1
  O  O16  1  0.25120852  0.10264291  0.34866586  1
  O  O17  1  0.05095189  0.22114753  0.85528797  1
  O  O18  1  0.77392910  0.93316855  0.65328578  1
  O  O19  1  0.63169772  0.75000979  0.27703104  1
  O  O20  1  0.25711184  0.38320970  0.20725345  1
  O  O21  1  0.37020673  0.27401193  0.74642169  1
  O  O22  1  0.74467908  0.63103827  0.79224273  1
  O  O23  1  0.86639411  0.79553712  0.40083443  1
  O  O24  1  0.13704642  0.13580353  0.12094258  1
  O  O25  1  0.15351981  0.22346698  0.60335583  1
  O  O26  1  0.84224054  0.85831843  0.89529202  1
  O  O27  1  0.83624460  0.50504320  0.33030182  1
  O  O28  1  0.45918736  0.15004285  0.13148258  1
  O  O29  1  0.39778694  0.77122944  0.07570400  1
  O  O30  1  0.22889798  0.56638002  0.45416947  1
  O  O31  1  0.63776275  0.26313985  0.89852710  1
  O  O32  1  0.71391518  0.39758440  0.57960031  1
  O  O33  1  0.37500574  0.57964459  0.90458788  1
  O  O34  1  0.43359696  0.63623015  0.60755506  1
  O  O35  1  0.67966756  0.39583999  0.09623439  1
  O  O36  1  0.13666416  0.49476580  0.70666236  1
  O  O37  1  0.20445078  0.84982688  0.90220258  1
  O  O38  1  0.16965284  0.80666757  0.58745838  1
  O  O39  1  0.77079874  0.09388215  0.09234692  1
  O  O40  1  0.81308382  0.19558827  0.41828522  1
  O  O41  1  0.53002192  0.86841932  0.83179375  1
  O  O42  1  0.53647657  0.35656650  0.39605577  1
