# generated using pymatgen
data_La2Ti2O7
_symmetry_space_group_name_H-M   'P 1'
_cell_length_a   5.53956232
_cell_length_b   7.78579186
_cell_length_c   25.81855951
_cell_angle_alpha   90.00000000
_cell_angle_beta   90.00000000
_cell_angle_gamma   90.00000000
_symmetry_Int_Tables_number   1
_chemical_formula_structural   La2Ti2O7
_chemical_formula_sum   'La16 Ti16 O56'
_cell_volume   1113.55135328
_cell_formula_units_Z   8
loop_
 _symmetry_equiv_pos_site_id
 _symmetry_equiv_pos_as_xyz
  1  'x, y, z'
loop_
 _atom_site_type_symbol
 _atom_site_label
 _atom_site_symmetry_multiplicity
 _atom_site_fract_x
 _atom_site_fract_y
 _atom_site_fract_z
 _atom_site_occupancy
  La  La0  1  0.70824110  0.62159102  0.94526602  1
  La  La1  1  0.20824110  0.37840898  0.05473398  1
  La  La2  1  0.70824110  0.87840898  0.44526602  1
  La  La3  1  0.20824110  0.12159102  0.55473398  1
  La  La4  1  0.25415470  0.62434675  0.80761416  1
  La  La5  1  0.75415470  0.37565325  0.19238584  1
  La  La6  1  0.25415470  0.87565325  0.30761416  1
  La  La7  1  0.75415470  0.12434675  0.69238584  1
  La  La8  1  0.74840229  0.62534386  0.70079775  1
  La  La9  1  0.24840229  0.37465614  0.29920225  1
  La  La10  1  0.74840229  0.87465614  0.20079775  1
  La  La11  1  0.24840229  0.12534386  0.79920225  1
  La  La12  1  0.16479340  0.62682878  0.54053710  1
  La  La13  1  0.66479340  0.37317122  0.45946290  1
  La  La14  1  0.16479340  0.87317122  0.04053710  1
  La  La15  1  0.66479340  0.12682878  0.95946290  1
  Ti  Ti16  1  0.21787539  0.87783829  0.91088712  1
  Ti  Ti17  1  0.71787539  0.12216171  0.08911288  1
  Ti  Ti18  1  0.21787539  0.62216171  0.41088712  1
  Ti  Ti19  1  0.71787539  0.37783829  0.58911288  1
  Ti  Ti20  1  0.74315216  0.87283504  0.80885703  1
  Ti  Ti21  1  0.24315216  0.12716496  0.19114297  1
  Ti  Ti22  1  0.74315216  0.62716496  0.30885703  1
  Ti  Ti23  1  0.24315216  0.37283504  0.69114297  1
  Ti  Ti24  1  0.24468087  0.87708832  0.69011479  1
  Ti  Ti25  1  0.74468087  0.12291168  0.30988521  1
  Ti  Ti26  1  0.24468087  0.62291168  0.19011479  1
  Ti  Ti27  1  0.74468087  0.37708832  0.80988521  1
  Ti  Ti28  1  0.71332950  0.87291956  0.58727715  1
  Ti  Ti29  1  0.21332950  0.12708044  0.41272285  1
  Ti  Ti30  1  0.71332950  0.62708044  0.08727715  1
  Ti  Ti31  1  0.21332950  0.37291956  0.91272285  1
  O  O32  1  0.42682147  0.38818061  0.96972428  1
  O  O33  1  0.92682147  0.61181939  0.03027572  1
  O  O34  1  0.42682147  0.11181939  0.46972428  1
  O  O35  1  0.92682147  0.88818061  0.53027572  1
  O  O36  1  0.93924736  0.35742611  0.94875724  1
  O  O37  1  0.43924736  0.64257389  0.05124276  1
  O  O38  1  0.93924736  0.14257389  0.44875724  1
  O  O39  1  0.43924736  0.85742611  0.55124276  1
  O  O40  1  0.29366754  0.12515093  0.90231086  1
  O  O41  1  0.79366754  0.87484907  0.09769014  1
  O  O42  1  0.29366754  0.37484907  0.40230986  1
  O  O43  1  0.79366754  0.62515093  0.59768914  1
  O  O44  1  0.54704795  0.42196497  0.86457514  1
  O  O45  1  0.04704795  0.57803503  0.13542486  1
  O  O46  1  0.54704795  0.07803503  0.36457514  1
  O  O47  1  0.04704795  0.92196497  0.63542486  1
  O  O48  1  0.05722857  0.35815054  0.84241579  1
  O  O49  1  0.55722857  0.64184946  0.15758421  1
  O  O50  1  0.05722857  0.14184946  0.34241579  1
  O  O51  1  0.55722857  0.85815054  0.65758421  1
  O  O52  1  0.70519383  0.12511032  0.80341081  1
  O  O53  1  0.31787197  0.12497394  0.70379517  1
  O  O54  1  0.20519383  0.87488968  0.19658919  1
  O  O55  1  0.20519383  0.62511032  0.69658919  1
  O  O56  1  0.48287392  0.40441079  0.75927942  1
  O  O57  1  0.98287392  0.59558921  0.24072058  1
  O  O58  1  0.48287392  0.09558921  0.25927942  1
  O  O59  1  0.98287392  0.90441079  0.74072058  1
  O  O60  1  0.98339690  0.34533953  0.74135437  1
  O  O61  1  0.48339690  0.65466047  0.25864563  1
  O  O62  1  0.98339690  0.15466047  0.24135437  1
  O  O63  1  0.48339690  0.84533953  0.75864563  1
  O  O64  1  0.43770162  0.86045383  0.96524344  1
  O  O65  1  0.93770162  0.13954617  0.03475656  1
  O  O66  1  0.43770162  0.63954617  0.46524344  1
  O  O67  1  0.93770162  0.36045383  0.53475656  1
  O  O68  1  0.95520977  0.89047560  0.95410443  1
  O  O69  1  0.45520977  0.10952440  0.04589557  1
  O  O70  1  0.95520977  0.60952440  0.45410443  1
  O  O71  1  0.45520977  0.39047560  0.54589557  1
  O  O72  1  0.17912092  0.62462935  0.90400240  1
  O  O73  1  0.67912092  0.37537065  0.09599760  1
  O  O74  1  0.17912092  0.87537065  0.40400240  1
  O  O75  1  0.67912092  0.12462935  0.59599760  1
  O  O76  1  0.54140139  0.82838188  0.86298757  1
  O  O77  1  0.04140139  0.17161812  0.13701243  1
  O  O78  1  0.54140139  0.67161812  0.36298757  1
  O  O79  1  0.04140139  0.32838188  0.63701243  1
  O  O80  1  0.05328838  0.89257025  0.84279326  1
  O  O81  1  0.55328838  0.10742975  0.15720674  1
  O  O82  1  0.05328838  0.60742975  0.34279326  1
  O  O83  1  0.55328838  0.39257025  0.65720674  1
  O  O84  1  0.81787197  0.62497394  0.79620483  1
  O  O85  1  0.31787197  0.37502606  0.20379517  1
  O  O86  1  0.81787197  0.87502606  0.29620483  1
  O  O87  1  0.70519383  0.37488968  0.30341081  1
