# generated using pymatgen
data_Mg14ZnCO16
_symmetry_space_group_name_H-M   'P 1'
_cell_length_a   8.52295998
_cell_length_b   8.51533738
_cell_length_c   4.24057807
_cell_angle_alpha   90.00000000
_cell_angle_beta   90.00000000
_cell_angle_gamma   90.00000000
_symmetry_Int_Tables_number   1
_chemical_formula_structural   Mg14ZnCO16
_chemical_formula_sum   'Mg14 Zn1 C1 O16'
_cell_volume   307.76368389
_cell_formula_units_Z   1
loop_
 _symmetry_equiv_pos_site_id
 _symmetry_equiv_pos_as_xyz
  1  'x, y, z'
loop_
 _atom_site_type_symbol
 _atom_site_label
 _atom_site_symmetry_multiplicity
 _atom_site_fract_x
 _atom_site_fract_y
 _atom_site_fract_z
 _atom_site_occupancy
  Mg  Mg0  1  0.50000000  0.00000000  0.00000000  1
  Mg  Mg1  1  0.50000000  0.50000000  0.00000000  1
  Mg  Mg2  1  0.00000000  0.25366310  0.50000000  1
  Mg  Mg3  1  0.00000000  0.74633690  0.50000000  1
  Mg  Mg4  1  0.50000000  0.25025732  0.50000000  1
  Mg  Mg5  1  0.50000000  0.74974268  0.50000000  1
  Mg  Mg6  1  0.24991338  0.00000000  0.50000000  1
  Mg  Mg7  1  0.24642916  0.50000000  0.50000000  1
  Mg  Mg8  1  0.75008662  -0.00000000  0.50000000  1
  Mg  Mg9  1  0.75357084  0.50000000  0.50000000  1
  Mg  Mg10  1  0.24777942  0.25226158  0.00000000  1
  Mg  Mg11  1  0.24777942  0.74773842  -0.00000000  1
  Mg  Mg12  1  0.75222058  0.25226158  0.00000000  1
  Mg  Mg13  1  0.75222058  0.74773842  -0.00000000  1
  Zn  Zn14  1  0.00000000  -0.00000000  0.00000000  1
  C  C15  1  0.00000000  0.50000000  0.00000000  1
  O  O16  1  0.25290874  -0.00000000  0.00000000  1
  O  O17  1  0.25149499  0.50000000  -0.00000000  1
  O  O18  1  0.74709126  -0.00000000  0.00000000  1
  O  O19  1  0.74850501  0.50000000  0.00000000  1
  O  O20  1  0.24847221  0.25042759  0.50000000  1
  O  O21  1  0.24847221  0.74957241  0.50000000  1
  O  O22  1  0.75152779  0.25042759  0.50000000  1
  O  O23  1  0.75152779  0.74957241  0.50000000  1
  O  O24  1  0.00000000  0.00000000  0.50000000  1
  O  O25  1  0.00000000  0.50000000  0.50000000  1
  O  O26  1  0.50000000  0.00000000  0.50000000  1
  O  O27  1  0.50000000  0.50000000  0.50000000  1
  O  O28  1  0.00000000  0.25238781  0.00000000  1
  O  O29  1  0.00000000  0.74761219  -0.00000000  1
  O  O30  1  0.50000000  0.25068185  0.00000000  1
  O  O31  1  0.50000000  0.74931815  -0.00000000  1
