# generated using pymatgen
data_MgSc4(FeO3)4
_symmetry_space_group_name_H-M   'P 1'
_cell_length_a   5.14896942
_cell_length_b   5.45294588
_cell_length_c   8.60938656
_cell_angle_alpha   88.68883341
_cell_angle_beta   92.70574909
_cell_angle_gamma   88.58149408
_symmetry_Int_Tables_number   1
_chemical_formula_structural   MgSc4(FeO3)4
_chemical_formula_sum   'Mg1 Sc4 Fe4 O12'
_cell_volume   241.31268361
_cell_formula_units_Z   1
loop_
 _symmetry_equiv_pos_site_id
 _symmetry_equiv_pos_as_xyz
  1  'x, y, z'
loop_
 _atom_site_type_symbol
 _atom_site_label
 _atom_site_symmetry_multiplicity
 _atom_site_fract_x
 _atom_site_fract_y
 _atom_site_fract_z
 _atom_site_occupancy
  Mg  Mg0  1  0.40324700  0.14870600  0.12128700  1
  Sc  Sc1  1  0.05660300  0.92424300  0.74391400  1
  Sc  Sc2  1  0.44813900  0.42197700  0.75475400  1
  Sc  Sc3  1  0.54415400  0.60977900  0.26413000  1
  Sc  Sc4  1  0.92196900  0.08125600  0.27360900  1
  Fe  Fe5  1  0.98503900  0.49388000  0.99600100  1
  Fe  Fe6  1  0.03701700  0.50521500  0.47137500  1
  Fe  Fe7  1  0.58706900  0.88063700  0.89488500  1
  Fe  Fe8  1  0.49617200  0.01340600  0.50831000  1
  O  O9  1  0.18559600  0.41893500  0.26336400  1
  O  O10  1  0.20274400  0.21725400  0.58731900  1
  O  O11  1  0.23504800  0.16425800  0.90914000  1
  O  O12  1  0.29101100  0.70873300  0.59266200  1
  O  O13  1  0.27471200  0.66906600  0.90430900  1
  O  O14  1  0.29995400  0.93504200  0.29751500  1
  O  O15  1  0.68111900  0.09327000  0.71518000  1
  O  O16  1  0.70069600  0.35928200  0.11352700  1
  O  O17  1  0.70969500  0.30938700  0.41815100  1
  O  O18  1  0.71580100  0.87186000  0.11571200  1
  O  O19  1  0.79328800  0.79985200  0.42594600  1
  O  O20  1  0.79342900  0.61146300  0.77891000  1
