# generated using pymatgen
data_MnCO3
_symmetry_space_group_name_H-M   'P 1'
_cell_length_a   5.85871708
_cell_length_b   4.77777356
_cell_length_c   4.77781767
_cell_angle_alpha   59.98365385
_cell_angle_beta   65.94219262
_cell_angle_gamma   65.94294854
_symmetry_Int_Tables_number   1
_chemical_formula_structural   MnCO3
_chemical_formula_sum   'Mn2 C2 O6'
_cell_volume   102.17288915
_cell_formula_units_Z   2
loop_
 _symmetry_equiv_pos_site_id
 _symmetry_equiv_pos_as_xyz
  1  'x, y, z'
loop_
 _atom_site_type_symbol
 _atom_site_label
 _atom_site_symmetry_multiplicity
 _atom_site_fract_x
 _atom_site_fract_y
 _atom_site_fract_z
 _atom_site_occupancy
  Mn  Mn0  1  0.89936284  0.01012372  0.01031394  1
  Mn  Mn1  1  0.39936534  0.51031536  0.51012066  1
  C  C2  1  0.15069764  0.26037367  0.25951506  1
  C  C3  1  0.65069735  0.75951706  0.76037814  1
  O  O4  1  0.65042222  0.03050031  0.75914627  1
  O  O5  1  0.65144320  0.48970304  0.03122347  1
  O  O6  1  0.65056997  0.75824512  0.49086160  1
  O  O7  1  0.15042515  0.25914130  0.53046223  1
  O  O8  1  0.15144284  0.53119066  0.98973580  1
  O  O9  1  0.15056945  0.99089174  0.25824282  1
