# generated using pymatgen
data_MgFe(SiO3)2
_symmetry_space_group_name_H-M   'P 1'
_cell_length_a   5.15358185
_cell_length_b   8.81942341
_cell_length_c   18.51193093
_cell_angle_alpha   90.00000000
_cell_angle_beta   90.00000000
_cell_angle_gamma   90.00000000
_symmetry_Int_Tables_number   1
_chemical_formula_structural   MgFe(SiO3)2
_chemical_formula_sum   'Mg8 Fe8 Si16 O48'
_cell_volume   841.39725775
_cell_formula_units_Z   8
loop_
 _symmetry_equiv_pos_site_id
 _symmetry_equiv_pos_as_xyz
  1  'x, y, z'
loop_
 _atom_site_type_symbol
 _atom_site_label
 _atom_site_symmetry_multiplicity
 _atom_site_fract_x
 _atom_site_fract_y
 _atom_site_fract_z
 _atom_site_occupancy
  Mg  Mg0  1  0.84935113  0.51429859  0.12227416  1
  Mg  Mg1  1  0.15064887  0.98570141  0.62227416  1
  Mg  Mg2  1  0.65064887  0.01429859  0.87772584  1
  Mg  Mg3  1  0.34935113  0.48570141  0.37772584  1
  Mg  Mg4  1  0.15064887  0.48570141  0.87772584  1
  Mg  Mg5  1  0.84935113  0.01429859  0.37772584  1
  Mg  Mg6  1  0.34935113  0.98570141  0.12227416  1
  Mg  Mg7  1  0.65064887  0.51429859  0.62227416  1
  Fe  Fe8  1  0.35340370  0.33935697  0.12398535  1
  Fe  Fe9  1  0.64659530  0.16064303  0.62398535  1
  Fe  Fe10  1  0.14659530  0.83935697  0.87601465  1
  Fe  Fe11  1  0.85340470  0.66064303  0.37601465  1
  Fe  Fe12  1  0.64659530  0.66064303  0.87601465  1
  Fe  Fe13  1  0.35340370  0.83935697  0.37601465  1
  Fe  Fe14  1  0.85340470  0.16064303  0.12398535  1
  Fe  Fe15  1  0.14659530  0.33935697  0.62398535  1
  Si  Si16  1  0.29542517  0.66294771  0.02695436  1
  Si  Si17  1  0.70457483  0.83705229  0.52695436  1
  Si  Si18  1  0.20457483  0.16294771  0.97304564  1
  Si  Si19  1  0.79542517  0.33705229  0.47304564  1
  Si  Si20  1  0.70457483  0.33705229  0.97304564  1
  Si  Si21  1  0.29542517  0.16294771  0.47304564  1
  Si  Si22  1  0.79542517  0.83705229  0.02695436  1
  Si  Si23  1  0.20457483  0.66294771  0.52695436  1
  Si  Si24  1  0.53563908  0.65630956  0.22694298  1
  Si  Si25  1  0.46436092  0.84369044  0.72694298  1
  Si  Si26  1  0.96436092  0.15630956  0.77305702  1
  Si  Si27  1  0.03563908  0.34369044  0.27305702  1
  Si  Si28  1  0.46436092  0.34369044  0.77305702  1
  Si  Si29  1  0.53563908  0.15630956  0.27305702  1
  Si  Si30  1  0.03563908  0.84369044  0.22694298  1
  Si  Si31  1  0.96436092  0.65630956  0.72694298  1
  O  O32  1  0.29300890  0.65905456  0.93941911  1
  O  O33  1  0.70699110  0.84094544  0.43941911  1
  O  O34  1  0.20699110  0.15905456  0.06058089  1
  O  O35  1  0.79300890  0.34094544  0.56058089  1
  O  O36  1  0.70699110  0.34094544  0.06058089  1
  O  O37  1  0.29300890  0.15905456  0.56058089  1
  O  O38  1  0.79300890  0.84094544  0.93941911  1
  O  O39  1  0.20699110  0.65905456  0.43941911  1
  O  O40  1  0.52802433  0.49811260  0.18548440  1
  O  O41  1  0.47197567  0.00188740  0.68548440  1
  O  O42  1  0.97197567  0.99811260  0.81451560  1
  O  O43  1  0.02802433  0.50188740  0.31451560  1
  O  O44  1  0.47197567  0.50188740  0.81451560  1
  O  O45  1  0.52802433  0.99811260  0.31451560  1
  O  O46  1  0.02802433  0.00188740  0.18548440  1
  O  O47  1  0.97197567  0.49811260  0.68548440  1
  O  O48  1  0.10369748  0.80788668  0.05215321  1
  O  O49  1  0.89630252  0.69211332  0.55215321  1
  O  O50  1  0.39630252  0.30788668  0.94784679  1
  O  O51  1  0.60369748  0.19211332  0.44784679  1
  O  O52  1  0.89630252  0.19211332  0.94784679  1
  O  O53  1  0.10369748  0.30788668  0.44784679  1
  O  O54  1  0.60369748  0.69211332  0.05215321  1
  O  O55  1  0.39630252  0.80788668  0.55215321  1
  O  O56  1  0.51473101  0.64877843  0.31351297  1
  O  O57  1  0.48526899  0.85122157  0.81351297  1
  O  O58  1  0.98526899  0.14877843  0.68648703  1
  O  O59  1  0.01473101  0.35122157  0.18648703  1
  O  O60  1  0.48526899  0.35122157  0.68648703  1
  O  O61  1  0.51473101  0.14877843  0.18648703  1
  O  O62  1  0.01473101  0.85122157  0.31351297  1
  O  O63  1  0.98526899  0.64877843  0.81351297  1
  O  O64  1  0.17871539  0.51999638  0.06750571  1
  O  O65  1  0.82128461  0.98000362  0.56750571  1
  O  O66  1  0.32128461  0.01999638  0.93249429  1
  O  O67  1  0.67871539  0.48000362  0.43249429  1
  O  O68  1  0.82128461  0.48000362  0.93249429  1
  O  O69  1  0.17871539  0.01999638  0.43249429  1
  O  O70  1  0.67871539  0.98000362  0.06750571  1
  O  O71  1  0.32128461  0.51999638  0.56750571  1
  O  O72  1  0.32056310  0.77966986  0.19729506  1
  O  O73  1  0.67943690  0.72033014  0.69729506  1
  O  O74  1  0.17943690  0.27966986  0.80270494  1
  O  O75  1  0.82056310  0.22033014  0.30270494  1
  O  O76  1  0.67943690  0.22033014  0.80270494  1
  O  O77  1  0.32056310  0.27966986  0.30270494  1
  O  O78  1  0.82056310  0.72033014  0.19729506  1
  O  O79  1  0.17943690  0.77966986  0.69729506  1
