# generated using pymatgen
data_KNa4FeO4
_symmetry_space_group_name_H-M   'P 1'
_cell_length_a   5.94682682
_cell_length_b   10.43659066
_cell_length_c   18.68481179
_cell_angle_alpha   90.00000000
_cell_angle_beta   90.00000000
_cell_angle_gamma   90.00000000
_symmetry_Int_Tables_number   1
_chemical_formula_structural   KNa4FeO4
_chemical_formula_sum   'K8 Na32 Fe8 O32'
_cell_volume   1159.66531837
_cell_formula_units_Z   8
loop_
 _symmetry_equiv_pos_site_id
 _symmetry_equiv_pos_as_xyz
  1  'x, y, z'
loop_
 _atom_site_type_symbol
 _atom_site_label
 _atom_site_symmetry_multiplicity
 _atom_site_fract_x
 _atom_site_fract_y
 _atom_site_fract_z
 _atom_site_occupancy
  K  K0  1  0.90979950  0.15542801  0.49608910  1
  K  K1  1  0.59020050  0.65542801  0.50391090  1
  K  K2  1  0.40979950  0.84457199  0.00391090  1
  K  K3  1  0.09020050  0.34457199  0.99608910  1
  K  K4  1  0.09020050  0.84457199  0.50391090  1
  K  K5  1  0.40979950  0.34457199  0.49608910  1
  K  K6  1  0.59020050  0.15542801  0.99608910  1
  K  K7  1  0.90979950  0.65542801  0.00391090  1
  Na  Na8  1  0.90126624  0.19714337  0.14361731  1
  Na  Na9  1  0.59873376  0.69714337  0.85638269  1
  Na  Na10  1  0.40126624  0.80285663  0.35638269  1
  Na  Na11  1  0.09873376  0.30285663  0.64361731  1
  Na  Na12  1  0.09873376  0.80285663  0.85638269  1
  Na  Na13  1  0.40126624  0.30285663  0.14361731  1
  Na  Na14  1  0.59873376  0.19714337  0.64361731  1
  Na  Na15  1  0.90126624  0.69714337  0.35638269  1
  Na  Na16  1  0.58097301  0.32582368  0.32295475  1
  Na  Na17  1  0.91902699  0.82582368  0.67704525  1
  Na  Na18  1  0.08097301  0.67417632  0.17704525  1
  Na  Na19  1  0.41902699  0.17417632  0.82295475  1
  Na  Na20  1  0.41902699  0.67417632  0.67704525  1
  Na  Na21  1  0.08097301  0.17417632  0.32295475  1
  Na  Na22  1  0.91902699  0.32582368  0.82295475  1
  Na  Na23  1  0.58097301  0.82582368  0.17704525  1
  Na  Na24  1  0.57492443  0.07566503  0.25152542  1
  Na  Na25  1  0.92507557  0.57566503  0.74847458  1
  Na  Na26  1  0.07492443  0.92433497  0.24847458  1
  Na  Na27  1  0.42507557  0.42433497  0.75152542  1
  Na  Na28  1  0.42507557  0.92433497  0.74847458  1
  Na  Na29  1  0.07492443  0.42433497  0.25152542  1
  Na  Na30  1  0.92507557  0.07566503  0.75152542  1
  Na  Na31  1  0.57492443  0.57566503  0.24847458  1
  Na  Na32  1  0.90909771  0.44370512  0.43285839  1
  Na  Na33  1  0.59090229  0.94370512  0.56714161  1
  Na  Na34  1  0.40909771  0.55629488  0.06714161  1
  Na  Na35  1  0.09090229  0.05629488  0.93285839  1
  Na  Na36  1  0.09090229  0.55629488  0.56714161  1
  Na  Na37  1  0.40909771  0.05629488  0.43285839  1
  Na  Na38  1  0.59090229  0.44370512  0.93285839  1
  Na  Na39  1  0.90909771  0.94370512  0.06714161  1
  Fe  Fe40  1  0.80346563  0.46239403  0.12852488  1
  Fe  Fe41  1  0.69653437  0.96239403  0.87147512  1
  Fe  Fe42  1  0.30346563  0.53760597  0.37147512  1
  Fe  Fe43  1  0.19653437  0.03760597  0.62852488  1
  Fe  Fe44  1  0.19653437  0.53760597  0.87147512  1
  Fe  Fe45  1  0.30346563  0.03760597  0.12852488  1
  Fe  Fe46  1  0.69653437  0.46239403  0.62852488  1
  Fe  Fe47  1  0.80346563  0.96239403  0.37147512  1
  O  O48  1  0.62018965  0.03877688  0.12576899  1
  O  O49  1  0.87981035  0.53877688  0.87423101  1
  O  O50  1  0.12018965  0.96122312  0.37423101  1
  O  O51  1  0.37981035  0.46122312  0.62576899  1
  O  O52  1  0.37981035  0.96122312  0.87423101  1
  O  O53  1  0.12018965  0.46122312  0.12576899  1
  O  O54  1  0.87981035  0.03877688  0.62576899  1
  O  O55  1  0.62018965  0.53877688  0.37423101  1
  O  O56  1  0.66525481  0.38500528  0.04864496  1
  O  O57  1  0.83474519  0.88500528  0.95135504  1
  O  O58  1  0.16525481  0.61499472  0.45135504  1
  O  O59  1  0.33474519  0.11499472  0.54864496  1
  O  O60  1  0.33474519  0.61499472  0.95135504  1
  O  O61  1  0.16525481  0.11499472  0.04864496  1
  O  O62  1  0.83474519  0.38500528  0.54864496  1
  O  O63  1  0.66525481  0.88500528  0.45135504  1
  O  O64  1  0.71305277  0.36931390  0.21076074  1
  O  O65  1  0.78694723  0.86931390  0.78923926  1
  O  O66  1  0.21305277  0.63068610  0.28923926  1
  O  O67  1  0.28694723  0.13068610  0.71076074  1
  O  O68  1  0.28694723  0.63068610  0.78923926  1
  O  O69  1  0.21305277  0.13068610  0.21076074  1
  O  O70  1  0.78694723  0.36931390  0.71076074  1
  O  O71  1  0.71305277  0.86931390  0.28923926  1
  O  O72  1  0.70580642  0.13519960  0.36422972  1
  O  O73  1  0.79419358  0.63519960  0.63577028  1
  O  O74  1  0.20580642  0.86480040  0.13577028  1
  O  O75  1  0.29419358  0.36480040  0.86422972  1
  O  O76  1  0.29419358  0.86480040  0.63577028  1
  O  O77  1  0.20580642  0.36480040  0.36422972  1
  O  O78  1  0.79419358  0.13519960  0.86422972  1
  O  O79  1  0.70580642  0.63519960  0.13577028  1
