# generated using pymatgen
data_La6CoCl11
_symmetry_space_group_name_H-M   'P 1'
_cell_length_a   11.38940868
_cell_length_b   11.38940468
_cell_length_c   14.53853305
_cell_angle_alpha   90.00000000
_cell_angle_beta   90.00000000
_cell_angle_gamma   89.99974027
_symmetry_Int_Tables_number   1
_chemical_formula_structural   La6CoCl11
_chemical_formula_sum   'La24 Co4 Cl44'
_cell_volume   1885.91792827
_cell_formula_units_Z   4
loop_
 _symmetry_equiv_pos_site_id
 _symmetry_equiv_pos_as_xyz
  1  'x, y, z'
loop_
 _atom_site_type_symbol
 _atom_site_label
 _atom_site_symmetry_multiplicity
 _atom_site_fract_x
 _atom_site_fract_y
 _atom_site_fract_z
 _atom_site_occupancy
  La  La0  1  0.76875671  0.98627647  0.24055328  1
  La  La1  1  0.23124329  0.01372353  0.24055328  1
  La  La2  1  0.48627263  0.73124381  0.74055292  1
  La  La3  1  0.51372737  0.26875619  0.74055292  1
  La  La4  1  0.73124329  0.51372353  0.25944672  1
  La  La5  1  0.26875671  0.48627647  0.25944672  1
  La  La6  1  0.01372737  0.76875619  0.75944708  1
  La  La7  1  0.98627263  0.23124381  0.75944708  1
  La  La8  1  0.43716435  0.76429036  0.10066400  1
  La  La9  1  0.56283565  0.23570964  0.10066400  1
  La  La10  1  0.26428949  0.06283291  0.60065448  1
  La  La11  1  0.73571051  0.93716709  0.60065448  1
  La  La12  1  0.06283565  0.73570964  0.39933600  1
  La  La13  1  0.93716435  0.26429036  0.39933600  1
  La  La14  1  0.23571051  0.43716709  0.89934552  1
  La  La15  1  0.76428949  0.56283291  0.89934552  1
  La  La16  1  0.39046898  0.75697744  0.37391648  1
  La  La17  1  0.60953102  0.24302256  0.37391648  1
  La  La18  1  0.25697787  0.10952965  0.87392300  1
  La  La19  1  0.74302213  0.89047035  0.87392300  1
  La  La20  1  0.10953102  0.74302256  0.12608352  1
  La  La21  1  0.89046898  0.25697744  0.12608352  1
  La  La22  1  0.24302213  0.39047035  0.62607700  1
  La  La23  1  0.75697787  0.60952965  0.62607700  1
  Co  Co24  1  0.75000000  0.25000000  0.25000000  1
  Co  Co25  1  0.25000000  0.75000000  0.25000000  1
  Co  Co26  1  0.75000000  0.75000000  0.75000000  1
  Co  Co27  1  0.25000000  0.25000000  0.75000000  1
  Cl  Cl28  1  0.60194898  0.75233998  0.25720023  1
  Cl  Cl29  1  0.39805102  0.24766002  0.25720023  1
  Cl  Cl30  1  0.25233979  0.89805044  0.75719980  1
  Cl  Cl31  1  0.74766021  0.10194956  0.75719980  1
  Cl  Cl32  1  0.89805102  0.74766002  0.24279977  1
  Cl  Cl33  1  0.10194898  0.25233998  0.24279977  1
  Cl  Cl34  1  0.24766021  0.60194956  0.74280020  1
  Cl  Cl35  1  0.75233979  0.39805044  0.74280020  1
  Cl  Cl36  1  0.64004094  0.98818709  0.40364085  1
  Cl  Cl37  1  0.35995906  0.01181291  0.40364085  1
  Cl  Cl38  1  0.48818456  0.85995795  0.90364561  1
  Cl  Cl39  1  0.51181544  0.14004205  0.90364561  1
  Cl  Cl40  1  0.85995906  0.51181291  0.09635915  1
  Cl  Cl41  1  0.14004094  0.48818709  0.09635915  1
  Cl  Cl42  1  0.01181544  0.64004205  0.59635439  1
  Cl  Cl43  1  0.98818456  0.35995795  0.59635439  1
  Cl  Cl44  1  0.74476258  0.04940390  0.04720170  1
  Cl  Cl45  1  0.25523742  0.95059610  0.04720170  1
  Cl  Cl46  1  0.54940411  0.75523592  0.54719448  1
  Cl  Cl47  1  0.45059589  0.24476408  0.54719448  1
  Cl  Cl48  1  0.75523742  0.45059610  0.45279830  1
  Cl  Cl49  1  0.24476258  0.54940390  0.45279830  1
  Cl  Cl50  1  0.95059589  0.74476408  0.95280552  1
  Cl  Cl51  1  0.04940411  0.25523592  0.95280552  1
  Cl  Cl52  1  0.50000000  0.00000000  0.16883987  1
  Cl  Cl53  1  0.50000000  0.00000000  0.66883454  1
  Cl  Cl54  1  0.00000000  0.50000000  0.33116013  1
  Cl  Cl55  1  0.00000000  0.50000000  0.83116546  1
  Cl  Cl56  1  0.00000000  0.00000000  0.14314720  1
  Cl  Cl57  1  0.50000000  0.50000000  0.64314401  1
  Cl  Cl58  1  0.50000000  0.50000000  0.35685280  1
  Cl  Cl59  1  0.00000000  0.00000000  0.85685599  1
  Cl  Cl60  1  0.50000000  0.50000000  0.12678873  1
  Cl  Cl61  1  0.00000000  0.00000000  0.62678438  1
  Cl  Cl62  1  0.00000000  0.00000000  0.37321127  1
  Cl  Cl63  1  0.50000000  0.50000000  0.87321562  1
  Cl  Cl64  1  0.26858522  0.68065222  0.96730061  1
  Cl  Cl65  1  0.73141478  0.31934778  0.96730061  1
  Cl  Cl66  1  0.18065229  0.23141649  0.46729315  1
  Cl  Cl67  1  0.81934771  0.76858351  0.46729315  1
  Cl  Cl68  1  0.23141478  0.81934778  0.53269939  1
  Cl  Cl69  1  0.76858522  0.18065222  0.53269939  1
  Cl  Cl70  1  0.31934771  0.26858351  0.03270685  1
  Cl  Cl71  1  0.68065229  0.73141649  0.03270685  1
