# generated using pymatgen
data_MgV12Zn6O24
_symmetry_space_group_name_H-M   'P 1'
_cell_length_a   6.15289684
_cell_length_b   6.10674547
_cell_length_c   18.57488629
_cell_angle_alpha   60.45697878
_cell_angle_beta   58.96612602
_cell_angle_gamma   60.12269405
_symmetry_Int_Tables_number   1
_chemical_formula_structural   MgV12Zn6O24
_chemical_formula_sum   'Mg1 V12 Zn6 O24'
_cell_volume   491.63673780
_cell_formula_units_Z   1
loop_
 _symmetry_equiv_pos_site_id
 _symmetry_equiv_pos_as_xyz
  1  'x, y, z'
loop_
 _atom_site_type_symbol
 _atom_site_label
 _atom_site_symmetry_multiplicity
 _atom_site_fract_x
 _atom_site_fract_y
 _atom_site_fract_z
 _atom_site_occupancy
  Mg  Mg0  1  0.68021965  0.08829721  0.54836124  1
  V  V1  1  0.99316877  0.50794526  0.16355536  1
  V  V2  1  0.49246816  0.50683902  0.16341144  1
  V  V3  1  0.98991923  0.50600520  0.49909757  1
  V  V4  1  0.49218503  0.00965459  0.16351328  1
  V  V5  1  0.47348121  0.51897061  0.32892734  1
  V  V6  1  0.46194215  0.57643099  0.48501616  1
  V  V7  1  0.00863117  0.48611007  0.83941552  1
  V  V8  1  0.46449347  0.00610475  0.48499534  1
  V  V9  1  0.49899604  0.99615746  0.83891554  1
  V  V10  1  0.53286113  0.48224095  0.66867678  1
  V  V11  1  0.50017511  0.48903899  0.83835912  1
  V  V12  1  0.87372622  0.87555770  0.95801271  1
  Zn  Zn13  1  0.11508129  0.11965610  0.04848050  1
  Zn  Zn14  1  0.10665148  0.15152127  0.36318761  1
  Zn  Zn15  1  0.49502656  0.49775427  0.00284939  1
  Zn  Zn16  1  0.13532949  0.12056076  0.70835488  1
  Zn  Zn17  1  0.86972649  0.88954139  0.28327077  1
  Zn  Zn18  1  0.93577030  0.80804945  0.65146378  1
  O  O19  1  0.24876944  0.25680649  0.09021875  1
  O  O20  1  0.24707019  0.27504659  0.23428391  1
  O  O21  1  0.24950389  0.72328531  0.09019915  1
  O  O22  1  0.71570625  0.25641239  0.08975911  1
  O  O23  1  0.27378787  0.75406707  0.23925139  1
  O  O24  1  0.24159040  0.28074410  0.40961807  1
  O  O25  1  0.72355065  0.29721670  0.24277106  1
  O  O26  1  0.74308870  0.74754394  0.08695574  1
  O  O27  1  0.24035217  0.74787900  0.40942713  1
  O  O28  1  0.28476517  0.25083608  0.57146645  1
  O  O29  1  0.72300532  0.74929470  0.24314298  1
  O  O30  1  0.69869892  0.26832661  0.42137052  1
  O  O31  1  0.30665349  0.72248482  0.58371278  1
  O  O32  1  0.26656825  0.26143577  0.75602912  1
  O  O33  1  0.77044976  0.23351099  0.59439118  1
  O  O34  1  0.74151934  0.75271045  0.41715458  1
  O  O35  1  0.25570900  0.25580616  0.91079685  1
  O  O36  1  0.28026896  0.70557891  0.75663358  1
  O  O37  1  0.77121719  0.71431272  0.59380607  1
  O  O38  1  0.72825323  0.23815803  0.76134316  1
  O  O39  1  0.26894006  0.75166957  0.91220547  1
  O  O40  1  0.74224160  0.71882280  0.77421412  1
  O  O41  1  0.74156383  0.26642941  0.91336873  1
  O  O42  1  0.75228235  0.73935436  0.91358380  1
