# generated using pymatgen
data_Cs4Au6S5
_symmetry_space_group_name_H-M   'P 1'
_cell_length_a   10.39863476
_cell_length_b   10.39863476
_cell_length_c   5.36729548
_cell_angle_alpha   90.00000000
_cell_angle_beta   90.00000000
_cell_angle_gamma   120.00000214
_symmetry_Int_Tables_number   1
_chemical_formula_structural   Cs4Au6S5
_chemical_formula_sum   'Cs4 Au6 S5'
_cell_volume   502.61885382
_cell_formula_units_Z   1
loop_
 _symmetry_equiv_pos_site_id
 _symmetry_equiv_pos_as_xyz
  1  'x, y, z'
loop_
 _atom_site_type_symbol
 _atom_site_label
 _atom_site_symmetry_multiplicity
 _atom_site_fract_x
 _atom_site_fract_y
 _atom_site_fract_z
 _atom_site_occupancy
  Cs  Cs0  1  -0.00000000  0.00000000  0.16585595  1
  Cs  Cs1  1  0.00000000  0.59460662  0.44951003  1
  Cs  Cs2  1  0.40539338  0.40539338  0.44951003  1
  Cs  Cs3  1  0.59460662  0.00000000  0.44951003  1
  Au  Au4  1  0.71672593  0.54640005  0.92294667  1
  Au  Au5  1  0.45359995  0.17032587  0.92294667  1
  Au  Au6  1  0.82967413  0.28327407  0.92294667  1
  Au  Au7  1  0.54640005  0.71672593  0.92294667  1
  Au  Au8  1  0.28327407  0.82967413  0.92294667  1
  Au  Au9  1  0.17032587  0.45359995  0.92294667  1
  S  S10  1  0.33333300  0.66666700  0.13892895  1
  S  S11  1  0.66666700  0.33333300  0.13892895  1
  S  S12  1  0.75151807  0.75151807  0.70068801  1
  S  S13  1  0.24848193  0.00000000  0.70068801  1
  S  S14  1  0.00000000  0.24848193  0.70068801  1
