# generated using pymatgen
data_NaNb13O33
_symmetry_space_group_name_H-M   'P 1'
_cell_length_a   3.85149413
_cell_length_b   11.53113351
_cell_length_c   15.57667188
_cell_angle_alpha   91.53869391
_cell_angle_beta   89.99885929
_cell_angle_gamma   99.61168503
_symmetry_Int_Tables_number   1
_chemical_formula_structural   NaNb13O33
_chemical_formula_sum   'Na1 Nb13 O33'
_cell_volume   681.82828182
_cell_formula_units_Z   1
loop_
 _symmetry_equiv_pos_site_id
 _symmetry_equiv_pos_as_xyz
  1  'x, y, z'
loop_
 _atom_site_type_symbol
 _atom_site_label
 _atom_site_symmetry_multiplicity
 _atom_site_fract_x
 _atom_site_fract_y
 _atom_site_fract_z
 _atom_site_occupancy
  Na  Na0  1  0.49999933  -0.00000034  0.50000023  1
  Nb  Nb1  1  0.00000325  0.00000039  -0.00000051  1
  Nb  Nb2  1  0.06997778  0.14049730  0.22903423  1
  Nb  Nb3  1  0.93003206  0.85950280  0.77096550  1
  Nb  Nb4  1  0.22456429  0.44913439  0.13720155  1
  Nb  Nb5  1  0.77543505  0.55086450  0.86279842  1
  Nb  Nb6  1  0.15526512  0.31106003  0.90471407  1
  Nb  Nb7  1  0.84473346  0.68893885  0.09528545  1
  Nb  Nb8  1  0.13675779  0.27336746  0.46859551  1
  Nb  Nb9  1  0.86323200  0.72663493  0.53140310  1
  Nb  Nb10  1  0.29236615  0.58457888  0.37392172  1
  Nb  Nb11  1  0.70763356  0.41542031  0.62607849  1
  Nb  Nb12  1  0.08655238  0.17374662  0.67559272  1
  Nb  Nb13  1  0.91345312  0.82625330  0.32440765  1
  O  O14  1  0.08194057  0.16407752  0.95147196  1
  O  O15  1  0.91805931  0.83592310  0.04852826  1
  O  O16  1  0.49999996  0.00000030  -0.00000021  1
  O  O17  1  0.32009082  0.64001621  0.09991754  1
  O  O18  1  0.67990928  0.35998565  0.90008247  1
  O  O19  1  0.25067059  0.50141945  0.86262031  1
  O  O20  1  0.74932938  0.49858195  0.13737980  1
  O  O21  1  0.15316617  0.30644154  0.19489241  1
  O  O22  1  0.84683293  0.69355765  0.80510800  1
  O  O23  1  0.42927127  0.85870874  0.75280241  1
  O  O24  1  0.57072794  0.14129072  0.24719750  1
  O  O25  1  0.19506031  0.39000946  0.02612135  1
  O  O26  1  0.80493785  0.60999083  0.97387979  1
  O  O27  1  0.03501014  0.06974670  0.11993885  1
  O  O28  1  0.96498875  0.93025349  0.88006168  1
  O  O29  1  0.12877727  0.25755665  0.78668473  1
  O  O30  1  0.87122221  0.74244410  0.21331577  1
  O  O31  1  0.26724483  0.53416082  0.26373056  1
  O  O32  1  0.73275733  0.46584028  0.73626988  1
  O  O33  1  0.09924739  0.19839442  0.36628253  1
  O  O34  1  0.90075015  0.80160420  0.63371624  1
  O  O35  1  0.01130731  0.02304763  0.70897188  1
  O  O36  1  0.98869366  0.97695259  0.29102869  1
  O  O37  1  0.39014682  0.77988732  0.33717984  1
  O  O38  1  0.60985499  0.22011330  0.66281985  1
  O  O39  1  0.18119715  0.36267659  0.61125881  1
  O  O40  1  0.81880236  0.63732315  0.38874122  1
  O  O41  1  0.22250195  0.44513851  0.43118918  1
  O  O42  1  0.77749802  0.55486058  0.56881078  1
  O  O43  1  0.34733739  0.69471417  0.50277296  1
  O  O44  1  0.65265939  0.30528551  0.49722680  1
  O  O45  1  0.06825384  0.13661445  0.54494601  1
  O  O46  1  0.93174833  0.86338501  0.45505403  1
