# generated using pymatgen
data_Cs3SnTe3
_symmetry_space_group_name_H-M   'P 1'
_cell_length_a   11.50755624
_cell_length_b   11.50755624
_cell_length_c   10.45525994
_cell_angle_alpha   84.81198958
_cell_angle_beta   84.81198958
_cell_angle_gamma   78.94927603
_symmetry_Int_Tables_number   1
_chemical_formula_structural   Cs3SnTe3
_chemical_formula_sum   'Cs12 Sn4 Te12'
_cell_volume   1349.49793853
_cell_formula_units_Z   4
loop_
 _symmetry_equiv_pos_site_id
 _symmetry_equiv_pos_as_xyz
  1  'x, y, z'
loop_
 _atom_site_type_symbol
 _atom_site_label
 _atom_site_symmetry_multiplicity
 _atom_site_fract_x
 _atom_site_fract_y
 _atom_site_fract_z
 _atom_site_occupancy
  Cs  Cs0  1  0.60509039  0.39490961  0.25000000  1
  Cs  Cs1  1  0.39490961  0.60509039  0.75000000  1
  Cs  Cs2  1  0.91320893  0.08679107  0.25000000  1
  Cs  Cs3  1  0.08679107  0.91320893  0.75000000  1
  Cs  Cs4  1  0.78545897  0.40109734  0.86589265  1
  Cs  Cs5  1  0.59890266  0.21454103  0.63410735  1
  Cs  Cs6  1  0.21454103  0.59890266  0.13410735  1
  Cs  Cs7  1  0.40109734  0.78545897  0.36589265  1
  Cs  Cs8  1  0.75656937  0.80807204  0.68734593  1
  Cs  Cs9  1  0.19192796  0.24343063  0.81265407  1
  Cs  Cs10  1  0.24343063  0.19192796  0.31265407  1
  Cs  Cs11  1  0.80807204  0.75656937  0.18734593  1
  Sn  Sn12  1  0.91798400  0.43445719  0.45464446  1
  Sn  Sn13  1  0.56554281  0.08201600  0.04535554  1
  Sn  Sn14  1  0.08201600  0.56554281  0.54535554  1
  Sn  Sn15  1  0.43445719  0.91798400  0.95464446  1
  Te  Te16  1  0.04732822  0.57944479  0.81030163  1
  Te  Te17  1  0.42055521  0.95267178  0.68969837  1
  Te  Te18  1  0.95267178  0.42055521  0.18969837  1
  Te  Te19  1  0.57944479  0.04732822  0.31030163  1
  Te  Te20  1  0.04942689  0.79052176  0.42452707  1
  Te  Te21  1  0.20947824  0.95057311  0.07547293  1
  Te  Te22  1  0.95057311  0.20947824  0.57547293  1
  Te  Te23  1  0.79052176  0.04942689  0.92452707  1
  Te  Te24  1  0.68809990  0.54888438  0.52248777  1
  Te  Te25  1  0.45111562  0.31190010  0.97751223  1
  Te  Te26  1  0.31190010  0.45111562  0.47751223  1
  Te  Te27  1  0.54888438  0.68809990  0.02248777  1
