# generated using pymatgen
data_Nd3Tm2(GaO4)3
_symmetry_space_group_name_H-M   'P 1'
_cell_length_a   11.18782937
_cell_length_b   11.18782937
_cell_length_c   11.18782937
_cell_angle_alpha   109.47122063
_cell_angle_beta   109.47122063
_cell_angle_gamma   109.47122063
_symmetry_Int_Tables_number   1
_chemical_formula_structural   Nd3Tm2(GaO4)3
_chemical_formula_sum   'Nd12 Tm8 Ga12 O48'
_cell_volume   1077.99218406
_cell_formula_units_Z   4
loop_
 _symmetry_equiv_pos_site_id
 _symmetry_equiv_pos_as_xyz
  1  'x, y, z'
loop_
 _atom_site_type_symbol
 _atom_site_label
 _atom_site_symmetry_multiplicity
 _atom_site_fract_x
 _atom_site_fract_y
 _atom_site_fract_z
 _atom_site_occupancy
  Nd  Nd0  1  0.25000000  0.37500000  0.12500000  1
  Nd  Nd1  1  0.75000000  0.62500000  0.87500000  1
  Nd  Nd2  1  0.75000000  0.12500000  0.37500000  1
  Nd  Nd3  1  0.12500000  0.25000000  0.37500000  1
  Nd  Nd4  1  0.37500000  0.75000000  0.12500000  1
  Nd  Nd5  1  0.25000000  0.87500000  0.62500000  1
  Nd  Nd6  1  0.87500000  0.75000000  0.62500000  1
  Nd  Nd7  1  0.62500000  0.25000000  0.87500000  1
  Nd  Nd8  1  0.37500000  0.12500000  0.25000000  1
  Nd  Nd9  1  0.62500000  0.87500000  0.75000000  1
  Nd  Nd10  1  0.12500000  0.37500000  0.75000000  1
  Nd  Nd11  1  0.87500000  0.62500000  0.25000000  1
  Tm  Tm12  1  -0.00000000  0.00000000  0.00000000  1
  Tm  Tm13  1  0.50000000  0.00000000  0.50000000  1
  Tm  Tm14  1  -0.00000000  0.50000000  0.50000000  1
  Tm  Tm15  1  0.50000000  0.00000000  0.00000000  1
  Tm  Tm16  1  0.50000000  0.50000000  0.00000000  1
  Tm  Tm17  1  0.50000000  0.50000000  0.50000000  1
  Tm  Tm18  1  -0.00000000  0.00000000  0.50000000  1
  Tm  Tm19  1  -0.00000000  0.50000000  0.00000000  1
  Ga  Ga20  1  0.25000000  0.62500000  0.37500000  1
  Ga  Ga21  1  0.75000000  0.37500000  0.62500000  1
  Ga  Ga22  1  0.75000000  0.87500000  0.12500000  1
  Ga  Ga23  1  0.37500000  0.25000000  0.62500000  1
  Ga  Ga24  1  0.62500000  0.75000000  0.37500000  1
  Ga  Ga25  1  0.25000000  0.12500000  0.87500000  1
  Ga  Ga26  1  0.12500000  0.75000000  0.87500000  1
  Ga  Ga27  1  0.87500000  0.25000000  0.12500000  1
  Ga  Ga28  1  0.62500000  0.37500000  0.25000000  1
  Ga  Ga29  1  0.37500000  0.62500000  0.75000000  1
  Ga  Ga30  1  0.87500000  0.12500000  0.75000000  1
  Ga  Ga31  1  0.12500000  0.87500000  0.25000000  1
  O  O32  1  0.47246465  0.37387054  0.28442297  1
  O  O33  1  0.52753535  0.62612946  0.71557703  1
  O  O34  1  0.58944756  0.18804068  0.21557703  1
  O  O35  1  0.91055244  0.12612946  0.59859411  1
  O  O36  1  0.28442297  0.47246465  0.37387054  1
  O  O37  1  0.31195932  0.91055244  0.28442297  1
  O  O38  1  0.41055244  0.81195932  0.78442297  1
  O  O39  1  0.08944756  0.87387054  0.40140589  1
  O  O40  1  0.71557703  0.52753535  0.62612946  1
  O  O41  1  0.68804068  0.08944756  0.71557703  1
  O  O42  1  0.02753535  0.31195932  0.90140589  1
  O  O43  1  0.21557703  0.58944756  0.18804068  1
  O  O44  1  0.12612946  0.02753535  0.21557703  1
  O  O45  1  0.97246465  0.68804068  0.09859411  1
  O  O46  1  0.78442297  0.41055244  0.81195932  1
  O  O47  1  0.87387054  0.97246465  0.78442297  1
  O  O48  1  0.59859411  0.91055244  0.12612946  1
  O  O49  1  0.18804068  0.47246465  0.59859411  1
  O  O50  1  0.40140589  0.08944756  0.87387054  1
  O  O51  1  0.81195932  0.52753535  0.40140589  1
  O  O52  1  0.90140589  0.02753535  0.31195932  1
  O  O53  1  0.37387054  0.58944756  0.90140589  1
  O  O54  1  0.09859411  0.97246465  0.68804068  1
  O  O55  1  0.62612946  0.41055244  0.09859411  1
  O  O56  1  0.37387054  0.28442297  0.47246465  1
  O  O57  1  0.58944756  0.90140589  0.37387054  1
  O  O58  1  0.62612946  0.71557703  0.52753535  1
  O  O59  1  0.41055244  0.09859411  0.62612946  1
  O  O60  1  0.12612946  0.59859411  0.91055244  1
  O  O61  1  0.02753535  0.21557703  0.12612946  1
  O  O62  1  0.87387054  0.40140589  0.08944756  1
  O  O63  1  0.97246465  0.78442297  0.87387054  1
  O  O64  1  0.31195932  0.90140589  0.02753535  1
  O  O65  1  0.91055244  0.28442297  0.31195932  1
  O  O66  1  0.68804068  0.09859411  0.97246465  1
  O  O67  1  0.08944756  0.71557703  0.68804068  1
  O  O68  1  0.18804068  0.21557703  0.58944756  1
  O  O69  1  0.47246465  0.59859411  0.18804068  1
  O  O70  1  0.81195932  0.78442297  0.41055244  1
  O  O71  1  0.52753535  0.40140589  0.81195932  1
  O  O72  1  0.28442297  0.31195932  0.91055244  1
  O  O73  1  0.71557703  0.68804068  0.08944756  1
  O  O74  1  0.21557703  0.12612946  0.02753535  1
  O  O75  1  0.78442297  0.87387054  0.97246465  1
  O  O76  1  0.90140589  0.37387054  0.58944756  1
  O  O77  1  0.09859411  0.62612946  0.41055244  1
  O  O78  1  0.59859411  0.18804068  0.47246465  1
  O  O79  1  0.40140589  0.81195932  0.52753535  1
