# generated using pymatgen
data_Ba(AsO3)2
_symmetry_space_group_name_H-M   'P 1'
_cell_length_a   5.00026020
_cell_length_b   5.78759222
_cell_length_c   9.65996603
_cell_angle_alpha   106.38343983
_cell_angle_beta   103.78488806
_cell_angle_gamma   93.94451268
_symmetry_Int_Tables_number   1
_chemical_formula_structural   Ba(AsO3)2
_chemical_formula_sum   'Ba2 As4 O12'
_cell_volume   257.68852078
_cell_formula_units_Z   2
loop_
 _symmetry_equiv_pos_site_id
 _symmetry_equiv_pos_as_xyz
  1  'x, y, z'
loop_
 _atom_site_type_symbol
 _atom_site_label
 _atom_site_symmetry_multiplicity
 _atom_site_fract_x
 _atom_site_fract_y
 _atom_site_fract_z
 _atom_site_occupancy
  Ba  Ba0  1  0.39314249  0.14305100  0.28612988  1
  Ba  Ba1  1  0.60685898  0.85694991  0.71386967  1
  As  As2  1  0.78463215  0.53467336  0.06911574  1
  As  As3  1  0.21536025  0.46532220  0.93088605  1
  As  As4  1  0.93851832  0.68835467  0.37683005  1
  As  As5  1  0.06148296  0.31164845  0.62316823  1
  O  O6  1  0.10098227  0.70797025  0.06068647  1
  O  O7  1  0.45974952  0.35277455  0.06070063  1
  O  O8  1  0.89901525  0.29202629  0.93931275  1
  O  O9  1  0.54024870  0.64722218  0.93929950  1
  O  O10  1  0.76066903  0.79826739  0.23126564  1
  O  O11  1  0.97076167  0.43292115  0.23119581  1
  O  O12  1  0.23933100  0.20173180  0.76873309  1
  O  O13  1  0.02923946  0.56708177  0.76880502  1
  O  O14  1  0.23141352  0.87923563  0.46556721  1
  O  O15  1  0.73436168  0.58624506  0.46551959  1
  O  O16  1  0.76859147  0.12076842  0.53443300  1
  O  O17  1  0.26564128  0.41375695  0.53448168  1
