# generated using pymatgen
data_CsI
_symmetry_space_group_name_H-M   'P 1'
_cell_length_a   5.49735623
_cell_length_b   11.01594872
_cell_length_c   7.82524392
_cell_angle_alpha   90.00000000
_cell_angle_beta   90.00000000
_cell_angle_gamma   90.00000000
_symmetry_Int_Tables_number   1
_chemical_formula_structural   CsI
_chemical_formula_sum   'Cs4 I4'
_cell_volume   473.88577205
_cell_formula_units_Z   4
loop_
 _symmetry_equiv_pos_site_id
 _symmetry_equiv_pos_as_xyz
  1  'x, y, z'
loop_
 _atom_site_type_symbol
 _atom_site_label
 _atom_site_symmetry_multiplicity
 _atom_site_fract_x
 _atom_site_fract_y
 _atom_site_fract_z
 _atom_site_occupancy
  Cs  Cs0  1  0.75000000  0.88133893  0.74927155  1
  Cs  Cs1  1  0.75000000  0.38133893  0.75072845  1
  Cs  Cs2  1  0.25000000  0.11866107  0.25072845  1
  Cs  Cs3  1  0.25000000  0.61866107  0.24927155  1
  I  I4  1  0.75000000  0.86868090  0.24912915  1
  I  I5  1  0.75000000  0.36868090  0.25087085  1
  I  I6  1  0.25000000  0.13131910  0.75087085  1
  I  I7  1  0.25000000  0.63131910  0.74912915  1
