# generated using pymatgen
data_CaVFe(P2O7)2
_symmetry_space_group_name_H-M   'P 1'
_cell_length_a   4.99470010
_cell_length_b   8.35322238
_cell_length_c   7.09376706
_cell_angle_alpha   89.99390932
_cell_angle_beta   106.43443979
_cell_angle_gamma   90.23067069
_symmetry_Int_Tables_number   1
_chemical_formula_structural   CaVFe(P2O7)2
_chemical_formula_sum   'Ca1 V1 Fe1 P4 O14'
_cell_volume   283.87063344
_cell_formula_units_Z   1
loop_
 _symmetry_equiv_pos_site_id
 _symmetry_equiv_pos_as_xyz
  1  'x, y, z'
loop_
 _atom_site_type_symbol
 _atom_site_label
 _atom_site_symmetry_multiplicity
 _atom_site_fract_x
 _atom_site_fract_y
 _atom_site_fract_z
 _atom_site_occupancy
  Ca  Ca0  1  0.31769500  0.39076000  0.16170900  1
  V  V1  1  0.20604400  0.51290300  0.71063100  1
  Fe  Fe2  1  0.78886100  0.99698500  0.27278500  1
  P  P3  1  0.37587100  0.18163400  0.50672400  1
  P  P4  1  0.23722300  0.77703700  0.10366600  1
  P  P5  1  0.74762300  0.26984100  0.89104100  1
  P  P6  1  0.61957200  0.69727800  0.50146800  1
  O  O7  1  0.00121900  0.33939500  0.83917900  1
  O  O8  1  0.15961700  0.65048100  0.94181900  1
  O  O9  1  0.14396000  0.06019800  0.47509900  1
  O  O10  1  0.27503500  0.35759000  0.49611000  1
  O  O11  1  0.44549700  0.67698000  0.64575400  1
  O  O12  1  0.53965100  0.40171000  0.91134900  1
  O  O13  1  0.58267800  0.14818700  0.72405200  1
  O  O14  1  0.41151000  0.65389200  0.28362500  1
  O  O15  1  0.43517300  0.91039800  0.08474000  1
  O  O16  1  0.54750400  0.17470400  0.35604600  1
  O  O17  1  0.71805200  0.86740800  0.49101400  1
  O  O18  1  0.84744000  0.57005700  0.52236700  1
  O  O19  1  0.85239100  0.17982000  0.08502700  1
  O  O20  1  0.98354700  0.83264400  0.16231500  1
