# generated using pymatgen
data_BaMg30NiO32
_symmetry_space_group_name_H-M   'P 1'
_cell_length_a   8.54509299
_cell_length_b   8.54509299
_cell_length_c   8.52618542
_cell_angle_alpha   90.00000000
_cell_angle_beta   90.00000000
_cell_angle_gamma   90.00000000
_symmetry_Int_Tables_number   1
_chemical_formula_structural   BaMg30NiO32
_chemical_formula_sum   'Ba1 Mg30 Ni1 O32'
_cell_volume   622.57024385
_cell_formula_units_Z   1
loop_
 _symmetry_equiv_pos_site_id
 _symmetry_equiv_pos_as_xyz
  1  'x, y, z'
loop_
 _atom_site_type_symbol
 _atom_site_label
 _atom_site_symmetry_multiplicity
 _atom_site_fract_x
 _atom_site_fract_y
 _atom_site_fract_z
 _atom_site_occupancy
  Ba  Ba0  1  -0.00000000  -0.00000000  0.50000000  1
  Mg  Mg1  1  0.50000000  -0.00000000  0.00000000  1
  Mg  Mg2  1  0.50000000  -0.00000000  0.50000000  1
  Mg  Mg3  1  -0.00000000  0.50000000  0.00000000  1
  Mg  Mg4  1  -0.00000000  0.50000000  0.50000000  1
  Mg  Mg5  1  0.50000000  0.50000000  0.00000000  1
  Mg  Mg6  1  0.50000000  0.50000000  0.50000000  1
  Mg  Mg7  1  0.25710111  -0.00000000  0.24267882  1
  Mg  Mg8  1  0.25710111  -0.00000000  0.75732118  1
  Mg  Mg9  1  0.74289889  -0.00000000  0.24267882  1
  Mg  Mg10  1  0.74289889  -0.00000000  0.75732118  1
  Mg  Mg11  1  0.25031239  0.50000000  0.24963567  1
  Mg  Mg12  1  0.25031239  0.50000000  0.75036433  1
  Mg  Mg13  1  0.74968761  0.50000000  0.24963567  1
  Mg  Mg14  1  0.74968761  0.50000000  0.75036433  1
  Mg  Mg15  1  -0.00000000  0.25710111  0.24267882  1
  Mg  Mg16  1  -0.00000000  0.25710111  0.75732118  1
  Mg  Mg17  1  0.50000000  0.25031239  0.24963567  1
  Mg  Mg18  1  0.50000000  0.25031239  0.75036433  1
  Mg  Mg19  1  -0.00000000  0.74289889  0.24267882  1
  Mg  Mg20  1  -0.00000000  0.74289889  0.75732118  1
  Mg  Mg21  1  0.50000000  0.74968761  0.24963567  1
  Mg  Mg22  1  0.50000000  0.74968761  0.75036433  1
  Mg  Mg23  1  0.24996862  0.24996862  0.00000000  1
  Mg  Mg24  1  0.25710606  0.25710606  0.50000000  1
  Mg  Mg25  1  0.75003138  0.24996862  0.00000000  1
  Mg  Mg26  1  0.74289394  0.25710606  0.50000000  1
  Mg  Mg27  1  0.24996862  0.75003138  0.00000000  1
  Mg  Mg28  1  0.25710606  0.74289394  0.50000000  1
  Mg  Mg29  1  0.75003138  0.75003138  0.00000000  1
  Mg  Mg30  1  0.74289394  0.74289394  0.50000000  1
  Ni  Ni31  1  -0.00000000  -0.00000000  0.00000000  1
  O  O32  1  -0.00000000  0.25722655  0.00000000  1
  O  O33  1  -0.00000000  0.27947313  0.50000000  1
  O  O34  1  0.50000000  0.25137144  0.00000000  1
  O  O35  1  0.50000000  0.25558810  0.50000000  1
  O  O36  1  -0.00000000  0.74277345  0.00000000  1
  O  O37  1  -0.00000000  0.72052687  0.50000000  1
  O  O38  1  0.50000000  0.74862856  0.00000000  1
  O  O39  1  0.50000000  0.74441190  0.50000000  1
  O  O40  1  0.24928320  0.24928320  0.25047251  1
  O  O41  1  0.24928320  0.24928320  0.74952749  1
  O  O42  1  0.75071680  0.24928320  0.25047251  1
  O  O43  1  0.75071680  0.24928320  0.74952749  1
  O  O44  1  0.24928320  0.75071680  0.25047251  1
  O  O45  1  0.24928320  0.75071680  0.74952749  1
  O  O46  1  0.75071680  0.75071680  0.25047251  1
  O  O47  1  0.75071680  0.75071680  0.74952749  1
  O  O48  1  -0.00000000  -0.00000000  0.22118581  1
  O  O49  1  -0.00000000  -0.00000000  0.77881419  1
  O  O50  1  0.50000000  -0.00000000  0.24459235  1
  O  O51  1  0.50000000  -0.00000000  0.75540765  1
  O  O52  1  -0.00000000  0.50000000  0.24459235  1
  O  O53  1  -0.00000000  0.50000000  0.75540765  1
  O  O54  1  0.50000000  0.50000000  0.24864182  1
  O  O55  1  0.50000000  0.50000000  0.75135818  1
  O  O56  1  0.25722655  -0.00000000  0.00000000  1
  O  O57  1  0.27947313  -0.00000000  0.50000000  1
  O  O58  1  0.74277345  -0.00000000  0.00000000  1
  O  O59  1  0.72052687  -0.00000000  0.50000000  1
  O  O60  1  0.25137144  0.50000000  0.00000000  1
  O  O61  1  0.25558810  0.50000000  0.50000000  1
  O  O62  1  0.74862856  0.50000000  0.00000000  1
  O  O63  1  0.74441190  0.50000000  0.50000000  1
