# generated using pymatgen
data_HoAgS2
_symmetry_space_group_name_H-M   'P 1'
_cell_length_a   7.59791194
_cell_length_b   7.59791194
_cell_length_c   12.40063488
_cell_angle_alpha   90.00000000
_cell_angle_beta   90.00000000
_cell_angle_gamma   90.00000000
_symmetry_Int_Tables_number   1
_chemical_formula_structural   HoAgS2
_chemical_formula_sum   'Ho8 Ag8 S16'
_cell_volume   715.86714704
_cell_formula_units_Z   8
loop_
 _symmetry_equiv_pos_site_id
 _symmetry_equiv_pos_as_xyz
  1  'x, y, z'
loop_
 _atom_site_type_symbol
 _atom_site_label
 _atom_site_symmetry_multiplicity
 _atom_site_fract_x
 _atom_site_fract_y
 _atom_site_fract_z
 _atom_site_occupancy
  Ho  Ho0  1  0.00085715  0.74993721  0.62224637  1
  Ho  Ho1  1  0.49914285  0.24993721  0.62775363  1
  Ho  Ho2  1  0.75006279  0.50085715  0.87224637  1
  Ho  Ho3  1  0.74993721  0.00085715  0.37775363  1
  Ho  Ho4  1  0.25006279  0.99914285  0.87775363  1
  Ho  Ho5  1  0.24993721  0.49914285  0.37224637  1
  Ho  Ho6  1  0.99914285  0.25006279  0.12224637  1
  Ho  Ho7  1  0.50085715  0.75006279  0.12775363  1
  Ag  Ag8  1  0.48433164  0.24030933  0.18609506  1
  Ag  Ag9  1  0.25969067  0.98433164  0.43609506  1
  Ag  Ag10  1  0.74030933  0.01566836  0.93609506  1
  Ag  Ag11  1  0.75969067  0.51566836  0.31390494  1
  Ag  Ag12  1  0.98433164  0.25969067  0.56390494  1
  Ag  Ag13  1  0.51566836  0.75969067  0.68609506  1
  Ag  Ag14  1  0.01566836  0.74030933  0.06390494  1
  Ag  Ag15  1  0.24030933  0.48433164  0.81390494  1
  S  S16  1  0.22683633  0.47668602  0.59223214  1
  S  S17  1  0.27316367  0.97668602  0.65776786  1
  S  S18  1  0.76921698  0.01900526  0.59847753  1
  S  S19  1  0.73078302  0.51900526  0.65152247  1
  S  S20  1  0.97668602  0.27316367  0.34223214  1
  S  S21  1  0.52331398  0.77316367  0.90776786  1
  S  S22  1  0.51900526  0.73078302  0.34847753  1
  S  S23  1  0.98099474  0.23078302  0.90152247  1
  S  S24  1  0.47668602  0.22683633  0.40776786  1
  S  S25  1  0.02331398  0.72683633  0.84223214  1
  S  S26  1  0.48099474  0.26921698  0.84847753  1
  S  S27  1  0.72683633  0.02331398  0.15776786  1
  S  S28  1  0.23078302  0.98099474  0.09847753  1
  S  S29  1  0.26921698  0.48099474  0.15152247  1
  S  S30  1  0.77316367  0.52331398  0.09223214  1
  S  S31  1  0.01900526  0.76921698  0.40152247  1
