# generated using pymatgen
data_K2Ta4O11
_symmetry_space_group_name_H-M   'P 1'
_cell_length_a   12.85824913
_cell_length_b   12.85824913
_cell_length_c   12.85824810
_cell_angle_alpha   28.32673187
_cell_angle_beta   28.32673187
_cell_angle_gamma   28.32673576
_symmetry_Int_Tables_number   1
_chemical_formula_structural   K2Ta4O11
_chemical_formula_sum   'K4 Ta8 O22'
_cell_volume   422.95470229
_cell_formula_units_Z   2
loop_
 _symmetry_equiv_pos_site_id
 _symmetry_equiv_pos_as_xyz
  1  'x, y, z'
loop_
 _atom_site_type_symbol
 _atom_site_label
 _atom_site_symmetry_multiplicity
 _atom_site_fract_x
 _atom_site_fract_y
 _atom_site_fract_z
 _atom_site_occupancy
  K  K0  1  0.82599347  0.82599347  0.82599347  1
  K  K1  1  0.32599347  0.32599347  0.32599347  1
  K  K2  1  0.17400653  0.17400653  0.17400653  1
  K  K3  1  0.67400653  0.67400653  0.67400653  1
  Ta  Ta4  1  0.50000000  0.50000000  0.50000000  1
  Ta  Ta5  1  0.00000000  0.00000000  -0.00000000  1
  Ta  Ta6  1  0.25000000  0.61522286  0.88477714  1
  Ta  Ta7  1  0.88477714  0.25000000  0.61522286  1
  Ta  Ta8  1  0.61522286  0.88477714  0.25000000  1
  Ta  Ta9  1  0.38477714  0.11522286  0.75000000  1
  Ta  Ta10  1  0.75000000  0.38477714  0.11522286  1
  Ta  Ta11  1  0.11522286  0.75000000  0.38477714  1
  O  O12  1  0.26016029  0.56959285  0.76504011  1
  O  O13  1  0.76504011  0.26016029  0.56959285  1
  O  O14  1  0.56959285  0.76504011  0.26016029  1
  O  O15  1  0.26504011  0.06959285  0.76016029  1
  O  O16  1  0.76016029  0.26504011  0.06959285  1
  O  O17  1  0.06959285  0.76016029  0.26504011  1
  O  O18  1  0.73983971  0.43040715  0.23495989  1
  O  O19  1  0.23495989  0.73983971  0.43040715  1
  O  O20  1  0.43040715  0.23495989  0.73983971  1
  O  O21  1  0.73495989  0.93040715  0.23983971  1
  O  O22  1  0.23983971  0.73495989  0.93040715  1
  O  O23  1  0.93040715  0.23983971  0.73495989  1
  O  O24  1  0.90638293  0.90638293  0.90638293  1
  O  O25  1  0.40638293  0.40638293  0.40638293  1
  O  O26  1  0.09361707  0.09361707  0.09361707  1
  O  O27  1  0.59361707  0.59361707  0.59361707  1
  O  O28  1  0.00483201  0.49516799  0.25000000  1
  O  O29  1  0.25000000  0.00483201  0.49516799  1
  O  O30  1  0.49516799  0.25000000  0.00483201  1
  O  O31  1  0.75000000  0.99516799  0.50483201  1
  O  O32  1  0.50483201  0.75000000  0.99516799  1
  O  O33  1  0.99516799  0.50483201  0.75000000  1
