# generated using pymatgen
data_Ba(AgTe)2
_symmetry_space_group_name_H-M   'P 1'
_cell_length_a   4.64490124
_cell_length_b   11.00102568
_cell_length_c   11.93454418
_cell_angle_alpha   90.00000000
_cell_angle_beta   90.00000000
_cell_angle_gamma   90.00000000
_symmetry_Int_Tables_number   1
_chemical_formula_structural   Ba(AgTe)2
_chemical_formula_sum   'Ba4 Ag8 Te8'
_cell_volume   609.83942801
_cell_formula_units_Z   4
loop_
 _symmetry_equiv_pos_site_id
 _symmetry_equiv_pos_as_xyz
  1  'x, y, z'
loop_
 _atom_site_type_symbol
 _atom_site_label
 _atom_site_symmetry_multiplicity
 _atom_site_fract_x
 _atom_site_fract_y
 _atom_site_fract_z
 _atom_site_occupancy
  Ba  Ba0  1  0.75000000  0.74659328  0.19156403  1
  Ba  Ba1  1  0.25000000  0.25340672  0.80843597  1
  Ba  Ba2  1  0.75000000  0.24659328  0.30843597  1
  Ba  Ba3  1  0.25000000  0.75340672  0.69156403  1
  Ag  Ag4  1  0.25000000  0.05863350  0.54755789  1
  Ag  Ag5  1  0.75000000  0.94136650  0.45244211  1
  Ag  Ag6  1  0.75000000  0.44136650  0.04755789  1
  Ag  Ag7  1  0.25000000  0.55863350  0.95244211  1
  Ag  Ag8  1  0.75000000  0.94388377  0.91717821  1
  Ag  Ag9  1  0.25000000  0.05611623  0.08282179  1
  Ag  Ag10  1  0.75000000  0.44388377  0.58282179  1
  Ag  Ag11  1  0.25000000  0.55611623  0.41717821  1
  Te  Te12  1  0.25000000  0.81645115  0.97814961  1
  Te  Te13  1  0.75000000  0.18354885  0.02185039  1
  Te  Te14  1  0.75000000  0.68354885  0.47814961  1
  Te  Te15  1  0.25000000  0.31645115  0.52185039  1
  Te  Te16  1  0.75000000  0.51910236  0.81282081  1
  Te  Te17  1  0.25000000  0.48089764  0.18717919  1
  Te  Te18  1  0.75000000  0.01910236  0.68717919  1
  Te  Te19  1  0.25000000  0.98089764  0.31282081  1
