# generated using pymatgen
data_Li3Y(NO3)6
_symmetry_space_group_name_H-M   'P 1'
_cell_length_a   7.65662732
_cell_length_b   7.93274930
_cell_length_c   24.37510651
_cell_angle_alpha   91.38769307
_cell_angle_beta   90.00000000
_cell_angle_gamma   90.00000000
_symmetry_Int_Tables_number   1
_chemical_formula_structural   Li3Y(NO3)6
_chemical_formula_sum   'Li12 Y4 N24 O72'
_cell_volume   1480.06357060
_cell_formula_units_Z   4
loop_
 _symmetry_equiv_pos_site_id
 _symmetry_equiv_pos_as_xyz
  1  'x, y, z'
loop_
 _atom_site_type_symbol
 _atom_site_label
 _atom_site_symmetry_multiplicity
 _atom_site_fract_x
 _atom_site_fract_y
 _atom_site_fract_z
 _atom_site_occupancy
  Li  Li0  1  0.81630254  0.70802505  0.63456713  1
  Li  Li1  1  0.18369746  0.29197495  0.36543287  1
  Li  Li2  1  0.31630254  0.79197495  0.86543287  1
  Li  Li3  1  0.68369746  0.20802505  0.13456713  1
  Li  Li4  1  0.55804678  0.99884765  0.74510249  1
  Li  Li5  1  0.44195322  0.00115235  0.25489751  1
  Li  Li6  1  0.05804678  0.50115235  0.75489751  1
  Li  Li7  1  0.94195322  0.49884765  0.24510249  1
  Li  Li8  1  0.28968534  0.74198855  0.52555441  1
  Li  Li9  1  0.71031466  0.25801145  0.47444559  1
  Li  Li10  1  0.78968534  0.75801145  0.97444559  1
  Li  Li11  1  0.21031466  0.24198855  0.02555441  1
  Y  Y12  1  0.30559920  0.24304334  0.60961592  1
  Y  Y13  1  0.69440080  0.75695666  0.39038408  1
  Y  Y14  1  0.80559920  0.25695666  0.89038408  1
  Y  Y15  1  0.19440080  0.74304334  0.10961592  1
  N  N16  1  0.79850897  0.73521343  0.73528779  1
  N  N17  1  0.20149103  0.26478657  0.26471221  1
  N  N18  1  0.29850897  0.76478657  0.76471221  1
  N  N19  1  0.70149103  0.23521343  0.23528779  1
  N  N20  1  0.30223072  0.26080787  0.72993047  1
  N  N21  1  0.69776928  0.73919213  0.27006953  1
  N  N22  1  0.80223072  0.23919213  0.77006953  1
  N  N23  1  0.19776928  0.76080787  0.22993047  1
  N  N24  1  0.49302153  0.14594149  0.94584456  1
  N  N25  1  0.50697847  0.85405851  0.05415544  1
  N  N26  1  0.99302153  0.35405851  0.55415544  1
  N  N27  1  0.00697847  0.64594149  0.44584456  1
  N  N28  1  0.12772334  0.39953410  0.93606707  1
  N  N29  1  0.87227666  0.60046590  0.06393293  1
  N  N30  1  0.62772334  0.10046590  0.56393293  1
  N  N31  1  0.37227666  0.89953410  0.43606707  1
  N  N32  1  0.11489664  0.92472730  0.60634233  1
  N  N33  1  0.88510336  0.07527270  0.39365767  1
  N  N34  1  0.61489664  0.57527270  0.89365767  1
  N  N35  1  0.38510336  0.42472730  0.10634233  1
  N  N36  1  0.00677111  0.94562448  0.90276800  1
  N  N37  1  0.99322889  0.05437552  0.09723200  1
  N  N38  1  0.50677111  0.55437552  0.59723200  1
  N  N39  1  0.49322889  0.44562448  0.40276800  1
  O  O40  1  0.39721602  0.15491465  0.70204460  1
  O  O41  1  0.60278398  0.84508535  0.29795540  1
  O  O42  1  0.89721602  0.34508535  0.79795540  1
  O  O43  1  0.10278398  0.65491465  0.20204460  1
  O  O44  1  0.52442110  0.09148561  0.89721563  1
  O  O45  1  0.47557890  0.90851439  0.10278437  1
  O  O46  1  0.02442110  0.40851439  0.60278437  1
  O  O47  1  0.97557890  0.59148561  0.39721563  1
  O  O48  1  0.60609132  0.24601199  0.96779124  1
  O  O49  1  0.39390868  0.75398801  0.03220876  1
  O  O50  1  0.10609132  0.25398801  0.53220876  1
  O  O51  1  0.89390868  0.74601199  0.46779124  1
  O  O52  1  0.30029697  0.26855155  0.78010716  1
  O  O53  1  0.69970303  0.73144845  0.21989284  1
  O  O54  1  0.80029697  0.23144845  0.71989284  1
  O  O55  1  0.19970303  0.76855155  0.28010716  1
  O  O56  1  0.26274214  0.45559480  0.95713980  1
  O  O57  1  0.73725786  0.54440520  0.04286020  1
  O  O58  1  0.76274214  0.04440520  0.54286020  1
  O  O59  1  0.23725786  0.95559480  0.45713980  1
  O  O60  1  0.04720705  0.05602365  0.86796664  1
  O  O61  1  0.95279295  0.94397635  0.13203336  1
  O  O62  1  0.54720705  0.44397635  0.63203336  1
  O  O63  1  0.45279295  0.55602365  0.36796664  1
  O  O64  1  0.35837693  0.10357030  0.97075141  1
  O  O65  1  0.64162307  0.89642970  0.02924859  1
  O  O66  1  0.85837693  0.39642970  0.52924859  1
  O  O67  1  0.14162307  0.60357030  0.47075141  1
  O  O68  1  0.29602670  0.75442766  0.71389971  1
  O  O69  1  0.70397330  0.24557234  0.28610029  1
  O  O70  1  0.79602670  0.74557234  0.78610029  1
  O  O71  1  0.20397330  0.25442766  0.21389971  1
  O  O72  1  0.63656984  0.46994633  0.42965165  1
  O  O73  1  0.36343016  0.53005367  0.57034835  1
  O  O74  1  0.13656984  0.03005367  0.07034835  1
  O  O75  1  0.86343016  0.96994633  0.92965165  1
  O  O76  1  0.03304029  0.79082438  0.59966605  1
  O  O77  1  0.96695971  0.20917562  0.40033395  1
  O  O78  1  0.53304029  0.70917562  0.90033395  1
  O  O79  1  0.46695971  0.29082438  0.09966605  1
  O  O80  1  0.02326117  0.30325868  0.96451883  1
  O  O81  1  0.97673883  0.69674132  0.03548117  1
  O  O82  1  0.52326117  0.19674132  0.53548117  1
  O  O83  1  0.47673883  0.80325868  0.46451883  1
  O  O84  1  0.08084070  0.42689081  0.88738169  1
  O  O85  1  0.91915930  0.57310919  0.11261831  1
  O  O86  1  0.58084070  0.07310919  0.61261831  1
  O  O87  1  0.41915930  0.92689081  0.38738169  1
  O  O88  1  0.20843503  0.35927311  0.70023139  1
  O  O89  1  0.79156497  0.64072689  0.29976861  1
  O  O90  1  0.70843503  0.14072689  0.79976861  1
  O  O91  1  0.29156497  0.85927311  0.20023139  1
  O  O92  1  0.59884861  0.67960176  0.58853165  1
  O  O93  1  0.40115139  0.32039824  0.41146835  1
  O  O94  1  0.09884861  0.82039824  0.91146835  1
  O  O95  1  0.90115139  0.17960176  0.08853165  1
  O  O96  1  0.06507771  0.04603622  0.63723207  1
  O  O97  1  0.93492229  0.95396378  0.36276793  1
  O  O98  1  0.56507771  0.45396378  0.86276793  1
  O  O99  1  0.43492229  0.54603622  0.13723207  1
  O  O100  1  0.26000342  0.94512816  0.58023523  1
  O  O101  1  0.73999658  0.05487184  0.41976477  1
  O  O102  1  0.76000342  0.55487184  0.91976477  1
  O  O103  1  0.23999658  0.44512816  0.08023523  1
  O  O104  1  0.39183862  0.87508744  0.79073329  1
  O  O105  1  0.60816138  0.12491256  0.20926671  1
  O  O106  1  0.89183862  0.62491256  0.70926671  1
  O  O107  1  0.10816138  0.37508744  0.29073329  1
  O  O108  1  0.70899624  0.83330840  0.70511040  1
  O  O109  1  0.29100376  0.16669160  0.29488960  1
  O  O110  1  0.20899624  0.66669160  0.79488960  1
  O  O111  1  0.79100376  0.33330840  0.20511040  1
