# generated using pymatgen
data_La3Si6N11
_symmetry_space_group_name_H-M   'P 1'
_cell_length_a   10.19222250
_cell_length_b   10.19222250
_cell_length_c   4.84993614
_cell_angle_alpha   90.00000000
_cell_angle_beta   90.00000000
_cell_angle_gamma   90.00000000
_symmetry_Int_Tables_number   1
_chemical_formula_structural   La3Si6N11
_chemical_formula_sum   'La6 Si12 N22'
_cell_volume   503.81815366
_cell_formula_units_Z   2
loop_
 _symmetry_equiv_pos_site_id
 _symmetry_equiv_pos_as_xyz
  1  'x, y, z'
loop_
 _atom_site_type_symbol
 _atom_site_label
 _atom_site_symmetry_multiplicity
 _atom_site_fract_x
 _atom_site_fract_y
 _atom_site_fract_z
 _atom_site_occupancy
  La  La0  1  0.81897404  0.31897404  0.01218071  1
  La  La1  1  0.18102596  0.68102596  0.01218071  1
  La  La2  1  0.31897404  0.18102596  0.01218071  1
  La  La3  1  0.68102596  0.81897404  0.01218071  1
  La  La4  1  0.50000000  0.50000000  -0.00011292  1
  La  La5  1  -0.00000000  0.00000000  -0.00011292  1
  Si  Si6  1  0.29063052  0.42158531  0.53420576  1
  Si  Si7  1  0.70936948  0.57841469  0.53420576  1
  Si  Si8  1  0.79063052  0.07841469  0.53420576  1
  Si  Si9  1  0.20936948  0.92158531  0.53420576  1
  Si  Si10  1  0.57841469  0.29063052  0.53420576  1
  Si  Si11  1  0.42158531  0.70936948  0.53420576  1
  Si  Si12  1  0.92158531  0.79063052  0.53420576  1
  Si  Si13  1  0.07841469  0.20936948  0.53420576  1
  Si  Si14  1  0.38327426  0.88327426  0.04420985  1
  Si  Si15  1  0.61672574  0.11672574  0.04420985  1
  Si  Si16  1  0.88327426  0.61672574  0.04420985  1
  Si  Si17  1  0.11672574  0.38327426  0.04420985  1
  N  N18  1  0.42016487  0.32190120  0.64056162  1
  N  N19  1  0.57983513  0.67809880  0.64056162  1
  N  N20  1  0.92016487  0.17809880  0.64056162  1
  N  N21  1  0.07983513  0.82190120  0.64056162  1
  N  N22  1  0.67809880  0.42016487  0.64056162  1
  N  N23  1  0.32190120  0.57983513  0.64056162  1
  N  N24  1  0.82190120  0.92016487  0.64056162  1
  N  N25  1  0.17809880  0.07983513  0.64056162  1
  N  N26  1  0.26720251  0.42544506  0.18165419  1
  N  N27  1  0.73279749  0.57455494  0.18165419  1
  N  N28  1  0.76720251  0.07455494  0.18165419  1
  N  N29  1  0.23279749  0.92544506  0.18165419  1
  N  N30  1  0.57455494  0.26720251  0.18165419  1
  N  N31  1  0.42544506  0.73279749  0.18165419  1
  N  N32  1  0.92544506  0.76720251  0.18165419  1
  N  N33  1  0.07455494  0.23279749  0.18165419  1
  N  N34  1  0.34622542  0.84622542  0.69796031  1
  N  N35  1  0.65377458  0.15377458  0.69796031  1
  N  N36  1  0.84622542  0.65377458  0.69796031  1
  N  N37  1  0.15377458  0.34622542  0.69796031  1
  N  N38  1  -0.00000000  0.50000000  0.06964492  1
  N  N39  1  0.50000000  0.00000000  0.06964492  1
