# generated using pymatgen
data_Ca4Be2Al2Si9(HO14)2
_symmetry_space_group_name_H-M   'P 1'
_cell_length_a   5.07088489
_cell_length_b   12.08959389
_cell_length_c   19.63681758
_cell_angle_alpha   90.00000000
_cell_angle_beta   90.00000000
_cell_angle_gamma   102.10600613
_symmetry_Int_Tables_number   1
_chemical_formula_structural   Ca4Be2Al2Si9(HO14)2
_chemical_formula_sum   'Ca8 Be4 Al4 Si18 H4 O56'
_cell_volume   1177.06215191
_cell_formula_units_Z   2
loop_
 _symmetry_equiv_pos_site_id
 _symmetry_equiv_pos_as_xyz
  1  'x, y, z'
loop_
 _atom_site_type_symbol
 _atom_site_label
 _atom_site_symmetry_multiplicity
 _atom_site_fract_x
 _atom_site_fract_y
 _atom_site_fract_z
 _atom_site_occupancy
  Ca  Ca0  1  0.31218424  0.16592327  0.84807666  1
  Ca  Ca1  1  0.68781576  0.83407673  0.15192334  1
  Ca  Ca2  1  0.68781576  0.83407673  0.34807666  1
  Ca  Ca3  1  0.14626097  0.83407673  0.65192334  1
  Ca  Ca4  1  0.31218424  0.16592327  0.65192334  1
  Ca  Ca5  1  0.85373903  0.16592327  0.34807666  1
  Ca  Ca6  1  0.85373903  0.16592327  0.15192334  1
  Ca  Ca7  1  0.14626097  0.83407673  0.84807666  1
  Be  Be8  1  0.67512778  0.75144389  0.75000000  1
  Be  Be9  1  0.32487222  0.24855611  0.25000000  1
  Be  Be10  1  0.92368388  0.24855611  0.75000000  1
  Be  Be11  1  0.07631612  0.75144389  0.25000000  1
  Al  Al12  1  0.59538305  0.19076611  -0.00000000  1
  Al  Al13  1  0.40461695  0.80923389  -0.00000000  1
  Al  Al14  1  0.40461695  0.80923389  0.50000000  1
  Al  Al15  1  0.59538305  0.19076611  0.50000000  1
  Si  Si16  1  0.83090053  0.66180106  -0.00000000  1
  Si  Si17  1  0.16909947  0.33819894  -0.00000000  1
  Si  Si18  1  0.16909947  0.33819894  0.50000000  1
  Si  Si19  1  0.83090053  0.66180106  0.50000000  1
  Si  Si20  1  0.77001276  0.00000000  0.75000000  1
  Si  Si21  1  0.22998724  0.00000000  0.25000000  1
  Si  Si22  1  0.71562864  0.00000000  0.89499597  1
  Si  Si23  1  0.28437136  0.00000000  0.10500403  1
  Si  Si24  1  0.28437136  0.00000000  0.39499597  1
  Si  Si25  1  0.71562864  0.00000000  0.60500403  1
  Si  Si26  1  0.64052536  0.57296440  0.85698155  1
  Si  Si27  1  0.35947464  0.42703560  0.14301845  1
  Si  Si28  1  0.35947464  0.42703560  0.35698155  1
  Si  Si29  1  0.06756096  0.42703560  0.64301845  1
  Si  Si30  1  0.64052536  0.57296440  0.64301845  1
  Si  Si31  1  0.93243904  0.57296440  0.35698155  1
  Si  Si32  1  0.93243904  0.57296440  0.14301845  1
  Si  Si33  1  0.06756096  0.42703560  0.85698155  1
  H  H34  1  0.55898506  0.31305557  0.75000000  1
  H  H35  1  0.44101494  0.68694443  0.25000000  1
  H  H36  1  0.24592949  0.68694443  0.75000000  1
  H  H37  1  0.75407051  0.31305557  0.25000000  1
  O  O38  1  0.59182931  0.23625443  0.75000000  1
  O  O39  1  0.40817069  0.76374557  0.25000000  1
  O  O40  1  0.35557488  0.76374557  0.75000000  1
  O  O41  1  0.64442512  0.23625443  0.25000000  1
  O  O42  1  0.56673447  0.00000000  0.81700354  1
  O  O43  1  0.43326553  0.00000000  0.18299646  1
  O  O44  1  0.43326553  0.00000000  0.31700354  1
  O  O45  1  0.56673447  0.00000000  0.68299646  1
  O  O46  1  0.32310775  0.52926118  0.83574963  1
  O  O47  1  0.67689225  0.47073882  0.16425037  1
  O  O48  1  0.67689225  0.47073882  0.33574963  1
  O  O49  1  0.79384656  0.47073882  0.66425037  1
  O  O50  1  0.32310775  0.52926118  0.66425037  1
  O  O51  1  0.20615344  0.52926118  0.33574963  1
  O  O52  1  0.20615344  0.52926118  0.16425037  1
  O  O53  1  0.79384656  0.47073882  0.83574963  1
  O  O54  1  0.53644386  0.88517999  0.92776152  1
  O  O55  1  0.46355614  0.11482001  0.07223848  1
  O  O56  1  0.46355614  0.11482001  0.42776152  1
  O  O57  1  0.65126387  0.11482001  0.57223848  1
  O  O58  1  0.53644386  0.88517999  0.57223848  1
  O  O59  1  0.34873613  0.88517999  0.42776152  1
  O  O60  1  0.34873613  0.88517999  0.07223848  1
  O  O61  1  0.65126387  0.11482001  0.92776152  1
  O  O62  1  0.88073779  0.88239333  0.75000000  1
  O  O63  1  0.11926221  0.11760667  0.25000000  1
  O  O64  1  0.99834446  0.11760667  0.75000000  1
  O  O65  1  0.00165554  0.88239333  0.25000000  1
  O  O66  1  0.76302188  0.69173673  0.81927809  1
  O  O67  1  0.23697812  0.30826327  0.18072191  1
  O  O68  1  0.23697812  0.30826327  0.31927809  1
  O  O69  1  0.07128516  0.30826327  0.68072191  1
  O  O70  1  0.76302188  0.69173673  0.68072191  1
  O  O71  1  0.92871484  0.69173673  0.31927809  1
  O  O72  1  0.92871484  0.69173673  0.18072191  1
  O  O73  1  0.07128516  0.30826327  0.81927809  1
  O  O74  1  0.35960559  0.26126455  0.96320724  1
  O  O75  1  0.64039441  0.73873545  0.03679276  1
  O  O76  1  0.64039441  0.73873545  0.46320724  1
  O  O77  1  0.09834103  0.73873545  0.53679276  1
  O  O78  1  0.35960559  0.26126455  0.53679276  1
  O  O79  1  0.90165897  0.26126455  0.46320724  1
  O  O80  1  0.90165897  0.26126455  0.03679276  1
  O  O81  1  0.09834103  0.73873545  0.96320724  1
  O  O82  1  0.97026529  0.00000000  0.38598576  1
  O  O83  1  0.02973471  0.00000000  0.61401424  1
  O  O84  1  0.02973471  0.00000000  0.88598576  1
  O  O85  1  0.97026529  0.00000000  0.11401424  1
  O  O86  1  0.65545724  0.58662175  0.94024371  1
  O  O87  1  0.34454276  0.41337825  0.05975629  1
  O  O88  1  0.34454276  0.41337825  0.44024371  1
  O  O89  1  0.06883549  0.41337825  0.55975629  1
  O  O90  1  0.65545724  0.58662175  0.55975629  1
  O  O91  1  0.93116451  0.58662175  0.44024371  1
  O  O92  1  0.93116451  0.58662175  0.05975629  1
  O  O93  1  0.06883549  0.41337825  0.94024371  1
