# generated using pymatgen
data_K2SrV4O12
_symmetry_space_group_name_H-M   'P 1'
_cell_length_a   10.92285105
_cell_length_b   10.92285105
_cell_length_c   5.35927632
_cell_angle_alpha   90.00000000
_cell_angle_beta   90.00000000
_cell_angle_gamma   90.00000000
_symmetry_Int_Tables_number   1
_chemical_formula_structural   K2SrV4O12
_chemical_formula_sum   'K4 Sr2 V8 O24'
_cell_volume   639.40815702
_cell_formula_units_Z   2
loop_
 _symmetry_equiv_pos_site_id
 _symmetry_equiv_pos_as_xyz
  1  'x, y, z'
loop_
 _atom_site_type_symbol
 _atom_site_label
 _atom_site_symmetry_multiplicity
 _atom_site_fract_x
 _atom_site_fract_y
 _atom_site_fract_z
 _atom_site_occupancy
  K  K0  1  0.75000000  0.75000000  0.50000000  1
  K  K1  1  0.75000000  0.25000000  0.50000000  1
  K  K2  1  0.25000000  0.75000000  0.50000000  1
  K  K3  1  0.25000000  0.25000000  0.50000000  1
  Sr  Sr4  1  0.50000000  0.50000000  0.50000000  1
  Sr  Sr5  1  0.00000000  -0.00000000  0.50000000  1
  V  V6  1  0.72006419  -0.00000000  0.00000000  1
  V  V7  1  0.00000000  0.27993581  0.00000000  1
  V  V8  1  0.27993581  -0.00000000  0.00000000  1
  V  V9  1  0.50000000  0.77993581  0.00000000  1
  V  V10  1  0.77993581  0.50000000  0.00000000  1
  V  V11  1  0.22006419  0.50000000  0.00000000  1
  V  V12  1  0.50000000  0.22006419  0.00000000  1
  V  V13  1  0.00000000  0.72006419  0.00000000  1
  O  O14  1  0.45440795  0.30553172  0.23758750  1
  O  O15  1  0.54559205  0.69446828  0.23758750  1
  O  O16  1  0.69446828  0.45440795  0.23758750  1
  O  O17  1  0.30553172  0.54559205  0.23758750  1
  O  O18  1  0.30553172  0.45440795  0.76241250  1
  O  O19  1  0.45440795  0.69446828  0.76241250  1
  O  O20  1  0.54559205  0.30553172  0.76241250  1
  O  O21  1  0.69446828  0.54559205  0.76241250  1
  O  O22  1  0.04559205  0.19446828  0.76241250  1
  O  O23  1  0.95440795  0.80553172  0.76241250  1
  O  O24  1  0.80553172  0.04559205  0.76241250  1
  O  O25  1  0.19446828  0.95440795  0.76241250  1
  O  O26  1  0.19446828  0.04559205  0.23758750  1
  O  O27  1  0.04559205  0.80553172  0.23758750  1
  O  O28  1  0.12445937  0.37554063  0.10388363  1
  O  O29  1  0.37554063  0.87554063  0.10388363  1
  O  O30  1  0.62445937  0.12445937  0.10388363  1
  O  O31  1  0.87554063  0.62445937  0.10388363  1
  O  O32  1  0.87554063  0.37554063  0.89611637  1
  O  O33  1  0.12445937  0.62445937  0.89611637  1
  O  O34  1  0.37554063  0.12445937  0.89611637  1
  O  O35  1  0.62445937  0.87554063  0.89611637  1
  O  O36  1  0.80553172  0.95440795  0.23758750  1
  O  O37  1  0.95440795  0.19446828  0.23758750  1
