# generated using pymatgen
data_Ni(PO3)2
_symmetry_space_group_name_H-M   'P 1'
_cell_length_a   7.10454649
_cell_length_b   7.10454649
_cell_length_c   9.84133893
_cell_angle_alpha   67.05306587
_cell_angle_beta   67.05306587
_cell_angle_gamma   70.47021152
_symmetry_Int_Tables_number   1
_chemical_formula_structural   Ni(PO3)2
_chemical_formula_sum   'Ni4 P8 O24'
_cell_volume   411.38287974
_cell_formula_units_Z   4
loop_
 _symmetry_equiv_pos_site_id
 _symmetry_equiv_pos_as_xyz
  1  'x, y, z'
loop_
 _atom_site_type_symbol
 _atom_site_label
 _atom_site_symmetry_multiplicity
 _atom_site_fract_x
 _atom_site_fract_y
 _atom_site_fract_z
 _atom_site_occupancy
  Ni  Ni0  1  0.44236452  0.55763548  0.25000000  1
  Ni  Ni1  1  0.55763548  0.44236452  0.75000000  1
  Ni  Ni2  1  0.50000000  -0.00000000  0.00000000  1
  Ni  Ni3  1  -0.00000000  0.50000000  0.50000000  1
  P  P4  1  0.22968562  0.75045976  0.97652051  1
  P  P5  1  0.24954024  0.77031438  0.52347949  1
  P  P6  1  0.77031438  0.24954024  0.02347949  1
  P  P7  1  0.75045976  0.22968562  0.47652051  1
  P  P8  1  0.81029625  0.79383011  0.19771986  1
  P  P9  1  0.20616989  0.18970375  0.30228014  1
  P  P10  1  0.18970375  0.20616989  0.80228014  1
  P  P11  1  0.79383011  0.81029625  0.69771986  1
  O  O12  1  0.64976539  0.41666565  0.09446150  1
  O  O13  1  0.58333435  0.35023461  0.40553850  1
  O  O14  1  0.35023461  0.58333435  0.90553850  1
  O  O15  1  0.41666565  0.64976539  0.59446150  1
  O  O16  1  0.30583491  0.79141144  0.08387042  1
  O  O17  1  0.20858856  0.69416509  0.41612958  1
  O  O18  1  0.69416509  0.20858856  0.91612958  1
  O  O19  1  0.79141144  0.30583491  0.58387042  1
  O  O20  1  0.61531191  0.78357578  0.17709223  1
  O  O21  1  0.21642422  0.38468809  0.32290777  1
  O  O22  1  0.38468809  0.21642422  0.82290777  1
  O  O23  1  0.78357578  0.61531191  0.67709223  1
  O  O24  1  0.03342238  0.81285864  0.65374071  1
  O  O25  1  0.18714136  0.96657762  0.84625929  1
  O  O26  1  0.96657762  0.18714136  0.34625929  1
  O  O27  1  0.81285864  0.03342238  0.15374071  1
  O  O28  1  0.71110086  -0.00092560  0.56588535  1
  O  O29  1  0.00092560  0.28889914  0.93411465  1
  O  O30  1  0.28889914  0.00092560  0.43411465  1
  O  O31  1  -0.00092560  0.71110086  0.06588535  1
  O  O32  1  0.68751561  0.84163927  0.85038813  1
  O  O33  1  0.15836073  0.31248439  0.64961187  1
  O  O34  1  0.31248439  0.15836073  0.14961187  1
  O  O35  1  0.84163927  0.68751561  0.35038813  1
