# generated using pymatgen
data_K14Fe4O13
_symmetry_space_group_name_H-M   'P 1'
_cell_length_a   29.66367232
_cell_length_b   6.66893039
_cell_length_c   6.66992586
_cell_angle_alpha   60.87476254
_cell_angle_beta   90.00000000
_cell_angle_gamma   90.00000000
_symmetry_Int_Tables_number   1
_chemical_formula_structural   K14Fe4O13
_chemical_formula_sum   'K28 Fe8 O26'
_cell_volume   1152.64032856
_cell_formula_units_Z   2
loop_
 _symmetry_equiv_pos_site_id
 _symmetry_equiv_pos_as_xyz
  1  'x, y, z'
loop_
 _atom_site_type_symbol
 _atom_site_label
 _atom_site_symmetry_multiplicity
 _atom_site_fract_x
 _atom_site_fract_y
 _atom_site_fract_z
 _atom_site_occupancy
  K  K0  1  0.44953498  0.14904424  0.00251846  1
  K  K1  1  0.38817685  0.73988973  0.54551896  1
  K  K2  1  0.00107092  0.27163695  0.95684789  1
  K  K3  1  0.50107092  0.72836305  0.54315211  1
  K  K4  1  0.99892908  0.72836305  0.04315211  1
  K  K5  1  0.49892908  0.27163695  0.45684789  1
  K  K6  1  0.11407684  0.28405838  0.95484112  1
  K  K7  1  0.61407684  0.71594162  0.54515888  1
  K  K8  1  0.88592316  0.71594162  0.04515888  1
  K  K9  1  0.38592316  0.28405838  0.45484112  1
  K  K10  1  0.61182315  0.26011027  0.45448104  1
  K  K11  1  0.11182315  0.73988973  0.04551896  1
  K  K12  1  0.27094791  0.27330861  0.44298317  1
  K  K13  1  0.77094791  0.72669139  0.05701683  1
  K  K14  1  0.72905209  0.72669139  0.55701683  1
  K  K15  1  0.22905209  0.27330861  0.94298317  1
  K  K16  1  0.34871812  0.86906378  0.99778275  1
  K  K17  1  0.84871812  0.13093622  0.50221725  1
  K  K18  1  0.21912258  0.72028941  0.05348791  1
  K  K19  1  0.15128188  0.86906378  0.49778275  1
  K  K20  1  0.65128188  0.13093622  0.00221725  1
  K  K21  1  0.94953498  0.85095576  0.49748154  1
  K  K22  1  0.55046502  0.85095576  0.99748154  1
  K  K23  1  0.05046502  0.14904424  0.50251846  1
  K  K24  1  0.28087742  0.72028941  0.55348791  1
  K  K25  1  0.78087742  0.27971059  0.94651209  1
  K  K26  1  0.71912258  0.27971059  0.44651209  1
  K  K27  1  0.88817685  0.26011027  0.95448104  1
  Fe  Fe28  1  0.33572972  0.35008862  0.00088983  1
  Fe  Fe29  1  0.83572972  0.64991138  0.49911017  1
  Fe  Fe30  1  0.66427028  0.64991138  0.99911017  1
  Fe  Fe31  1  0.16427028  0.35008862  0.50088983  1
  Fe  Fe32  1  0.44537951  0.65727774  0.00035670  1
  Fe  Fe33  1  0.94537951  0.34272226  0.49964330  1
  Fe  Fe34  1  0.55462049  0.34272226  0.99964330  1
  Fe  Fe35  1  0.05462049  0.65727774  0.50035670  1
  O  O36  1  0.50000000  0.50000000  0.00000000  1
  O  O37  1  -0.00000000  0.50000000  0.50000000  1
  O  O38  1  0.20659385  0.55987787  0.50054926  1
  O  O39  1  0.70659385  0.44012213  -0.00054926  1
  O  O40  1  0.79340615  0.44012213  0.49945074  1
  O  O41  1  0.29340615  0.55987787  0.00054926  1
  O  O42  1  0.55712606  0.05751267  0.26555592  1
  O  O43  1  0.05712606  0.94248733  0.23444408  1
  O  O44  1  0.44287394  0.94248733  0.73444408  1
  O  O45  1  0.94287394  0.05751267  0.76555592  1
  O  O46  1  0.32990007  0.06773801  0.27090037  1
  O  O47  1  0.82990007  0.93226199  0.22909963  1
  O  O48  1  0.67009993  0.93226199  0.72909963  1
  O  O49  1  0.17009993  0.06773801  0.77090037  1
  O  O50  1  0.17221840  0.32766149  0.23271131  1
  O  O51  1  0.67221840  0.67233851  0.26728869  1
  O  O52  1  0.82778160  0.67233851  0.76728869  1
  O  O53  1  0.32778160  0.32766149  0.73271131  1
  O  O54  1  0.55691161  0.32287565  0.73093297  1
  O  O55  1  0.05691161  0.67712435  0.76906703  1
  O  O56  1  0.44308839  0.67712435  0.26906703  1
  O  O57  1  0.94308839  0.32287565  0.23093297  1
  O  O58  1  0.39617692  0.47325318  0.99760678  1
  O  O59  1  0.89617692  0.52674682  0.50239322  1
  O  O60  1  0.60382308  0.52674682  0.00239322  1
  O  O61  1  0.10382308  0.47325318  0.49760678  1
