# generated using pymatgen
data_Cs2YCl5
_symmetry_space_group_name_H-M   'P 1'
_cell_length_a   7.49723450
_cell_length_b   9.55403101
_cell_length_c   15.32305490
_cell_angle_alpha   90.00000000
_cell_angle_beta   90.00000000
_cell_angle_gamma   90.00000000
_symmetry_Int_Tables_number   1
_chemical_formula_structural   Cs2YCl5
_chemical_formula_sum   'Cs8 Y4 Cl20'
_cell_volume   1097.57220188
_cell_formula_units_Z   4
loop_
 _symmetry_equiv_pos_site_id
 _symmetry_equiv_pos_as_xyz
  1  'x, y, z'
loop_
 _atom_site_type_symbol
 _atom_site_label
 _atom_site_symmetry_multiplicity
 _atom_site_fract_x
 _atom_site_fract_y
 _atom_site_fract_z
 _atom_site_occupancy
  Cs  Cs0  1  0.25000000  0.66570590  0.91631096  1
  Cs  Cs1  1  0.75000000  0.33429410  0.08368904  1
  Cs  Cs2  1  0.75000000  0.83429410  0.41631096  1
  Cs  Cs3  1  0.25000000  0.16570590  0.58368904  1
  Cs  Cs4  1  0.25000000  0.97275826  0.21101990  1
  Cs  Cs5  1  0.75000000  0.02724174  0.78898010  1
  Cs  Cs6  1  0.75000000  0.52724174  0.71101990  1
  Cs  Cs7  1  0.25000000  0.47275826  0.28898010  1
  Y  Y8  1  0.25000000  0.68006452  0.56568305  1
  Y  Y9  1  0.75000000  0.31993548  0.43431695  1
  Y  Y10  1  0.75000000  0.81993548  0.06568305  1
  Y  Y11  1  0.25000000  0.18006452  0.93431695  1
  Cl  Cl12  1  0.25000000  0.51840713  0.70167436  1
  Cl  Cl13  1  0.75000000  0.48159287  0.29832564  1
  Cl  Cl14  1  0.75000000  0.98159287  0.20167436  1
  Cl  Cl15  1  0.25000000  0.01840713  0.79832564  1
  Cl  Cl16  1  0.50581492  0.83732380  0.61901512  1
  Cl  Cl17  1  0.49418508  0.16267620  0.38098488  1
  Cl  Cl18  1  0.49418508  0.66267620  0.11901512  1
  Cl  Cl19  1  0.00581492  0.16267620  0.38098488  1
  Cl  Cl20  1  0.50581492  0.33732380  0.88098488  1
  Cl  Cl21  1  0.99418508  0.83732380  0.61901512  1
  Cl  Cl22  1  0.99418508  0.33732380  0.88098488  1
  Cl  Cl23  1  0.00581492  0.66267620  0.11901512  1
  Cl  Cl24  1  0.25000000  0.79141425  0.40811147  1
  Cl  Cl25  1  0.75000000  0.20858575  0.59188853  1
  Cl  Cl26  1  0.75000000  0.70858575  0.90811147  1
  Cl  Cl27  1  0.25000000  0.29141425  0.09188853  1
  Cl  Cl28  1  0.00000000  0.50000000  0.50000000  1
  Cl  Cl29  1  0.00000000  -0.00000000  0.00000000  1
  Cl  Cl30  1  0.50000000  0.50000000  0.50000000  1
  Cl  Cl31  1  0.50000000  -0.00000000  0.00000000  1
