# generated using pymatgen
data_KRbMg14O15
_symmetry_space_group_name_H-M   'P 1'
_cell_length_a   9.08699919
_cell_length_b   8.95814177
_cell_length_c   4.33151745
_cell_angle_alpha   90.00000000
_cell_angle_beta   90.00000000
_cell_angle_gamma   90.00000000
_symmetry_Int_Tables_number   1
_chemical_formula_structural   KRbMg14O15
_chemical_formula_sum   'K1 Rb1 Mg14 O15'
_cell_volume   352.59689936
_cell_formula_units_Z   1
loop_
 _symmetry_equiv_pos_site_id
 _symmetry_equiv_pos_as_xyz
  1  'x, y, z'
loop_
 _atom_site_type_symbol
 _atom_site_label
 _atom_site_symmetry_multiplicity
 _atom_site_fract_x
 _atom_site_fract_y
 _atom_site_fract_z
 _atom_site_occupancy
  K  K0  1  0.10301445  0.00000000  -0.00000000  1
  Rb  Rb1  1  0.95335379  0.50000000  -0.00000000  1
  Mg  Mg2  1  0.52139135  0.00000000  -0.00000000  1
  Mg  Mg3  1  0.48479242  0.50000000  -0.00000000  1
  Mg  Mg4  1  0.01093355  0.24931186  0.50000000  1
  Mg  Mg5  1  0.01093355  0.75068814  0.50000000  1
  Mg  Mg6  1  0.49033732  0.23631606  0.50000000  1
  Mg  Mg7  1  0.49033732  0.76368394  0.50000000  1
  Mg  Mg8  1  0.25924375  0.00000000  0.50000000  1
  Mg  Mg9  1  0.26038404  0.50000000  0.50000000  1
  Mg  Mg10  1  0.78476613  0.00000000  0.50000000  1
  Mg  Mg11  1  0.70530489  0.50000000  0.50000000  1
  Mg  Mg12  1  0.23725162  0.28446201  0.00000000  1
  Mg  Mg13  1  0.23725162  0.71553799  -0.00000000  1
  Mg  Mg14  1  0.76812196  0.23344514  0.00000000  1
  Mg  Mg15  1  0.76812196  0.76655486  -0.00000000  1
  O  O16  1  0.27202856  0.50000000  -0.00000000  1
  O  O17  1  0.73786277  0.00000000  -0.00000000  1
  O  O18  1  0.69119569  0.50000000  -0.00000000  1
  O  O19  1  0.24868903  0.22837602  0.50000000  1
  O  O20  1  0.24868903  0.77162398  0.50000000  1
  O  O21  1  0.74698161  0.25083824  0.50000000  1
  O  O22  1  0.74698161  0.74916176  0.50000000  1
  O  O23  1  0.00610425  0.00000000  0.50000000  1
  O  O24  1  0.05281444  0.50000000  0.50000000  1
  O  O25  1  0.48142358  0.00000000  0.50000000  1
  O  O26  1  0.48246751  0.50000000  0.50000000  1
  O  O27  1  0.00676391  0.23608343  -0.00000000  1
  O  O28  1  0.00676391  0.76391657  -0.00000000  1
  O  O29  1  0.46784720  0.22687614  0.00000000  1
  O  O30  1  0.46784720  0.77312386  -0.00000000  1
