# generated using pymatgen
data_K4P2O7
_symmetry_space_group_name_H-M   'P 1'
_cell_length_a   5.90412400
_cell_length_b   5.90411282
_cell_length_c   14.85995474
_cell_angle_alpha   90.00011730
_cell_angle_beta   89.99989162
_cell_angle_gamma   119.99980435
_symmetry_Int_Tables_number   1
_chemical_formula_structural   K4P2O7
_chemical_formula_sum   'K8 P4 O14'
_cell_volume   448.59981730
_cell_formula_units_Z   2
loop_
 _symmetry_equiv_pos_site_id
 _symmetry_equiv_pos_as_xyz
  1  'x, y, z'
loop_
 _atom_site_type_symbol
 _atom_site_label
 _atom_site_symmetry_multiplicity
 _atom_site_fract_x
 _atom_site_fract_y
 _atom_site_fract_z
 _atom_site_occupancy
  K  K0  1  0.33333854  0.66666296  0.92034504  1
  K  K1  1  0.66666369  0.33334237  0.07965432  1
  K  K2  1  0.66667007  0.33333729  0.42037344  1
  K  K3  1  0.33332717  0.66666441  0.57962007  1
  K  K4  1  0.00000075  -0.00000161  0.25000292  1
  K  K5  1  -0.00000271  0.00000153  0.74999832  1
  K  K6  1  -0.00000060  0.00000116  -0.00000011  1
  K  K7  1  -0.00000121  0.00000127  0.50000266  1
  P  P8  1  0.33332746  0.66667148  0.14231384  1
  P  P9  1  0.66667213  0.33332832  0.85768769  1
  P  P10  1  0.66667187  0.33332846  0.64231460  1
  P  P11  1  0.33332804  0.66667178  0.35768530  1
  O  O12  1  0.19082949  0.80916876  0.11392118  1
  O  O13  1  0.19082401  0.38162952  0.11391886  1
  O  O14  1  0.61836922  0.80917671  0.11391856  1
  O  O15  1  0.80916954  0.19082962  0.88607805  1
  O  O16  1  0.80917631  0.61836692  0.88608143  1
  O  O17  1  0.38163255  0.19082347  0.88608128  1
  O  O18  1  0.80916853  0.19083079  0.61392098  1
  O  O19  1  0.80917480  0.61836543  0.61391724  1
  O  O20  1  0.38163360  0.19082437  0.61391753  1
  O  O21  1  0.19083125  0.80916911  0.38608206  1
  O  O22  1  0.19082629  0.38163104  0.38608372  1
  O  O23  1  0.61836939  0.80917395  0.38608349  1
  O  O24  1  0.33333891  0.66666111  0.24999794  1
  O  O25  1  0.66665992  0.33333975  0.74999759  1
