# generated using pymatgen
data_Ba3Ge2(B3O8)2
_symmetry_space_group_name_H-M   'P 1'
_cell_length_a   5.11775058
_cell_length_b   7.67074442
_cell_length_c   8.65399837
_cell_angle_alpha   102.56583706
_cell_angle_beta   102.65715655
_cell_angle_gamma   88.31552957
_symmetry_Int_Tables_number   1
_chemical_formula_structural   Ba3Ge2(B3O8)2
_chemical_formula_sum   'Ba3 Ge2 B6 O16'
_cell_volume   323.47426787
_cell_formula_units_Z   1
loop_
 _symmetry_equiv_pos_site_id
 _symmetry_equiv_pos_as_xyz
  1  'x, y, z'
loop_
 _atom_site_type_symbol
 _atom_site_label
 _atom_site_symmetry_multiplicity
 _atom_site_fract_x
 _atom_site_fract_y
 _atom_site_fract_z
 _atom_site_occupancy
  Ba  Ba0  1  0.50000000  0.50000000  0.00000000  1
  Ba  Ba1  1  0.61855454  0.07940838  0.26017910  1
  Ba  Ba2  1  0.38144546  0.92059162  0.73982090  1
  Ge  Ge3  1  0.22936010  0.33056114  0.55804935  1
  Ge  Ge4  1  0.77063990  0.66943886  0.44195065  1
  B  B5  1  0.80878191  0.25583644  0.70503693  1
  B  B6  1  0.19121809  0.74416356  0.29496307  1
  B  B7  1  0.97021041  0.59148492  0.75379126  1
  B  B8  1  0.02978959  0.40851508  0.24620874  1
  B  B9  1  0.03876499  0.19549990  0.97294796  1
  B  B10  1  0.96123501  0.80450010  0.02705204  1
  O  O11  1  0.96102407  0.20303021  0.57440373  1
  O  O12  1  0.03897593  0.79696979  0.42559627  1
  O  O13  1  0.21039391  0.54420222  0.67856653  1
  O  O14  1  0.78960609  0.45579778  0.32143347  1
  O  O15  1  0.51795053  0.21793185  0.62733383  1
  O  O16  1  0.48204947  0.78206815  0.37266617  1
  O  O17  1  0.76821880  0.67596400  0.64439359  1
  O  O18  1  0.23178120  0.32403600  0.35560641  1
  O  O19  1  0.86668694  0.43893893  0.79625888  1
  O  O20  1  0.13331306  0.56106107  0.20374112  1
  O  O21  1  0.30400424  0.17697658  0.99532493  1
  O  O22  1  0.69599576  0.82302342  0.00467507  1
  O  O23  1  0.91318352  0.27550529  0.09751934  1
  O  O24  1  0.08681648  0.72449471  0.90248066  1
  O  O25  1  0.86892911  0.13403070  0.81970772  1
  O  O26  1  0.13107089  0.86596930  0.18029228  1
