# generated using pymatgen
data_MgAl4(HO)12
_symmetry_space_group_name_H-M   'P 1'
_cell_length_a   7.55053810
_cell_length_b   7.40955621
_cell_length_c   7.30832192
_cell_angle_alpha   102.21904656
_cell_angle_beta   139.16449386
_cell_angle_gamma   92.69153448
_symmetry_Int_Tables_number   1
_chemical_formula_structural   MgAl4(HO)12
_chemical_formula_sum   'Mg1 Al4 H12 O12'
_cell_volume   247.20101393
_cell_formula_units_Z   1
loop_
 _symmetry_equiv_pos_site_id
 _symmetry_equiv_pos_as_xyz
  1  'x, y, z'
loop_
 _atom_site_type_symbol
 _atom_site_label
 _atom_site_symmetry_multiplicity
 _atom_site_fract_x
 _atom_site_fract_y
 _atom_site_fract_z
 _atom_site_occupancy
  Mg  Mg0  1  0.98878696  0.21908103  0.78232470  1
  Al  Al1  1  0.49046886  0.82290587  0.30349957  1
  Al  Al2  1  0.44006040  0.08380934  0.62790935  1
  Al  Al3  1  0.98334927  0.67335040  0.64001735  1
  Al  Al4  1  0.01291720  0.36878870  0.31279265  1
  H  H5  1  0.95660794  0.94299341  0.49945896  1
  H  H6  1  0.92776794  0.01323140  0.22803292  1
  H  H7  1  0.47357917  0.41527790  0.82332253  1
  H  H8  1  0.48098678  0.45499193  0.20586024  1
  H  H9  1  0.00316410  0.71513648  0.32615800  1
  H  H10  1  0.74120907  0.32028055  0.36708176  1
  H  H11  1  0.44255797  0.17063499  0.29622303  1
  H  H12  1  0.68087628  0.82076158  0.76673055  1
  H  H13  1  0.47328846  0.90986512  0.97217918  1
  H  H14  1  0.38259822  0.25168926  0.08664846  1
  H  H15  1  0.27421426  0.47395695  0.26874620  1
  H  H16  1  0.01243622  0.61062925  0.98593050  1
  O  O17  1  0.90133362  0.92612235  0.58689686  1
  O  O18  1  0.07191691  0.95492627  0.37477611  1
  O  O19  1  0.36167515  0.33494786  0.62020242  1
  O  O20  1  0.58725318  0.59543146  0.34981613  1
  O  O21  1  0.96322823  0.60381338  0.35895055  1
  O  O22  1  0.95175383  0.38382066  0.56211023  1
  O  O23  1  0.52736543  0.10404131  0.44313222  1
  O  O24  1  0.52016131  0.84780026  0.58943564  1
  O  O25  1  0.38482696  0.80742599  0.97008607  1
  O  O26  1  0.71139272  0.15787006  0.02462612  1
  O  O27  1  0.07339418  0.39292236  0.11224297  1
  O  O28  1  0.08451340  0.71601488  0.97520273  1
