# generated using pymatgen
data_Cs3TaS4
_symmetry_space_group_name_H-M   'P 1'
_cell_length_a   10.02699466
_cell_length_b   10.09965328
_cell_length_c   11.68712578
_cell_angle_alpha   90.00000000
_cell_angle_beta   90.00000000
_cell_angle_gamma   90.00000000
_symmetry_Int_Tables_number   1
_chemical_formula_structural   Cs3TaS4
_chemical_formula_sum   'Cs12 Ta4 S16'
_cell_volume   1183.54552166
_cell_formula_units_Z   4
loop_
 _symmetry_equiv_pos_site_id
 _symmetry_equiv_pos_as_xyz
  1  'x, y, z'
loop_
 _atom_site_type_symbol
 _atom_site_label
 _atom_site_symmetry_multiplicity
 _atom_site_fract_x
 _atom_site_fract_y
 _atom_site_fract_z
 _atom_site_occupancy
  Cs  Cs0  1  0.95003216  0.70995499  0.95918872  1
  Cs  Cs1  1  0.45003216  0.79004501  0.95918872  1
  Cs  Cs2  1  0.54996784  0.20995499  0.45918872  1
  Cs  Cs3  1  0.04996784  0.29004501  0.04081128  1
  Cs  Cs4  1  0.14604975  0.08138448  0.75000000  1
  Cs  Cs5  1  0.64604975  0.41861552  0.75000000  1
  Cs  Cs6  1  0.35395025  0.58138448  0.25000000  1
  Cs  Cs7  1  0.85395025  0.91861552  0.25000000  1
  Cs  Cs8  1  0.04996784  0.29004501  0.45918872  1
  Cs  Cs9  1  0.45003216  0.79004501  0.54081128  1
  Cs  Cs10  1  0.54996784  0.20995499  0.04081128  1
  Cs  Cs11  1  0.95003216  0.70995499  0.54081128  1
  Ta  Ta12  1  0.77869041  0.48518783  0.25000000  1
  Ta  Ta13  1  0.27869041  0.01481217  0.25000000  1
  Ta  Ta14  1  0.72130959  0.98518783  0.75000000  1
  Ta  Ta15  1  0.22130959  0.51481217  0.75000000  1
  S  S16  1  0.20445725  0.73961724  0.75000000  1
  S  S17  1  0.70445725  0.76038276  0.75000000  1
  S  S18  1  0.29554275  0.23961724  0.25000000  1
  S  S19  1  0.79554275  0.26038276  0.25000000  1
  S  S20  1  0.01187706  0.42612072  0.75000000  1
  S  S21  1  0.51187706  0.07387928  0.75000000  1
  S  S22  1  0.48812294  0.92612072  0.25000000  1
  S  S23  1  0.98812294  0.57387928  0.25000000  1
  S  S24  1  0.66784274  0.54851746  0.41086889  1
  S  S25  1  0.16784274  0.95148254  0.08913111  1
  S  S26  1  0.83215726  0.04851746  0.58913111  1
  S  S27  1  0.33215726  0.45148254  0.91086889  1
  S  S28  1  0.33215726  0.45148254  0.58913111  1
  S  S29  1  0.66784274  0.54851746  0.08913111  1
  S  S30  1  0.16784274  0.95148254  0.41086889  1
  S  S31  1  0.83215726  0.04851746  0.91086889  1
