# generated using pymatgen
data_CaLa2Co2Sb2(PbO6)2
_symmetry_space_group_name_H-M   'P 1'
_cell_length_a   5.72089711
_cell_length_b   5.96947881
_cell_length_c   9.74625231
_cell_angle_alpha   102.04824925
_cell_angle_beta   92.17787482
_cell_angle_gamma   88.46830420
_symmetry_Int_Tables_number   1
_chemical_formula_structural   CaLa2Co2Sb2(PbO6)2
_chemical_formula_sum   'Ca1 La2 Co2 Sb2 Pb2 O12'
_cell_volume   325.21496657
_cell_formula_units_Z   1
loop_
 _symmetry_equiv_pos_site_id
 _symmetry_equiv_pos_as_xyz
  1  'x, y, z'
loop_
 _atom_site_type_symbol
 _atom_site_label
 _atom_site_symmetry_multiplicity
 _atom_site_fract_x
 _atom_site_fract_y
 _atom_site_fract_z
 _atom_site_occupancy
  Ca  Ca0  1  0.05230200  0.15539000  0.62011700  1
  La  La1  1  0.49684900  0.57567300  0.65575100  1
  La  La2  1  0.01092200  0.97155800  0.24951000  1
  Co  Co3  1  0.01042700  0.55463300  0.46291700  1
  Co  Co4  1  0.47927200  0.91991700  0.04733000  1
  Sb  Sb5  1  0.99604400  0.39513400  0.04174300  1
  Sb  Sb6  1  0.52161300  0.02601300  0.46728300  1
  Pb  Pb7  1  0.52122500  0.43866500  0.25876200  1
  Pb  Pb8  1  0.98276200  0.85462200  0.85175700  1
  O  O9  1  0.55206900  0.89806900  0.26208500  1
  O  O10  1  0.07984800  0.54306100  0.67662300  1
  O  O11  1  0.47376800  0.18782400  0.66546600  1
  O  O12  1  0.97427200  0.56272800  0.24445700  1
  O  O13  1  0.26771800  0.81100000  0.49042300  1
  O  O14  1  0.62864600  0.73494300  0.88047500  1
  O  O15  1  0.76590600  0.26813000  0.45569800  1
  O  O16  1  0.26624200  0.20603800  0.09297000  1
  O  O17  1  0.25819300  0.24706500  0.41967100  1
  O  O18  1  0.77165700  0.15320100  0.10045400  1
  O  O19  1  0.76809500  0.82243400  0.53086500  1
  O  O20  1  0.16978800  0.73640300  0.03397500  1
