# generated using pymatgen
data_Mg14CoCO16
_symmetry_space_group_name_H-M   'P 1'
_cell_length_a   8.49853910
_cell_length_b   8.53000998
_cell_length_c   4.23238978
_cell_angle_alpha   90.00000000
_cell_angle_beta   90.00000000
_cell_angle_gamma   90.00000000
_symmetry_Int_Tables_number   1
_chemical_formula_structural   Mg14CoCO16
_chemical_formula_sum   'Mg14 Co1 C1 O16'
_cell_volume   306.81703814
_cell_formula_units_Z   1
loop_
 _symmetry_equiv_pos_site_id
 _symmetry_equiv_pos_as_xyz
  1  'x, y, z'
loop_
 _atom_site_type_symbol
 _atom_site_label
 _atom_site_symmetry_multiplicity
 _atom_site_fract_x
 _atom_site_fract_y
 _atom_site_fract_z
 _atom_site_occupancy
  Mg  Mg0  1  0.50000000  0.00000000  -0.00000000  1
  Mg  Mg1  1  0.50000000  0.50000000  -0.00000000  1
  Mg  Mg2  1  0.00000000  0.25340241  0.50000000  1
  Mg  Mg3  1  0.00000000  0.74659759  0.50000000  1
  Mg  Mg4  1  0.50000000  0.25096216  0.50000000  1
  Mg  Mg5  1  0.50000000  0.74903784  0.50000000  1
  Mg  Mg6  1  0.24979723  -0.00000000  0.50000000  1
  Mg  Mg7  1  0.24620562  0.50000000  0.50000000  1
  Mg  Mg8  1  0.75020277  0.00000000  0.50000000  1
  Mg  Mg9  1  0.75379438  0.50000000  0.50000000  1
  Mg  Mg10  1  0.24648800  0.25241032  0.00000000  1
  Mg  Mg11  1  0.24648800  0.74758968  -0.00000000  1
  Mg  Mg12  1  0.75351200  0.25241032  -0.00000000  1
  Mg  Mg13  1  0.75351200  0.74758968  -0.00000000  1
  Co  Co14  1  0.00000000  0.00000000  -0.00000000  1
  C  C15  1  0.00000000  0.50000000  -0.00000000  1
  O  O16  1  0.24945788  0.00000000  -0.00000000  1
  O  O17  1  0.25173588  0.50000000  0.00000000  1
  O  O18  1  0.75054212  0.00000000  0.00000000  1
  O  O19  1  0.74826412  0.50000000  -0.00000000  1
  O  O20  1  0.24873864  0.25010096  0.50000000  1
  O  O21  1  0.24873864  0.74989904  0.50000000  1
  O  O22  1  0.75126136  0.25010096  0.50000000  1
  O  O23  1  0.75126136  0.74989904  0.50000000  1
  O  O24  1  0.00000000  0.00000000  0.50000000  1
  O  O25  1  0.00000000  0.50000000  0.50000000  1
  O  O26  1  0.50000000  0.00000000  0.50000000  1
  O  O27  1  0.50000000  0.50000000  0.50000000  1
  O  O28  1  0.00000000  0.25391912  -0.00000000  1
  O  O29  1  0.00000000  0.74608088  -0.00000000  1
  O  O30  1  0.50000000  0.25011611  -0.00000000  1
  O  O31  1  0.50000000  0.74988389  -0.00000000  1
