# generated using pymatgen
data_BeCr2O4
_symmetry_space_group_name_H-M   'P 1'
_cell_length_a   4.54221179
_cell_length_b   5.70840671
_cell_length_c   9.81139617
_cell_angle_alpha   90.00001842
_cell_angle_beta   90.00005470
_cell_angle_gamma   90.00639128
_symmetry_Int_Tables_number   1
_chemical_formula_structural   BeCr2O4
_chemical_formula_sum   'Be4 Cr8 O16'
_cell_volume   254.39765157
_cell_formula_units_Z   4
loop_
 _symmetry_equiv_pos_site_id
 _symmetry_equiv_pos_as_xyz
  1  'x, y, z'
loop_
 _atom_site_type_symbol
 _atom_site_label
 _atom_site_symmetry_multiplicity
 _atom_site_fract_x
 _atom_site_fract_y
 _atom_site_fract_z
 _atom_site_occupancy
  Be  Be0  1  0.93069136  0.74997966  0.40701402  1
  Be  Be1  1  0.56930731  0.75002070  0.90701318  1
  Be  Be2  1  0.06930763  0.25002059  0.59298667  1
  Be  Be3  1  0.43069259  0.24998001  0.09298733  1
  Cr  Cr4  1  0.49739968  0.75002588  0.23028031  1
  Cr  Cr5  1  0.00260070  0.74997487  0.73027660  1
  Cr  Cr6  1  0.50260025  0.24997472  0.76972143  1
  Cr  Cr7  1  0.99739898  0.25002534  0.26972340  1
  Cr  Cr8  1  0.50000043  0.50000592  0.49999903  1
  Cr  Cr9  1  -0.00000033  -0.00000205  -0.00000016  1
  Cr  Cr10  1  0.50000066  -0.00000523  0.49999925  1
  Cr  Cr11  1  -0.00000078  0.50000229  -0.00000000  1
  O  O12  1  0.27747364  0.75001038  0.40768557  1
  O  O13  1  0.22252481  0.74998846  0.90768468  1
  O  O14  1  0.72252905  0.24999060  0.59231559  1
  O  O15  1  0.77747510  0.25000984  0.09231428  1
  O  O16  1  0.72962193  0.75010940  0.06037011  1
  O  O17  1  0.77037774  0.74989144  0.56037125  1
  O  O18  1  0.27037834  0.24989092  0.93962926  1
  O  O19  1  0.22962100  0.25010922  0.43962974  1
  O  O20  1  0.76033160  0.97689579  0.33661764  1
  O  O21  1  0.73966669  0.52310506  0.83661831  1
  O  O22  1  0.23968953  0.47662510  0.66342515  1
  O  O23  1  0.26031018  0.02337501  0.16342453  1
  O  O24  1  0.23966778  0.02310587  0.66338263  1
  O  O25  1  0.26033302  0.47689489  0.16338172  1
  O  O26  1  0.76031006  0.52337350  0.33657495  1
  O  O27  1  0.73969007  0.97662583  0.83657553  1
