# generated using pymatgen
data_BaMoF7
_symmetry_space_group_name_H-M   'P 1'
_cell_length_a   9.91773728
_cell_length_b   5.38111418
_cell_length_c   10.19980940
_cell_angle_alpha   88.37994754
_cell_angle_beta   90.00000000
_cell_angle_gamma   90.00000000
_symmetry_Int_Tables_number   1
_chemical_formula_structural   BaMoF7
_chemical_formula_sum   'Ba4 Mo4 F28'
_cell_volume   544.13070465
_cell_formula_units_Z   4
loop_
 _symmetry_equiv_pos_site_id
 _symmetry_equiv_pos_as_xyz
  1  'x, y, z'
loop_
 _atom_site_type_symbol
 _atom_site_label
 _atom_site_symmetry_multiplicity
 _atom_site_fract_x
 _atom_site_fract_y
 _atom_site_fract_z
 _atom_site_occupancy
  Ba  Ba0  1  0.32691981  0.30013040  0.50792911  1
  Ba  Ba1  1  0.82691981  0.69986960  0.99207089  1
  Ba  Ba2  1  0.67308019  0.69986960  0.49207089  1
  Ba  Ba3  1  0.17308019  0.30013040  0.00792911  1
  Mo  Mo4  1  0.60461931  0.17135441  0.18367895  1
  Mo  Mo5  1  0.39538069  0.82864559  0.81632105  1
  Mo  Mo6  1  0.89538069  0.17135441  0.68367895  1
  Mo  Mo7  1  0.10461931  0.82864559  0.31632105  1
  F  F8  1  0.46447467  0.12257393  0.87792034  1
  F  F9  1  0.05664816  0.32088971  0.62658210  1
  F  F10  1  0.69301711  0.45876741  0.23868547  1
  F  F11  1  0.30698289  0.54123259  0.76131453  1
  F  F12  1  0.45418261  0.88047928  0.63840693  1
  F  F13  1  0.80553931  0.23220660  0.51879837  1
  F  F14  1  0.75821382  0.97518830  0.23520386  1
  F  F15  1  0.95418261  0.11952072  0.86159307  1
  F  F16  1  0.44335184  0.32088971  0.12658210  1
  F  F17  1  0.19301711  0.54123259  0.26131453  1
  F  F18  1  0.03552533  0.12257393  0.37792034  1
  F  F19  1  0.53552533  0.87742607  0.12207966  1
  F  F20  1  0.25821382  0.02481170  0.26479614  1
  F  F21  1  0.95599558  0.37895674  0.11828994  1
  F  F22  1  0.54581739  0.11952072  0.36159307  1
  F  F23  1  0.04581739  0.88047928  0.13840693  1
  F  F24  1  0.24178618  0.02481170  0.76479614  1
  F  F25  1  0.96447467  0.87742607  0.62207966  1
  F  F26  1  0.45599558  0.62104326  0.38171006  1
  F  F27  1  0.94335184  0.67911029  0.37341790  1
  F  F28  1  0.04400442  0.62104326  0.88171006  1
  F  F29  1  0.74178618  0.97518830  0.73520386  1
  F  F30  1  0.54400442  0.37895674  0.61828994  1
  F  F31  1  0.30553931  0.76779340  0.98120163  1
  F  F32  1  0.19446069  0.76779340  0.48120163  1
  F  F33  1  0.69446069  0.23220660  0.01879837  1
  F  F34  1  0.55664816  0.67911029  0.87341790  1
  F  F35  1  0.80698289  0.45876741  0.73868547  1
