# generated using pymatgen
data_AlGaN2
_symmetry_space_group_name_H-M   'P 1'
_cell_length_a   3.14528264
_cell_length_b   3.14528264
_cell_length_c   5.09689373
_cell_angle_alpha   90.00000000
_cell_angle_beta   90.00000000
_cell_angle_gamma   119.99996853
_symmetry_Int_Tables_number   1
_chemical_formula_structural   AlGaN2
_chemical_formula_sum   'Al1 Ga1 N2'
_cell_volume   43.66723617
_cell_formula_units_Z   1
loop_
 _symmetry_equiv_pos_site_id
 _symmetry_equiv_pos_as_xyz
  1  'x, y, z'
loop_
 _atom_site_type_symbol
 _atom_site_label
 _atom_site_symmetry_multiplicity
 _atom_site_fract_x
 _atom_site_fract_y
 _atom_site_fract_z
 _atom_site_occupancy
  Al  Al0  1  0.00000000  0.00000000  0.99926377  1
  Ga  Ga1  1  0.66666700  0.33333300  0.49717421  1
  N  N2  1  0.66666700  0.33333300  0.11180364  1
  N  N3  1  0.00000000  0.00000000  0.62815839  1
