# generated using pymatgen
data_HoAgSe2
_symmetry_space_group_name_H-M   'P 1'
_cell_length_a   4.21245300
_cell_length_b   6.80566610
_cell_length_c   13.70892111
_cell_angle_alpha   90.00000000
_cell_angle_beta   90.00000000
_cell_angle_gamma   90.00000000
_symmetry_Int_Tables_number   1
_chemical_formula_structural   HoAgSe2
_chemical_formula_sum   'Ho4 Ag4 Se8'
_cell_volume   393.01487082
_cell_formula_units_Z   4
loop_
 _symmetry_equiv_pos_site_id
 _symmetry_equiv_pos_as_xyz
  1  'x, y, z'
loop_
 _atom_site_type_symbol
 _atom_site_label
 _atom_site_symmetry_multiplicity
 _atom_site_fract_x
 _atom_site_fract_y
 _atom_site_fract_z
 _atom_site_occupancy
  Ho  Ho0  1  0.72566774  0.29314016  0.37223202  1
  Ho  Ho1  1  0.22566774  0.20685984  0.62776798  1
  Ho  Ho2  1  0.27433226  0.79314016  0.12776798  1
  Ho  Ho3  1  0.77433226  0.70685984  0.87223202  1
  Ag  Ag4  1  0.00569624  0.70770174  0.62558369  1
  Ag  Ag5  1  0.99430376  0.20770174  0.87441631  1
  Ag  Ag6  1  0.50569624  0.79229826  0.37441631  1
  Ag  Ag7  1  0.49430376  0.29229826  0.12558369  1
  Se  Se8  1  0.23122873  0.48897725  0.47359490  1
  Se  Se9  1  0.73122873  0.01102275  0.52640510  1
  Se  Se10  1  0.76877127  0.98897725  0.02640510  1
  Se  Se11  1  0.26877127  0.51102275  0.97359490  1
  Se  Se12  1  0.22664022  0.08776858  0.27413069  1
  Se  Se13  1  0.27335978  0.91223142  0.77413069  1
  Se  Se14  1  0.77335978  0.58776858  0.22586931  1
  Se  Se15  1  0.72664022  0.41223142  0.72586931  1
