# generated using pymatgen
data_LiMg14BO16
_symmetry_space_group_name_H-M   'P 1'
_cell_length_a   8.60117298
_cell_length_b   8.30874678
_cell_length_c   4.26199877
_cell_angle_alpha   90.00000000
_cell_angle_beta   90.00000000
_cell_angle_gamma   90.00000000
_symmetry_Int_Tables_number   1
_chemical_formula_structural   LiMg14BO16
_chemical_formula_sum   'Li1 Mg14 B1 O16'
_cell_volume   304.58360700
_cell_formula_units_Z   1
loop_
 _symmetry_equiv_pos_site_id
 _symmetry_equiv_pos_as_xyz
  1  'x, y, z'
loop_
 _atom_site_type_symbol
 _atom_site_label
 _atom_site_symmetry_multiplicity
 _atom_site_fract_x
 _atom_site_fract_y
 _atom_site_fract_z
 _atom_site_occupancy
  Li  Li0  1  -0.00000000  0.00000000  0.00000000  1
  Mg  Mg1  1  0.50000000  0.00000000  0.00000000  1
  Mg  Mg2  1  0.50000000  0.50000000  0.00000000  1
  Mg  Mg3  1  -0.00000000  0.25663862  0.50000000  1
  Mg  Mg4  1  -0.00000000  0.74336138  0.50000000  1
  Mg  Mg5  1  0.50000000  0.24921392  0.50000000  1
  Mg  Mg6  1  0.50000000  0.75078608  0.50000000  1
  Mg  Mg7  1  0.24098572  -0.00000000  0.50000000  1
  Mg  Mg8  1  0.24749041  0.50000000  0.50000000  1
  Mg  Mg9  1  0.75901428  -0.00000000  0.50000000  1
  Mg  Mg10  1  0.75250959  0.50000000  0.50000000  1
  Mg  Mg11  1  0.25397257  0.25314267  0.00000000  1
  Mg  Mg12  1  0.25397257  0.74685733  0.00000000  1
  Mg  Mg13  1  0.74602743  0.25314267  0.00000000  1
  Mg  Mg14  1  0.74602743  0.74685733  -0.00000000  1
  B  B15  1  -0.00000000  0.50000000  0.00000000  1
  O  O16  1  0.24404625  -0.00000000  0.00000000  1
  O  O17  1  0.26145363  0.50000000  0.00000000  1
  O  O18  1  0.75595375  -0.00000000  -0.00000000  1
  O  O19  1  0.73854637  0.50000000  0.00000000  1
  O  O20  1  0.24465103  0.25034242  0.50000000  1
  O  O21  1  0.24465103  0.74965758  0.50000000  1
  O  O22  1  0.75534897  0.25034242  0.50000000  1
  O  O23  1  0.75534897  0.74965758  0.50000000  1
  O  O24  1  -0.00000000  0.00000000  0.50000000  1
  O  O25  1  -0.00000000  0.50000000  0.50000000  1
  O  O26  1  0.50000000  0.00000000  0.50000000  1
  O  O27  1  0.50000000  0.50000000  0.50000000  1
  O  O28  1  -0.00000000  0.32968519  -0.00000000  1
  O  O29  1  -0.00000000  0.67031481  0.00000000  1
  O  O30  1  0.50000000  0.24723635  0.00000000  1
  O  O31  1  0.50000000  0.75276365  -0.00000000  1
