# generated using pymatgen
data_Na10B18H6O35
_symmetry_space_group_name_H-M   'P 1'
_cell_length_a   6.66516117
_cell_length_b   9.29263919
_cell_length_c   11.76775580
_cell_angle_alpha   83.29759463
_cell_angle_beta   75.39051630
_cell_angle_gamma   80.82969220
_symmetry_Int_Tables_number   1
_chemical_formula_structural   Na10B18H6O35
_chemical_formula_sum   'Na10 B18 H6 O35'
_cell_volume   694.04154981
_cell_formula_units_Z   1
loop_
 _symmetry_equiv_pos_site_id
 _symmetry_equiv_pos_as_xyz
  1  'x, y, z'
loop_
 _atom_site_type_symbol
 _atom_site_label
 _atom_site_symmetry_multiplicity
 _atom_site_fract_x
 _atom_site_fract_y
 _atom_site_fract_z
 _atom_site_occupancy
  Na  Na0  1  0.39004725  0.80282042  0.06854414  1
  Na  Na1  1  0.60745601  0.18663248  0.94053043  1
  Na  Na2  1  0.58819041  0.82033375  0.37584642  1
  Na  Na3  1  0.40270496  0.15659045  0.60963729  1
  Na  Na4  1  0.75617026  0.58252306  0.90278698  1
  Na  Na5  1  0.24906275  0.42374534  0.08903100  1
  Na  Na6  1  0.00860149  0.94592084  0.76903953  1
  Na  Na7  1  0.00015936  0.03181168  0.23103631  1
  Na  Na8  1  0.22369351  0.55780317  0.61311889  1
  Na  Na9  1  0.77586000  0.46234898  0.38332572  1
  B  B10  1  0.75037428  0.57601968  0.15834739  1
  B  B11  1  0.24619396  0.42335550  0.83719724  1
  B  B12  1  0.04630935  0.72442987  0.43064891  1
  B  B13  1  0.94920563  0.31043484  0.56655858  1
  B  B14  1  0.36939012  0.62306255  0.29491737  1
  B  B15  1  0.62489536  0.37664045  0.70792816  1
  B  B16  1  0.76625580  0.75479240  0.61901690  1
  B  B17  1  0.22472927  0.23265347  0.38088509  1
  B  B18  1  0.02937688  0.65679452  0.23205689  1
  B  B19  1  0.96448885  0.33063541  0.77534877  1
  B  B20  1  0.39200496  0.85022771  0.65034239  1
  B  B21  1  0.60434337  0.16755827  0.35076979  1
  B  B22  1  0.89254516  0.80068210  0.06829341  1
  B  B23  1  0.11826742  0.19294816  0.93502368  1
  B  B24  1  0.56233781  0.87292907  0.80056924  1
  B  B25  1  0.44094442  0.12054475  0.20418800  1
  B  B26  1  0.33902210  0.67620237  0.83127938  1
  B  B27  1  0.65169398  0.32954010  0.16871586  1
  H  H28  1  0.70953969  0.92992569  0.91907708  1
  H  H29  1  0.30483823  0.05886137  0.08444316  1
  H  H30  1  0.00567782  0.98730985  0.99694582  1
  H  H31  1  0.20138809  0.89995511  0.52507620  1
  H  H32  1  0.82775413  0.16804527  0.43831830  1
  H  H33  1  0.93091865  0.94392054  0.43563320  1
  O  O34  1  0.26285207  0.61562842  0.21062600  1
  O  O35  1  0.73195129  0.37226173  0.79285682  1
  O  O36  1  0.75515685  0.70406076  0.06967844  1
  O  O37  1  0.25238127  0.29636657  0.92404133  1
  O  O38  1  0.28755774  0.72615513  0.72640159  1
  O  O39  1  0.70873114  0.28589587  0.27309600  1
  O  O40  1  0.25371201  0.93909088  0.58419220  1
  O  O41  1  0.73138118  0.10223481  0.43310161  1
  O  O42  1  0.94699818  0.54167185  0.19188051  1
  O  O43  1  0.05024992  0.45103386  0.80147760  1
  O  O44  1  0.58284242  0.61270610  0.26756592  1
  O  O45  1  0.41526062  0.39292292  0.72620453  1
  O  O46  1  0.43151518  0.94807214  0.72707018  1
  O  O47  1  0.57520091  0.05692615  0.28162972  1
  O  O48  1  0.28433027  0.54704308  0.89135297  1
  O  O49  1  0.70318499  0.45598650  0.10332212  1
  O  O50  1  0.76153708  0.79412614  0.72896477  1
  O  O51  1  0.22910567  0.18536950  0.27570172  1
  O  O52  1  0.00017552  0.79539676  0.15438018  1
  O  O53  1  0.99710719  0.19868538  0.85292144  1
  O  O54  1  0.45566531  0.75141346  0.87920817  1
  O  O55  1  0.53118219  0.24968139  0.12813824  1
  O  O56  1  0.92277854  0.90509276  0.97626123  1
  O  O57  1  0.10409071  0.08851237  0.02457010  1
  O  O58  1  0.59012466  0.78205755  0.57433638  1
  O  O59  1  0.39721462  0.23773659  0.42025387  1
  O  O60  1  0.26797204  0.65074510  0.40878688  1
  O  O61  1  0.73508035  0.35606512  0.59141946  1
  O  O62  1  0.95013022  0.68642377  0.55514852  1
  O  O63  1  0.02610822  0.28141153  0.45034070  1
  O  O64  1  0.61341046  0.97360874  0.86952277  1
  O  O65  1  0.41089490  0.01777041  0.13043560  1
  O  O66  1  0.93349960  0.67775907  0.35459056  1
  O  O67  1  0.05987737  0.29491072  0.64894048  1
  O  O68  1  0.06539997  0.88287967  0.41100786  1
