# generated using pymatgen
data_Ba3P6(N4O3)2
_symmetry_space_group_name_H-M   'P 1'
_cell_length_a   7.41218842
_cell_length_b   7.41218843
_cell_length_c   6.36484959
_cell_angle_alpha   90.00000000
_cell_angle_beta   90.00000000
_cell_angle_gamma   120.00000468
_symmetry_Int_Tables_number   1
_chemical_formula_structural   Ba3P6(N4O3)2
_chemical_formula_sum   'Ba3 P6 N8 O6'
_cell_volume   302.83889877
_cell_formula_units_Z   1
loop_
 _symmetry_equiv_pos_site_id
 _symmetry_equiv_pos_as_xyz
  1  'x, y, z'
loop_
 _atom_site_type_symbol
 _atom_site_label
 _atom_site_symmetry_multiplicity
 _atom_site_fract_x
 _atom_site_fract_y
 _atom_site_fract_z
 _atom_site_occupancy
  Ba  Ba0  1  0.33333300  0.66666700  0.61446773  1
  Ba  Ba1  1  0.66666700  0.33333300  0.38553227  1
  Ba  Ba2  1  -0.00000000  0.00000000  0.50000000  1
  P  P3  1  0.59950196  0.77588373  0.10184421  1
  P  P4  1  0.17638176  0.40049804  0.10184421  1
  P  P5  1  0.22411627  0.82361824  0.10184421  1
  P  P6  1  0.40049804  0.22411627  0.89815579  1
  P  P7  1  0.82361824  0.59950196  0.89815579  1
  P  P8  1  0.77588373  0.17638176  0.89815579  1
  N  N9  1  0.33333300  0.66666700  0.07186404  1
  N  N10  1  0.66666700  0.33333300  0.92813596  1
  N  N11  1  0.67188851  0.69405136  0.90342799  1
  N  N12  1  0.02216285  0.32811149  0.90342799  1
  N  N13  1  0.30594864  0.97783715  0.90342799  1
  N  N14  1  0.32811149  0.30594864  0.09657201  1
  N  N15  1  0.97783715  0.67188851  0.09657201  1
  N  N16  1  0.69405136  0.02216285  0.09657201  1
  O  O17  1  0.63169880  0.70929172  0.31903107  1
  O  O18  1  0.07759193  0.36830120  0.31903107  1
  O  O19  1  0.29070828  0.92240807  0.31903107  1
  O  O20  1  0.36830120  0.29070828  0.68096893  1
  O  O21  1  0.92240807  0.63169880  0.68096893  1
  O  O22  1  0.70929172  0.07759193  0.68096893  1
