# generated using pymatgen
data_Ba3AlP3
_symmetry_space_group_name_H-M   'P 1'
_cell_length_a   10.32194543
_cell_length_b   10.32194543
_cell_length_c   13.08653444
_cell_angle_alpha   90.00000000
_cell_angle_beta   90.00000000
_cell_angle_gamma   141.49245509
_symmetry_Int_Tables_number   1
_chemical_formula_structural   Ba3AlP3
_chemical_formula_sum   'Ba12 Al4 P12'
_cell_volume   868.09893720
_cell_formula_units_Z   4
loop_
 _symmetry_equiv_pos_site_id
 _symmetry_equiv_pos_as_xyz
  1  'x, y, z'
loop_
 _atom_site_type_symbol
 _atom_site_label
 _atom_site_symmetry_multiplicity
 _atom_site_fract_x
 _atom_site_fract_y
 _atom_site_fract_z
 _atom_site_occupancy
  Ba  Ba0  1  0.83769068  0.83769068  0.34457038  1
  Ba  Ba1  1  0.16230932  0.16230932  0.65542962  1
  Ba  Ba2  1  0.66230932  0.66230932  0.84457038  1
  Ba  Ba3  1  0.33769068  0.33769068  0.15542962  1
  Ba  Ba4  1  0.86019576  0.50796022  0.13023720  1
  Ba  Ba5  1  0.49203978  0.13980424  0.86976280  1
  Ba  Ba6  1  0.99203978  0.63980424  0.63023720  1
  Ba  Ba7  1  0.36019576  0.00796022  0.36976280  1
  Ba  Ba8  1  0.13980424  0.49203978  0.86976280  1
  Ba  Ba9  1  0.50796022  0.86019576  0.13023720  1
  Ba  Ba10  1  0.00796022  0.36019576  0.36976280  1
  Ba  Ba11  1  0.63980424  0.99203978  0.63023720  1
  Al  Al12  1  0.08175927  0.91824073  -0.00000000  1
  Al  Al13  1  0.58175927  0.41824073  0.50000000  1
  Al  Al14  1  0.91824073  0.08175927  -0.00000000  1
  Al  Al15  1  0.41824073  0.58175927  0.50000000  1
  P  P16  1  0.80027149  0.80027149  0.09168444  1
  P  P17  1  0.19972851  0.19972851  0.90831556  1
  P  P18  1  0.69972851  0.69972851  0.59168444  1
  P  P19  1  0.30027149  0.30027149  0.40831556  1
  P  P20  1  0.03013662  0.33962504  0.11611739  1
  P  P21  1  0.66037496  0.96986338  0.88388261  1
  P  P22  1  0.16037496  0.46986338  0.61611739  1
  P  P23  1  0.53013662  0.83962504  0.38388261  1
  P  P24  1  0.96986338  0.66037496  0.88388261  1
  P  P25  1  0.33962504  0.03013662  0.11611739  1
  P  P26  1  0.83962504  0.53013662  0.38388261  1
  P  P27  1  0.46986338  0.16037496  0.61611739  1
