# generated using pymatgen
data_K2MgFe4P6(O4F3)4
_symmetry_space_group_name_H-M   'P 1'
_cell_length_a   7.77819736
_cell_length_b   7.87480272
_cell_length_c   10.61246851
_cell_angle_alpha   102.91304680
_cell_angle_beta   110.62893604
_cell_angle_gamma   89.26663473
_symmetry_Int_Tables_number   1
_chemical_formula_structural   K2MgFe4P6(O4F3)4
_chemical_formula_sum   'K2 Mg1 Fe4 P6 O16 F12'
_cell_volume   591.41755744
_cell_formula_units_Z   1
loop_
 _symmetry_equiv_pos_site_id
 _symmetry_equiv_pos_as_xyz
  1  'x, y, z'
loop_
 _atom_site_type_symbol
 _atom_site_label
 _atom_site_symmetry_multiplicity
 _atom_site_fract_x
 _atom_site_fract_y
 _atom_site_fract_z
 _atom_site_occupancy
  K  K0  1  0.82704226  0.13388074  0.76473317  1
  K  K1  1  0.25889587  0.89551083  0.21569332  1
  Mg  Mg2  1  0.63138105  0.78335016  0.84424010  1
  Fe  Fe3  1  0.66195653  0.32322977  0.33905479  1
  Fe  Fe4  1  0.27067307  0.66947627  0.64211226  1
  Fe  Fe5  1  0.49605158  0.48976028  0.00886190  1
  Fe  Fe6  1  0.00808873  0.00415839  0.48409346  1
  P  P7  1  0.69340354  0.73619342  0.53199258  1
  P  P8  1  0.34859464  0.26449962  0.48616174  1
  P  P9  1  0.30721202  0.08248797  0.81564091  1
  P  P10  1  0.68966596  0.91542517  0.17518582  1
  P  P11  1  0.05542514  0.60010152  0.84869947  1
  P  P12  1  0.92606085  0.40610479  0.16386185  1
  O  O13  1  0.72933818  0.54955095  0.47908754  1
  O  O14  1  0.29147197  0.44381381  0.53132429  1
  O  O15  1  0.82056807  0.87991256  0.53029757  1
  O  O16  1  0.19560252  0.11836246  0.43367648  1
  O  O17  1  0.59867825  0.08206805  0.20536323  1
  O  O18  1  0.40268544  0.91354933  0.78417071  1
  O  O19  1  0.44257961  0.23726268  0.89349410  1
  O  O20  1  0.55563382  0.75644957  0.11296482  1
  O  O21  1  0.87905944  0.89843943  0.27721287  1
  O  O22  1  0.14229555  0.10706380  0.69161902  1
  O  O23  1  0.87861954  0.36134062  0.27755953  1
  O  O24  1  0.08522870  0.67186803  0.73991114  1
  O  O25  1  0.78792765  0.46528796  0.04629347  1
  O  O26  1  0.20023117  0.54068772  0.96074303  1
  O  O27  1  0.45150264  0.24826060  0.38660842  1
  O  O28  1  0.66870712  0.77224281  0.67195344  1
  F  F29  1  0.84651365  0.20373903  0.47819185  1
  F  F30  1  0.15445588  0.80213343  0.49462216  1
  F  F31  1  0.50647849  0.42527578  0.19406562  1
  F  F32  1  0.48681750  0.58501118  0.82679659  1
  F  F33  1  0.74474989  0.93524545  0.03577780  1
  F  F34  1  0.21009899  0.04614042  0.91977157  1
  F  F35  1  0.88656098  0.45943228  0.77688581  1
  F  F36  1  0.10116805  0.53738009  0.22901868  1
  F  F37  1  0.49583172  0.21988496  0.62309510  1
  F  F38  1  0.49590263  0.76558224  0.42573937  1
  F  F39  1  0.01535774  0.24256596  0.09918287  1
  F  F40  1  0.94791260  0.74393687  0.92299157  1
