# generated using pymatgen
data_KLi3GeO4
_symmetry_space_group_name_H-M   'P 1'
_cell_length_a   5.82626560
_cell_length_b   7.44158251
_cell_length_c   9.87719273
_cell_angle_alpha   83.47835182
_cell_angle_beta   76.48495525
_cell_angle_gamma   79.67700123
_symmetry_Int_Tables_number   1
_chemical_formula_structural   KLi3GeO4
_chemical_formula_sum   'K4 Li12 Ge4 O16'
_cell_volume   408.49093952
_cell_formula_units_Z   4
loop_
 _symmetry_equiv_pos_site_id
 _symmetry_equiv_pos_as_xyz
  1  'x, y, z'
loop_
 _atom_site_type_symbol
 _atom_site_label
 _atom_site_symmetry_multiplicity
 _atom_site_fract_x
 _atom_site_fract_y
 _atom_site_fract_z
 _atom_site_occupancy
  K  K0  1  0.49643459  0.11699277  0.61636298  1
  K  K1  1  0.50356541  0.88300723  0.38363702  1
  K  K2  1  0.45802103  0.35932348  0.87205181  1
  K  K3  1  0.54197897  0.64067652  0.12794819  1
  Li  Li4  1  0.97750762  0.82309467  0.11304059  1
  Li  Li5  1  0.02249238  0.17690533  0.88695941  1
  Li  Li6  1  0.30494344  0.32429964  0.35387355  1
  Li  Li7  1  0.69505656  0.67570036  0.64612645  1
  Li  Li8  1  0.92963893  0.54729538  0.87642411  1
  Li  Li9  1  0.07036107  0.45270462  0.12357589  1
  Li  Li10  1  0.03642077  0.92679318  0.62786256  1
  Li  Li11  1  0.31246869  0.05125083  0.10337119  1
  Li  Li12  1  0.69164474  0.44356667  0.39608136  1
  Li  Li13  1  0.30835526  0.55643333  0.60391864  1
  Li  Li14  1  0.96357923  0.07320682  0.37213744  1
  Li  Li15  1  0.68753131  0.94874917  0.89662881  1
  Ge  Ge16  1  0.94176721  0.29074141  0.63437945  1
  Ge  Ge17  1  0.05823279  0.70925859  0.36562055  1
  Ge  Ge18  1  0.33364062  0.79357075  0.85172872  1
  Ge  Ge19  1  0.66635938  0.20642925  0.14827128  1
  O  O20  1  0.67890382  0.21115321  0.32518804  1
  O  O21  1  0.32109618  0.78884679  0.67481196  1
  O  O22  1  0.86395436  0.33840990  0.03407761  1
  O  O23  1  0.13604564  0.66159010  0.96592239  1
  O  O24  1  0.64002690  0.70356860  0.84923179  1
  O  O25  1  0.35997310  0.29643140  0.15076821  1
  O  O26  1  0.68844070  0.43567575  0.59299928  1
  O  O27  1  0.31155930  0.56432425  0.40700072  1
  O  O28  1  0.15334733  0.89123846  0.24250989  1
  O  O29  1  0.84665267  0.10876154  0.75749011  1
  O  O30  1  0.88130599  0.82683156  0.50944828  1
  O  O31  1  0.11869401  0.17316844  0.49055172  1
  O  O32  1  0.89403442  0.60377358  0.27721869  1
  O  O33  1  0.10596558  0.39622642  0.72278131  1
  O  O34  1  0.69382340  0.98569198  0.08984798  1
  O  O35  1  0.30617660  0.01430802  0.91015202  1
