# generated using pymatgen
data_KRbMg6O7
_symmetry_space_group_name_H-M   'P 1'
_cell_length_a   8.02217507
_cell_length_b   4.92904447
_cell_length_c   4.92904447
_cell_angle_alpha   90.00000000
_cell_angle_beta   90.00000000
_cell_angle_gamma   90.00000000
_symmetry_Int_Tables_number   1
_chemical_formula_structural   KRbMg6O7
_chemical_formula_sum   'K1 Rb1 Mg6 O7'
_cell_volume   194.90258905
_cell_formula_units_Z   1
loop_
 _symmetry_equiv_pos_site_id
 _symmetry_equiv_pos_as_xyz
  1  'x, y, z'
loop_
 _atom_site_type_symbol
 _atom_site_label
 _atom_site_symmetry_multiplicity
 _atom_site_fract_x
 _atom_site_fract_y
 _atom_site_fract_z
 _atom_site_occupancy
  K  K0  1  0.02150400  -0.00000000  0.00000000  1
  Rb  Rb1  1  0.44224565  -0.00000000  0.00000000  1
  Mg  Mg2  1  0.00191285  0.50000000  0.50000000  1
  Mg  Mg3  1  0.50833083  0.50000000  0.50000000  1
  Mg  Mg4  1  0.25355102  0.00000000  0.50000000  1
  Mg  Mg5  1  0.75021839  -0.00000000  0.50000000  1
  Mg  Mg6  1  0.25355102  0.50000000  -0.00000000  1
  Mg  Mg7  1  0.75021839  0.50000000  0.00000000  1
  O  O8  1  0.73823078  -0.00000000  0.00000000  1
  O  O9  1  0.25534910  0.50000000  0.50000000  1
  O  O10  1  0.75511802  0.50000000  0.50000000  1
  O  O11  1  0.01469611  0.00000000  0.50000000  1
  O  O12  1  0.49518886  0.00000000  0.50000000  1
  O  O13  1  0.01469611  0.50000000  0.00000000  1
  O  O14  1  0.49518886  0.50000000  0.00000000  1
