# generated using pymatgen
data_Ca3(AlP2)2
_symmetry_space_group_name_H-M   'P 1'
_cell_length_a   8.00941748
_cell_length_b   8.00941748
_cell_length_c   6.45545190
_cell_angle_alpha   89.68958657
_cell_angle_beta   89.68958657
_cell_angle_gamma   75.66248374
_symmetry_Int_Tables_number   1
_chemical_formula_structural   Ca3(AlP2)2
_chemical_formula_sum   'Ca6 Al4 P8'
_cell_volume   401.21442422
_cell_formula_units_Z   2
loop_
 _symmetry_equiv_pos_site_id
 _symmetry_equiv_pos_as_xyz
  1  'x, y, z'
loop_
 _atom_site_type_symbol
 _atom_site_label
 _atom_site_symmetry_multiplicity
 _atom_site_fract_x
 _atom_site_fract_y
 _atom_site_fract_z
 _atom_site_occupancy
  Ca  Ca0  1  0.75051509  0.00832273  0.97059704  1
  Ca  Ca1  1  0.99167727  0.24948491  0.52940296  1
  Ca  Ca2  1  0.24948491  0.99167727  0.02940296  1
  Ca  Ca3  1  0.00832273  0.75051509  0.47059704  1
  Ca  Ca4  1  0.59889262  0.40110738  0.25000000  1
  Ca  Ca5  1  0.40110738  0.59889262  0.75000000  1
  Al  Al6  1  0.57965844  0.82771961  0.41087080  1
  Al  Al7  1  0.17228039  0.42034156  0.08912920  1
  Al  Al8  1  0.42034156  0.17228039  0.58912920  1
  Al  Al9  1  0.82771961  0.57965844  0.91087080  1
  P  P10  1  0.71393230  0.05802495  0.47632069  1
  P  P11  1  0.94197505  0.28606770  0.02367931  1
  P  P12  1  0.28606770  0.94197505  0.52367931  1
  P  P13  1  0.05802495  0.71393230  0.97632069  1
  P  P14  1  0.57054020  0.74188123  0.06409193  1
  P  P15  1  0.25811877  0.42945980  0.43590807  1
  P  P16  1  0.42945980  0.25811877  0.93590807  1
  P  P17  1  0.74188123  0.57054020  0.56409193  1
