# generated using pymatgen
data_Mg(SiO2)5
_symmetry_space_group_name_H-M   'P 1'
_cell_length_a   6.95907400
_cell_length_b   6.95907400
_cell_length_c   6.47278600
_cell_angle_alpha   90.00000000
_cell_angle_beta   90.00000000
_cell_angle_gamma   90.00000000
_symmetry_Int_Tables_number   1
_chemical_formula_structural   Mg(SiO2)5
_chemical_formula_sum   'Mg1 Si5 O10'
_cell_volume   313.46868215
_cell_formula_units_Z   1
loop_
 _symmetry_equiv_pos_site_id
 _symmetry_equiv_pos_as_xyz
  1  'x, y, z'
loop_
 _atom_site_type_symbol
 _atom_site_label
 _atom_site_symmetry_multiplicity
 _atom_site_fract_x
 _atom_site_fract_y
 _atom_site_fract_z
 _atom_site_occupancy
  Mg  Mg0  1  0.50000000  0.50000000  0.50000000  1
  Si  Si1  1  0.26935200  0.00000000  0.11918700  1
  Si  Si2  1  0.00000000  0.73064800  0.88081300  1
  Si  Si3  1  0.00000000  0.26935200  0.88081300  1
  Si  Si4  1  0.73064800  0.00000000  0.11918700  1
  Si  Si5  1  0.00000000  0.00000000  0.50000000  1
  O  O6  1  0.19240600  0.00000000  0.35693700  1
  O  O7  1  0.00000000  0.80759400  0.64306300  1
  O  O8  1  0.00000000  0.19240600  0.64306300  1
  O  O9  1  0.80759400  0.00000000  0.35693700  1
  O  O10  1  0.19209500  0.19209500  0.00000000  1
  O  O11  1  0.19209500  0.80790500  0.00000000  1
  O  O12  1  0.80790500  0.19209500  0.00000000  1
  O  O13  1  0.80790500  0.80790500  0.00000000  1
  O  O14  1  0.50000000  0.00000000  0.11982800  1
  O  O15  1  0.00000000  0.50000000  0.88017200  1
