# generated using pymatgen
data_Dy4MgS7
_symmetry_space_group_name_H-M   'P 1'
_cell_length_a   6.56243704
_cell_length_b   6.56243704
_cell_length_c   11.45501749
_cell_angle_alpha   75.55836309
_cell_angle_beta   75.55836309
_cell_angle_gamma   33.59663232
_symmetry_Int_Tables_number   1
_chemical_formula_structural   Dy4MgS7
_chemical_formula_sum   'Dy4 Mg1 S7'
_cell_volume   263.54782346
_cell_formula_units_Z   1
loop_
 _symmetry_equiv_pos_site_id
 _symmetry_equiv_pos_as_xyz
  1  'x, y, z'
loop_
 _atom_site_type_symbol
 _atom_site_label
 _atom_site_symmetry_multiplicity
 _atom_site_fract_x
 _atom_site_fract_y
 _atom_site_fract_z
 _atom_site_occupancy
  Dy  Dy0  1  0.69280626  0.69280626  0.20481777  1
  Dy  Dy1  1  0.30675590  0.30675590  0.80084744  1
  Dy  Dy2  1  0.99961044  0.99961044  0.00557858  1
  Dy  Dy3  1  0.11328932  0.11328932  0.56822364  1
  Mg  Mg4  1  0.88531876  0.88531876  0.42184940  1
  S  S5  1  0.74297867  0.74297867  0.64035694  1
  S  S6  1  0.26716942  0.26716942  0.35320730  1
  S  S7  1  0.33886393  0.33886393  0.05135547  1
  S  S8  1  0.65972768  0.65972768  0.94779081  1
  S  S9  1  0.03611851  0.03611851  0.22353759  1
  S  S10  1  0.96187121  0.96187121  0.78530151  1
  S  S11  1  0.49548990  0.49548990  0.49713355  1
