# generated using pymatgen
data_BaFe(Si2O5)2
_symmetry_space_group_name_H-M   'P 1'
_cell_length_a   7.51335695
_cell_length_b   7.51335695
_cell_length_c   16.22246110
_cell_angle_alpha   90.00000000
_cell_angle_beta   90.00000000
_cell_angle_gamma   90.00000000
_symmetry_Int_Tables_number   1
_chemical_formula_structural   BaFe(Si2O5)2
_chemical_formula_sum   'Ba4 Fe4 Si16 O40'
_cell_volume   915.76657012
_cell_formula_units_Z   4
loop_
 _symmetry_equiv_pos_site_id
 _symmetry_equiv_pos_as_xyz
  1  'x, y, z'
loop_
 _atom_site_type_symbol
 _atom_site_label
 _atom_site_symmetry_multiplicity
 _atom_site_fract_x
 _atom_site_fract_y
 _atom_site_fract_z
 _atom_site_occupancy
  Ba  Ba0  1  0.25000000  0.75000000  0.50000000  1
  Ba  Ba1  1  0.75000000  0.25000000  0.50000000  1
  Ba  Ba2  1  0.75000000  0.25000000  -0.00000000  1
  Ba  Ba3  1  0.25000000  0.75000000  -0.00000000  1
  Fe  Fe4  1  0.25000000  0.25000000  0.59166633  1
  Fe  Fe5  1  0.75000000  0.75000000  0.90835977  1
  Fe  Fe6  1  0.75000000  0.75000000  0.40833367  1
  Fe  Fe7  1  0.25000000  0.25000000  0.09164023  1
  Si  Si8  1  0.93406313  0.51689001  0.65482124  1
  Si  Si9  1  0.56593687  0.98310999  0.65482124  1
  Si  Si10  1  0.01689132  0.43406579  0.84520169  1
  Si  Si11  1  0.51689001  0.56593687  0.65482124  1
  Si  Si12  1  0.98310999  0.93406313  0.65482124  1
  Si  Si13  1  0.06593421  0.01689132  0.84520169  1
  Si  Si14  1  0.43406579  0.48310868  0.84520169  1
  Si  Si15  1  0.48310868  0.06593421  0.84520169  1
  Si  Si16  1  0.06593687  0.48310999  0.34517876  1
  Si  Si17  1  0.43406313  0.01689001  0.34517876  1
  Si  Si18  1  0.98310868  0.56593421  0.15479831  1
  Si  Si19  1  0.48310999  0.43406313  0.34517876  1
  Si  Si20  1  0.01689001  0.06593687  0.34517876  1
  Si  Si21  1  0.93406579  0.98310868  0.15479831  1
  Si  Si22  1  0.56593421  0.51689132  0.15479831  1
  Si  Si23  1  0.51689132  0.93406579  0.15479831  1
  O  O24  1  0.02532596  0.38554246  0.59086426  1
  O  O25  1  0.47467404  0.11445754  0.59086426  1
  O  O26  1  0.88554784  0.52532404  0.90914638  1
  O  O27  1  0.38554246  0.47467404  0.59086426  1
  O  O28  1  0.11445754  0.02532596  0.59086426  1
  O  O29  1  0.97467596  0.88554784  0.90914638  1
  O  O30  1  0.52532404  0.61445216  0.90914638  1
  O  O31  1  0.61445216  0.97467596  0.90914638  1
  O  O32  1  0.97467404  0.61445754  0.40913574  1
  O  O33  1  0.52532596  0.88554246  0.40913574  1
  O  O34  1  0.11445216  0.47467596  0.09085362  1
  O  O35  1  0.61445754  0.52532596  0.40913574  1
  O  O36  1  0.88554246  0.97467404  0.40913574  1
  O  O37  1  0.02532404  0.11445216  0.09085362  1
  O  O38  1  0.47467596  0.38554784  0.09085362  1
  O  O39  1  0.00275845  0.27949390  0.36265443  1
  O  O40  1  0.38554784  0.02532404  0.09085362  1
  O  O41  1  0.50275845  0.77949390  0.63734557  1
  O  O42  1  0.22050902  0.49723990  0.86266597  1
  O  O43  1  0.72050610  0.50275845  0.63734557  1
  O  O44  1  0.77949390  0.99724155  0.63734557  1
  O  O45  1  0.00276010  0.22050902  0.86266597  1
  O  O46  1  0.49723990  0.27949098  0.86266597  1
  O  O47  1  0.27949098  0.00276010  0.86266597  1
  O  O48  1  0.47075596  0.97076475  0.25000242  1
  O  O49  1  0.52923525  0.47075596  0.25000242  1
  O  O50  1  0.97076475  0.02924404  0.25000242  1
  O  O51  1  0.02924404  0.52923525  0.25000242  1
  O  O52  1  0.52924404  0.02923525  0.74999758  1
  O  O53  1  0.47076475  0.52924404  0.74999758  1
  O  O54  1  0.02923525  0.97075596  0.74999758  1
  O  O55  1  0.97075596  0.47076475  0.74999758  1
  O  O56  1  0.72050902  0.99723990  0.13733403  1
  O  O57  1  0.50276010  0.72050902  0.13733403  1
  O  O58  1  0.99723990  0.77949098  0.13733403  1
  O  O59  1  0.22050610  0.00275845  0.36265443  1
  O  O60  1  0.27949390  0.49724155  0.36265443  1
  O  O61  1  0.77949098  0.50276010  0.13733403  1
  O  O62  1  0.49724155  0.22050610  0.36265443  1
  O  O63  1  0.99724155  0.72050610  0.63734557  1
