# generated using pymatgen
data_K4Ta2S11
_symmetry_space_group_name_H-M   'P 1'
_cell_length_a   7.47501557
_cell_length_b   11.54740787
_cell_length_c   11.77485929
_cell_angle_alpha   68.68854034
_cell_angle_beta   86.30790499
_cell_angle_gamma   85.15754782
_symmetry_Int_Tables_number   1
_chemical_formula_structural   K4Ta2S11
_chemical_formula_sum   'K8 Ta4 S22'
_cell_volume   942.86799242
_cell_formula_units_Z   2
loop_
 _symmetry_equiv_pos_site_id
 _symmetry_equiv_pos_as_xyz
  1  'x, y, z'
loop_
 _atom_site_type_symbol
 _atom_site_label
 _atom_site_symmetry_multiplicity
 _atom_site_fract_x
 _atom_site_fract_y
 _atom_site_fract_z
 _atom_site_occupancy
  K  K0  1  0.23499995  0.65336720  0.94327240  1
  K  K1  1  0.73529313  0.36699081  0.50774208  1
  K  K2  1  0.26470687  0.63300919  0.49225792  1
  K  K3  1  0.46624259  0.19176902  0.83569227  1
  K  K4  1  0.78752337  0.96317535  0.38817235  1
  K  K5  1  0.21247663  0.03682465  0.61182765  1
  K  K6  1  0.53375741  0.80823098  0.16430773  1
  K  K7  1  0.76500005  0.34663280  0.05672760  1
  Ta  Ta8  1  0.26550894  0.35641510  0.33862947  1
  Ta  Ta9  1  0.73449106  0.64358490  0.66137053  1
  Ta  Ta10  1  0.35351653  0.13321017  0.20082550  1
  Ta  Ta11  1  0.64648347  0.86678983  0.79917450  1
  S  S12  1  0.16424285  0.96762032  0.20230878  1
  S  S13  1  0.61140049  0.08331060  0.11335434  1
  S  S14  1  0.38859951  0.91668940  0.88664566  1
  S  S15  1  0.23540801  0.33973611  0.53573056  1
  S  S16  1  0.93907751  0.80350006  0.66430562  1
  S  S17  1  0.06092249  0.19649994  0.33569438  1
  S  S18  1  0.65876262  0.63583961  0.90469131  1
  S  S19  1  0.34123738  0.36416039  0.09530869  1
  S  S20  1  0.70930017  0.06556580  0.63466397  1
  S  S21  1  0.29069983  0.93443420  0.36533603  1
  S  S22  1  0.04115801  0.61983886  0.73024156  1
  S  S23  1  0.95884199  0.38016114  0.26975844  1
  S  S24  1  0.73899051  0.41137596  0.76223495  1
  S  S25  1  0.26100949  0.58862404  0.23776505  1
  S  S26  1  0.49529330  0.18390358  0.36277363  1
  S  S27  1  0.18319391  0.26862315  0.02503185  1
  S  S28  1  0.83575715  0.03237968  0.79769122  1
  S  S29  1  0.81680609  0.73137685  0.97496815  1
  S  S30  1  0.48723166  0.50797580  0.74694269  1
  S  S31  1  0.51276834  0.49202420  0.25305731  1
  S  S32  1  0.50470670  0.81609642  0.63722637  1
  S  S33  1  0.76459199  0.66026389  0.46426944  1
