# generated using pymatgen
data_CaCr2F10
_symmetry_space_group_name_H-M   'P 1'
_cell_length_a   5.48221799
_cell_length_b   5.48221799
_cell_length_c   7.41416120
_cell_angle_alpha   69.70823262
_cell_angle_beta   69.70823262
_cell_angle_gamma   71.84213769
_symmetry_Int_Tables_number   1
_chemical_formula_structural   CaCr2F10
_chemical_formula_sum   'Ca1 Cr2 F10'
_cell_volume   191.33637061
_cell_formula_units_Z   1
loop_
 _symmetry_equiv_pos_site_id
 _symmetry_equiv_pos_as_xyz
  1  'x, y, z'
loop_
 _atom_site_type_symbol
 _atom_site_label
 _atom_site_symmetry_multiplicity
 _atom_site_fract_x
 _atom_site_fract_y
 _atom_site_fract_z
 _atom_site_occupancy
  Ca  Ca0  1  0.54386068  0.45613932  -0.00000000  1
  Cr  Cr1  1  0.00614619  0.00591642  0.74386781  1
  Cr  Cr2  1  0.99408358  0.99385381  0.25613219  1
  F  F3  1  0.76132391  0.79490073  0.36791036  1
  F  F4  1  0.20509927  0.23867609  0.63208964  1
  F  F5  1  0.24407019  0.20193916  0.13325672  1
  F  F6  1  0.79806084  0.75592981  0.86674328  1
  F  F7  1  0.06871298  0.93128702  0.50000000  1
  F  F8  1  0.92419316  0.07580684  -0.00000000  1
  F  F9  1  0.28330341  0.73608014  0.79838156  1
  F  F10  1  0.26391986  0.71669659  0.20161844  1
  F  F11  1  0.70572088  0.25657994  0.72621740  1
  F  F12  1  0.74342006  0.29427912  0.27378260  1
