# generated using pymatgen
data_La4Se3N2
_symmetry_space_group_name_H-M   'P 1'
_cell_length_a   8.46571649
_cell_length_b   8.46571649
_cell_length_c   6.61894252
_cell_angle_alpha   90.15222249
_cell_angle_beta   90.15222249
_cell_angle_gamma   75.41841154
_symmetry_Int_Tables_number   1
_chemical_formula_structural   La4Se3N2
_chemical_formula_sum   'La8 Se6 N4'
_cell_volume   459.08677899
_cell_formula_units_Z   2
loop_
 _symmetry_equiv_pos_site_id
 _symmetry_equiv_pos_as_xyz
  1  'x, y, z'
loop_
 _atom_site_type_symbol
 _atom_site_label
 _atom_site_symmetry_multiplicity
 _atom_site_fract_x
 _atom_site_fract_y
 _atom_site_fract_z
 _atom_site_occupancy
  La  La0  1  0.80815324  0.44439936  0.02937034  1
  La  La1  1  0.55560064  0.19184676  0.47062966  1
  La  La2  1  0.19184676  0.55560064  0.97062966  1
  La  La3  1  0.44439936  0.80815324  0.52937034  1
  La  La4  1  0.24235615  0.08707455  0.07501294  1
  La  La5  1  0.91292545  0.75764385  0.42498706  1
  La  La6  1  0.75764385  0.91292545  0.92498706  1
  La  La7  1  0.08707455  0.24235615  0.57501294  1
  Se  Se8  1  0.90322752  0.09677248  0.25000000  1
  Se  Se9  1  0.09677248  0.90322752  0.75000000  1
  Se  Se10  1  0.48593768  0.74809946  0.03441411  1
  Se  Se11  1  0.25190054  0.51406232  0.46558589  1
  Se  Se12  1  0.51406232  0.25190054  0.96558589  1
  Se  Se13  1  0.74809946  0.48593768  0.53441311  1
  N  N14  1  0.91952804  0.66861183  0.08411512  1
  N  N15  1  0.33138817  0.08047196  0.41588488  1
  N  N16  1  0.08047196  0.33138817  0.91588488  1
  N  N17  1  0.66861183  0.91952804  0.58411512  1
