# generated using pymatgen
data_CdWO4
_symmetry_space_group_name_H-M   'P 1'
_cell_length_a   5.90618168
_cell_length_b   5.04701347
_cell_length_c   5.08927324
_cell_angle_alpha   88.79548919
_cell_angle_beta   90.00000000
_cell_angle_gamma   90.00000000
_symmetry_Int_Tables_number   1
_chemical_formula_structural   CdWO4
_chemical_formula_sum   'Cd2 W2 O8'
_cell_volume   151.67047904
_cell_formula_units_Z   2
loop_
 _symmetry_equiv_pos_site_id
 _symmetry_equiv_pos_as_xyz
  1  'x, y, z'
loop_
 _atom_site_type_symbol
 _atom_site_label
 _atom_site_symmetry_multiplicity
 _atom_site_fract_x
 _atom_site_fract_y
 _atom_site_fract_z
 _atom_site_occupancy
  Cd  Cd0  1  0.69050108  0.50000000  0.25000000  1
  Cd  Cd1  1  0.30949892  0.50000000  0.75000000  1
  W  W2  1  0.17666505  -0.00000000  0.25000000  1
  W  W3  1  0.82333495  -0.00000000  0.75000000  1
  O  O4  1  0.09586675  0.79885983  0.94791053  1
  O  O5  1  0.09586675  0.20114017  0.55208947  1
  O  O6  1  0.90413325  0.20114017  0.05208947  1
  O  O7  1  0.90413325  0.79885983  0.44791053  1
  O  O8  1  0.36954860  0.75730171  0.38357600  1
  O  O9  1  0.36954860  0.24269829  0.11642400  1
  O  O10  1  0.63045140  0.24269829  0.61642400  1
  O  O11  1  0.63045140  0.75730171  0.88357600  1
