# generated using pymatgen
data_Li9Mn2Co5O16
_symmetry_space_group_name_H-M   'P 1'
_cell_length_a   5.62653051
_cell_length_b   6.33703345
_cell_length_c   8.48179255
_cell_angle_alpha   82.37557925
_cell_angle_beta   109.31341267
_cell_angle_gamma   116.45714599
_symmetry_Int_Tables_number   1
_chemical_formula_structural   Li9Mn2Co5O16
_chemical_formula_sum   'Li9 Mn2 Co5 O16'
_cell_volume   255.47393578
_cell_formula_units_Z   1
loop_
 _symmetry_equiv_pos_site_id
 _symmetry_equiv_pos_as_xyz
  1  'x, y, z'
loop_
 _atom_site_type_symbol
 _atom_site_label
 _atom_site_symmetry_multiplicity
 _atom_site_fract_x
 _atom_site_fract_y
 _atom_site_fract_z
 _atom_site_occupancy
  Li  Li0  1  0.74334305  0.74126549  0.25305071  1
  Li  Li1  1  0.26173047  0.00241719  0.49496474  1
  Li  Li2  1  0.25862181  0.75335676  0.25626107  1
  Li  Li3  1  0.73281665  0.00319469  0.49329651  1
  Li  Li4  1  0.74382386  0.25343690  0.74316756  1
  Li  Li5  1  0.25108685  0.25037684  0.74688310  1
  Li  Li6  1  0.26507647  0.50366271  0.00741284  1
  Li  Li7  1  0.73915364  0.49267069  0.00617384  1
  Li  Li8  1  0.50482327  0.25134044  0.25468801  1
  Mn  Mn9  1  0.00861808  0.00243059  0.00229490  1
  Mn  Mn10  1  0.00022139  0.25417973  0.25285056  1
  Co  Co11  1  0.99574080  0.49792402  0.49903957  1
  Co  Co12  1  0.49850508  0.74941066  0.74887586  1
  Co  Co13  1  0.50145546  0.00155629  0.00088099  1
  Co  Co14  1  0.50035279  0.49801109  0.49895967  1
  Co  Co15  1  0.99943212  0.74937863  0.74899162  1
  O  O16  1  0.11027185  0.00923963  0.23495416  1
  O  O17  1  0.63568882  0.27135602  0.50214817  1
  O  O18  1  0.64003894  0.01244356  0.23924134  1
  O  O19  1  0.12661325  0.26513178  0.48881288  1
  O  O20  1  0.13026749  0.52230513  0.73927523  1
  O  O21  1  0.62986677  0.52153665  0.73983782  1
  O  O22  1  0.63176874  0.76969009  0.98919412  1
  O  O23  1  0.13104707  0.77189550  0.99046691  1
  O  O24  1  0.36009059  0.48750301  0.25933847  1
  O  O25  1  0.86968974  0.72644372  0.51218623  1
  O  O26  1  0.88723670  0.48829622  0.25877719  1
  O  O27  1  0.37064956  0.73048839  0.51165725  1
  O  O28  1  0.36967888  0.97822601  0.76090841  1
  O  O29  1  0.87002841  0.98103988  0.76072021  1
  O  O30  1  0.87432739  0.23338486  0.00922995  1
  O  O31  1  0.35793400  0.22640782  0.99545914  1
