# generated using pymatgen
data_Cs2Ti(WO4)3
_symmetry_space_group_name_H-M   'P 1'
_cell_length_a   7.25743517
_cell_length_b   7.25743517
_cell_length_c   7.25743540
_cell_angle_alpha   60.40379137
_cell_angle_beta   60.40379137
_cell_angle_gamma   60.40379575
_symmetry_Int_Tables_number   1
_chemical_formula_structural   Cs2Ti(WO4)3
_chemical_formula_sum   'Cs2 Ti1 W3 O12'
_cell_volume   272.76097059
_cell_formula_units_Z   1
loop_
 _symmetry_equiv_pos_site_id
 _symmetry_equiv_pos_as_xyz
  1  'x, y, z'
loop_
 _atom_site_type_symbol
 _atom_site_label
 _atom_site_symmetry_multiplicity
 _atom_site_fract_x
 _atom_site_fract_y
 _atom_site_fract_z
 _atom_site_occupancy
  Cs  Cs0  1  0.62911712  0.62911712  0.62911712  1
  Cs  Cs1  1  0.37088288  0.37088288  0.37088288  1
  Ti  Ti2  1  0.00000000  0.00000000  -0.00000000  1
  W  W3  1  0.50000000  0.00000000  -0.00000000  1
  W  W4  1  0.00000000  0.00000000  0.50000000  1
  W  W5  1  0.00000000  0.50000000  -0.00000000  1
  O  O6  1  0.94143774  0.31149543  0.31149543  1
  O  O7  1  0.31342664  0.94096901  0.94096901  1
  O  O8  1  0.31149543  0.31149543  0.94143774  1
  O  O9  1  0.94096901  0.94096901  0.31342664  1
  O  O10  1  0.94096901  0.31342664  0.94096901  1
  O  O11  1  0.31149543  0.94143774  0.31149543  1
  O  O12  1  0.05856226  0.68850457  0.68850457  1
  O  O13  1  0.68657336  0.05903099  0.05903099  1
  O  O14  1  0.68850457  0.68850457  0.05856226  1
  O  O15  1  0.05903099  0.05903099  0.68657336  1
  O  O16  1  0.05903099  0.68657336  0.05903099  1
  O  O17  1  0.68850457  0.05856226  0.68850457  1
