# generated using pymatgen
data_Mg6Te5O16
_symmetry_space_group_name_H-M   'P 1'
_cell_length_a   10.40391575
_cell_length_b   11.22123061
_cell_length_c   13.08913038
_cell_angle_alpha   90.00000000
_cell_angle_beta   90.00000000
_cell_angle_gamma   90.00000000
_symmetry_Int_Tables_number   1
_chemical_formula_structural   Mg6Te5O16
_chemical_formula_sum   'Mg24 Te20 O64'
_cell_volume   1528.08709526
_cell_formula_units_Z   4
loop_
 _symmetry_equiv_pos_site_id
 _symmetry_equiv_pos_as_xyz
  1  'x, y, z'
loop_
 _atom_site_type_symbol
 _atom_site_label
 _atom_site_symmetry_multiplicity
 _atom_site_fract_x
 _atom_site_fract_y
 _atom_site_fract_z
 _atom_site_occupancy
  Mg  Mg0  1  0.93069418  0.75094843  0.99324441  1
  Mg  Mg1  1  0.06930582  0.24905157  0.00675559  1
  Mg  Mg2  1  0.06930582  0.74905157  0.49324441  1
  Mg  Mg3  1  0.43069418  0.24905157  0.00675559  1
  Mg  Mg4  1  0.93069418  0.25094843  0.50675559  1
  Mg  Mg5  1  0.56930582  0.75094843  0.99324441  1
  Mg  Mg6  1  0.56930582  0.25094843  0.50675559  1
  Mg  Mg7  1  0.43069418  0.74905157  0.49324441  1
  Mg  Mg8  1  0.90881844  0.75018422  0.73017783  1
  Mg  Mg9  1  0.09118156  0.24981578  0.26982217  1
  Mg  Mg10  1  0.09118156  0.74981578  0.23017783  1
  Mg  Mg11  1  0.40881844  0.24981578  0.26982217  1
  Mg  Mg12  1  0.90881844  0.25018422  0.76982217  1
  Mg  Mg13  1  0.59118156  0.75018422  0.73017783  1
  Mg  Mg14  1  0.59118156  0.25018422  0.76982217  1
  Mg  Mg15  1  0.40881844  0.74981578  0.23017783  1
  Mg  Mg16  1  0.42546114  0.98432613  0.89366401  1
  Mg  Mg17  1  0.57453886  0.01567387  0.10633599  1
  Mg  Mg18  1  0.57453886  0.51567387  0.39366401  1
  Mg  Mg19  1  0.92546114  0.01567387  0.10633599  1
  Mg  Mg20  1  0.42546114  0.48432613  0.60633599  1
  Mg  Mg21  1  0.07453886  0.98432613  0.89366401  1
  Mg  Mg22  1  0.07453886  0.48432613  0.60633599  1
  Mg  Mg23  1  0.92546114  0.51567387  0.39366401  1
  Te  Te24  1  0.75000000  0.80214013  0.18312602  1
  Te  Te25  1  0.25000000  0.19785987  0.81687398  1
  Te  Te26  1  0.25000000  0.69785987  0.68312602  1
  Te  Te27  1  0.75000000  0.30214013  0.31687398  1
  Te  Te28  1  0.75000000  0.96542440  0.86346201  1
  Te  Te29  1  0.25000000  0.03457560  0.13653799  1
  Te  Te30  1  0.25000000  0.53457560  0.36346201  1
  Te  Te31  1  0.75000000  0.46542440  0.63653799  1
  Te  Te32  1  0.75000000  0.77999327  0.49338212  1
  Te  Te33  1  0.25000000  0.22000673  0.50661788  1
  Te  Te34  1  0.25000000  0.72000673  0.99338212  1
  Te  Te35  1  0.75000000  0.27999327  0.00661788  1
  Te  Te36  1  0.96139935  0.99143191  0.36310261  1
  Te  Te37  1  0.03860065  0.00856809  0.63689739  1
  Te  Te38  1  0.03860065  0.50856809  0.86310261  1
  Te  Te39  1  0.46139935  0.00856809  0.63689739  1
  Te  Te40  1  0.96139935  0.49143191  0.13689739  1
  Te  Te41  1  0.53860065  0.99143191  0.36310261  1
  Te  Te42  1  0.53860065  0.49143191  0.13689739  1
  Te  Te43  1  0.46139935  0.50856809  0.86310261  1
  O  O44  1  0.92059897  0.63696061  0.85637057  1
  O  O45  1  0.07940103  0.36303939  0.14362943  1
  O  O46  1  0.07940103  0.86303939  0.35637057  1
  O  O47  1  0.42059897  0.36303939  0.14362943  1
  O  O48  1  0.92059897  0.13696061  0.64362943  1
  O  O49  1  0.57940103  0.63696061  0.85637057  1
  O  O50  1  0.57940103  0.13696061  0.64362943  1
  O  O51  1  0.42059897  0.86303939  0.35637057  1
  O  O52  1  0.44375592  0.67401848  0.64972492  1
  O  O53  1  0.55624408  0.32598152  0.35027508  1
  O  O54  1  0.55624408  0.82598152  0.14972492  1
  O  O55  1  0.94375592  0.32598152  0.35027508  1
  O  O56  1  0.44375592  0.17401848  0.85027508  1
  O  O57  1  0.05624408  0.67401848  0.64972492  1
  O  O58  1  0.05624408  0.17401848  0.85027508  1
  O  O59  1  0.94375592  0.82598152  0.14972492  1
  O  O60  1  0.75000000  0.21767003  0.44569056  1
  O  O61  1  0.25000000  0.78232997  0.55430944  1
  O  O62  1  0.25000000  0.28232997  0.94569056  1
  O  O63  1  0.75000000  0.71767003  0.05430944  1
  O  O64  1  0.75000000  0.72290384  0.63137598  1
  O  O65  1  0.25000000  0.27709616  0.36862402  1
  O  O66  1  0.25000000  0.77709616  0.13137598  1
  O  O67  1  0.75000000  0.22290384  0.86862402  1
  O  O68  1  0.88916792  0.93988748  0.95823855  1
  O  O69  1  0.11083208  0.06011252  0.04176145  1
  O  O70  1  0.11083208  0.56011252  0.45823855  1
  O  O71  1  0.38916792  0.06011252  0.04176145  1
  O  O72  1  0.88916792  0.43988748  0.54176145  1
  O  O73  1  0.61083208  0.93988748  0.95823855  1
  O  O74  1  0.61083208  0.43988748  0.54176145  1
  O  O75  1  0.38916792  0.56011252  0.45823855  1
  O  O76  1  0.75000000  0.80705069  0.81709517  1
  O  O77  1  0.25000000  0.19294931  0.18290483  1
  O  O78  1  0.25000000  0.69294931  0.31709517  1
  O  O79  1  0.75000000  0.30705069  0.68290483  1
  O  O80  1  0.95687482  0.89625313  0.54889282  1
  O  O81  1  0.04312518  0.10374687  0.45110718  1
  O  O82  1  0.04312518  0.60374687  0.04889282  1
  O  O83  1  0.45687482  0.10374687  0.45110718  1
  O  O84  1  0.95687482  0.39625313  0.95110718  1
  O  O85  1  0.54312518  0.89625313  0.54889282  1
  O  O86  1  0.54312518  0.39625313  0.95110718  1
  O  O87  1  0.45687482  0.60374687  0.04889282  1
  O  O88  1  0.98428142  0.92328242  0.75697572  1
  O  O89  1  0.01571858  0.07671758  0.24302428  1
  O  O90  1  0.01571858  0.57671758  0.25697572  1
  O  O91  1  0.48428142  0.07671758  0.24302428  1
  O  O92  1  0.98428142  0.42328242  0.74302428  1
  O  O93  1  0.51571858  0.92328242  0.75697572  1
  O  O94  1  0.51571858  0.42328242  0.74302428  1
  O  O95  1  0.48428142  0.57671758  0.25697572  1
  O  O96  1  0.38930412  0.81373945  0.94474071  1
  O  O97  1  0.61069588  0.18626055  0.05525929  1
  O  O98  1  0.61069588  0.68626055  0.44474071  1
  O  O99  1  0.88930412  0.18626055  0.05525929  1
  O  O100  1  0.38930412  0.31373945  0.55525929  1
  O  O101  1  0.11069588  0.81373945  0.94474071  1
  O  O102  1  0.11069588  0.31373945  0.55525929  1
  O  O103  1  0.88930412  0.68626055  0.44474071  1
  O  O104  1  0.75000000  0.97326362  0.16656312  1
  O  O105  1  0.25000000  0.02673638  0.83343688  1
  O  O106  1  0.25000000  0.52673638  0.66656312  1
  O  O107  1  0.75000000  0.47326362  0.33343688  1
