# generated using pymatgen
data_Nb4Pb3O13
_symmetry_space_group_name_H-M   'P 1'
_cell_length_a   7.52596630
_cell_length_b   7.53753820
_cell_length_c   10.65715717
_cell_angle_alpha   90.00000000
_cell_angle_beta   90.00000000
_cell_angle_gamma   90.00000000
_symmetry_Int_Tables_number   1
_chemical_formula_structural   Nb4Pb3O13
_chemical_formula_sum   'Nb8 Pb6 O26'
_cell_volume   604.55130942
_cell_formula_units_Z   2
loop_
 _symmetry_equiv_pos_site_id
 _symmetry_equiv_pos_as_xyz
  1  'x, y, z'
loop_
 _atom_site_type_symbol
 _atom_site_label
 _atom_site_symmetry_multiplicity
 _atom_site_fract_x
 _atom_site_fract_y
 _atom_site_fract_z
 _atom_site_occupancy
  Nb  Nb0  1  0.75124235  0.75000000  0.25263573  1
  Nb  Nb1  1  -0.00000000  0.00000000  -0.00000000  1
  Nb  Nb2  1  0.24875765  0.25000000  0.74736427  1
  Nb  Nb3  1  0.50000000  0.00000000  0.50000000  1
  Nb  Nb4  1  0.50000000  0.50000000  0.50000000  1
  Nb  Nb5  1  0.75124235  0.25000000  0.74736427  1
  Nb  Nb6  1  -0.00000000  0.50000000  -0.00000000  1
  Nb  Nb7  1  0.24875765  0.75000000  0.25263573  1
  Pb  Pb8  1  0.75077065  0.75000000  0.73659010  1
  Pb  Pb9  1  0.24922935  0.75000000  0.73659010  1
  Pb  Pb10  1  0.24922935  0.25000000  0.26340990  1
  Pb  Pb11  1  0.50000000  0.00000000  -0.00000000  1
  Pb  Pb12  1  0.50000000  0.50000000  -0.00000000  1
  Pb  Pb13  1  0.75077065  0.25000000  0.26340990  1
  O  O14  1  0.31667681  0.93965075  0.37212204  1
  O  O15  1  0.50000000  0.75000000  0.17767280  1
  O  O16  1  0.50000000  0.25000000  0.15512747  1
  O  O17  1  0.50000000  0.75000000  0.56627863  1
  O  O18  1  0.68332319  0.93965075  0.37212204  1
  O  O19  1  0.80770809  0.44409266  0.87524288  1
  O  O20  1  0.80770809  0.94409266  0.12475712  1
  O  O21  1  0.80770809  0.05590734  0.87524288  1
  O  O22  1  -0.00000000  0.25000000  0.69929300  1
  O  O23  1  -0.00000000  0.75000000  0.93739666  1
  O  O24  1  -0.00000000  0.75000000  0.30070700  1
  O  O25  1  -0.00000000  0.25000000  0.06260334  1
  O  O26  1  0.19229191  0.94409266  0.12475712  1
  O  O27  1  0.19229191  0.44409266  0.87524288  1
  O  O28  1  0.19229191  0.05590734  0.87524288  1
  O  O29  1  0.31667681  0.43965075  0.62787796  1
  O  O30  1  0.31667681  0.56034925  0.37212204  1
  O  O31  1  0.31667681  0.06034925  0.62787796  1
  O  O32  1  0.50000000  0.25000000  0.43372137  1
  O  O33  1  0.50000000  0.25000000  0.82232720  1
  O  O34  1  0.50000000  0.75000000  0.84487253  1
  O  O35  1  0.68332319  0.06034925  0.62787796  1
  O  O36  1  0.68332319  0.43965075  0.62787796  1
  O  O37  1  0.68332319  0.56034925  0.37212204  1
  O  O38  1  0.80770809  0.55590734  0.12475712  1
  O  O39  1  0.19229191  0.55590734  0.12475712  1
