# generated using pymatgen
data_Na2CaMnAl2P2H2(O5F2)2
_symmetry_space_group_name_H-M   'P 1'
_cell_length_a   7.16945691
_cell_length_b   8.90873079
_cell_length_c   8.99546684
_cell_angle_alpha   74.61024168
_cell_angle_beta   74.34003295
_cell_angle_gamma   105.57265051
_symmetry_Int_Tables_number   1
_chemical_formula_structural   Na2CaMnAl2P2H2(O5F2)2
_chemical_formula_sum   'Na4 Ca2 Mn2 Al4 P4 H4 O20 F8'
_cell_volume   496.30303938
_cell_formula_units_Z   2
loop_
 _symmetry_equiv_pos_site_id
 _symmetry_equiv_pos_as_xyz
  1  'x, y, z'
loop_
 _atom_site_type_symbol
 _atom_site_label
 _atom_site_symmetry_multiplicity
 _atom_site_fract_x
 _atom_site_fract_y
 _atom_site_fract_z
 _atom_site_occupancy
  Na  Na0  1  0.95461266  0.62387435  0.13756506  1
  Na  Na1  1  0.95461266  0.12387435  0.63756506  1
  Na  Na2  1  0.04538734  0.87612565  0.36243494  1
  Na  Na3  1  0.04538734  0.37612565  0.86243494  1
  Ca  Ca4  1  0.50000000  0.25000000  0.25000000  1
  Ca  Ca5  1  0.50000000  0.75000000  0.75000000  1
  Mn  Mn6  1  0.50000000  0.00000000  0.00000000  1
  Mn  Mn7  1  0.50000000  0.50000000  0.50000000  1
  Al  Al8  1  0.00000000  0.25000000  0.25000000  1
  Al  Al9  1  0.00000000  0.75000000  0.75000000  1
  Al  Al10  1  0.00000000  0.00000000  0.00000000  1
  Al  Al11  1  0.00000000  0.50000000  0.50000000  1
  P  P12  1  0.36954656  0.08211122  0.67760989  1
  P  P13  1  0.36954656  0.58211122  0.17760989  1
  P  P14  1  0.63045344  0.41788878  0.82239011  1
  P  P15  1  0.63045344  0.91788878  0.32239011  1
  H  H16  1  0.76224658  0.27798393  0.47200214  1
  H  H17  1  0.76224658  0.77798393  0.97200214  1
  H  H18  1  0.23775342  0.22201607  0.02799786  1
  H  H19  1  0.23775342  0.72201607  0.52799786  1
  O  O20  1  0.91504843  0.82310035  0.92579611  1
  O  O21  1  0.91504843  0.32310035  0.42579611  1
  O  O22  1  0.08495157  0.67689965  0.57420389  1
  O  O23  1  0.08495157  0.17689965  0.07420389  1
  O  O24  1  0.51665882  0.52024384  0.25337538  1
  O  O25  1  0.51665882  0.02024384  0.75337538  1
  O  O26  1  0.48334118  0.97975616  0.24662462  1
  O  O27  1  0.48334118  0.47975616  0.74662462  1
  O  O28  1  0.24594411  0.94180142  0.63357974  1
  O  O29  1  0.24594411  0.44180142  0.13357974  1
  O  O30  1  0.78230440  0.37574933  0.69977709  1
  O  O31  1  0.78230440  0.87574933  0.19977709  1
  O  O32  1  0.75405589  0.55819858  0.86642026  1
  O  O33  1  0.75405589  0.05819858  0.36642026  1
  O  O34  1  0.21769560  0.12425067  0.80022291  1
  O  O35  1  0.21769560  0.62425067  0.30022291  1
  O  O36  1  0.49172903  0.24063822  0.52006704  1
  O  O37  1  0.49172903  0.74063822  0.02006704  1
  O  O38  1  0.50827097  0.25936178  0.97993296  1
  O  O39  1  0.50827097  0.75936178  0.47993296  1
  F  F40  1  0.14400506  0.14570914  0.35608882  1
  F  F41  1  0.14400506  0.64570914  0.85608882  1
  F  F42  1  0.83538049  0.09716365  0.91466068  1
  F  F43  1  0.83538049  0.59716365  0.41466068  1
  F  F44  1  0.85599494  0.35429086  0.14391118  1
  F  F45  1  0.85599494  0.85429086  0.64391118  1
  F  F46  1  0.16461951  0.40283635  0.58533932  1
  F  F47  1  0.16461951  0.90283635  0.08533932  1
