# generated using pymatgen
data_MgV6O5F19
_symmetry_space_group_name_H-M   'P 1'
_cell_length_a   5.44278100
_cell_length_b   5.33710136
_cell_length_c   15.64346731
_cell_angle_alpha   89.91407715
_cell_angle_beta   100.17227121
_cell_angle_gamma   92.06845680
_symmetry_Int_Tables_number   1
_chemical_formula_structural   MgV6O5F19
_chemical_formula_sum   'Mg1 V6 O5 F19'
_cell_volume   446.98208040
_cell_formula_units_Z   1
loop_
 _symmetry_equiv_pos_site_id
 _symmetry_equiv_pos_as_xyz
  1  'x, y, z'
loop_
 _atom_site_type_symbol
 _atom_site_label
 _atom_site_symmetry_multiplicity
 _atom_site_fract_x
 _atom_site_fract_y
 _atom_site_fract_z
 _atom_site_occupancy
  Mg  Mg0  1  0.50471500  0.25546700  0.51506000  1
  V  V1  1  0.05214400  0.96042900  0.00643900  1
  V  V2  1  0.13839600  0.48922300  0.31970600  1
  V  V3  1  0.30810500  0.06649000  0.67400800  1
  V  V4  1  0.53855300  0.45128000  0.99505400  1
  V  V5  1  0.66561800  0.00278100  0.32043400  1
  V  V6  1  0.83267100  0.51874700  0.67910100  1
  O  O7  1  0.04256800  0.22118700  0.66170800  1
  O  O8  1  0.52865500  0.30034200  0.65660000  1
  O  O9  1  0.70206400  0.22568500  0.96979900  1
  O  O10  1  0.29819500  0.79733600  0.03027400  1
  O  O11  1  0.88849300  0.27323500  0.31315200  1
  F  F12  1  0.21329700  0.27112100  0.97320600  1
  F  F13  1  0.13234300  0.72555300  0.67612600  1
  F  F14  1  0.02653800  0.10398400  0.10631900  1
  F  F15  1  0.24437700  0.42432300  0.44547600  1
  F  F16  1  0.38946900  0.04566500  0.78747900  1
  F  F17  1  0.12118400  0.60306200  0.21125900  1
  F  F18  1  0.30418700  0.97245700  0.55555700  1
  F  F19  1  0.44543500  0.60464500  0.89432000  1
  F  F20  1  0.38438700  0.22771800  0.30292400  1
  F  F21  1  0.44521700  0.72572200  0.34867300  1
  F  F22  1  0.64716300  0.80217700  0.68395000  1
  F  F23  1  0.53516700  0.40733100  0.10700000  1
  F  F24  1  0.68980300  0.07614400  0.44260400  1
  F  F25  1  0.89566600  0.45327800  0.79012100  1
  F  F26  1  0.60808700  0.91168200  0.21146000  1
  F  F27  1  0.76761500  0.52113200  0.55522100  1
  F  F28  1  0.94899200  0.90313200  0.89382800  1
  F  F29  1  0.80506900  0.70408200  0.02789200  1
  F  F30  1  0.94344600  0.77958600  0.34971500  1
