# generated using pymatgen
data_K2NdBr5
_symmetry_space_group_name_H-M   'P 1'
_cell_length_a   8.47555519
_cell_length_b   9.17274349
_cell_length_c   13.40637203
_cell_angle_alpha   90.00000000
_cell_angle_beta   90.00000000
_cell_angle_gamma   90.00000000
_symmetry_Int_Tables_number   1
_chemical_formula_structural   K2NdBr5
_chemical_formula_sum   'K8 Nd4 Br20'
_cell_volume   1042.26624319
_cell_formula_units_Z   4
loop_
 _symmetry_equiv_pos_site_id
 _symmetry_equiv_pos_as_xyz
  1  'x, y, z'
loop_
 _atom_site_type_symbol
 _atom_site_label
 _atom_site_symmetry_multiplicity
 _atom_site_fract_x
 _atom_site_fract_y
 _atom_site_fract_z
 _atom_site_occupancy
  K  K0  1  0.94769189  0.00388620  0.82769229  1
  K  K1  1  0.05230811  0.99611380  0.17230771  1
  K  K2  1  0.44769189  0.99611380  0.67230771  1
  K  K3  1  0.05230811  0.50388620  0.17230771  1
  K  K4  1  0.55230811  0.00388620  0.32769229  1
  K  K5  1  0.94769189  0.49611380  0.82769229  1
  K  K6  1  0.55230811  0.49611380  0.32769229  1
  K  K7  1  0.44769189  0.50388620  0.67230771  1
  Nd  Nd8  1  0.92107613  0.75000000  0.50609607  1
  Nd  Nd9  1  0.07892387  0.25000000  0.49390393  1
  Nd  Nd10  1  0.42107613  0.25000000  0.99390393  1
  Nd  Nd11  1  0.57892387  0.75000000  0.00609607  1
  Br  Br12  1  0.12920214  0.75000000  0.68124121  1
  Br  Br13  1  0.87079786  0.25000000  0.31875879  1
  Br  Br14  1  0.62920214  0.25000000  0.81875879  1
  Br  Br15  1  0.37079786  0.75000000  0.18124121  1
  Br  Br16  1  0.83264039  0.04480851  0.57828603  1
  Br  Br17  1  0.16735961  0.95519149  0.42171397  1
  Br  Br18  1  0.33264039  0.95519149  0.92171397  1
  Br  Br19  1  0.16735961  0.54480851  0.42171397  1
  Br  Br20  1  0.66735961  0.04480851  0.07828603  1
  Br  Br21  1  0.83264039  0.45519149  0.57828603  1
  Br  Br22  1  0.66735961  0.45519149  0.07828603  1
  Br  Br23  1  0.33264039  0.54480851  0.92171397  1
  Br  Br24  1  0.57114988  0.75000000  0.50757736  1
  Br  Br25  1  0.42885012  0.25000000  0.49242264  1
  Br  Br26  1  0.07114988  0.25000000  0.99242264  1
  Br  Br27  1  0.92885012  0.75000000  0.00757736  1
  Br  Br28  1  0.66493133  0.75000000  0.79313405  1
  Br  Br29  1  0.33506867  0.25000000  0.20686595  1
  Br  Br30  1  0.16493133  0.25000000  0.70686595  1
  Br  Br31  1  0.83506867  0.75000000  0.29313405  1
