# generated using pymatgen
data_AlInBr4
_symmetry_space_group_name_H-M   'P 1'
_cell_length_a   7.53221559
_cell_length_b   8.89250030
_cell_length_c   13.17747061
_cell_angle_alpha   74.42776237
_cell_angle_beta   90.00000000
_cell_angle_gamma   90.00000000
_symmetry_Int_Tables_number   1
_chemical_formula_structural   AlInBr4
_chemical_formula_sum   'Al4 In4 Br16'
_cell_volume   850.23109045
_cell_formula_units_Z   4
loop_
 _symmetry_equiv_pos_site_id
 _symmetry_equiv_pos_as_xyz
  1  'x, y, z'
loop_
 _atom_site_type_symbol
 _atom_site_label
 _atom_site_symmetry_multiplicity
 _atom_site_fract_x
 _atom_site_fract_y
 _atom_site_fract_z
 _atom_site_occupancy
  Al  Al0  1  0.78441443  0.71662143  0.54672122  1
  Al  Al1  1  0.21558557  0.28337857  0.45327878  1
  Al  Al2  1  0.78441443  0.28337857  0.95327878  1
  Al  Al3  1  0.21558557  0.71662143  0.04672122  1
  In  In4  1  0.91760271  -0.00000000  0.75000000  1
  In  In5  1  0.08239729  -0.00000000  0.25000000  1
  In  In6  1  0.39304028  0.50000000  0.75000000  1
  In  In7  1  0.60695972  0.50000000  0.25000000  1
  Br  Br8  1  0.25541288  0.79857147  0.86539008  1
  Br  Br9  1  0.74458712  0.20142853  0.13460992  1
  Br  Br10  1  0.25541288  0.20142853  0.63460992  1
  Br  Br11  1  0.74458712  0.79857147  0.36539008  1
  Br  Br12  1  0.57892717  0.84183421  0.62620743  1
  Br  Br13  1  0.42107283  0.15816579  0.37379257  1
  Br  Br14  1  0.57892717  0.15816579  0.87379257  1
  Br  Br15  1  0.42107283  0.84183421  0.12620743  1
  Br  Br16  1  0.73412837  0.45133044  0.60375182  1
  Br  Br17  1  0.26587163  0.54866956  0.39624818  1
  Br  Br18  1  0.73412837  0.54866956  0.89624818  1
  Br  Br19  1  0.26587163  0.45133044  0.10375182  1
  Br  Br20  1  0.93401361  0.78308326  0.08879024  1
  Br  Br21  1  0.06598639  0.21691674  0.91120976  1
  Br  Br22  1  0.93401361  0.21691674  0.41120976  1
  Br  Br23  1  0.06598639  0.78308326  0.58879024  1
