# generated using pymatgen
data_CaLa4Ni3WO12
_symmetry_space_group_name_H-M   'P 1'
_cell_length_a   5.55697198
_cell_length_b   9.14479700
_cell_length_c   5.76129698
_cell_angle_alpha   90.00000000
_cell_angle_beta   89.76576692
_cell_angle_gamma   90.00000000
_symmetry_Int_Tables_number   1
_chemical_formula_structural   CaLa4Ni3WO12
_chemical_formula_sum   'Ca1 La4 Ni3 W1 O12'
_cell_volume   292.77157535
_cell_formula_units_Z   1
loop_
 _symmetry_equiv_pos_site_id
 _symmetry_equiv_pos_as_xyz
  1  'x, y, z'
loop_
 _atom_site_type_symbol
 _atom_site_label
 _atom_site_symmetry_multiplicity
 _atom_site_fract_x
 _atom_site_fract_y
 _atom_site_fract_z
 _atom_site_occupancy
  Ca  Ca0  1  0.50000000  0.50000000  0.00000000  1
  La  La1  1  0.50000000  0.17722200  0.00000000  1
  La  La2  1  0.00000000  0.68996500  0.50000000  1
  La  La3  1  0.50000000  0.82277800  0.00000000  1
  La  La4  1  0.00000000  0.31003500  0.50000000  1
  Ni  Ni5  1  0.00000000  0.00000000  0.00000000  1
  Ni  Ni6  1  0.50000000  0.50000000  0.50000000  1
  Ni  Ni7  1  0.00000000  0.50000000  0.00000000  1
  W  W8  1  0.50000000  0.00000000  0.50000000  1
  O  O9  1  0.00000000  0.25335000  0.00000000  1
  O  O10  1  0.50000000  0.76891100  0.50000000  1
  O  O11  1  0.22860800  0.50000000  0.27730500  1
  O  O12  1  0.72024200  0.00000000  0.78894100  1
  O  O13  1  0.22996100  0.50000000  0.72383300  1
  O  O14  1  0.73533700  0.00000000  0.23475500  1
  O  O15  1  0.00000000  0.74665000  0.00000000  1
  O  O16  1  0.50000000  0.23108900  0.50000000  1
  O  O17  1  0.77139200  0.50000000  0.72269500  1
  O  O18  1  0.27975800  0.00000000  0.21105900  1
  O  O19  1  0.77003900  0.50000000  0.27616700  1
  O  O20  1  0.26466300  0.00000000  0.76524500  1
