# generated using pymatgen
data_Ba2YCoO5
_symmetry_space_group_name_H-M   'P 1'
_cell_length_a   6.11339284
_cell_length_b   7.90624052
_cell_length_c   12.40446925
_cell_angle_alpha   91.70350699
_cell_angle_beta   90.00000000
_cell_angle_gamma   90.00000000
_symmetry_Int_Tables_number   1
_chemical_formula_structural   Ba2YCoO5
_chemical_formula_sum   'Ba8 Y4 Co4 O20'
_cell_volume   599.29206951
_cell_formula_units_Z   4
loop_
 _symmetry_equiv_pos_site_id
 _symmetry_equiv_pos_as_xyz
  1  'x, y, z'
loop_
 _atom_site_type_symbol
 _atom_site_label
 _atom_site_symmetry_multiplicity
 _atom_site_fract_x
 _atom_site_fract_y
 _atom_site_fract_z
 _atom_site_occupancy
  Ba  Ba0  1  0.75838616  0.49072633  0.36016752  1
  Ba  Ba1  1  0.74161384  0.99072633  0.86016752  1
  Ba  Ba2  1  0.24161384  0.50927367  0.63983248  1
  Ba  Ba3  1  0.25838616  0.00927367  0.13983248  1
  Ba  Ba4  1  0.75389106  0.99252409  0.38481513  1
  Ba  Ba5  1  0.74610894  0.49252409  0.88481513  1
  Ba  Ba6  1  0.24610894  0.00747591  0.61518487  1
  Ba  Ba7  1  0.25389106  0.50747591  0.11518487  1
  Y  Y8  1  0.74799200  0.26419569  0.62857237  1
  Y  Y9  1  0.75200800  0.76419569  0.12857237  1
  Y  Y10  1  0.25200800  0.73580431  0.37142763  1
  Y  Y11  1  0.24799200  0.23580431  0.87142763  1
  Co  Co12  1  0.74182381  0.74621457  0.59341160  1
  Co  Co13  1  0.75817619  0.24621457  0.09341160  1
  Co  Co14  1  0.25817619  0.25378543  0.40658840  1
  Co  Co15  1  0.24182381  0.75378543  0.90658840  1
  O  O16  1  0.75530580  0.97145404  0.63224766  1
  O  O17  1  0.74469420  0.47145404  0.13224766  1
  O  O18  1  0.24469420  0.02854596  0.36775234  1
  O  O19  1  0.25530580  0.52854596  0.86775234  1
  O  O20  1  0.73776564  0.05604365  0.17109255  1
  O  O21  1  0.76223436  0.55604365  0.67109255  1
  O  O22  1  0.26223436  0.94395635  0.82890745  1
  O  O23  1  0.23776564  0.44395635  0.32890745  1
  O  O24  1  0.53980342  0.74657823  0.26942209  1
  O  O25  1  0.96019658  0.24657823  0.76942209  1
  O  O26  1  0.46019658  0.25342177  0.73057791  1
  O  O27  1  0.03980342  0.75342177  0.23057791  1
  O  O28  1  0.52921671  0.22917870  0.98897118  1
  O  O29  1  0.97078329  0.72917870  0.48897118  1
  O  O30  1  0.47078329  0.77082130  0.01102882  1
  O  O31  1  0.02921671  0.27082130  0.51102882  1
  O  O32  1  0.02772355  0.23329471  0.01799838  1
  O  O33  1  0.47227645  0.73329471  0.51799838  1
  O  O34  1  0.97227645  0.76670529  0.98200162  1
  O  O35  1  0.52772355  0.26670529  0.48200162  1
