# generated using pymatgen
data_GdH(SeO4)2
_symmetry_space_group_name_H-M   'P 1'
_cell_length_a   9.19307896
_cell_length_b   10.06180923
_cell_length_c   13.49009738
_cell_angle_alpha   90.00000000
_cell_angle_beta   90.00000000
_cell_angle_gamma   90.00000000
_symmetry_Int_Tables_number   1
_chemical_formula_structural   GdH(SeO4)2
_chemical_formula_sum   'Gd8 H8 Se16 O64'
_cell_volume   1247.82060837
_cell_formula_units_Z   8
loop_
 _symmetry_equiv_pos_site_id
 _symmetry_equiv_pos_as_xyz
  1  'x, y, z'
loop_
 _atom_site_type_symbol
 _atom_site_label
 _atom_site_symmetry_multiplicity
 _atom_site_fract_x
 _atom_site_fract_y
 _atom_site_fract_z
 _atom_site_occupancy
  Gd  Gd0  1  0.72045046  0.45202703  0.10567420  1
  Gd  Gd1  1  0.22045046  0.54797297  0.39432580  1
  Gd  Gd2  1  0.27954954  0.04797297  0.60567420  1
  Gd  Gd3  1  0.77954954  0.95202703  0.89432580  1
  Gd  Gd4  1  0.27954954  0.54797297  0.89432580  1
  Gd  Gd5  1  0.77954954  0.45202703  0.60567420  1
  Gd  Gd6  1  0.72045046  0.95202703  0.39432580  1
  Gd  Gd7  1  0.22045046  0.04797297  0.10567420  1
  H  H8  1  0.15697387  0.75480860  0.19893791  1
  H  H9  1  0.65697387  0.24519140  0.30106209  1
  H  H10  1  0.84302613  0.74519140  0.69893791  1
  H  H11  1  0.34302613  0.25480860  0.80106209  1
  H  H12  1  0.84302613  0.24519140  0.80106209  1
  H  H13  1  0.34302613  0.75480860  0.69893791  1
  H  H14  1  0.15697387  0.25480860  0.30106209  1
  H  H15  1  0.65697387  0.74519140  0.19893791  1
  Se  Se16  1  0.81039294  0.59993856  0.34930523  1
  Se  Se17  1  0.31039294  0.40006144  0.15069477  1
  Se  Se18  1  0.18960706  0.90006144  0.84930523  1
  Se  Se19  1  0.68960706  0.09993856  0.65069477  1
  Se  Se20  1  0.18960706  0.40006144  0.65069477  1
  Se  Se21  1  0.68960706  0.59993856  0.84930523  1
  Se  Se22  1  0.81039294  0.09993856  0.15069477  1
  Se  Se23  1  0.31039294  0.90006144  0.34930523  1
  Se  Se24  1  0.99317953  0.71700808  0.06531645  1
  Se  Se25  1  0.49317953  0.28299192  0.43468355  1
  Se  Se26  1  0.00682047  0.78299192  0.56531645  1
  Se  Se27  1  0.50682047  0.21700808  0.93468355  1
  Se  Se28  1  0.00682047  0.28299192  0.93468355  1
  Se  Se29  1  0.50682047  0.71700808  0.56531645  1
  Se  Se30  1  0.99317953  0.21700808  0.43468355  1
  Se  Se31  1  0.49317953  0.78299192  0.06531645  1
  O  O32  1  0.98779627  0.59091109  0.34340037  1
  O  O33  1  0.48779627  0.40908891  0.15659963  1
  O  O34  1  0.01220373  0.90908891  0.84340037  1
  O  O35  1  0.51220373  0.09091109  0.65659963  1
  O  O36  1  0.01220373  0.40908891  0.65659963  1
  O  O37  1  0.51220373  0.59091109  0.84340037  1
  O  O38  1  0.98779627  0.09091109  0.15659963  1
  O  O39  1  0.48779627  0.90908891  0.34340037  1
  O  O40  1  0.73416098  0.48678021  0.27865559  1
  O  O41  1  0.23416098  0.51321979  0.22134441  1
  O  O42  1  0.26583902  0.01321979  0.77865559  1
  O  O43  1  0.76583902  0.98678021  0.72134441  1
  O  O44  1  0.26583902  0.51321979  0.72134441  1
  O  O45  1  0.76583902  0.48678021  0.77865559  1
  O  O46  1  0.73416098  0.98678021  0.22134441  1
  O  O47  1  0.23416098  0.01321979  0.27865559  1
  O  O48  1  0.75603991  0.58463794  0.46495406  1
  O  O49  1  0.25603991  0.41536206  0.03504594  1
  O  O50  1  0.24396009  0.91536206  0.96495406  1
  O  O51  1  0.74396009  0.08463794  0.53504594  1
  O  O52  1  0.24396009  0.41536206  0.53504594  1
  O  O53  1  0.74396009  0.58463794  0.96495406  1
  O  O54  1  0.75603991  0.08463794  0.03504594  1
  O  O55  1  0.25603991  0.91536206  0.46495406  1
  O  O56  1  0.75311637  0.74785640  0.31004292  1
  O  O57  1  0.25311637  0.25214360  0.18995708  1
  O  O58  1  0.24688363  0.75214360  0.81004292  1
  O  O59  1  0.74688363  0.24785640  0.68995708  1
  O  O60  1  0.24688363  0.25214360  0.68995708  1
  O  O61  1  0.74688363  0.74785640  0.81004292  1
  O  O62  1  0.75311637  0.24785640  0.18995708  1
  O  O63  1  0.25311637  0.75214360  0.31004292  1
  O  O64  1  0.88891714  0.84008730  0.03263511  1
  O  O65  1  0.38891714  0.15991270  0.46736489  1
  O  O66  1  0.11108286  0.65991270  0.53263511  1
  O  O67  1  0.61108286  0.34008730  0.96736489  1
  O  O68  1  0.11108286  0.15991270  0.96736489  1
  O  O69  1  0.61108286  0.84008730  0.53263511  1
  O  O70  1  0.88891714  0.34008730  0.46736489  1
  O  O71  1  0.38891714  0.65991270  0.03263511  1
  O  O72  1  0.91908394  0.34624988  0.02789732  1
  O  O73  1  0.41908394  0.65375012  0.47210268  1
  O  O74  1  0.08091606  0.15375012  0.52789732  1
  O  O75  1  0.58091606  0.84624988  0.97210268  1
  O  O76  1  0.08091606  0.65375012  0.97210268  1
  O  O77  1  0.58091606  0.34624988  0.52789732  1
  O  O78  1  0.91908394  0.84624988  0.47210268  1
  O  O79  1  0.41908394  0.15375012  0.02789732  1
  O  O80  1  0.91654681  0.60611540  0.13596106  1
  O  O81  1  0.41654681  0.39388460  0.36403894  1
  O  O82  1  0.08345319  0.89388460  0.63596106  1
  O  O83  1  0.58345319  0.10611540  0.86403894  1
  O  O84  1  0.08345319  0.39388460  0.86403894  1
  O  O85  1  0.58345319  0.60611540  0.63596106  1
  O  O86  1  0.91654681  0.10611540  0.36403894  1
  O  O87  1  0.41654681  0.89388460  0.13596106  1
  O  O88  1  0.11428389  0.80393493  0.14127519  1
  O  O89  1  0.61428389  0.19606507  0.35872481  1
  O  O90  1  0.88571611  0.69606507  0.64127519  1
  O  O91  1  0.38571611  0.30393493  0.85872481  1
  O  O92  1  0.88571611  0.19606507  0.85872481  1
  O  O93  1  0.38571611  0.80393493  0.64127519  1
  O  O94  1  0.11428389  0.30393493  0.35872481  1
  O  O95  1  0.61428389  0.69606507  0.14127519  1
