# generated using pymatgen
data_MgVAs2O7
_symmetry_space_group_name_H-M   'P 1'
_cell_length_a   8.01155837
_cell_length_b   7.81037911
_cell_length_c   10.54482811
_cell_angle_alpha   58.14415936
_cell_angle_beta   90.00000000
_cell_angle_gamma   90.00000000
_symmetry_Int_Tables_number   1
_chemical_formula_structural   MgVAs2O7
_chemical_formula_sum   'Mg4 V4 As8 O28'
_cell_volume   560.44112353
_cell_formula_units_Z   4
loop_
 _symmetry_equiv_pos_site_id
 _symmetry_equiv_pos_as_xyz
  1  'x, y, z'
loop_
 _atom_site_type_symbol
 _atom_site_label
 _atom_site_symmetry_multiplicity
 _atom_site_fract_x
 _atom_site_fract_y
 _atom_site_fract_z
 _atom_site_occupancy
  Mg  Mg0  1  0.07304624  0.72950197  0.88161881  1
  Mg  Mg1  1  0.57304624  0.27049803  0.61838119  1
  Mg  Mg2  1  0.92695376  0.27049803  0.11838119  1
  Mg  Mg3  1  0.42695376  0.72950197  0.38161881  1
  V  V4  1  0.94796640  0.18600800  0.70394987  1
  V  V5  1  0.44796640  0.81399200  0.79605013  1
  V  V6  1  0.05203360  0.81399200  0.29605013  1
  V  V7  1  0.55203360  0.18600800  0.20394987  1
  As  As8  1  0.77759924  0.53025592  0.76760169  1
  As  As9  1  0.27759924  0.46974408  0.73239831  1
  As  As10  1  0.22240076  0.46974408  0.23239831  1
  As  As11  1  0.72240076  0.53025592  0.26760169  1
  As  As12  1  0.71605342  0.94970407  0.97437443  1
  As  As13  1  0.21605342  0.05029593  0.52562557  1
  As  As14  1  0.28394658  0.05029593  0.02562557  1
  As  As15  1  0.78394658  0.94970407  0.47437443  1
  O  O16  1  0.68678229  0.24488587  0.06821484  1
  O  O17  1  0.18678229  0.75511413  0.43178516  1
  O  O18  1  0.31321771  0.75511413  0.93178516  1
  O  O19  1  0.81321771  0.24488587  0.56821484  1
  O  O20  1  0.60169144  0.64010201  0.78142034  1
  O  O21  1  0.10169144  0.35989799  0.71857966  1
  O  O22  1  0.39830856  0.35989799  0.21857966  1
  O  O23  1  0.89830856  0.64010201  0.28142034  1
  O  O24  1  0.92497794  0.51973986  0.88548602  1
  O  O25  1  0.42497794  0.48026014  0.61451398  1
  O  O26  1  0.07502206  0.48026014  0.11451398  1
  O  O27  1  0.57502206  0.51973986  0.38548602  1
  O  O28  1  0.83349471  0.67710778  0.58125295  1
  O  O29  1  0.33349471  0.32289222  0.91874705  1
  O  O30  1  0.16650529  0.32289222  0.41874705  1
  O  O31  1  0.66650529  0.67710778  0.08125295  1
  O  O32  1  0.91172381  0.99205738  0.32300549  1
  O  O33  1  0.41172381  0.00794262  0.17699451  1
  O  O34  1  0.08827619  0.00794262  0.67699451  1
  O  O35  1  0.58827619  0.99205738  0.82300549  1
  O  O36  1  0.74588647  0.30751649  0.27928376  1
  O  O37  1  0.24588647  0.69248351  0.22071624  1
  O  O38  1  0.25411353  0.69248351  0.72071624  1
  O  O39  1  0.75411353  0.30751649  0.77928376  1
  O  O40  1  0.59140170  0.93756425  0.38859960  1
  O  O41  1  0.09140170  0.06243575  0.11140040  1
  O  O42  1  0.40859830  0.06243575  0.61140040  1
  O  O43  1  0.90859830  0.93756425  0.88859960  1
