# generated using pymatgen
data_Ca2UO5
_symmetry_space_group_name_H-M   'P 1'
_cell_length_a   5.46363505
_cell_length_b   7.88342453
_cell_length_c   11.40403089
_cell_angle_alpha   72.00569426
_cell_angle_beta   90.00000000
_cell_angle_gamma   90.00000000
_symmetry_Int_Tables_number   1
_chemical_formula_structural   Ca2UO5
_chemical_formula_sum   'Ca8 U4 O20'
_cell_volume   467.17041205
_cell_formula_units_Z   4
loop_
 _symmetry_equiv_pos_site_id
 _symmetry_equiv_pos_as_xyz
  1  'x, y, z'
loop_
 _atom_site_type_symbol
 _atom_site_label
 _atom_site_symmetry_multiplicity
 _atom_site_fract_x
 _atom_site_fract_y
 _atom_site_fract_z
 _atom_site_occupancy
  Ca  Ca0  1  0.94045328  0.15397115  0.68230145  1
  Ca  Ca1  1  0.44045328  0.84602885  0.81769855  1
  Ca  Ca2  1  0.05954672  0.84602885  0.31769855  1
  Ca  Ca3  1  0.55954672  0.15397115  0.18230145  1
  Ca  Ca4  1  0.49392934  0.34643291  0.86257095  1
  Ca  Ca5  1  0.99392934  0.65356709  0.63742905  1
  Ca  Ca6  1  0.50607066  0.65356709  0.13742905  1
  Ca  Ca7  1  0.00607066  0.34643291  0.36257095  1
  U  U8  1  0.00000000  -0.00000000  -0.00000000  1
  U  U9  1  0.50000000  -0.00000000  0.50000000  1
  U  U10  1  0.00000000  0.50000000  -0.00000000  1
  U  U11  1  0.50000000  0.50000000  0.50000000  1
  O  O12  1  0.68108319  0.25024340  0.50382300  1
  O  O13  1  0.18108319  0.74975660  0.99617700  1
  O  O14  1  0.31891681  0.74975660  0.49617700  1
  O  O15  1  0.81891681  0.25024340  0.00382300  1
  O  O16  1  0.75638037  0.01849120  0.36844065  1
  O  O17  1  0.25638037  0.98150880  0.13155935  1
  O  O18  1  0.24361963  0.98150880  0.63155935  1
  O  O19  1  0.74361963  0.01849120  0.86844065  1
  O  O20  1  0.80849594  0.61669295  0.42955250  1
  O  O21  1  0.30849594  0.38330705  0.07044750  1
  O  O22  1  0.19150406  0.38330705  0.57044750  1
  O  O23  1  0.69150406  0.61669295  0.92955250  1
  O  O24  1  0.66995895  0.44763399  0.67289147  1
  O  O25  1  0.16995895  0.55236601  0.82710853  1
  O  O26  1  0.33004105  0.55236601  0.32710853  1
  O  O27  1  0.83004105  0.44763399  0.17289147  1
  O  O28  1  0.71901775  0.87970517  0.64375497  1
  O  O29  1  0.21901775  0.12029483  0.85624503  1
  O  O30  1  0.28098225  0.12029483  0.35624503  1
  O  O31  1  0.78098225  0.87970517  0.14375497  1
