# generated using pymatgen
data_MgSeO3
_symmetry_space_group_name_H-M   'P 1'
_cell_length_a   5.01646551
_cell_length_b   5.91728012
_cell_length_c   7.64763004
_cell_angle_alpha   90.00000000
_cell_angle_beta   90.00000000
_cell_angle_gamma   90.00000000
_symmetry_Int_Tables_number   1
_chemical_formula_structural   MgSeO3
_chemical_formula_sum   'Mg4 Se4 O12'
_cell_volume   227.01096251
_cell_formula_units_Z   4
loop_
 _symmetry_equiv_pos_site_id
 _symmetry_equiv_pos_as_xyz
  1  'x, y, z'
loop_
 _atom_site_type_symbol
 _atom_site_label
 _atom_site_symmetry_multiplicity
 _atom_site_fract_x
 _atom_site_fract_y
 _atom_site_fract_z
 _atom_site_occupancy
  Mg  Mg0  1  0.50000000  0.00000000  -0.00000000  1
  Mg  Mg1  1  0.00000000  0.50000000  -0.00000000  1
  Mg  Mg2  1  0.00000000  0.50000000  0.50000000  1
  Mg  Mg3  1  0.50000000  0.00000000  0.50000000  1
  Se  Se4  1  0.98199090  0.02028711  0.25000000  1
  Se  Se5  1  0.48199090  0.47971289  0.75000000  1
  Se  Se6  1  0.51800910  0.52028711  0.25000000  1
  Se  Se7  1  0.01800910  0.97971289  0.75000000  1
  O  O8  1  0.86103466  0.18194755  0.42179630  1
  O  O9  1  0.36103466  0.31805245  0.57820370  1
  O  O10  1  0.63896534  0.68194755  0.07820370  1
  O  O11  1  0.13896534  0.81805245  0.92179630  1
  O  O12  1  0.13896534  0.81805245  0.57820370  1
  O  O13  1  0.63896534  0.68194755  0.42179630  1
  O  O14  1  0.36103466  0.31805245  0.92179630  1
  O  O15  1  0.86103466  0.18194755  0.07820370  1
  O  O16  1  0.32086287  0.06847478  0.25000000  1
  O  O17  1  0.82086287  0.43152522  0.75000000  1
  O  O18  1  0.17913713  0.56847478  0.25000000  1
  O  O19  1  0.67913713  0.93152522  0.75000000  1
