# generated using pymatgen
data_Na2WO6
_symmetry_space_group_name_H-M   'P 1'
_cell_length_a   8.53273920
_cell_length_b   10.65498486
_cell_length_c   15.12331209
_cell_angle_alpha   90.00000000
_cell_angle_beta   90.00000000
_cell_angle_gamma   90.00000000
_symmetry_Int_Tables_number   1
_chemical_formula_structural   Na2WO6
_chemical_formula_sum   'Na16 W8 O48'
_cell_volume   1374.95417235
_cell_formula_units_Z   8
loop_
 _symmetry_equiv_pos_site_id
 _symmetry_equiv_pos_as_xyz
  1  'x, y, z'
loop_
 _atom_site_type_symbol
 _atom_site_label
 _atom_site_symmetry_multiplicity
 _atom_site_fract_x
 _atom_site_fract_y
 _atom_site_fract_z
 _atom_site_occupancy
  Na  Na0  1  0.77315042  0.43749940  0.36284003  1
  Na  Na1  1  0.27315042  0.06250060  0.63715997  1
  Na  Na2  1  0.22684958  0.93749940  0.13715997  1
  Na  Na3  1  0.72684958  0.56250060  0.86284003  1
  Na  Na4  1  0.22684958  0.56250060  0.63715997  1
  Na  Na5  1  0.72684958  0.93749940  0.36284003  1
  Na  Na6  1  0.77315042  0.06250060  0.86284003  1
  Na  Na7  1  0.27315042  0.43749940  0.13715997  1
  Na  Na8  1  0.66626207  0.49594342  0.55932260  1
  Na  Na9  1  0.16626207  0.00405658  0.44067740  1
  Na  Na10  1  0.33373793  -0.00405658  0.94067740  1
  Na  Na11  1  0.83373793  0.50405658  0.05932260  1
  Na  Na12  1  0.33373793  0.50405658  0.44067740  1
  Na  Na13  1  0.83373793  -0.00405658  0.55932260  1
  Na  Na14  1  0.66626207  0.00405658  0.05932260  1
  Na  Na15  1  0.16626207  0.49594342  0.94067740  1
  W  W16  1  0.01553101  0.20532915  0.02953103  1
  W  W17  1  0.51553101  0.29467085  0.97046897  1
  W  W18  1  0.98446899  0.70532915  0.47046897  1
  W  W19  1  0.48446899  0.79467085  0.52953103  1
  W  W20  1  0.98446899  0.79467085  0.97046897  1
  W  W21  1  0.48446899  0.70532915  0.02953103  1
  W  W22  1  0.01553101  0.29467085  0.52953103  1
  W  W23  1  0.51553101  0.20532915  0.47046897  1
  O  O24  1  0.85368444  0.15181844  0.09650106  1
  O  O25  1  0.35368444  0.34818156  0.90349894  1
  O  O26  1  0.14631556  0.65181844  0.40349894  1
  O  O27  1  0.64631556  0.84818156  0.59650106  1
  O  O28  1  0.14631556  0.84818156  0.90349894  1
  O  O29  1  0.64631556  0.65181844  0.09650106  1
  O  O30  1  0.85368444  0.34818156  0.59650106  1
  O  O31  1  0.35368444  0.15181844  0.40349894  1
  O  O32  1  0.18648103  0.10710328  0.05029258  1
  O  O33  1  0.68648103  0.39289672  0.94970742  1
  O  O34  1  0.81351897  0.60710328  0.44970742  1
  O  O35  1  0.31351897  0.89289672  0.55029258  1
  O  O36  1  0.81351897  0.89289672  0.94970742  1
  O  O37  1  0.31351897  0.60710328  0.05029258  1
  O  O38  1  0.18648103  0.39289672  0.55029258  1
  O  O39  1  0.68648103  0.10710328  0.44970742  1
  O  O40  1  0.05669871  0.37108205  0.05700514  1
  O  O41  1  0.55669871  0.12891795  0.94299486  1
  O  O42  1  0.94330129  0.87108205  0.44299486  1
  O  O43  1  0.44330129  0.62891795  0.55700514  1
  O  O44  1  0.94330129  0.62891795  0.94299486  1
  O  O45  1  0.44330129  0.87108205  0.05700514  1
  O  O46  1  0.05669871  0.12891795  0.55700514  1
  O  O47  1  0.55669871  0.37108205  0.44299486  1
  O  O48  1  0.96274187  0.18987711  0.91443202  1
  O  O49  1  0.46274187  0.31012289  0.08556798  1
  O  O50  1  0.03725813  0.68987711  0.58556798  1
  O  O51  1  0.53725813  0.81012289  0.41443202  1
  O  O52  1  0.03725813  0.81012289  0.08556798  1
  O  O53  1  0.53725813  0.68987711  0.91443202  1
  O  O54  1  0.96274187  0.31012289  0.41443202  1
  O  O55  1  0.46274187  0.18987711  0.58556798  1
  O  O56  1  0.94070430  -0.00970538  0.23278181  1
  O  O57  1  0.44070430  0.50970538  0.76721819  1
  O  O58  1  0.05929570  0.49029462  0.26721819  1
  O  O59  1  0.55929570  0.00970538  0.73278181  1
  O  O60  1  0.05929570  0.00970538  0.76721819  1
  O  O61  1  0.55929570  0.49029462  0.23278181  1
  O  O62  1  0.94070430  0.50970538  0.73278181  1
  O  O63  1  0.44070430  -0.00970538  0.26721819  1
  O  O64  1  0.65268350  0.41189046  0.20299391  1
  O  O65  1  0.15268350  0.08810954  0.79700609  1
  O  O66  1  0.34731650  0.91189046  0.29700609  1
  O  O67  1  0.84731650  0.58810954  0.70299391  1
  O  O68  1  0.34731650  0.58810954  0.79700609  1
  O  O69  1  0.84731650  0.91189046  0.20299391  1
  O  O70  1  0.65268350  0.08810954  0.70299391  1
  O  O71  1  0.15268350  0.41189046  0.29700609  1
