# generated using pymatgen
data_BAsO4
_symmetry_space_group_name_H-M   'P 1'
_cell_length_a   4.54665104
_cell_length_b   4.54665060
_cell_length_c   10.36526952
_cell_angle_alpha   90.00000000
_cell_angle_beta   90.00000000
_cell_angle_gamma   120.00001004
_symmetry_Int_Tables_number   1
_chemical_formula_structural   BAsO4
_chemical_formula_sum   'B3 As3 O12'
_cell_volume   185.56428433
_cell_formula_units_Z   3
loop_
 _symmetry_equiv_pos_site_id
 _symmetry_equiv_pos_as_xyz
  1  'x, y, z'
loop_
 _atom_site_type_symbol
 _atom_site_label
 _atom_site_symmetry_multiplicity
 _atom_site_fract_x
 _atom_site_fract_y
 _atom_site_fract_z
 _atom_site_occupancy
  B  B0  1  0.54066608  -0.00000000  0.33333300  1
  B  B1  1  -0.00000000  0.54066608  0.66666700  1
  B  B2  1  0.45933392  0.45933392  -0.00000000  1
  As  As3  1  0.54449500  0.00000000  0.83333300  1
  As  As4  1  0.45550500  0.45550500  0.50000000  1
  As  As5  1  0.00000000  0.54449500  0.16666700  1
  O  O6  1  0.27876877  0.87617419  0.70467545  1
  O  O7  1  0.68728822  0.60674994  0.11117160  1
  O  O8  1  0.39325006  0.08053828  0.44450460  1
  O  O9  1  0.59740543  0.72123123  0.37134145  1
  O  O10  1  0.87617419  0.27876877  0.29532455  1
  O  O11  1  0.12382581  0.40259457  0.03800845  1
  O  O12  1  0.72123123  0.59740543  0.62865855  1
  O  O13  1  0.40259457  0.12382581  0.96199155  1
  O  O14  1  0.08053828  0.39325006  0.55549540  1
  O  O15  1  0.60674994  0.68728822  0.88882840  1
  O  O16  1  0.31271178  0.91946172  0.22216140  1
  O  O17  1  0.91946172  0.31271178  0.77783860  1
