# generated using pymatgen
data_Na2PtF6
_symmetry_space_group_name_H-M   'P 1'
_cell_length_a   9.25789372
_cell_length_b   9.25785699
_cell_length_c   5.09932315
_cell_angle_alpha   89.99993712
_cell_angle_beta   90.00012103
_cell_angle_gamma   120.00110215
_symmetry_Int_Tables_number   1
_chemical_formula_structural   Na2PtF6
_chemical_formula_sum   'Na6 Pt3 F18'
_cell_volume   378.49574506
_cell_formula_units_Z   3
loop_
 _symmetry_equiv_pos_site_id
 _symmetry_equiv_pos_as_xyz
  1  'x, y, z'
loop_
 _atom_site_type_symbol
 _atom_site_label
 _atom_site_symmetry_multiplicity
 _atom_site_fract_x
 _atom_site_fract_y
 _atom_site_fract_z
 _atom_site_occupancy
  Na  Na0  1  0.00001076  0.63192691  0.49996519  1
  Na  Na1  1  0.63191818  -0.00001166  0.49995842  1
  Na  Na2  1  0.36804499  0.36806098  0.49996230  1
  Na  Na3  1  0.29811149  0.99987545  -0.00002859  1
  Na  Na4  1  0.70177695  0.70189958  -0.00003260  1
  Na  Na5  1  0.00013175  0.29824813  -0.00003515  1
  Pt  Pt6  1  0.00000288  -0.00000622  0.50010658  1
  Pt  Pt7  1  0.33333360  0.66667198  0.00314665  1
  Pt  Pt8  1  0.66666333  0.33333603  0.99678675  1
  F  F9  1  0.09526100  0.89185133  0.29046685  1
  F  F10  1  0.79659813  0.90473307  0.29046575  1
  F  F11  1  0.10814807  0.20340450  0.29046817  1
  F  F12  1  0.90471816  0.79655975  0.70975311  1
  F  F13  1  0.89185527  0.09528049  0.70975172  1
  F  F14  1  0.20343827  0.10815448  0.70975110  1
  F  F15  1  0.21935204  0.75398805  0.78783161  1
  F  F16  1  0.53463411  0.78065367  0.78782315  1
  F  F17  1  0.24601184  0.46536788  0.78782425  1
  F  F18  1  0.78070465  0.53471249  0.21185834  1
  F  F19  1  0.75401001  0.21930114  0.21185180  1
  F  F20  1  0.46528543  0.24598835  0.21185476  1
  F  F21  1  0.41493319  0.86681425  0.21934115  1
  F  F22  1  0.45188139  0.58507026  0.21932813  1
  F  F23  1  0.13318682  0.54811668  0.21933154  1
  F  F24  1  0.58499400  0.45188279  0.78082574  1
  F  F25  1  0.86688195  0.41500346  0.78082172  1
  F  F26  1  0.54811172  0.13311517  0.78082256  1
