# generated using pymatgen
data_Pr2MgSe4
_symmetry_space_group_name_H-M   'P 1'
_cell_length_a   13.69182162
_cell_length_b   8.20516025
_cell_length_c   13.69109848
_cell_angle_alpha   90.00000000
_cell_angle_beta   90.00000000
_cell_angle_gamma   90.00000000
_symmetry_Int_Tables_number   1
_chemical_formula_structural   Pr2MgSe4
_chemical_formula_sum   'Pr16 Mg8 Se32'
_cell_volume   1538.10716122
_cell_formula_units_Z   8
loop_
 _symmetry_equiv_pos_site_id
 _symmetry_equiv_pos_as_xyz
  1  'x, y, z'
loop_
 _atom_site_type_symbol
 _atom_site_label
 _atom_site_symmetry_multiplicity
 _atom_site_fract_x
 _atom_site_fract_y
 _atom_site_fract_z
 _atom_site_occupancy
  Pr  Pr0  1  0.10833840  0.88573131  0.68476332  1
  Pr  Pr1  1  0.89166160  0.11426869  0.18476332  1
  Pr  Pr2  1  0.39166160  0.88573131  0.18476332  1
  Pr  Pr3  1  0.60833840  0.11426869  0.68476332  1
  Pr  Pr4  1  0.12673285  0.38381152  0.32625607  1
  Pr  Pr5  1  0.87326715  0.61618848  0.82625607  1
  Pr  Pr6  1  0.37326715  0.38381152  0.82625607  1
  Pr  Pr7  1  0.62673285  0.61618848  0.32625607  1
  Pr  Pr8  1  0.13457459  0.63079894  0.99310343  1
  Pr  Pr9  1  0.86542541  0.36920106  0.49310343  1
  Pr  Pr10  1  0.36542541  0.63079894  0.49310343  1
  Pr  Pr11  1  0.63457459  0.36920106  0.99310343  1
  Pr  Pr12  1  0.13525521  0.13096843  0.99375729  1
  Pr  Pr13  1  0.86474479  0.86903157  0.49375729  1
  Pr  Pr14  1  0.36474479  0.13096843  0.49375729  1
  Pr  Pr15  1  0.63525521  0.86903157  0.99375729  1
  Mg  Mg16  1  0.11212268  0.38541075  0.69317316  1
  Mg  Mg17  1  0.88787732  0.61458925  0.19317316  1
  Mg  Mg18  1  0.38787732  0.38541075  0.19317316  1
  Mg  Mg19  1  0.61212268  0.61458925  0.69317316  1
  Mg  Mg20  1  0.12609647  0.88031575  0.31992290  1
  Mg  Mg21  1  0.87390353  0.11968425  0.81992290  1
  Mg  Mg22  1  0.37390353  0.88031575  0.81992290  1
  Mg  Mg23  1  0.62609647  0.11968425  0.31992290  1
  Se  Se24  1  0.00991019  0.88271136  0.88022304  1
  Se  Se25  1  0.99008981  0.11728864  0.38022304  1
  Se  Se26  1  0.49008981  0.88271136  0.38022304  1
  Se  Se27  1  0.50991019  0.11728864  0.88022304  1
  Se  Se28  1  0.02781024  0.38393456  0.12841925  1
  Se  Se29  1  0.97218976  0.61606544  0.62841925  1
  Se  Se30  1  0.47218976  0.38393456  0.62841925  1
  Se  Se31  1  0.52781024  0.61606544  0.12841925  1
  Se  Se32  1  0.02622296  0.37306963  0.86687113  1
  Se  Se33  1  0.97377704  0.62693037  0.36687113  1
  Se  Se34  1  0.47377704  0.37306963  0.36687113  1
  Se  Se35  1  0.52622296  0.62693037  0.86687113  1
  Se  Se36  1  0.04772260  0.87424698  0.13997277  1
  Se  Se37  1  0.95227740  0.12575302  0.63997277  1
  Se  Se38  1  0.45227740  0.87424698  0.63997277  1
  Se  Se39  1  0.54772260  0.12575302  0.13997277  1
  Se  Se40  1  0.20884616  0.88167619  0.49566938  1
  Se  Se41  1  0.79115384  0.11832381  0.99566938  1
  Se  Se42  1  0.29115384  0.88167619  0.99566938  1
  Se  Se43  1  0.70884616  0.11832381  0.49566938  1
  Se  Se44  1  0.20980291  0.38186555  0.52424909  1
  Se  Se45  1  0.79019709  0.61813445  0.02424909  1
  Se  Se46  1  0.29019709  0.38186555  0.02424909  1
  Se  Se47  1  0.70980291  0.61813445  0.52424909  1
  Se  Se48  1  0.23162053  0.13462252  0.77339354  1
  Se  Se49  1  0.76837947  0.86537748  0.27339354  1
  Se  Se50  1  0.26837947  0.13462252  0.27339354  1
  Se  Se51  1  0.73162053  0.86537748  0.77339354  1
  Se  Se52  1  0.23309094  0.63787847  0.77722662  1
  Se  Se53  1  0.76690906  0.36212153  0.27722662  1
  Se  Se54  1  0.26690906  0.63787847  0.27722662  1
  Se  Se55  1  0.73309094  0.36212153  0.77722662  1
