# generated using pymatgen
data_KVO3
_symmetry_space_group_name_H-M   'P 1'
_cell_length_a   5.19746080
_cell_length_b   5.65515664
_cell_length_c   10.65824401
_cell_angle_alpha   90.00000000
_cell_angle_beta   90.00000000
_cell_angle_gamma   90.00000000
_symmetry_Int_Tables_number   1
_chemical_formula_structural   KVO3
_chemical_formula_sum   'K4 V4 O12'
_cell_volume   313.27195696
_cell_formula_units_Z   4
loop_
 _symmetry_equiv_pos_site_id
 _symmetry_equiv_pos_as_xyz
  1  'x, y, z'
loop_
 _atom_site_type_symbol
 _atom_site_label
 _atom_site_symmetry_multiplicity
 _atom_site_fract_x
 _atom_site_fract_y
 _atom_site_fract_z
 _atom_site_occupancy
  K  K0  1  0.05901980  0.75000000  0.10491876  1
  K  K1  1  0.05901980  0.25000000  0.39508124  1
  K  K2  1  0.94098020  0.25000000  0.89508124  1
  K  K3  1  0.94098020  0.75000000  0.60491876  1
  V  V4  1  0.47609114  0.75000000  0.84011610  1
  V  V5  1  0.47609114  0.25000000  0.65988390  1
  V  V6  1  0.52390886  0.25000000  0.15988390  1
  V  V7  1  0.52390886  0.75000000  0.34011610  1
  O  O8  1  0.39327901  0.75000000  0.48098259  1
  O  O9  1  0.39327901  0.25000000  0.01901741  1
  O  O10  1  0.60672099  0.25000000  0.51901741  1
  O  O11  1  0.60672099  0.75000000  0.98098259  1
  O  O12  1  0.84283482  0.75000000  0.35111847  1
  O  O13  1  0.84283482  0.25000000  0.14888153  1
  O  O14  1  0.15716518  0.25000000  0.64888153  1
  O  O15  1  0.15716518  0.75000000  0.85111847  1
  O  O16  1  0.58806114  -0.00000000  0.75000000  1
  O  O17  1  0.41193886  0.50000000  0.25000000  1
  O  O18  1  0.41193886  0.00000000  0.25000000  1
  O  O19  1  0.58806114  0.50000000  0.75000000  1
