# generated using pymatgen
data_Rb2TmCl5
_symmetry_space_group_name_H-M   'P 1'
_cell_length_a   7.28727055
_cell_length_b   9.32771605
_cell_length_c   14.69042526
_cell_angle_alpha   90.00000000
_cell_angle_beta   90.00000000
_cell_angle_gamma   90.00000000
_symmetry_Int_Tables_number   1
_chemical_formula_structural   Rb2TmCl5
_chemical_formula_sum   'Rb8 Tm4 Cl20'
_cell_volume   998.56095045
_cell_formula_units_Z   4
loop_
 _symmetry_equiv_pos_site_id
 _symmetry_equiv_pos_as_xyz
  1  'x, y, z'
loop_
 _atom_site_type_symbol
 _atom_site_label
 _atom_site_symmetry_multiplicity
 _atom_site_fract_x
 _atom_site_fract_y
 _atom_site_fract_z
 _atom_site_occupancy
  Rb  Rb0  1  0.25000000  0.66928266  0.91561939  1
  Rb  Rb1  1  0.75000000  0.33071734  0.08438061  1
  Rb  Rb2  1  0.75000000  0.83071734  0.41561939  1
  Rb  Rb3  1  0.25000000  0.16928266  0.58438061  1
  Rb  Rb4  1  0.25000000  0.96884733  0.20911335  1
  Rb  Rb5  1  0.75000000  0.03115267  0.79088665  1
  Rb  Rb6  1  0.75000000  0.53115267  0.70911335  1
  Rb  Rb7  1  0.25000000  0.46884733  0.29088665  1
  Tm  Tm8  1  0.25000000  0.68669160  0.56344561  1
  Tm  Tm9  1  0.75000000  0.31330840  0.43655439  1
  Tm  Tm10  1  0.75000000  0.81330840  0.06344561  1
  Tm  Tm11  1  0.25000000  0.18669160  0.93655439  1
  Cl  Cl12  1  0.25000000  0.53103674  0.70609525  1
  Cl  Cl13  1  0.75000000  0.46896326  0.29390475  1
  Cl  Cl14  1  0.75000000  0.96896326  0.20609525  1
  Cl  Cl15  1  0.25000000  0.03103674  0.79390475  1
  Cl  Cl16  1  0.50814745  0.84741371  0.61390977  1
  Cl  Cl17  1  0.49185255  0.15258629  0.38609023  1
  Cl  Cl18  1  0.49185255  0.65258629  0.11390977  1
  Cl  Cl19  1  0.00814745  0.15258629  0.38609023  1
  Cl  Cl20  1  0.50814745  0.34741371  0.88609023  1
  Cl  Cl21  1  0.99185255  0.84741371  0.61390977  1
  Cl  Cl22  1  0.99185255  0.34741371  0.88609023  1
  Cl  Cl23  1  0.00814745  0.65258629  0.11390977  1
  Cl  Cl24  1  0.25000000  0.78338196  0.39764397  1
  Cl  Cl25  1  0.75000000  0.21661804  0.60235603  1
  Cl  Cl26  1  0.75000000  0.71661804  0.89764397  1
  Cl  Cl27  1  0.25000000  0.28338196  0.10235603  1
  Cl  Cl28  1  0.00000000  0.50000000  0.50000000  1
  Cl  Cl29  1  0.00000000  -0.00000000  -0.00000000  1
  Cl  Cl30  1  0.50000000  0.50000000  0.50000000  1
  Cl  Cl31  1  0.50000000  -0.00000000  -0.00000000  1
