# generated using pymatgen
data_NbTlO3
_symmetry_space_group_name_H-M   'P 1'
_cell_length_a   7.60648588
_cell_length_b   7.60648588
_cell_length_c   13.15888899
_cell_angle_alpha   73.18668832
_cell_angle_beta   73.18668832
_cell_angle_gamma   60.08407658
_symmetry_Int_Tables_number   1
_chemical_formula_structural   NbTlO3
_chemical_formula_sum   'Nb8 Tl8 O24'
_cell_volume   621.98064682
_cell_formula_units_Z   8
loop_
 _symmetry_equiv_pos_site_id
 _symmetry_equiv_pos_as_xyz
  1  'x, y, z'
loop_
 _atom_site_type_symbol
 _atom_site_label
 _atom_site_symmetry_multiplicity
 _atom_site_fract_x
 _atom_site_fract_y
 _atom_site_fract_z
 _atom_site_occupancy
  Nb  Nb0  1  0.02263769  -0.00524002  0.99647399  1
  Nb  Nb1  1  0.00702807  0.50067079  0.00936968  1
  Nb  Nb2  1  0.51989817  0.49043117  0.99280616  1
  Nb  Nb3  1  0.23903640  0.74392535  0.74795571  1
  Nb  Nb4  1  0.49043117  0.51989817  0.49280616  1
  Nb  Nb5  1  0.50067079  0.00702807  0.50936968  1
  Nb  Nb6  1  -0.00524002  0.02263769  0.49647399  1
  Nb  Nb7  1  0.74392535  0.23903640  0.24795571  1
  Tl  Tl8  1  0.70337351  0.79500480  0.76304858  1
  Tl  Tl9  1  0.71197559  0.24300696  0.75081171  1
  Tl  Tl10  1  0.16927090  0.28888669  0.74953251  1
  Tl  Tl11  1  0.99235944  0.51133735  0.51149999  1
  Tl  Tl12  1  0.24300696  0.71197559  0.25081171  1
  Tl  Tl13  1  0.79500480  0.70337351  0.26304858  1
  Tl  Tl14  1  0.51133735  0.99235944  0.01149999  1
  Tl  Tl15  1  0.28888669  0.16927090  0.24953251  1
  O  O16  1  0.72370264  0.58769277  0.97091968  1
  O  O17  1  0.09630603  0.96359283  0.84578242  1
  O  O18  1  0.03522188  0.90777900  0.65469505  1
  O  O19  1  0.09957272  0.21757281  0.96515442  1
  O  O20  1  0.39917650  0.91333334  0.65724650  1
  O  O21  1  0.72277677  0.21518504  0.97056109  1
  O  O22  1  0.21757281  0.09957272  0.46515442  1
  O  O23  1  0.47495778  0.59321995  0.84202638  1
  O  O24  1  0.09145558  0.59671414  0.84511136  1
  O  O25  1  0.77683233  0.28454194  0.53319848  1
  O  O26  1  0.40786798  0.28482879  0.52905784  1
  O  O27  1  0.40138586  0.53249823  0.65656642  1
  O  O28  1  0.59321995  0.47495778  0.34202638  1
  O  O29  1  0.58769277  0.72370264  0.47091968  1
  O  O30  1  0.91333334  0.39917650  0.15724650  1
  O  O31  1  0.53249823  0.40138586  0.15656642  1
  O  O32  1  0.21518504  0.72277677  0.47056109  1
  O  O33  1  0.77693978  0.91106046  0.53439904  1
  O  O34  1  0.28454194  0.77683233  0.03319848  1
  O  O35  1  0.96359283  0.09630603  0.34578242  1
  O  O36  1  0.59671414  0.09145558  0.34511136  1
  O  O37  1  0.91106046  0.77693978  0.03439904  1
  O  O38  1  0.90777900  0.03522188  0.15469505  1
  O  O39  1  0.28482879  0.40786798  0.02905784  1
