# generated using pymatgen
data_CoSb(PO4)2
_symmetry_space_group_name_H-M   'P 1'
_cell_length_a   4.93852399
_cell_length_b   11.91874817
_cell_length_c   11.97578065
_cell_angle_alpha   114.65040307
_cell_angle_beta   94.53918188
_cell_angle_gamma   85.06531407
_symmetry_Int_Tables_number   1
_chemical_formula_structural   CoSb(PO4)2
_chemical_formula_sum   'Co4 Sb4 P8 O32'
_cell_volume   637.56458720
_cell_formula_units_Z   4
loop_
 _symmetry_equiv_pos_site_id
 _symmetry_equiv_pos_as_xyz
  1  'x, y, z'
loop_
 _atom_site_type_symbol
 _atom_site_label
 _atom_site_symmetry_multiplicity
 _atom_site_fract_x
 _atom_site_fract_y
 _atom_site_fract_z
 _atom_site_occupancy
  Co  Co0  1  0.42694900  0.01612400  0.79877500  1
  Co  Co1  1  0.57306000  0.98400100  0.20128300  1
  Co  Co2  1  0.39819400  0.47567200  0.25599100  1
  Co  Co3  1  0.60174400  0.52481600  0.74433900  1
  Sb  Sb4  1  0.91693900  0.28224600  0.98335800  1
  Sb  Sb5  1  0.96530300  0.77152000  0.47897300  1
  Sb  Sb6  1  0.08345000  0.71783800  0.01674600  1
  Sb  Sb7  1  0.03442900  0.22842900  0.52099500  1
  P  P8  1  0.38744500  0.17958600  0.08273700  1
  P  P9  1  0.42226600  0.67378700  0.56559800  1
  P  P10  1  0.61305500  0.82057700  0.91735800  1
  P  P11  1  0.57752800  0.32603800  0.43433200  1
  P  P12  1  0.85059300  0.59802200  0.18686600  1
  P  P13  1  0.88046800  0.06127500  0.65982700  1
  P  P14  1  0.14929100  0.40197300  0.81304300  1
  P  P15  1  0.11940900  0.93866400  0.34015800  1
  O  O16  1  0.59161400  0.40465000  0.36496900  1
  O  O17  1  0.64016800  0.89054000  0.83864600  1
  O  O18  1  0.40812600  0.59518600  0.63497100  1
  O  O19  1  0.36000700  0.10961300  0.16142100  1
  O  O20  1  0.68726900  0.19002100  0.06518900  1
  O  O21  1  0.72407700  0.69304400  0.55287900  1
  O  O22  1  0.31330300  0.80996100  0.93489700  1
  O  O23  1  0.27569200  0.30682800  0.44706600  1
  O  O24  1  0.15992300  0.57779100  0.18622900  1
  O  O25  1  0.18613800  0.05133100  0.67779100  1
  O  O26  1  0.83993000  0.42223900  0.81366500  1
  O  O27  1  0.81373400  0.94851500  0.32215000  1
  O  O28  1  0.25200000  0.33697000  0.89655300  1
  O  O29  1  0.20104500  0.84995500  0.40671300  1
  O  O30  1  0.74788700  0.66308600  0.10341400  1
  O  O31  1  0.79882100  0.14992000  0.59322500  1
  O  O32  1  0.22155500  0.12211600  0.95349300  1
  O  O33  1  0.25415600  0.62141400  0.43494300  1
  O  O34  1  0.22241300  0.31107400  0.13517300  1
  O  O35  1  0.24388300  0.80071600  0.62259700  1
  O  O36  1  0.77823600  0.68912600  0.86485200  1
  O  O37  1  0.75581600  0.19907100  0.37732900  1
  O  O38  1  0.77889400  0.87803900  0.04659600  1
  O  O39  1  0.74569700  0.37840500  0.56496100  1
  O  O40  1  0.75275100  0.68482700  0.32461400  1
  O  O41  1  0.72939400  0.10927800  0.77981500  1
  O  O42  1  0.71342600  0.47499000  0.15454200  1
  O  O43  1  0.76030100  0.93087500  0.57291600  1
  O  O44  1  0.24705400  0.31506200  0.67534000  1
  O  O45  1  0.27056700  0.89074000  0.22018500  1
  O  O46  1  0.28653100  0.52500100  0.84538500  1
  O  O47  1  0.23947400  0.06904600  0.42710100  1
