# generated using pymatgen
data_Dy2ZrS5
_symmetry_space_group_name_H-M   'P 1'
_cell_length_a   7.25198941
_cell_length_b   7.74101973
_cell_length_c   11.56380665
_cell_angle_alpha   90.00000000
_cell_angle_beta   90.00000000
_cell_angle_gamma   90.00000000
_symmetry_Int_Tables_number   1
_chemical_formula_structural   Dy2ZrS5
_chemical_formula_sum   'Dy8 Zr4 S20'
_cell_volume   649.16658522
_cell_formula_units_Z   4
loop_
 _symmetry_equiv_pos_site_id
 _symmetry_equiv_pos_as_xyz
  1  'x, y, z'
loop_
 _atom_site_type_symbol
 _atom_site_label
 _atom_site_symmetry_multiplicity
 _atom_site_fract_x
 _atom_site_fract_y
 _atom_site_fract_z
 _atom_site_occupancy
  Dy  Dy0  1  0.52107512  0.49737868  0.32090126  1
  Dy  Dy1  1  0.97892488  0.00262132  0.82090126  1
  Dy  Dy2  1  0.47892488  0.99737868  0.67909874  1
  Dy  Dy3  1  0.02107512  0.50262132  0.17909874  1
  Dy  Dy4  1  0.47892488  0.50262132  0.67909874  1
  Dy  Dy5  1  0.02107512  0.99737868  0.17909874  1
  Dy  Dy6  1  0.52107512  0.00262132  0.32090126  1
  Dy  Dy7  1  0.97892488  0.49737868  0.82090126  1
  Zr  Zr8  1  0.07789857  0.75000000  0.49373312  1
  Zr  Zr9  1  0.42210143  0.75000000  0.99373312  1
  Zr  Zr10  1  0.92210143  0.25000000  0.50626688  1
  Zr  Zr11  1  0.57789857  0.25000000  0.00626688  1
  S  S12  1  0.83931459  0.96304948  0.59468786  1
  S  S13  1  0.66068541  0.53695052  0.09468786  1
  S  S14  1  0.16068541  0.46304948  0.40531214  1
  S  S15  1  0.33931459  0.03695052  0.90531214  1
  S  S16  1  0.16068541  0.03695052  0.40531214  1
  S  S17  1  0.33931459  0.46304948  0.90531214  1
  S  S18  1  0.83931459  0.53695052  0.59468786  1
  S  S19  1  0.66068541  0.96304948  0.09468786  1
  S  S20  1  0.83153991  0.75000000  0.31792265  1
  S  S21  1  0.66846009  0.75000000  0.81792265  1
  S  S22  1  0.16846009  0.25000000  0.68207735  1
  S  S23  1  0.33153991  0.25000000  0.18207735  1
  S  S24  1  0.44971594  0.75000000  0.49723209  1
  S  S25  1  0.05028406  0.75000000  0.99723209  1
  S  S26  1  0.55028406  0.25000000  0.50276791  1
  S  S27  1  0.94971594  0.25000000  0.00276791  1
  S  S28  1  0.19104118  0.75000000  0.70840707  1
  S  S29  1  0.30895882  0.75000000  0.20840707  1
  S  S30  1  0.80895882  0.25000000  0.29159293  1
  S  S31  1  0.69104118  0.25000000  0.79159293  1
