# generated using pymatgen
data_FePS
_symmetry_space_group_name_H-M   'P 1'
_cell_length_a   5.48391309
_cell_length_b   5.49017254
_cell_length_c   5.53689691
_cell_angle_alpha   68.97767769
_cell_angle_beta   90.00000000
_cell_angle_gamma   90.00000000
_symmetry_Int_Tables_number   1
_chemical_formula_structural   FePS
_chemical_formula_sum   'Fe4 P4 S4'
_cell_volume   155.60722014
_cell_formula_units_Z   4
loop_
 _symmetry_equiv_pos_site_id
 _symmetry_equiv_pos_as_xyz
  1  'x, y, z'
loop_
 _atom_site_type_symbol
 _atom_site_label
 _atom_site_symmetry_multiplicity
 _atom_site_fract_x
 _atom_site_fract_y
 _atom_site_fract_z
 _atom_site_occupancy
  Fe  Fe0  1  0.00081405  0.72372463  0.29289203  1
  Fe  Fe1  1  0.50081405  0.27627537  0.20710797  1
  Fe  Fe2  1  0.99918595  0.27627537  0.70710797  1
  Fe  Fe3  1  0.49918595  0.72372463  0.79289203  1
  P  P4  1  0.62626956  0.85229801  0.37391322  1
  P  P5  1  0.12626956  0.14770199  0.12608678  1
  P  P6  1  0.37373044  0.14770199  0.62608678  1
  P  P7  1  0.87373044  0.85229801  0.87391322  1
  S  S8  1  0.37491408  0.65974328  0.18450797  1
  S  S9  1  0.87491408  0.34025672  0.31549203  1
  S  S10  1  0.62508592  0.34025672  0.81549203  1
  S  S11  1  0.12508592  0.65974328  0.68450797  1
