# generated using pymatgen
data_Ba2LaC3O9F
_symmetry_space_group_name_H-M   'P 1'
_cell_length_a   5.12640814
_cell_length_b   6.66484830
_cell_length_c   13.16310339
_cell_angle_alpha   77.24525912
_cell_angle_beta   90.00000000
_cell_angle_gamma   90.00000000
_symmetry_Int_Tables_number   1
_chemical_formula_structural   Ba2LaC3O9F
_chemical_formula_sum   'Ba4 La2 C6 O18 F2'
_cell_volume   438.64246839
_cell_formula_units_Z   2
loop_
 _symmetry_equiv_pos_site_id
 _symmetry_equiv_pos_as_xyz
  1  'x, y, z'
loop_
 _atom_site_type_symbol
 _atom_site_label
 _atom_site_symmetry_multiplicity
 _atom_site_fract_x
 _atom_site_fract_y
 _atom_site_fract_z
 _atom_site_occupancy
  Ba  Ba0  1  0.25000000  0.27425996  0.41621116  1
  Ba  Ba1  1  0.75000000  0.78469577  0.92494093  1
  Ba  Ba2  1  0.75000000  0.72574004  0.58378884  1
  Ba  Ba3  1  0.25000000  0.21530423  0.07505907  1
  La  La4  1  0.25000000  0.22641555  0.76172287  1
  La  La5  1  0.75000000  0.77358445  0.23827713  1
  C  C6  1  0.25000000  0.74566541  0.42762905  1
  C  C7  1  0.25000000  0.66792810  0.12827423  1
  C  C8  1  0.75000000  0.33207190  0.87172577  1
  C  C9  1  0.75000000  0.25433459  0.57237095  1
  C  C10  1  0.25000000  0.78578150  0.72684492  1
  C  C11  1  0.75000000  0.21421850  0.27315508  1
  O  O12  1  0.53353542  0.12112955  0.26253791  1
  O  O13  1  0.03353542  0.87887045  0.73746209  1
  O  O14  1  0.96646458  0.12112955  0.26253791  1
  O  O15  1  0.46646458  0.87887045  0.73746209  1
  O  O16  1  0.03026380  0.59821873  0.10415476  1
  O  O17  1  0.46973620  0.59821873  0.10415476  1
  O  O18  1  0.53026380  0.40178127  0.89584524  1
  O  O19  1  0.96973620  0.40178127  0.89584524  1
  O  O20  1  0.75000000  0.19184182  0.81669926  1
  O  O21  1  0.25000000  0.80815818  0.18330074  1
  O  O22  1  0.75000000  0.38973466  0.29822657  1
  O  O23  1  0.25000000  0.61026534  0.70177343  1
  O  O24  1  0.75000000  0.13501257  0.50843733  1
  O  O25  1  0.25000000  0.86498743  0.49156267  1
  O  O26  1  0.96840388  0.32131286  0.60203501  1
  O  O27  1  0.46840388  0.67868714  0.39796499  1
  O  O28  1  0.03159612  0.67868714  0.39796499  1
  O  O29  1  0.53159612  0.32131286  0.60203501  1
  F  F30  1  0.25000000  0.98156659  0.92848166  1
  F  F31  1  0.75000000  0.01843341  0.07151834  1
