# generated using pymatgen
data_KPSe6
_symmetry_space_group_name_H-M   'P 1'
_cell_length_a   6.93128146
_cell_length_b   11.58309762
_cell_length_c   11.76013317
_cell_angle_alpha   90.00000000
_cell_angle_beta   90.00000000
_cell_angle_gamma   90.00000000
_symmetry_Int_Tables_number   1
_chemical_formula_structural   KPSe6
_chemical_formula_sum   'K4 P4 Se24'
_cell_volume   944.17063869
_cell_formula_units_Z   4
loop_
 _symmetry_equiv_pos_site_id
 _symmetry_equiv_pos_as_xyz
  1  'x, y, z'
loop_
 _atom_site_type_symbol
 _atom_site_label
 _atom_site_symmetry_multiplicity
 _atom_site_fract_x
 _atom_site_fract_y
 _atom_site_fract_z
 _atom_site_occupancy
  K  K0  1  0.83978767  0.34176598  0.87343462  1
  K  K1  1  0.16021233  0.84176598  0.12656538  1
  K  K2  1  0.16021233  0.34176598  0.37343462  1
  K  K3  1  0.83978767  0.84176598  0.62656538  1
  P  P4  1  0.22758427  0.66168094  0.83304327  1
  P  P5  1  0.77241573  0.16168094  0.16695673  1
  P  P6  1  0.77241573  0.66168094  0.33304327  1
  P  P7  1  0.22758427  0.16168094  0.66695673  1
  Se  Se8  1  0.92761522  0.69105723  0.87296548  1
  Se  Se9  1  0.07238478  0.19105723  0.12703452  1
  Se  Se10  1  0.07238478  0.69105723  0.37296548  1
  Se  Se11  1  0.92761522  0.19105723  0.62703452  1
  Se  Se12  1  0.93494738  0.46204619  0.12982263  1
  Se  Se13  1  0.06505262  0.96204619  0.87017737  1
  Se  Se14  1  0.06505262  0.46204619  0.62982263  1
  Se  Se15  1  0.93494738  0.96204619  0.37017737  1
  Se  Se16  1  0.56893944  0.29891200  0.13653856  1
  Se  Se17  1  0.43106056  0.79891200  0.86346144  1
  Se  Se18  1  0.43106056  0.29891200  0.63653856  1
  Se  Se19  1  0.56893944  0.79891200  0.36346144  1
  Se  Se20  1  0.73561011  0.62814506  0.14496681  1
  Se  Se21  1  0.26438989  0.12814506  0.85503319  1
  Se  Se22  1  0.26438989  0.62814506  0.64496681  1
  Se  Se23  1  0.73561011  0.12814506  0.35503319  1
  Se  Se24  1  0.74617304  0.54138947  0.60567512  1
  Se  Se25  1  0.25382696  0.04138947  0.39432488  1
  Se  Se26  1  0.25382696  0.54138947  0.10567512  1
  Se  Se27  1  0.74617304  0.04138947  0.89432488  1
  Se  Se28  1  0.32614082  0.49071412  0.91673269  1
  Se  Se29  1  0.67385918  0.99071412  0.08326731  1
  Se  Se30  1  0.67385918  0.49071412  0.41673269  1
  Se  Se31  1  0.32614082  0.99071412  0.58326731  1
