# generated using pymatgen
data_Ba3Te2O9
_symmetry_space_group_name_H-M   'P 1'
_cell_length_a   5.89623769
_cell_length_b   5.89624098
_cell_length_c   14.37498049
_cell_angle_alpha   89.99998960
_cell_angle_beta   90.00000611
_cell_angle_gamma   120.00003308
_symmetry_Int_Tables_number   1
_chemical_formula_structural   Ba3Te2O9
_chemical_formula_sum   'Ba6 Te4 O18'
_cell_volume   432.80070424
_cell_formula_units_Z   2
loop_
 _symmetry_equiv_pos_site_id
 _symmetry_equiv_pos_as_xyz
  1  'x, y, z'
loop_
 _atom_site_type_symbol
 _atom_site_label
 _atom_site_symmetry_multiplicity
 _atom_site_fract_x
 _atom_site_fract_y
 _atom_site_fract_z
 _atom_site_occupancy
  Ba  Ba0  1  0.33333510  0.66666803  0.43849774  1
  Ba  Ba1  1  0.66666782  0.33333410  0.93850334  1
  Ba  Ba2  1  0.66666708  0.33333366  0.56149646  1
  Ba  Ba3  1  0.33333329  0.66666688  0.06150241  1
  Ba  Ba4  1  0.66666680  0.33333340  0.24999996  1
  Ba  Ba5  1  0.33333369  0.66666719  0.75000008  1
  Te  Te6  1  0.00000124  0.00000099  0.35047592  1
  Te  Te7  1  0.00000090  0.00000059  0.85048004  1
  Te  Te8  1  0.00000023  0.00000033  0.64952067  1
  Te  Te9  1  -0.00000090  -0.00000110  0.14952314  1
  O  O10  1  0.83710293  0.16289293  0.40877109  1
  O  O11  1  0.83710285  0.67421076  0.40877113  1
  O  O12  1  0.32579067  0.16289536  0.40877051  1
  O  O13  1  0.67421442  0.83710727  0.90877731  1
  O  O14  1  0.16289413  0.32578652  0.59122283  1
  O  O15  1  0.16289456  0.83710660  0.90877774  1
  O  O16  1  0.16289474  0.32578881  0.90877775  1
  O  O17  1  0.83710329  0.16289394  0.09122842  1
  O  O18  1  0.32578849  0.16289197  0.09122866  1
  O  O19  1  0.67421220  0.83710646  0.59122292  1
  O  O20  1  0.14219892  0.28439862  0.24999958  1
  O  O21  1  0.85779973  0.14220154  0.75000021  1
  O  O22  1  0.28440389  0.14220214  0.75000053  1
  O  O23  1  0.71559904  0.85779945  0.24999939  1
  O  O24  1  0.14219843  0.85779961  0.24999977  1
  O  O25  1  0.85779963  0.71559835  0.75000011  1
  O  O26  1  0.83710142  0.67420740  0.09122850  1
  O  O27  1  0.16289441  0.83710719  0.59122281  1
