# generated using pymatgen
data_Na5H4BrO4
_symmetry_space_group_name_H-M   'P 1'
_cell_length_a   6.58904912
_cell_length_b   11.82613547
_cell_length_c   18.90535092
_cell_angle_alpha   90.00000000
_cell_angle_beta   90.00000000
_cell_angle_gamma   90.00000000
_symmetry_Int_Tables_number   1
_chemical_formula_structural   Na5H4BrO4
_chemical_formula_sum   'Na40 H32 Br8 O32'
_cell_volume   1473.16142364
_cell_formula_units_Z   8
loop_
 _symmetry_equiv_pos_site_id
 _symmetry_equiv_pos_as_xyz
  1  'x, y, z'
loop_
 _atom_site_type_symbol
 _atom_site_label
 _atom_site_symmetry_multiplicity
 _atom_site_fract_x
 _atom_site_fract_y
 _atom_site_fract_z
 _atom_site_occupancy
  Na  Na0  1  -0.00000000  0.50000000  0.00000000  1
  Na  Na1  1  0.50000000  -0.00000000  0.50000000  1
  Na  Na2  1  -0.00000000  0.50000000  0.50000000  1
  Na  Na3  1  0.50000000  -0.00000000  0.00000000  1
  Na  Na4  1  0.64880715  0.98232887  0.25000000  1
  Na  Na5  1  0.85119285  0.48232887  0.25000000  1
  Na  Na6  1  0.35119285  0.01767113  0.75000000  1
  Na  Na7  1  0.14880715  0.51767113  0.75000000  1
  Na  Na8  1  0.10792159  0.94866009  0.25000000  1
  Na  Na9  1  0.39207841  0.44866009  0.25000000  1
  Na  Na10  1  0.89207841  0.05133991  0.75000000  1
  Na  Na11  1  0.60792159  0.55133991  0.75000000  1
  Na  Na12  1  0.54233193  0.68746347  0.25000000  1
  Na  Na13  1  0.95766807  0.18746347  0.25000000  1
  Na  Na14  1  0.45766807  0.31253653  0.75000000  1
  Na  Na15  1  0.04233193  0.81253653  0.75000000  1
  Na  Na16  1  0.86641379  0.84582867  0.12478645  1
  Na  Na17  1  0.63358621  0.34582867  0.37521355  1
  Na  Na18  1  0.13358621  0.15417133  0.62478645  1
  Na  Na19  1  0.36641379  0.65417133  0.87521355  1
  Na  Na20  1  0.13358621  0.15417133  0.87521355  1
  Na  Na21  1  0.36641379  0.65417133  0.62478645  1
  Na  Na22  1  0.86641379  0.84582867  0.37521355  1
  Na  Na23  1  0.63358621  0.34582867  0.12478645  1
  Na  Na24  1  0.62380610  0.73441372  0.00457982  1
  Na  Na25  1  0.87619390  0.23441372  0.49542018  1
  Na  Na26  1  0.37619390  0.26558628  0.50457982  1
  Na  Na27  1  0.12380610  0.76558628  0.99542018  1
  Na  Na28  1  0.37619390  0.26558628  0.99542018  1
  Na  Na29  1  0.12380610  0.76558628  0.50457982  1
  Na  Na30  1  0.62380610  0.73441372  0.49542018  1
  Na  Na31  1  0.87619390  0.23441372  0.00457982  1
  Na  Na32  1  0.25492397  0.60321295  0.12430921  1
  Na  Na33  1  0.24507603  0.10321295  0.37569079  1
  Na  Na34  1  0.74507603  0.39678705  0.62430921  1
  Na  Na35  1  0.75492397  0.89678705  0.87569079  1
  Na  Na36  1  0.74507603  0.39678705  0.87569079  1
  Na  Na37  1  0.75492397  0.89678705  0.62430921  1
  Na  Na38  1  0.25492397  0.60321295  0.37569079  1
  Na  Na39  1  0.24507603  0.10321295  0.12430921  1
  H  H40  1  0.13197168  0.68011890  0.25000000  1
  H  H41  1  0.36802832  0.18011890  0.25000000  1
  H  H42  1  0.86802832  0.31988110  0.75000000  1
  H  H43  1  0.63197168  0.81988110  0.75000000  1
  H  H44  1  0.89461701  0.73125354  0.25000000  1
  H  H45  1  0.60538299  0.23125354  0.25000000  1
  H  H46  1  0.10538299  0.26874646  0.75000000  1
  H  H47  1  0.39461701  0.76874646  0.75000000  1
  H  H48  1  0.87122923  0.62152543  0.11561452  1
  H  H49  1  0.62877077  0.12152543  0.38438548  1
  H  H50  1  0.12877077  0.37847457  0.61561452  1
  H  H51  1  0.37122923  0.87847457  0.88438548  1
  H  H52  1  0.12877077  0.37847457  0.88438548  1
  H  H53  1  0.37122923  0.87847457  0.61561452  1
  H  H54  1  0.87122923  0.62152543  0.38438548  1
  H  H55  1  0.62877077  0.12152543  0.11561452  1
  H  H56  1  0.62931013  0.56891132  0.12045952  1
  H  H57  1  0.87068987  0.06891132  0.37954048  1
  H  H58  1  0.37068987  0.43108868  0.62045952  1
  H  H59  1  0.12931013  0.93108868  0.87954048  1
  H  H60  1  0.37068987  0.43108868  0.87954048  1
  H  H61  1  0.12931013  0.93108868  0.62045952  1
  H  H62  1  0.62931013  0.56891132  0.37954048  1
  H  H63  1  0.87068987  0.06891132  0.12045952  1
  H  H64  1  0.88031226  0.97303420  0.00319286  1
  H  H65  1  0.61968774  0.47303420  0.49680714  1
  H  H66  1  0.11968774  0.02696580  0.50319286  1
  H  H67  1  0.38031226  0.52696580  0.99680714  1
  H  H68  1  0.11968774  0.02696580  0.99680714  1
  H  H69  1  0.38031226  0.52696580  0.50319286  1
  H  H70  1  0.88031226  0.97303420  0.49680714  1
  H  H71  1  0.61968774  0.47303420  0.00319286  1
  Br  Br72  1  0.37565897  0.85032631  0.13092999  1
  Br  Br73  1  0.12434103  0.35032631  0.36907001  1
  Br  Br74  1  0.62434103  0.14967369  0.63092999  1
  Br  Br75  1  0.87565897  0.64967369  0.86907001  1
  Br  Br76  1  0.62434103  0.14967369  0.86907001  1
  Br  Br77  1  0.87565897  0.64967369  0.63092999  1
  Br  Br78  1  0.37565897  0.85032631  0.36907001  1
  Br  Br79  1  0.12434103  0.35032631  0.13092999  1
  O  O80  1  0.15640372  0.59878669  0.25000000  1
  O  O81  1  0.34359628  0.09878669  0.25000000  1
  O  O82  1  0.84359628  0.40121331  0.75000000  1
  O  O83  1  0.65640372  0.90121331  0.75000000  1
  O  O84  1  0.83958756  0.80766172  0.25000000  1
  O  O85  1  0.66041244  0.30766172  0.25000000  1
  O  O86  1  0.16041244  0.19233828  0.75000000  1
  O  O87  1  0.33958756  0.69233828  0.75000000  1
  O  O88  1  0.91011213  0.65930119  0.07181529  1
  O  O89  1  0.58988787  0.15930119  0.42818471  1
  O  O90  1  0.08988787  0.34069881  0.57181529  1
  O  O91  1  0.41011213  0.84069881  0.92818471  1
  O  O92  1  0.08988787  0.34069881  0.92818471  1
  O  O93  1  0.41011213  0.84069881  0.57181529  1
  O  O94  1  0.91011213  0.65930119  0.42818471  1
  O  O95  1  0.58988787  0.15930119  0.07181529  1
  O  O96  1  0.59202741  0.53979444  0.16682652  1
  O  O97  1  0.90797259  0.03979444  0.33317348  1
  O  O98  1  0.40797259  0.46020556  0.66682652  1
  O  O99  1  0.09202741  0.96020556  0.83317348  1
  O  O100  1  0.40797259  0.46020556  0.83317348  1
  O  O101  1  0.09202741  0.96020556  0.66682652  1
  O  O102  1  0.59202741  0.53979444  0.33317348  1
  O  O103  1  0.90797259  0.03979444  0.16682652  1
  O  O104  1  0.84159191  0.89372108  -0.00015763  1
  O  O105  1  0.65840809  0.39372108  0.50015763  1
  O  O106  1  0.15840809  0.10627892  0.49984237  1
  O  O107  1  0.34159191  0.60627892  0.00015763  1
  O  O108  1  0.15840809  0.10627892  0.00015763  1
  O  O109  1  0.34159191  0.60627892  0.49984237  1
  O  O110  1  0.84159191  0.89372108  0.50015763  1
  O  O111  1  0.65840809  0.39372108  -0.00015763  1
