# generated using pymatgen
data_Ba3(Br2Cl)2
_symmetry_space_group_name_H-M   'P 1'
_cell_length_a   8.28291994
_cell_length_b   10.90057484
_cell_length_c   13.81681815
_cell_angle_alpha   71.88788230
_cell_angle_beta   89.87234452
_cell_angle_gamma   89.83636676
_symmetry_Int_Tables_number   1
_chemical_formula_structural   Ba3(Br2Cl)2
_chemical_formula_sum   'Ba12 Br16 Cl8'
_cell_volume   1185.68132779
_cell_formula_units_Z   4
loop_
 _symmetry_equiv_pos_site_id
 _symmetry_equiv_pos_as_xyz
  1  'x, y, z'
loop_
 _atom_site_type_symbol
 _atom_site_label
 _atom_site_symmetry_multiplicity
 _atom_site_fract_x
 _atom_site_fract_y
 _atom_site_fract_z
 _atom_site_occupancy
  Ba  Ba0  1  0.76427994  0.99247750  0.62145987  1
  Ba  Ba1  1  0.75376473  0.65821672  0.95378712  1
  Ba  Ba2  1  0.76432905  0.32599136  0.28803644  1
  Ba  Ba3  1  0.25425791  0.16917606  0.70945907  1
  Ba  Ba4  1  0.25420591  0.84204142  0.04672045  1
  Ba  Ba5  1  0.25479835  0.50234590  0.37605346  1
  Ba  Ba6  1  0.23896072  0.67076601  0.70379438  1
  Ba  Ba7  1  0.23925096  0.32978563  0.04610594  1
  Ba  Ba8  1  0.23808529  0.00371756  0.37737051  1
  Ba  Ba9  1  0.73910865  0.50222462  0.62674424  1
  Ba  Ba10  1  0.73967701  0.17034138  0.95856217  1
  Ba  Ba11  1  0.73860254  0.83548555  0.29375377  1
  Br  Br12  1  0.53120618  0.80279411  0.52519857  1
  Br  Br13  1  0.52990035  0.46727834  0.85822876  1
  Br  Br14  1  0.53085328  0.13422134  0.19332071  1
  Br  Br15  1  0.02966527  0.69958616  0.47515287  1
  Br  Br16  1  0.02904600  0.36560413  0.80767945  1
  Br  Br17  1  0.02859245  0.03461110  0.14247744  1
  Br  Br18  1  0.47144237  0.86314873  0.80292112  1
  Br  Br19  1  0.47133274  0.52524847  0.14120543  1
  Br  Br20  1  0.47042448  0.19422521  0.47197867  1
  Br  Br21  1  0.97294603  0.97179185  0.85935591  1
  Br  Br22  1  0.97290888  0.63634035  0.19503637  1
  Br  Br23  1  0.97331755  0.30280742  0.52597400  1
  Br  Br24  1  0.64513405  0.87062844  0.06036642  1
  Br  Br25  1  0.64445748  0.53679501  0.39389757  1
  Br  Br26  1  0.64379828  0.20385940  0.72610051  1
  Br  Br27  1  0.14575702  0.62926508  0.93933349  1
  Cl  Cl28  1  0.14298475  0.29394257  0.27272298  1
  Cl  Cl29  1  0.14290061  0.96159891  0.60511987  1
  Cl  Cl30  1  0.35633917  0.13003079  0.93914527  1
  Cl  Cl31  1  0.35494654  0.79647218  0.27491481  1
  Cl  Cl32  1  0.35545156  0.46205067  0.60536096  1
  Cl  Cl33  1  0.85871800  0.37137778  0.06122538  1
  Cl  Cl34  1  0.85964100  0.03844909  0.39437101  1
  Cl  Cl35  1  0.85891092  0.70530013  0.72706700  1
