# generated using pymatgen
data_Ba2P7Br
_symmetry_space_group_name_H-M   'P 1'
_cell_length_a   6.94598154
_cell_length_b   6.38055076
_cell_length_c   11.99928737
_cell_angle_alpha   84.13349423
_cell_angle_beta   90.00000000
_cell_angle_gamma   90.00000000
_symmetry_Int_Tables_number   1
_chemical_formula_structural   Ba2P7Br
_chemical_formula_sum   'Ba4 P14 Br2'
_cell_volume   529.01350166
_cell_formula_units_Z   2
loop_
 _symmetry_equiv_pos_site_id
 _symmetry_equiv_pos_as_xyz
  1  'x, y, z'
loop_
 _atom_site_type_symbol
 _atom_site_label
 _atom_site_symmetry_multiplicity
 _atom_site_fract_x
 _atom_site_fract_y
 _atom_site_fract_z
 _atom_site_occupancy
  Ba  Ba0  1  0.75000000  0.28659842  0.04486325  1
  Ba  Ba1  1  0.25000000  0.71340158  0.95513675  1
  Ba  Ba2  1  0.75000000  0.06717012  0.64757222  1
  Ba  Ba3  1  0.25000000  0.93282988  0.35242778  1
  P  P4  1  0.75000000  0.49399689  0.44716879  1
  P  P5  1  0.25000000  0.50600311  0.55283121  1
  P  P6  1  0.75000000  0.83037119  0.22373108  1
  P  P7  1  0.25000000  0.16962881  0.77626892  1
  P  P8  1  0.75000000  0.82914060  0.40556602  1
  P  P9  1  0.25000000  0.17085940  0.59443398  1
  P  P10  1  0.50779089  0.62657976  0.19725695  1
  P  P11  1  0.00779089  0.37342024  0.80274305  1
  P  P12  1  0.49220911  0.37342024  0.80274305  1
  P  P13  1  0.99220911  0.62657976  0.19725695  1
  P  P14  1  0.58234473  0.36174087  0.31254809  1
  P  P15  1  0.08234473  0.63825913  0.68745191  1
  P  P16  1  0.41765527  0.63825913  0.68745191  1
  P  P17  1  0.91765527  0.36174087  0.31254809  1
  Br  Br18  1  0.75000000  0.84598720  0.91422613  1
  Br  Br19  1  0.25000000  0.15401280  0.08577387  1
