# generated using pymatgen
data_Na2CaSi10(H3O10)2
_symmetry_space_group_name_H-M   'P 1'
_cell_length_a   6.54479618
_cell_length_b   13.09996037
_cell_length_c   13.06737026
_cell_angle_alpha   90.00000000
_cell_angle_beta   90.00000000
_cell_angle_gamma   90.00000000
_symmetry_Int_Tables_number   1
_chemical_formula_structural   Na2CaSi10(H3O10)2
_chemical_formula_sum   'Na4 Ca2 Si20 H12 O40'
_cell_volume   1120.35151269
_cell_formula_units_Z   2
loop_
 _symmetry_equiv_pos_site_id
 _symmetry_equiv_pos_as_xyz
  1  'x, y, z'
loop_
 _atom_site_type_symbol
 _atom_site_label
 _atom_site_symmetry_multiplicity
 _atom_site_fract_x
 _atom_site_fract_y
 _atom_site_fract_z
 _atom_site_occupancy
  Na  Na0  1  0.74600532  -0.00000000  0.55128438  1
  Na  Na1  1  0.25399468  -0.00000000  0.44871562  1
  Na  Na2  1  0.25399468  0.50000000  0.05128438  1
  Na  Na3  1  0.74600532  0.50000000  0.94871562  1
  Ca  Ca4  1  -0.00000000  -0.00000000  -0.00000000  1
  Ca  Ca5  1  -0.00000000  0.50000000  0.50000000  1
  Si  Si6  1  0.37507751  0.75000000  0.75000000  1
  Si  Si7  1  0.62492249  0.25000000  0.25000000  1
  Si  Si8  1  0.62492249  0.75000000  0.25000000  1
  Si  Si9  1  0.37507751  0.25000000  0.75000000  1
  Si  Si10  1  0.75139035  0.88213328  0.79934248  1
  Si  Si11  1  0.24860965  0.11786672  0.20065752  1
  Si  Si12  1  0.24860965  0.61786672  0.29934248  1
  Si  Si13  1  0.75139035  0.61786672  0.70065752  1
  Si  Si14  1  0.75139035  0.38213328  0.70065752  1
  Si  Si15  1  0.24860965  0.38213328  0.29934248  1
  Si  Si16  1  0.24860965  0.88213328  0.20065752  1
  Si  Si17  1  0.75139035  0.11786672  0.79934248  1
  Si  Si18  1  0.99759530  0.70438780  0.88355015  1
  Si  Si19  1  0.00240470  0.29561220  0.11644985  1
  Si  Si20  1  0.00240470  0.79561220  0.38355015  1
  Si  Si21  1  0.99759530  0.79561220  0.61644985  1
  Si  Si22  1  0.99759530  0.20438780  0.61644985  1
  Si  Si23  1  0.00240470  0.20438780  0.38355015  1
  Si  Si24  1  0.00240470  0.70438780  0.11644985  1
  Si  Si25  1  0.99759530  0.29561220  0.88355015  1
  H  H26  1  0.50000000  0.58274979  0.00000000  1
  H  H27  1  0.50000000  0.41725021  0.00000000  1
  H  H28  1  0.50000000  0.91725021  0.50000000  1
  H  H29  1  0.50000000  0.08274979  0.50000000  1
  H  H30  1  0.43717555  -0.00000000  0.57609292  1
  H  H31  1  0.56282445  -0.00000000  0.42390708  1
  H  H32  1  0.56282445  0.50000000  0.07609292  1
  H  H33  1  0.43717555  0.50000000  0.92390708  1
  H  H34  1  0.23350661  -0.00000000  0.88863194  1
  H  H35  1  0.76649339  -0.00000000  0.11136806  1
  H  H36  1  0.76649339  0.50000000  0.38863194  1
  H  H37  1  0.23350661  0.50000000  0.61136806  1
  O  O38  1  0.76069585  -0.00000000  0.83978244  1
  O  O39  1  0.23930415  -0.00000000  0.16021756  1
  O  O40  1  0.23930415  0.50000000  0.33978244  1
  O  O41  1  0.76069585  0.50000000  0.66021756  1
  O  O42  1  0.77213816  0.79199170  0.34097128  1
  O  O43  1  0.22786184  0.20800830  0.65902872  1
  O  O44  1  0.22786184  0.70800830  0.84097128  1
  O  O45  1  0.77213816  0.70800830  0.15902872  1
  O  O46  1  0.77213816  0.29199170  0.15902872  1
  O  O47  1  0.22786184  0.29199170  0.84097128  1
  O  O48  1  0.22786184  0.79199170  0.65902872  1
  O  O49  1  0.77213816  0.20800830  0.34097128  1
  O  O50  1  0.52147293  0.83865715  0.79723762  1
  O  O51  1  0.47852707  0.16134285  0.20276238  1
  O  O52  1  0.47852707  0.66134285  0.29723762  1
  O  O53  1  0.52147293  0.66134285  0.70276238  1
  O  O54  1  0.52147293  0.33865715  0.70276238  1
  O  O55  1  0.47852707  0.33865715  0.29723762  1
  O  O56  1  0.47852707  0.83865715  0.20276238  1
  O  O57  1  0.52147293  0.16134285  0.79723762  1
  O  O58  1  0.88991973  0.81829361  0.88373282  1
  O  O59  1  0.11008027  0.18170639  0.11626718  1
  O  O60  1  0.11008027  0.68170639  0.38373282  1
  O  O61  1  0.88991973  0.68170639  0.61626718  1
  O  O62  1  0.88991973  0.31829361  0.61626718  1
  O  O63  1  0.11008027  0.31829361  0.38373282  1
  O  O64  1  0.11008027  0.81829361  0.11626718  1
  O  O65  1  0.88991973  0.18170639  0.88373282  1
  O  O66  1  -0.00000000  0.65785349  -0.00000000  1
  O  O67  1  -0.00000000  0.34214651  -0.00000000  1
  O  O68  1  -0.00000000  0.84214651  0.50000000  1
  O  O69  1  -0.00000000  0.15785349  0.50000000  1
  O  O70  1  0.85698233  0.87421629  0.68499124  1
  O  O71  1  0.14301767  0.12578371  0.31500876  1
  O  O72  1  0.14301767  0.62578371  0.18499124  1
  O  O73  1  0.85698233  0.62578371  0.81500876  1
  O  O74  1  0.85698233  0.37421629  0.81500876  1
  O  O75  1  0.14301767  0.37421629  0.18499124  1
  O  O76  1  0.14301767  0.87421629  0.31500876  1
  O  O77  1  0.85698233  0.12578371  0.68499124  1
