# generated using pymatgen
data_GaCuAu2
_symmetry_space_group_name_H-M   'P 1'
_cell_length_a   10.19447236
_cell_length_b   10.19447236
_cell_length_c   10.19447236
_cell_angle_alpha   123.93171652
_cell_angle_beta   118.68941861
_cell_angle_gamma   87.80698537
_symmetry_Int_Tables_number   1
_chemical_formula_structural   GaCuAu2
_chemical_formula_sum   'Ga1 Cu1 Au2'
_cell_volume   731.72890355
_cell_formula_units_Z   1
loop_
 _symmetry_equiv_pos_site_id
 _symmetry_equiv_pos_as_xyz
  1  'x, y, z'
loop_
 _atom_site_type_symbol
 _atom_site_label
 _atom_site_symmetry_multiplicity
 _atom_site_fract_x
 _atom_site_fract_y
 _atom_site_fract_z
 _atom_site_occupancy
  Ga  Ga0  1  -0.00000000  0.50000000  0.50000000  1
  Cu  Cu1  1  -0.00000000  0.00000000  -0.00000000  1
  Au  Au2  1  0.00000000  0.25201861  0.25201861  1
  Au  Au3  1  -0.00000000  0.74798139  0.74798139  1
