# generated using pymatgen
data_Ba2CaV2(Si2O7)2
_symmetry_space_group_name_H-M   'P 1'
_cell_length_a   6.31335496
_cell_length_b   7.57303403
_cell_length_c   8.45590814
_cell_angle_alpha   80.59832710
_cell_angle_beta   116.39771398
_cell_angle_gamma   102.32964739
_symmetry_Int_Tables_number   1
_chemical_formula_structural   Ba2CaV2(Si2O7)2
_chemical_formula_sum   'Ba2 Ca1 V2 Si4 O14'
_cell_volume   352.69683438
_cell_formula_units_Z   1
loop_
 _symmetry_equiv_pos_site_id
 _symmetry_equiv_pos_as_xyz
  1  'x, y, z'
loop_
 _atom_site_type_symbol
 _atom_site_label
 _atom_site_symmetry_multiplicity
 _atom_site_fract_x
 _atom_site_fract_y
 _atom_site_fract_z
 _atom_site_occupancy
  Ba  Ba0  1  0.80097400  0.73362600  0.62850100  1
  Ba  Ba1  1  0.21985000  0.28730300  0.42395300  1
  Ca  Ca2  1  0.00274000  0.85742000  0.19240000  1
  V  V3  1  0.33818000  0.70417700  0.09585200  1
  V  V4  1  0.98435300  0.18775700  0.84794600  1
  Si  Si5  1  0.33563300  0.55369400  0.78311500  1
  Si  Si6  1  0.65624300  0.45891500  0.21331300  1
  Si  Si7  1  0.42420100  0.98623400  0.81315100  1
  Si  Si8  1  0.61544600  0.02339000  0.23737300  1
  O  O9  1  0.06965800  0.44249800  0.74967000  1
  O  O10  1  0.50933300  0.52947700  0.30406000  1
  O  O11  1  0.20235800  0.09230400  0.76107500  1
  O  O12  1  0.40935400  0.89290300  0.28693800  1
  O  O13  1  0.50242500  0.54893100  0.00545600  1
  O  O14  1  0.55393000  0.93895800  0.04019700  1
  O  O15  1  0.03120400  0.73735000  0.97967200  1
  O  O16  1  0.05346500  0.15939400  0.07650400  1
  O  O17  1  0.30973600  0.77628900  0.74548300  1
  O  O18  1  0.60166000  0.23818200  0.21128100  1
  O  O19  1  0.46616900  0.50390600  0.67814700  1
  O  O20  1  0.93379500  0.54196400  0.29360300  1
  O  O21  1  0.62580300  0.07448100  0.74029200  1
  O  O22  1  0.87948900  0.98084700  0.36857700  1
