# generated using pymatgen
data_Dy9Al5S21
_symmetry_space_group_name_H-M   'P 1'
_cell_length_a   11.37586684
_cell_length_b   11.37585959
_cell_length_c   11.37586480
_cell_angle_alpha   94.03088049
_cell_angle_beta   94.03078731
_cell_angle_gamma   94.03092658
_symmetry_Int_Tables_number   1
_chemical_formula_structural   Dy9Al5S21
_chemical_formula_sum   'Dy18 Al10 S42'
_cell_volume   1460.68630597
_cell_formula_units_Z   2
loop_
 _symmetry_equiv_pos_site_id
 _symmetry_equiv_pos_as_xyz
  1  'x, y, z'
loop_
 _atom_site_type_symbol
 _atom_site_label
 _atom_site_symmetry_multiplicity
 _atom_site_fract_x
 _atom_site_fract_y
 _atom_site_fract_z
 _atom_site_occupancy
  Dy  Dy0  1  0.11383513  0.88204949  0.73648019  1
  Dy  Dy1  1  0.45256701  0.22452942  0.06752469  1
  Dy  Dy2  1  0.76530128  0.55161565  0.39570494  1
  Dy  Dy3  1  0.39570503  0.76530083  0.55161416  1
  Dy  Dy4  1  0.73648086  0.11383748  0.88204912  1
  Dy  Dy5  1  0.06752496  0.45256743  0.22452987  1
  Dy  Dy6  1  0.22453090  0.06752550  0.45256719  1
  Dy  Dy7  1  0.55161378  0.39570486  0.76530078  1
  Dy  Dy8  1  0.88204813  0.73648033  0.11383717  1
  Dy  Dy9  1  0.20814572  0.43155405  0.58554559  1
  Dy  Dy10  1  0.54511143  0.77248144  0.92975002  1
  Dy  Dy11  1  0.87446778  0.09730308  0.24490879  1
  Dy  Dy12  1  0.92974900  0.54511242  0.77248091  1
  Dy  Dy13  1  0.24490709  0.87446546  0.09730443  1
  Dy  Dy14  1  0.58554627  0.20814770  0.43155353  1
  Dy  Dy15  1  0.09730290  0.24490818  0.87446256  1
  Dy  Dy16  1  0.43155427  0.58554654  0.20814798  1
  Dy  Dy17  1  0.77248187  0.92974864  0.54511154  1
  Al  Al18  1  0.71942143  0.38696524  0.04666432  1
  Al  Al19  1  0.04666994  0.71942167  0.38697051  1
  Al  Al20  1  0.38696496  0.04666691  0.71942103  1
  Al  Al21  1  0.88254440  0.22292941  0.54743133  1
  Al  Al22  1  0.22293206  0.54743409  0.88254291  1
  Al  Al23  1  0.54743404  0.88254304  0.22293327  1
  Al  Al24  1  0.86011141  0.86011272  0.86011297  1
  Al  Al25  1  0.17635548  0.17635571  0.17635506  1
  Al  Al26  1  0.67755830  0.67756029  0.67756003  1
  Al  Al27  1  0.35851242  0.35851192  0.35851154  1
  S  S28  1  0.83857216  0.50829998  0.17110100  1
  S  S29  1  0.17110406  0.83857475  0.50830237  1
  S  S30  1  0.50830002  0.17110094  0.83857255  1
  S  S31  1  0.67213024  0.00717977  0.33838061  1
  S  S32  1  0.00717604  0.33838067  0.67212573  1
  S  S33  1  0.33838054  0.67212863  0.00718007  1
  S  S34  1  0.55513971  0.41430391  0.31134565  1
  S  S35  1  0.89360761  0.76357024  0.66609968  1
  S  S36  1  0.23786530  0.10266417  0.99864534  1
  S  S37  1  0.99864547  0.23786557  0.10266436  1
  S  S38  1  0.31134571  0.55513902  0.41430302  1
  S  S39  1  0.66609915  0.89360796  0.76357090  1
  S  S40  1  0.76356974  0.66610027  0.89360878  1
  S  S41  1  0.10266384  0.99864549  0.23786663  1
  S  S42  1  0.41430568  0.31134718  0.55513372  1
  S  S43  1  0.15386083  0.28401618  0.38107180  1
  S  S44  1  0.49002324  0.62191148  0.72905294  1
  S  S45  1  0.79895352  0.94306369  0.04291979  1
  S  S46  1  0.72905345  0.49002541  0.62191146  1
  S  S47  1  0.04291782  0.79895378  0.94306266  1
  S  S48  1  0.38107239  0.15386060  0.28401701  1
  S  S49  1  0.94306308  0.04291868  0.79895538  1
  S  S50  1  0.28401736  0.38107142  0.15386086  1
  S  S51  1  0.62191119  0.72905304  0.49002402  1
  S  S52  1  0.53904358  0.44695702  0.00633032  1
  S  S53  1  0.86761254  0.78299221  0.35196151  1
  S  S54  1  0.20383040  0.10611218  0.68952827  1
  S  S55  1  0.68952832  0.20382961  0.10611133  1
  S  S56  1  0.00633183  0.53904366  0.44695663  1
  S  S57  1  0.35195939  0.86761222  0.78299280  1
  S  S58  1  0.78299477  0.35196061  0.86761100  1
  S  S59  1  0.10611167  0.68952820  0.20383258  1
  S  S60  1  0.44695657  0.00633073  0.53904351  1
  S  S61  1  0.96219804  0.06113370  0.47663657  1
  S  S62  1  0.29693321  0.38266846  0.81254433  1
  S  S63  1  0.62744676  0.71711718  0.15788018  1
  S  S64  1  0.81254361  0.29692973  0.38266163  1
  S  S65  1  0.15787850  0.62744697  0.71711693  1
  S  S66  1  0.47662851  0.96219487  0.06113363  1
  S  S67  1  0.71711546  0.15787774  0.62744498  1
  S  S68  1  0.06113334  0.47662805  0.96219427  1
  S  S69  1  0.38266754  0.81254451  0.29693379  1
