# generated using pymatgen
data_CsGd2Cl7
_symmetry_space_group_name_H-M   'P 1'
_cell_length_a   7.06973334
_cell_length_b   12.84084837
_cell_length_c   13.51393170
_cell_angle_alpha   89.99997331
_cell_angle_beta   89.99982268
_cell_angle_gamma   90.00003009
_symmetry_Int_Tables_number   1
_chemical_formula_structural   CsGd2Cl7
_chemical_formula_sum   'Cs4 Gd8 Cl28'
_cell_volume   1226.81328564
_cell_formula_units_Z   4
loop_
 _symmetry_equiv_pos_site_id
 _symmetry_equiv_pos_as_xyz
  1  'x, y, z'
loop_
 _atom_site_type_symbol
 _atom_site_label
 _atom_site_symmetry_multiplicity
 _atom_site_fract_x
 _atom_site_fract_y
 _atom_site_fract_z
 _atom_site_occupancy
  Cs  Cs0  1  0.24999970  0.80382470  0.04084859  1
  Cs  Cs1  1  0.75000077  0.19617567  0.95915150  1
  Cs  Cs2  1  0.75000061  0.30382469  0.45915135  1
  Cs  Cs3  1  0.24999935  0.69617500  0.54084967  1
  Gd  Gd4  1  0.25000120  0.45889219  0.23782615  1
  Gd  Gd5  1  0.74999879  0.54110844  0.76217344  1
  Gd  Gd6  1  0.74999646  0.95889088  0.26217271  1
  Gd  Gd7  1  0.25000202  0.04110850  0.73782689  1
  Gd  Gd8  1  0.24999757  0.15541943  0.24869571  1
  Gd  Gd9  1  0.75000041  0.84458103  0.75130405  1
  Gd  Gd10  1  0.75000002  0.65542021  0.25130376  1
  Gd  Gd11  1  0.24999999  0.34458047  0.74869659  1
  Cl  Cl12  1  0.00852685  0.30547828  0.17668970  1
  Cl  Cl13  1  0.99147389  0.69452210  0.82331259  1
  Cl  Cl14  1  0.99146985  0.80547791  0.32331103  1
  Cl  Cl15  1  0.50852622  0.69452327  0.82331073  1
  Cl  Cl16  1  0.00852653  0.19452261  0.67668954  1
  Cl  Cl17  1  0.49147156  0.30547673  0.17668853  1
  Cl  Cl18  1  0.49147411  0.19452273  0.67668820  1
  Cl  Cl19  1  0.50852758  0.80547699  0.32331102  1
  Cl  Cl20  1  0.00881952  0.57525490  0.12346878  1
  Cl  Cl21  1  0.99118176  0.42474547  0.87653077  1
  Cl  Cl22  1  0.99118069  0.07525446  0.37653066  1
  Cl  Cl23  1  0.50881700  0.42474536  0.87653018  1
  Cl  Cl24  1  0.00881833  0.92474543  0.62346933  1
  Cl  Cl25  1  0.49118425  0.57525525  0.12346942  1
  Cl  Cl26  1  0.49118547  0.92474476  0.62346978  1
  Cl  Cl27  1  0.50881480  0.07525541  0.37653040  1
  Cl  Cl28  1  0.00950715  0.03861200  0.13234624  1
  Cl  Cl29  1  0.99049372  0.96138832  0.86765341  1
  Cl  Cl30  1  0.99049353  0.53861193  0.36765407  1
  Cl  Cl31  1  0.50950990  0.96138802  0.86765332  1
  Cl  Cl32  1  0.00950800  0.46138771  0.63234640  1
  Cl  Cl33  1  0.49048910  0.03861245  0.13234597  1
  Cl  Cl34  1  0.49049192  0.46138775  0.63234684  1
  Cl  Cl35  1  0.50950926  0.53861207  0.36765365  1
  Cl  Cl36  1  0.25000020  0.31028654  0.39055422  1
  Cl  Cl37  1  0.75000083  0.68971372  0.60944592  1
  Cl  Cl38  1  0.74999941  0.81028608  0.10944669  1
  Cl  Cl39  1  0.25000169  0.18971354  0.89055419  1
