# generated using pymatgen
data_BiI3
_symmetry_space_group_name_H-M   'P 1'
_cell_length_a   7.65692236
_cell_length_b   7.72961558
_cell_length_c   13.19971174
_cell_angle_alpha   90.00000000
_cell_angle_beta   90.00000000
_cell_angle_gamma   90.00000000
_symmetry_Int_Tables_number   1
_chemical_formula_structural   BiI3
_chemical_formula_sum   'Bi4 I12'
_cell_volume   781.22581538
_cell_formula_units_Z   4
loop_
 _symmetry_equiv_pos_site_id
 _symmetry_equiv_pos_as_xyz
  1  'x, y, z'
loop_
 _atom_site_type_symbol
 _atom_site_label
 _atom_site_symmetry_multiplicity
 _atom_site_fract_x
 _atom_site_fract_y
 _atom_site_fract_z
 _atom_site_occupancy
  Bi  Bi0  1  0.25139193  0.94400198  0.25000000  1
  Bi  Bi1  1  0.24860807  0.44400198  0.25000000  1
  Bi  Bi2  1  0.74860807  0.05599802  0.75000000  1
  Bi  Bi3  1  0.75139193  0.55599802  0.75000000  1
  I  I4  1  0.93261930  0.18670048  0.25000000  1
  I  I5  1  0.56738070  0.68670048  0.25000000  1
  I  I6  1  0.06738070  0.81329952  0.75000000  1
  I  I7  1  0.43261930  0.31329952  0.75000000  1
  I  I8  1  0.09250727  0.69907873  0.08997383  1
  I  I9  1  0.40749273  0.19907873  0.41002617  1
  I  I10  1  0.90749273  0.30092127  0.58997383  1
  I  I11  1  0.59250727  0.80092127  0.91002617  1
  I  I12  1  0.90749273  0.30092127  0.91002617  1
  I  I13  1  0.59250727  0.80092127  0.58997383  1
  I  I14  1  0.09250727  0.69907873  0.41002617  1
  I  I15  1  0.40749273  0.19907873  0.08997383  1
