# generated using pymatgen
data_Ca2CrSbO6
_symmetry_space_group_name_H-M   'P 1'
_cell_length_a   5.40809118
_cell_length_b   5.52246554
_cell_length_c   15.40046370
_cell_angle_alpha   90.00003910
_cell_angle_beta   90.24923609
_cell_angle_gamma   90.00013581
_symmetry_Int_Tables_number   1
_chemical_formula_structural   Ca2CrSbO6
_chemical_formula_sum   'Ca8 Cr4 Sb4 O24'
_cell_volume   459.94585362
_cell_formula_units_Z   4
loop_
 _symmetry_equiv_pos_site_id
 _symmetry_equiv_pos_as_xyz
  1  'x, y, z'
loop_
 _atom_site_type_symbol
 _atom_site_label
 _atom_site_symmetry_multiplicity
 _atom_site_fract_x
 _atom_site_fract_y
 _atom_site_fract_z
 _atom_site_occupancy
  Ca  Ca0  1  0.51205277  0.54865194  0.12461651  1
  Ca  Ca1  1  0.51203410  0.54863986  0.62462085  1
  Ca  Ca2  1  0.01199473  0.95137354  0.37461844  1
  Ca  Ca3  1  0.01203100  0.95138565  0.87462062  1
  Ca  Ca4  1  0.48796518  0.45137767  0.37538020  1
  Ca  Ca5  1  0.48800233  0.45137881  0.87538129  1
  Ca  Ca6  1  0.98795827  0.04864970  0.12538207  1
  Ca  Ca7  1  0.98795791  0.04864311  0.62537933  1
  Cr  Cr8  1  0.00003500  0.50001760  0.74998531  1
  Cr  Cr9  1  0.49996032  0.00001675  0.50001575  1
  Cr  Cr10  1  0.00000625  0.50001698  0.24998290  1
  Cr  Cr11  1  0.50000301  0.00002791  0.00001689  1
  Sb  Sb12  1  0.00003725  0.50003261  -0.00000398  1
  Sb  Sb13  1  0.99999386  0.50002016  0.49999215  1
  Sb  Sb14  1  0.49996889  0.00001374  0.25000602  1
  Sb  Sb15  1  0.49999957  0.00001905  0.75000772  1
  O  O16  1  0.41218234  0.97473912  0.12539309  1
  O  O17  1  0.41216721  0.97473439  0.62538944  1
  O  O18  1  0.91216659  0.52534185  0.37542753  1
  O  O19  1  0.91220777  0.52534831  0.87541879  1
  O  O20  1  0.58778917  0.02534276  0.37458338  1
  O  O21  1  0.58783058  0.02535069  0.87457154  1
  O  O22  1  0.08783036  0.47475082  0.12460753  1
  O  O23  1  0.08782512  0.47473309  0.62461056  1
  O  O24  1  0.79438280  0.79475158  0.22746131  1
  O  O25  1  0.79440919  0.79474598  0.72745755  1
  O  O26  1  0.29445081  0.70517154  0.47747761  1
  O  O27  1  0.29450077  0.70517531  0.97747865  1
  O  O28  1  0.20549778  0.20515807  0.27252197  1
  O  O29  1  0.20554242  0.20516969  0.77251901  1
  O  O30  1  0.70563167  0.29475351  0.02253966  1
  O  O31  1  0.70558471  0.29474334  0.52254442  1
  O  O32  1  0.29689055  0.70795488  0.27318013  1
  O  O33  1  0.29691017  0.70796495  0.77317926  1
  O  O34  1  0.79685266  0.79197271  0.02322917  1
  O  O35  1  0.79681497  0.79196289  0.52323803  1
  O  O36  1  0.70314922  0.29196447  0.22676689  1
  O  O37  1  0.70317598  0.29196639  0.72676368  1
  O  O38  1  0.20308432  0.20796481  0.47682011  1
  O  O39  1  0.20312339  0.20797478  0.97681963  1
