# generated using pymatgen
data_Na3Pr(PO4)2
_symmetry_space_group_name_H-M   'P 1'
_cell_length_a   5.40974183
_cell_length_b   14.10723901
_cell_length_c   18.87779447
_cell_angle_alpha   90.00000000
_cell_angle_beta   90.00000000
_cell_angle_gamma   90.00000000
_symmetry_Int_Tables_number   1
_chemical_formula_structural   Na3Pr(PO4)2
_chemical_formula_sum   'Na24 Pr8 P16 O64'
_cell_volume   1440.68759769
_cell_formula_units_Z   8
loop_
 _symmetry_equiv_pos_site_id
 _symmetry_equiv_pos_as_xyz
  1  'x, y, z'
loop_
 _atom_site_type_symbol
 _atom_site_label
 _atom_site_symmetry_multiplicity
 _atom_site_fract_x
 _atom_site_fract_y
 _atom_site_fract_z
 _atom_site_occupancy
  Na  Na0  1  0.98379961  0.21629838  0.99312311  1
  Na  Na1  1  0.01620039  0.78370162  0.49312311  1
  Na  Na2  1  0.01620039  0.71629838  0.99312311  1
  Na  Na3  1  0.98379961  0.28370162  0.49312311  1
  Na  Na4  1  0.98848966  0.95210563  0.64794129  1
  Na  Na5  1  0.01151034  0.04789437  0.14794129  1
  Na  Na6  1  0.01151034  0.45210563  0.64794129  1
  Na  Na7  1  0.98848966  0.54789437  0.14794129  1
  Na  Na8  1  0.99099657  0.86207640  0.82851333  1
  Na  Na9  1  0.00900343  0.13792360  0.32851333  1
  Na  Na10  1  0.00900343  0.36207640  0.82851333  1
  Na  Na11  1  0.99099657  0.63792360  0.32851333  1
  Na  Na12  1  0.47486210  0.79730089  0.73141306  1
  Na  Na13  1  0.52513790  0.20269911  0.23141306  1
  Na  Na14  1  0.52513790  0.29730089  0.73141306  1
  Na  Na15  1  0.47486210  0.70269911  0.23141306  1
  Na  Na16  1  0.53971364  0.96763839  0.88797345  1
  Na  Na17  1  0.46028636  0.03236161  0.38797345  1
  Na  Na18  1  0.46028636  0.46763839  0.88797345  1
  Na  Na19  1  0.53971364  0.53236161  0.38797345  1
  Na  Na20  1  0.49769925  0.88514182  0.55024424  1
  Na  Na21  1  0.50230075  0.11485818  0.05024424  1
  Na  Na22  1  0.50230075  0.38514182  0.55024424  1
  Na  Na23  1  0.49769925  0.61485818  0.05024424  1
  Pr  Pr24  1  0.92975713  0.61390754  0.80225633  1
  Pr  Pr25  1  0.07024287  0.38609246  0.30225633  1
  Pr  Pr26  1  0.07024287  0.11390754  0.80225633  1
  Pr  Pr27  1  0.92975713  0.88609246  0.30225633  1
  Pr  Pr28  1  0.55622913  0.63534818  0.57482132  1
  Pr  Pr29  1  0.44377087  0.36465182  0.07482132  1
  Pr  Pr30  1  0.44377087  0.13534818  0.57482132  1
  Pr  Pr31  1  0.55622913  0.86465182  0.07482132  1
  P  P32  1  0.96893852  0.47523774  0.98038649  1
  P  P33  1  0.03106148  0.52476226  0.48038649  1
  P  P34  1  0.03106148  0.97523774  0.98038649  1
  P  P35  1  0.96893852  0.02476226  0.48038649  1
  P  P36  1  0.98659891  0.22926822  0.65299896  1
  P  P37  1  0.01340109  0.77073178  0.15299896  1
  P  P38  1  0.01340109  0.72926822  0.65299896  1
  P  P39  1  0.98659891  0.27073178  0.15299896  1
  P  P40  1  0.47484953  0.51996051  0.72404747  1
  P  P41  1  0.52515047  0.48003949  0.22404747  1
  P  P42  1  0.52515047  0.01996051  0.72404747  1
  P  P43  1  0.47484953  0.98003949  0.22404747  1
  P  P44  1  0.46067464  0.72643143  0.89670614  1
  P  P45  1  0.53932536  0.27356857  0.39670614  1
  P  P46  1  0.53932536  0.22643143  0.89670614  1
  P  P47  1  0.46067464  0.77356857  0.39670614  1
  O  O48  1  0.58401997  0.80411587  0.85131544  1
  O  O49  1  0.41598003  0.19588413  0.35131544  1
  O  O50  1  0.41598003  0.30411587  0.85131544  1
  O  O51  1  0.58401997  0.69588413  0.35131544  1
  O  O52  1  0.69236172  0.46957755  0.76298396  1
  O  O53  1  0.30763828  0.53042245  0.26298396  1
  O  O54  1  0.30763828  0.96957755  0.76298396  1
  O  O55  1  0.69236172  0.03042245  0.26298396  1
  O  O56  1  0.90034713  0.87846853  0.99486438  1
  O  O57  1  0.09965287  0.12153147  0.49486438  1
  O  O58  1  0.09965287  0.37846853  0.99486438  1
  O  O59  1  0.90034713  0.62153147  0.49486438  1
  O  O60  1  0.80168752  0.77963589  0.61149074  1
  O  O61  1  0.19831248  0.22036411  0.11149074  1
  O  O62  1  0.19831248  0.27963589  0.61149074  1
  O  O63  1  0.80168752  0.72036411  0.11149074  1
  O  O64  1  0.68624085  0.46654906  0.99746177  1
  O  O65  1  0.31375915  0.53345094  0.49746177  1
  O  O66  1  0.31375915  0.96654906  0.99746177  1
  O  O67  1  0.68624085  0.03345094  0.49746177  1
  O  O68  1  0.91088036  0.44700059  0.52693698  1
  O  O69  1  0.08911964  0.55299941  0.02693698  1
  O  O70  1  0.08911964  0.94700059  0.52693698  1
  O  O71  1  0.91088036  0.05299941  0.02693698  1
  O  O72  1  0.77234287  0.99262646  0.76031331  1
  O  O73  1  0.22765713  0.00737354  0.26031331  1
  O  O74  1  0.22765713  0.49262646  0.76031331  1
  O  O75  1  0.77234287  0.50737354  0.26031331  1
  O  O76  1  0.59404542  0.62976381  0.88419275  1
  O  O77  1  0.40595458  0.37023619  0.38419275  1
  O  O78  1  0.40595458  0.12976381  0.88419275  1
  O  O79  1  0.59404542  0.87023619  0.38419275  1
  O  O80  1  0.52024496  0.62885479  0.72644426  1
  O  O81  1  0.47975504  0.37114521  0.22644426  1
  O  O82  1  0.47975504  0.12885479  0.72644426  1
  O  O83  1  0.52024496  0.87114521  0.22644426  1
  O  O84  1  0.96660678  0.62062844  0.65088789  1
  O  O85  1  0.03339322  0.37937156  0.15088789  1
  O  O86  1  0.03339322  0.12062844  0.65088789  1
  O  O87  1  0.96660678  0.87937156  0.15088789  1
  O  O88  1  0.81962311  0.21692417  0.87611143  1
  O  O89  1  0.18037689  0.78307583  0.37611143  1
  O  O90  1  0.18037689  0.71692417  0.87611143  1
  O  O91  1  0.81962311  0.28307583  0.37611143  1
  O  O92  1  0.98962545  0.26194432  0.73172913  1
  O  O93  1  0.01037455  0.73805568  0.23172913  1
  O  O94  1  0.01037455  0.76194432  0.73172913  1
  O  O95  1  0.98962545  0.23805568  0.23172913  1
  O  O96  1  0.52976720  0.98836647  0.64501541  1
  O  O97  1  0.47023280  0.01163353  0.14501541  1
  O  O98  1  0.47023280  0.48836647  0.64501541  1
  O  O99  1  0.52976720  0.51163353  0.14501541  1
  O  O100  1  0.99588411  0.99762672  0.90002058  1
  O  O101  1  0.00411589  0.00237328  0.40002058  1
  O  O102  1  0.00411589  0.49762672  0.90002058  1
  O  O103  1  0.99588411  0.50237328  0.40002058  1
  O  O104  1  0.26482730  0.75631371  0.61887548  1
  O  O105  1  0.73517270  0.24368629  0.11887548  1
  O  O106  1  0.73517270  0.25631371  0.61887548  1
  O  O107  1  0.26482730  0.74368629  0.11887548  1
  O  O108  1  0.47277167  0.74899868  0.97753128  1
  O  O109  1  0.52722833  0.25100132  0.47753128  1
  O  O110  1  0.52722833  0.24899868  0.97753128  1
  O  O111  1  0.47277167  0.75100132  0.47753128  1
