# generated using pymatgen
data_NaVPO4F
_symmetry_space_group_name_H-M   'P 1'
_cell_length_a   6.37621637
_cell_length_b   10.79749761
_cell_length_c   12.88533540
_cell_angle_alpha   90.00000000
_cell_angle_beta   90.00000000
_cell_angle_gamma   90.00000000
_symmetry_Int_Tables_number   1
_chemical_formula_structural   NaVPO4F
_chemical_formula_sum   'Na8 V8 P8 O32 F8'
_cell_volume   887.11901873
_cell_formula_units_Z   8
loop_
 _symmetry_equiv_pos_site_id
 _symmetry_equiv_pos_as_xyz
  1  'x, y, z'
loop_
 _atom_site_type_symbol
 _atom_site_label
 _atom_site_symmetry_multiplicity
 _atom_site_fract_x
 _atom_site_fract_y
 _atom_site_fract_z
 _atom_site_occupancy
  Na  Na0  1  0.77345709  0.27838240  0.35571371  1
  Na  Na1  1  0.22654291  0.77838240  0.64428629  1
  Na  Na2  1  0.72654291  0.27838240  0.85571371  1
  Na  Na3  1  0.27345709  0.77838240  0.14428629  1
  Na  Na4  1  0.79416301  0.04785682  0.10339662  1
  Na  Na5  1  0.20583699  0.54785682  0.89660338  1
  Na  Na6  1  0.70583699  0.04785682  0.60339662  1
  Na  Na7  1  0.29416301  0.54785682  0.39660338  1
  V  V8  1  0.49919655  0.00635844  0.38275850  1
  V  V9  1  0.50080345  0.50635844  0.61724150  1
  V  V10  1  0.00080345  0.00635844  0.88275850  1
  V  V11  1  0.99919655  0.50635844  0.11724150  1
  V  V12  1  0.25057611  0.25090254  0.24149539  1
  V  V13  1  0.74942389  0.75090254  0.75850461  1
  V  V14  1  0.24942389  0.25090254  0.74149539  1
  V  V15  1  0.75057611  0.75090254  0.25850461  1
  P  P16  1  0.33934872  0.26415990  0.49168744  1
  P  P17  1  0.66065128  0.76415990  0.50831256  1
  P  P18  1  0.16065128  0.26415990  0.99168744  1
  P  P19  1  0.83934872  0.76415990  0.00831256  1
  P  P20  1  0.50167886  0.50533141  0.18288882  1
  P  P21  1  0.49832114  0.00533141  0.81711118  1
  P  P22  1  0.99832114  0.50533141  0.68288882  1
  P  P23  1  0.00167886  0.00533141  0.31711118  1
  O  O24  1  0.50457657  0.15933386  0.47721497  1
  O  O25  1  0.49542343  0.65933386  0.52278503  1
  O  O26  1  0.99542343  0.15933386  0.97721497  1
  O  O27  1  0.00457657  0.65933386  0.02278503  1
  O  O28  1  0.46744630  0.38762084  0.49847571  1
  O  O29  1  0.53255370  0.88762184  0.50152429  1
  O  O30  1  0.03255370  0.38762084  0.99847571  1
  O  O31  1  0.96744630  0.88762184  0.00152429  1
  O  O32  1  0.19233227  0.27431353  0.39591352  1
  O  O33  1  0.80766773  0.77431353  0.60408648  1
  O  O34  1  0.30766773  0.27431353  0.89591352  1
  O  O35  1  0.69233227  0.77431353  0.10408648  1
  O  O36  1  0.20513665  0.24058804  0.58914830  1
  O  O37  1  0.79486335  0.74058804  0.41085170  1
  O  O38  1  0.29486335  0.24058804  0.08914830  1
  O  O39  1  0.70513665  0.74058804  0.91085170  1
  O  O40  1  0.31039806  0.53389490  0.11310741  1
  O  O41  1  0.68960194  0.03389490  0.88689259  1
  O  O42  1  0.18960194  0.53389490  0.61310741  1
  O  O43  1  0.81039806  0.03389490  0.38689259  1
  O  O44  1  0.69278148  0.48848223  0.11250006  1
  O  O45  1  0.30721852  0.98848223  0.88749994  1
  O  O46  1  0.80721852  0.48848223  0.61250006  1
  O  O47  1  0.19278148  0.98848223  0.38749994  1
  O  O48  1  0.52880148  0.61728386  0.25917361  1
  O  O49  1  0.47119852  0.11728386  0.74082639  1
  O  O50  1  0.97119852  0.61728386  0.75917361  1
  O  O51  1  0.02880148  0.11728386  0.24082639  1
  O  O52  1  0.46333829  0.38978969  0.25288037  1
  O  O53  1  0.53666171  0.88978969  0.74711963  1
  O  O54  1  0.03666171  0.38978969  0.75288037  1
  O  O55  1  0.96333829  0.88978969  0.24711963  1
  F  F56  1  0.50941665  0.87275248  0.27302109  1
  F  F57  1  0.49058335  0.37275248  0.72697891  1
  F  F58  1  0.99058335  0.87275248  0.77302109  1
  F  F59  1  0.00941665  0.37275248  0.22697891  1
  F  F60  1  0.49148770  0.12794906  0.26137737  1
  F  F61  1  0.50851230  0.62794906  0.73862263  1
  F  F62  1  0.00851230  0.12794906  0.76137737  1
  F  F63  1  0.99148770  0.62794906  0.23862263  1
