# generated using pymatgen
data_Pt(CN)2
_symmetry_space_group_name_H-M   'P 1'
_cell_length_a   8.28091248
_cell_length_b   7.00891104
_cell_length_c   13.26817108
_cell_angle_alpha   89.99999965
_cell_angle_beta   36.76187007
_cell_angle_gamma   64.96342127
_symmetry_Int_Tables_number   1
_chemical_formula_structural   Pt(CN)2
_chemical_formula_sum   'Pt4 C8 N8'
_cell_volume   325.89830785
_cell_formula_units_Z   4
loop_
 _symmetry_equiv_pos_site_id
 _symmetry_equiv_pos_as_xyz
  1  'x, y, z'
loop_
 _atom_site_type_symbol
 _atom_site_label
 _atom_site_symmetry_multiplicity
 _atom_site_fract_x
 _atom_site_fract_y
 _atom_site_fract_z
 _atom_site_occupancy
  Pt  Pt0  1  0.50000000  0.03307516  0.12500000  1
  Pt  Pt1  1  0.50000000  0.96692484  0.62500000  1
  Pt  Pt2  1  0.56615032  0.46692484  0.34192484  1
  Pt  Pt3  1  0.43384968  0.53307516  0.90807516  1
  C  C4  1  0.96727866  0.26514917  0.34136708  1
  C  C5  1  0.03272134  0.73242783  0.90863292  1
  C  C6  1  0.03272134  0.73485083  0.30864574  1
  C  C7  1  0.96727866  0.26757217  0.94135426  1
  C  C8  1  0.49757701  0.76757217  0.42620509  1
  C  C9  1  0.50242299  0.76514917  0.82379491  1
  C  C10  1  0.50242299  0.23242783  0.92378210  1
  C  C11  1  0.49757701  0.23485083  0.32621790  1
  N  N12  1  0.71412442  0.35582819  0.41279467  1
  N  N13  1  0.28587558  0.56995261  0.83720533  1
  N  N14  1  0.28587558  0.64417181  0.12691909  1
  N  N15  1  0.71412442  0.43004739  0.12308091  1
  N  N16  1  0.42578080  0.93004739  0.51725272  1
  N  N17  1  0.57421920  0.85582819  0.73274728  1
  N  N18  1  0.57421920  0.06995261  0.94303352  1
  N  N19  1  0.42578080  0.14417181  0.30696648  1
