# generated using pymatgen
data_Cs2V2Cu(ClO3)2
_symmetry_space_group_name_H-M   'P 1'
_cell_length_a   8.32100505
_cell_length_b   8.32100505
_cell_length_c   35.08534867
_cell_angle_alpha   90.00000000
_cell_angle_beta   90.00000000
_cell_angle_gamma   90.00000000
_symmetry_Int_Tables_number   1
_chemical_formula_structural   Cs2V2Cu(ClO3)2
_chemical_formula_sum   'Cs16 V16 Cu8 Cl16 O48'
_cell_volume   2429.27884371
_cell_formula_units_Z   8
loop_
 _symmetry_equiv_pos_site_id
 _symmetry_equiv_pos_as_xyz
  1  'x, y, z'
loop_
 _atom_site_type_symbol
 _atom_site_label
 _atom_site_symmetry_multiplicity
 _atom_site_fract_x
 _atom_site_fract_y
 _atom_site_fract_z
 _atom_site_occupancy
  Cs  Cs0  1  0.47676318  0.28132048  0.68988444  1
  Cs  Cs1  1  0.52323682  0.71867952  0.18988444  1
  Cs  Cs2  1  0.78132048  0.02323682  0.43988444  1
  Cs  Cs3  1  0.21867952  0.97676318  0.93988444  1
  Cs  Cs4  1  0.71867952  0.52323682  0.81011556  1
  Cs  Cs5  1  0.28132048  0.47676318  0.31011556  1
  Cs  Cs6  1  0.02323682  0.78132048  0.56011556  1
  Cs  Cs7  1  0.97676318  0.21867952  0.06011556  1
  Cs  Cs8  1  0.97788816  0.77022774  0.68799028  1
  Cs  Cs9  1  0.02211184  0.22977226  0.18799028  1
  Cs  Cs10  1  0.27022774  0.52211184  0.43799028  1
  Cs  Cs11  1  0.72977226  0.47788816  0.93799028  1
  Cs  Cs12  1  0.22977226  0.02211184  0.81200972  1
  Cs  Cs13  1  0.77022774  0.97788816  0.31200972  1
  Cs  Cs14  1  0.52211184  0.27022774  0.56200972  1
  Cs  Cs15  1  0.47788816  0.72977226  0.06200972  1
  V  V16  1  0.47050720  0.77703149  0.72357636  1
  V  V17  1  0.52949280  0.22296851  0.22357636  1
  V  V18  1  0.27703149  0.02949280  0.47357636  1
  V  V19  1  0.72296851  0.97050720  0.97357636  1
  V  V20  1  0.22296851  0.52949280  0.77642364  1
  V  V21  1  0.77703149  0.47050720  0.27642364  1
  V  V22  1  0.02949280  0.27703149  0.52642364  1
  V  V23  1  0.97050720  0.72296851  0.02642364  1
  V  V24  1  -0.01101237  0.26398631  0.72579567  1
  V  V25  1  0.01101237  0.73601369  0.22579567  1
  V  V26  1  0.76398631  0.51101237  0.47579567  1
  V  V27  1  0.23601369  0.48898763  0.97579567  1
  V  V28  1  0.73601369  0.01101237  0.77420433  1
  V  V29  1  0.26398631  -0.01101237  0.27420433  1
  V  V30  1  0.51101237  0.76398631  0.52420433  1
  V  V31  1  0.48898763  0.23601369  0.02420433  1
  Cu  Cu32  1  0.48831662  0.74275343  0.62239728  1
  Cu  Cu33  1  0.51168338  0.25724657  0.12239728  1
  Cu  Cu34  1  0.24275343  0.01168338  0.37239728  1
  Cu  Cu35  1  0.75724657  0.98831662  0.87239728  1
  Cu  Cu36  1  0.25724657  0.51168338  0.87760272  1
  Cu  Cu37  1  0.74275343  0.48831662  0.37760272  1
  Cu  Cu38  1  0.01168338  0.24275343  0.62760272  1
  Cu  Cu39  1  0.98831662  0.75724657  0.12760272  1
  Cl  Cl40  1  0.31533200  0.95374975  0.62452231  1
  Cl  Cl41  1  0.68466800  0.04625025  0.12452231  1
  Cl  Cl42  1  0.45374975  0.18466800  0.37452231  1
  Cl  Cl43  1  0.54625025  0.81533200  0.87452231  1
  Cl  Cl44  1  0.04625025  0.68466800  0.87547769  1
  Cl  Cl45  1  0.95374975  0.31533200  0.37547769  1
  Cl  Cl46  1  0.18466800  0.45374975  0.62547769  1
  Cl  Cl47  1  0.81533200  0.54625025  0.12547769  1
  Cl  Cl48  1  0.79405838  0.07666818  0.63257640  1
  Cl  Cl49  1  0.20594162  0.92333182  0.13257640  1
  Cl  Cl50  1  0.57666818  0.70594162  0.38257640  1
  Cl  Cl51  1  0.42333182  0.29405838  0.88257640  1
  Cl  Cl52  1  0.92333182  0.20594162  0.86742360  1
  Cl  Cl53  1  0.07666818  0.79405838  0.36742360  1
  Cl  Cl54  1  0.70594162  0.57666818  0.61742360  1
  Cl  Cl55  1  0.29405838  0.42333182  0.11742360  1
  O  O56  1  0.91684936  0.08315064  0.75000000  1
  O  O57  1  0.08315064  0.91684936  0.25000000  1
  O  O58  1  0.58315064  0.58315064  0.50000000  1
  O  O59  1  0.41684936  0.41684936  0.00000000  1
  O  O60  1  0.15780323  0.34224226  0.75376349  1
  O  O61  1  0.84219677  0.65775774  0.25376349  1
  O  O62  1  0.84224226  0.34219677  0.50376349  1
  O  O63  1  0.15775774  0.65780323  0.00376349  1
  O  O64  1  0.65775774  0.84219677  0.74623651  1
  O  O65  1  0.34224226  0.15780323  0.24623651  1
  O  O66  1  0.34219677  0.84224226  0.49623651  1
  O  O67  1  0.65780323  0.15775774  0.99623651  1
  O  O68  1  0.39908513  0.60091487  0.75000000  1
  O  O69  1  0.60091487  0.39908513  0.25000000  1
  O  O70  1  0.10091487  0.10091487  0.50000000  1
  O  O71  1  0.89908513  0.89908513  0.00000000  1
  O  O72  1  0.50517195  0.72287221  0.67736439  1
  O  O73  1  0.49482805  0.27712779  0.17736439  1
  O  O74  1  0.22287221  -0.00517195  0.42736439  1
  O  O75  1  0.77712779  0.00517195  0.92736439  1
  O  O76  1  0.27712779  0.49482805  0.82263561  1
  O  O77  1  0.72287221  0.50517195  0.32263561  1
  O  O78  1  -0.00517195  0.22287221  0.57263561  1
  O  O79  1  0.00517195  0.77712779  0.07263561  1
  O  O80  1  0.05667577  0.21407416  0.68126016  1
  O  O81  1  0.94332423  0.78592584  0.18126016  1
  O  O82  1  0.71407416  0.44332423  0.43126016  1
  O  O83  1  0.28592584  0.55667577  0.93126016  1
  O  O84  1  0.78592584  0.94332423  0.81873984  1
  O  O85  1  0.21407416  0.05667577  0.31873984  1
  O  O86  1  0.44332423  0.71407416  0.56873984  1
  O  O87  1  0.55667577  0.28592584  0.06873984  1
  O  O88  1  0.33570156  0.92226211  0.72641025  1
  O  O89  1  0.66429844  0.07773789  0.22641025  1
  O  O90  1  0.42226211  0.16429844  0.47641025  1
  O  O91  1  0.57773789  0.83570156  0.97641025  1
  O  O92  1  0.07773789  0.66429844  0.77358975  1
  O  O93  1  0.92226211  0.33570156  0.27358975  1
  O  O94  1  0.16429844  0.42226211  0.52358975  1
  O  O95  1  0.83570156  0.57773789  0.02358975  1
  O  O96  1  0.84412625  0.39964429  0.72381861  1
  O  O97  1  0.15587375  0.60035571  0.22381861  1
  O  O98  1  0.89964429  0.65587375  0.47381861  1
  O  O99  1  0.10035571  0.34412625  0.97381861  1
  O  O100  1  0.60035571  0.15587375  0.77618139  1
  O  O101  1  0.39964429  0.84412625  0.27618139  1
  O  O102  1  0.65587375  0.89964429  0.52618139  1
  O  O103  1  0.34412625  0.10035571  0.02618139  1
