# generated using pymatgen
data_NaNbO3
_symmetry_space_group_name_H-M   'P 1'
_cell_length_a   5.38042894
_cell_length_b   5.38042873
_cell_length_c   6.02546547
_cell_angle_alpha   63.48231100
_cell_angle_beta   63.48231063
_cell_angle_gamma   59.99998666
_symmetry_Int_Tables_number   1
_chemical_formula_structural   NaNbO3
_chemical_formula_sum   'Na2 Nb2 O6'
_cell_volume   129.43938864
_cell_formula_units_Z   2
loop_
 _symmetry_equiv_pos_site_id
 _symmetry_equiv_pos_as_xyz
  1  'x, y, z'
loop_
 _atom_site_type_symbol
 _atom_site_label
 _atom_site_symmetry_multiplicity
 _atom_site_fract_x
 _atom_site_fract_y
 _atom_site_fract_z
 _atom_site_occupancy
  Na  Na0  1  0.35756965  0.35756965  0.92728906  1
  Na  Na1  1  0.64243035  0.64243035  0.07271094  1
  Nb  Nb2  1  0.14745865  0.14745865  0.55762306  1
  Nb  Nb3  1  0.85254135  0.85254135  0.44237694  1
  O  O4  1  0.96856316  0.19033599  0.28002945  1
  O  O5  1  0.19033599  0.56107241  0.28002945  1
  O  O6  1  0.56107241  0.96856316  0.28002945  1
  O  O7  1  0.03143684  0.80966401  0.71997055  1
  O  O8  1  0.80966401  0.43892759  0.71997055  1
  O  O9  1  0.43892759  0.03143684  0.71997055  1
