# generated using pymatgen
data_MgCo(Si2O5)2
_symmetry_space_group_name_H-M   'P 1'
_cell_length_a   7.31339500
_cell_length_b   7.31339500
_cell_length_c   14.92495000
_cell_angle_alpha   90.00000000
_cell_angle_beta   90.00000000
_cell_angle_gamma   90.00000000
_symmetry_Int_Tables_number   1
_chemical_formula_structural   MgCo(Si2O5)2
_chemical_formula_sum   'Mg4 Co4 Si16 O40'
_cell_volume   798.27209112
_cell_formula_units_Z   4
loop_
 _symmetry_equiv_pos_site_id
 _symmetry_equiv_pos_as_xyz
  1  'x, y, z'
loop_
 _atom_site_type_symbol
 _atom_site_label
 _atom_site_symmetry_multiplicity
 _atom_site_fract_x
 _atom_site_fract_y
 _atom_site_fract_z
 _atom_site_occupancy
  Mg  Mg0  1  0.25000000  0.75000000  0.50000000  1
  Mg  Mg1  1  0.75000000  0.25000000  0.50000000  1
  Mg  Mg2  1  0.75000000  0.25000000  0.00000000  1
  Mg  Mg3  1  0.25000000  0.75000000  0.00000000  1
  Co  Co4  1  0.25000000  0.25000000  0.57117300  1
  Co  Co5  1  0.75000000  0.75000000  0.92882700  1
  Co  Co6  1  0.75000000  0.75000000  0.42882700  1
  Co  Co7  1  0.25000000  0.25000000  0.07117300  1
  Si  Si8  1  0.91379200  0.49209400  0.64476300  1
  Si  Si9  1  0.58620800  0.00790600  0.64476300  1
  Si  Si10  1  0.99209400  0.41379200  0.85523700  1
  Si  Si11  1  0.49209400  0.58620800  0.64476300  1
  Si  Si12  1  0.00790600  0.91379200  0.64476300  1
  Si  Si13  1  0.08620800  0.99209400  0.85523700  1
  Si  Si14  1  0.41379200  0.50790600  0.85523700  1
  Si  Si15  1  0.50790600  0.08620800  0.85523700  1
  Si  Si16  1  0.08620800  0.50790600  0.35523700  1
  Si  Si17  1  0.41379200  0.99209400  0.35523700  1
  Si  Si18  1  0.00790600  0.58620800  0.14476300  1
  Si  Si19  1  0.50790600  0.41379200  0.35523700  1
  Si  Si20  1  0.99209400  0.08620800  0.35523700  1
  Si  Si21  1  0.91379200  0.00790600  0.14476300  1
  Si  Si22  1  0.58620800  0.49209400  0.14476300  1
  Si  Si23  1  0.49209400  0.91379200  0.14476300  1
  O  O24  1  0.98468900  0.33695300  0.57572700  1
  O  O25  1  0.51531100  0.16304700  0.57572700  1
  O  O26  1  0.83695300  0.48468900  0.92427300  1
  O  O27  1  0.33695300  0.51531100  0.57572700  1
  O  O28  1  0.16304700  0.98468900  0.57572700  1
  O  O29  1  0.01531100  0.83695300  0.92427300  1
  O  O30  1  0.48468900  0.66304700  0.92427300  1
  O  O31  1  0.66304700  0.01531100  0.92427300  1
  O  O32  1  0.01531100  0.66304700  0.42427300  1
  O  O33  1  0.48468900  0.83695300  0.42427300  1
  O  O34  1  0.16304700  0.51531100  0.07572700  1
  O  O35  1  0.66304700  0.48468900  0.42427300  1
  O  O36  1  0.83695300  0.01531100  0.42427300  1
  O  O37  1  0.98468900  0.16304700  0.07572700  1
  O  O38  1  0.51531100  0.33695300  0.07572700  1
  O  O39  1  0.00058200  0.30612700  0.37571000  1
  O  O40  1  0.33695300  0.98468900  0.07572700  1
  O  O41  1  0.50058200  0.80612700  0.62429100  1
  O  O42  1  0.19387300  0.49941800  0.87570900  1
  O  O43  1  0.69387300  0.50058200  0.62429100  1
  O  O44  1  0.80612700  0.99941800  0.62429100  1
  O  O45  1  0.00058200  0.19387300  0.87570900  1
  O  O46  1  0.49941800  0.30612700  0.87570900  1
  O  O47  1  0.30612700  0.00058200  0.87570900  1
  O  O48  1  0.44768300  0.94768300  0.25000000  1
  O  O49  1  0.55231700  0.44768300  0.25000000  1
  O  O50  1  0.94768300  0.05231800  0.25000000  1
  O  O51  1  0.05231800  0.55231700  0.25000000  1
  O  O52  1  0.55231700  0.05231800  0.75000000  1
  O  O53  1  0.44768300  0.55231700  0.75000000  1
  O  O54  1  0.05231800  0.94768300  0.75000000  1
  O  O55  1  0.94768300  0.44768300  0.75000000  1
  O  O56  1  0.69387300  0.99941800  0.12429100  1
  O  O57  1  0.50058200  0.69387300  0.12429100  1
  O  O58  1  0.99941800  0.80612700  0.12429100  1
  O  O59  1  0.19387300  0.00058200  0.37571000  1
  O  O60  1  0.30612700  0.49941800  0.37571000  1
  O  O61  1  0.80612700  0.50058200  0.12429100  1
  O  O62  1  0.49941800  0.19387300  0.37571000  1
  O  O63  1  0.99941800  0.69387300  0.62429100  1
