# generated using pymatgen
data_Ba2MgMo4(P2O7)4
_symmetry_space_group_name_H-M   'P 1'
_cell_length_a   7.90603328
_cell_length_b   7.82495031
_cell_length_c   10.26516190
_cell_angle_alpha   81.56429498
_cell_angle_beta   80.57340976
_cell_angle_gamma   90.29845600
_symmetry_Int_Tables_number   1
_chemical_formula_structural   Ba2MgMo4(P2O7)4
_chemical_formula_sum   'Ba2 Mg1 Mo4 P8 O28'
_cell_volume   619.41580281
_cell_formula_units_Z   1
loop_
 _symmetry_equiv_pos_site_id
 _symmetry_equiv_pos_as_xyz
  1  'x, y, z'
loop_
 _atom_site_type_symbol
 _atom_site_label
 _atom_site_symmetry_multiplicity
 _atom_site_fract_x
 _atom_site_fract_y
 _atom_site_fract_z
 _atom_site_occupancy
  Ba  Ba0  1  0.02073628  0.44426397  0.11453357  1
  Ba  Ba1  1  0.50197288  0.01004501  0.49067731  1
  Mg  Mg2  1  0.98181563  0.65752841  0.78547833  1
  Mo  Mo3  1  0.00272295  0.00854575  0.49173934  1
  Mo  Mo4  1  0.00850414  0.00113834  0.99182877  1
  Mo  Mo5  1  0.45582215  0.52834600  0.25501727  1
  Mo  Mo6  1  0.54484324  0.47549072  0.74039595  1
  P  P7  1  0.80056303  0.75681764  0.29200853  1
  P  P8  1  0.30623642  0.14037875  0.19185353  1
  P  P9  1  0.19910212  0.25407309  0.69835310  1
  P  P10  1  0.69423836  0.85661347  0.80661741  1
  P  P11  1  0.76048668  0.39139510  0.44277586  1
  P  P12  1  0.65286384  0.26871893  0.03539697  1
  P  P13  1  0.24076421  0.61721592  0.55353146  1
  P  P14  1  0.35294412  0.72808385  0.96307113  1
  O  O15  1  0.92066613  0.79410378  0.15737819  1
  O  O16  1  0.29116265  0.00238966  0.31248793  1
  O  O17  1  0.08381628  0.20661439  0.83223933  1
  O  O18  1  0.66231255  0.99078904  0.69452533  1
  O  O19  1  0.60980949  0.74371401  0.28328481  1
  O  O20  1  0.28960564  0.32455388  0.23022739  1
  O  O21  1  0.39081858  0.26968538  0.70225612  1
  O  O22  1  0.72454390  0.67367695  0.76341852  1
  O  O23  1  0.82433317  0.87442800  0.39386680  1
  O  O24  1  0.17395966  0.12498180  0.09975254  1
  O  O25  1  0.17638326  0.14262368  0.59166040  1
  O  O26  1  0.85846101  0.88430310  0.86594707  1
  O  O27  1  0.85878570  0.56054841  0.34531897  1
  O  O28  1  0.49769047  0.13300661  0.10776130  1
  O  O29  1  0.31880857  0.68071006  0.11525929  1
  O  O30  1  0.25709521  0.59215594  0.40910316  1
  O  O31  1  0.64576930  0.30303312  0.88756463  1
  O  O32  1  0.74461153  0.42248197  0.58598556  1
  O  O33  1  0.36698486  0.56488840  0.89592798  1
  O  O34  1  0.41368230  0.64709287  0.59897828  1
  O  O35  1  0.64254844  0.43162311  0.10496250  1
  O  O36  1  0.13778303  0.45210916  0.65068119  1
  O  O37  1  0.21167481  0.84212575  0.91434011  1
  O  O38  1  0.11342756  0.75977946  0.59315777  1
  O  O39  1  0.81555435  0.17357079  0.06597739  1
  O  O40  1  0.87749274  0.24468025  0.40695181  1
  O  O41  1  0.53351167  0.83736248  0.92717368  1
  O  O42  1  0.58509110  0.36764697  0.39803242  1
