# generated using pymatgen
data_K2TbCl5
_symmetry_space_group_name_H-M   'P 1'
_cell_length_a   7.93525029
_cell_length_b   8.56253491
_cell_length_c   12.67358610
_cell_angle_alpha   90.00000000
_cell_angle_beta   90.00000000
_cell_angle_gamma   90.00000000
_symmetry_Int_Tables_number   1
_chemical_formula_structural   K2TbCl5
_chemical_formula_sum   'K8 Tb4 Cl20'
_cell_volume   861.11767678
_cell_formula_units_Z   4
loop_
 _symmetry_equiv_pos_site_id
 _symmetry_equiv_pos_as_xyz
  1  'x, y, z'
loop_
 _atom_site_type_symbol
 _atom_site_label
 _atom_site_symmetry_multiplicity
 _atom_site_fract_x
 _atom_site_fract_y
 _atom_site_fract_z
 _atom_site_occupancy
  K  K0  1  0.94689886  0.00403412  0.82801705  1
  K  K1  1  0.05310114  0.99596588  0.17198295  1
  K  K2  1  0.44689886  0.99596588  0.67198295  1
  K  K3  1  0.05310114  0.50403412  0.17198295  1
  K  K4  1  0.55310114  0.00403412  0.32801705  1
  K  K5  1  0.94689886  0.49596588  0.82801705  1
  K  K6  1  0.55310114  0.49596588  0.32801705  1
  K  K7  1  0.44689886  0.50403412  0.67198295  1
  Tb  Tb8  1  0.92487035  0.75000000  0.50481989  1
  Tb  Tb9  1  0.07512965  0.25000000  0.49518011  1
  Tb  Tb10  1  0.42487035  0.25000000  0.99518011  1
  Tb  Tb11  1  0.57512965  0.75000000  0.00481989  1
  Cl  Cl12  1  0.12231603  0.75000000  0.67667945  1
  Cl  Cl13  1  0.87768397  0.25000000  0.32332055  1
  Cl  Cl14  1  0.62231603  0.25000000  0.82332055  1
  Cl  Cl15  1  0.37768397  0.75000000  0.17667945  1
  Cl  Cl16  1  0.83676365  0.04313781  0.57482360  1
  Cl  Cl17  1  0.16323635  0.95686219  0.42517640  1
  Cl  Cl18  1  0.33676365  0.95686219  0.92517640  1
  Cl  Cl19  1  0.16323635  0.54313781  0.42517640  1
  Cl  Cl20  1  0.66323635  0.04313781  0.07482360  1
  Cl  Cl21  1  0.83676365  0.45686219  0.57482360  1
  Cl  Cl22  1  0.66323635  0.45686219  0.07482360  1
  Cl  Cl23  1  0.33676365  0.54313781  0.92517640  1
  Cl  Cl24  1  0.58285768  0.75000000  0.51023303  1
  Cl  Cl25  1  0.41714232  0.25000000  0.48976697  1
  Cl  Cl26  1  0.08285768  0.25000000  0.98976697  1
  Cl  Cl27  1  0.91714232  0.75000000  0.01023303  1
  Cl  Cl28  1  0.65998805  0.75000000  0.79921323  1
  Cl  Cl29  1  0.34001195  0.25000000  0.20078677  1
  Cl  Cl30  1  0.15998805  0.25000000  0.70078677  1
  Cl  Cl31  1  0.84001195  0.75000000  0.29921323  1
