# generated using pymatgen
data_DyCrTeO6
_symmetry_space_group_name_H-M   'P 1'
_cell_length_a   5.11654733
_cell_length_b   5.11654742
_cell_length_c   9.69640800
_cell_angle_alpha   90.00000000
_cell_angle_beta   90.00000000
_cell_angle_gamma   119.99999938
_symmetry_Int_Tables_number   1
_chemical_formula_structural   DyCrTeO6
_chemical_formula_sum   'Dy2 Cr2 Te2 O12'
_cell_volume   219.83433028
_cell_formula_units_Z   2
loop_
 _symmetry_equiv_pos_site_id
 _symmetry_equiv_pos_as_xyz
  1  'x, y, z'
loop_
 _atom_site_type_symbol
 _atom_site_label
 _atom_site_symmetry_multiplicity
 _atom_site_fract_x
 _atom_site_fract_y
 _atom_site_fract_z
 _atom_site_occupancy
  Dy  Dy0  1  -0.00000000  -0.00000000  0.50000000  1
  Dy  Dy1  1  -0.00000000  -0.00000000  -0.00000000  1
  Cr  Cr2  1  0.33333300  0.66666700  0.25000000  1
  Cr  Cr3  1  0.66666700  0.33333300  0.75000000  1
  Te  Te4  1  0.33333300  0.66666700  0.75000000  1
  Te  Te5  1  0.66666700  0.33333300  0.25000000  1
  O  O6  1  0.64316925  0.63432144  0.35996239  1
  O  O7  1  0.99115219  0.35683075  0.35996239  1
  O  O8  1  0.36567856  0.00884781  0.35996239  1
  O  O9  1  0.35683075  0.36567856  0.64003761  1
  O  O10  1  0.00884781  0.64316925  0.64003761  1
  O  O11  1  0.63432144  0.99115219  0.64003761  1
  O  O12  1  0.36567856  0.35683075  0.14003761  1
  O  O13  1  0.99115219  0.63432144  0.14003761  1
  O  O14  1  0.64316925  0.00884781  0.14003761  1
  O  O15  1  0.63432144  0.64316925  0.85996239  1
  O  O16  1  0.00884781  0.36567856  0.85996239  1
  O  O17  1  0.35683075  0.99115219  0.85996239  1
