# generated using pymatgen
data_CaGeO3
_symmetry_space_group_name_H-M   'P 1'
_cell_length_a   7.31461639
_cell_length_b   7.55744930
_cell_length_c   8.14743083
_cell_angle_alpha   103.48197014
_cell_angle_beta   94.72958118
_cell_angle_gamma   90.10958549
_symmetry_Int_Tables_number   1
_chemical_formula_structural   CaGeO3
_chemical_formula_sum   'Ca6 Ge6 O18'
_cell_volume   436.38233201
_cell_formula_units_Z   6
loop_
 _symmetry_equiv_pos_site_id
 _symmetry_equiv_pos_as_xyz
  1  'x, y, z'
loop_
 _atom_site_type_symbol
 _atom_site_label
 _atom_site_symmetry_multiplicity
 _atom_site_fract_x
 _atom_site_fract_y
 _atom_site_fract_z
 _atom_site_occupancy
  Ca  Ca0  1  0.96943924  0.24666172  0.98744963  1
  Ca  Ca1  1  0.03056076  0.75333828  0.01255037  1
  Ca  Ca2  1  0.26152946  0.92681514  0.70903131  1
  Ca  Ca3  1  0.73847054  0.07318486  0.29096869  1
  Ca  Ca4  1  0.25868734  0.42690188  0.70788688  1
  Ca  Ca5  1  0.74131266  0.57309812  0.29211312  1
  Ge  Ge6  1  0.22248395  0.05587095  0.32203028  1
  Ge  Ge7  1  0.77751605  0.94412905  0.67796972  1
  Ge  Ge8  1  0.22491163  0.60666371  0.31899672  1
  Ge  Ge9  1  0.77508837  0.39333629  0.68100328  1
  Ge  Ge10  1  0.44659812  0.27438240  0.09473786  1
  Ge  Ge11  1  0.55340188  0.72561760  0.90526214  1
  O  O12  1  0.74042560  0.18014437  0.72898504  1
  O  O13  1  0.25957440  0.81985563  0.27101496  1
  O  O14  1  0.77047835  0.37233783  0.46719713  1
  O  O15  1  0.22952165  0.62766217  0.53280287  1
  O  O16  1  0.77408361  0.86255282  0.46217692  1
  O  O17  1  0.22591639  0.13744718  0.53782308  1
  O  O18  1  0.58112778  0.87098634  0.76221849  1
  O  O19  1  0.41887222  0.12901366  0.23778151  1
  O  O20  1  0.97375047  0.92669859  0.80833580  1
  O  O21  1  0.02624953  0.07330141  0.19166420  1
  O  O22  1  0.57904986  0.50334377  0.77236660  1
  O  O23  1  0.42095014  0.49665623  0.22763340  1
  O  O24  1  0.68343309  0.27164353  0.09602162  1
  O  O25  1  0.31656691  0.72835647  0.90397838  1
  O  O26  1  0.28899116  0.22660581  0.91933431  1
  O  O27  1  0.71100884  0.77339419  0.08066569  1
  O  O28  1  0.02798502  0.52422824  0.18828587  1
  O  O29  1  0.97201498  0.47577176  0.81171413  1
