# generated using pymatgen
data_Dy2Mo4O15
_symmetry_space_group_name_H-M   'P 1'
_cell_length_a   9.59017263
_cell_length_b   6.79983707
_cell_length_c   10.56870552
_cell_angle_alpha   74.63350620
_cell_angle_beta   90.00000000
_cell_angle_gamma   90.00000000
_symmetry_Int_Tables_number   1
_chemical_formula_structural   Dy2Mo4O15
_chemical_formula_sum   'Dy4 Mo8 O30'
_cell_volume   664.56370269
_cell_formula_units_Z   2
loop_
 _symmetry_equiv_pos_site_id
 _symmetry_equiv_pos_as_xyz
  1  'x, y, z'
loop_
 _atom_site_type_symbol
 _atom_site_label
 _atom_site_symmetry_multiplicity
 _atom_site_fract_x
 _atom_site_fract_y
 _atom_site_fract_z
 _atom_site_occupancy
  Dy  Dy0  1  0.52323696  0.71193058  0.22368098  1
  Dy  Dy1  1  0.47676304  0.28806942  0.77631902  1
  Dy  Dy2  1  0.02323696  0.28806942  0.27631902  1
  Dy  Dy3  1  0.97676304  0.71193058  0.72368098  1
  Mo  Mo4  1  0.74363988  0.41837247  0.01108688  1
  Mo  Mo5  1  0.25636012  0.58162753  0.98891312  1
  Mo  Mo6  1  0.24363988  0.58162753  0.48891312  1
  Mo  Mo7  1  0.75636012  0.41837247  0.51108688  1
  Mo  Mo8  1  0.90456352  0.88019795  0.15606196  1
  Mo  Mo9  1  0.09543648  0.11980205  0.84393804  1
  Mo  Mo10  1  0.40456352  0.11980205  0.34393804  1
  Mo  Mo11  1  0.59543648  0.88019795  0.65606196  1
  O  O12  1  0.72337015  0.88843939  0.14758289  1
  O  O13  1  0.27662985  0.11156061  0.85241711  1
  O  O14  1  0.22337015  0.11156061  0.35241711  1
  O  O15  1  0.77662985  0.88843939  0.64758289  1
  O  O16  1  0.62683143  0.52213262  0.10316450  1
  O  O17  1  0.37316857  0.47786738  0.89683550  1
  O  O18  1  0.12683143  0.47786738  0.39683550  1
  O  O19  1  0.87316857  0.52213262  0.60316450  1
  O  O20  1  0.34735976  0.72043592  0.08109501  1
  O  O21  1  0.65264024  0.27956408  0.91890499  1
  O  O22  1  0.84735976  0.27956408  0.41890499  1
  O  O23  1  0.15264024  0.72043592  0.58109501  1
  O  O24  1  0.00000000  0.00000000  -0.00000000  1
  O  O25  1  0.50000000  0.00000000  0.50000000  1
  O  O26  1  0.66695402  0.61783492  0.40058284  1
  O  O27  1  0.33304598  0.38216508  0.59941716  1
  O  O28  1  0.16695402  0.38216508  0.09941716  1
  O  O29  1  0.83304598  0.61783492  0.90058284  1
  O  O30  1  0.97202859  0.94632547  0.29274712  1
  O  O31  1  0.02797141  0.05367453  0.70725288  1
  O  O32  1  0.47202859  0.05367453  0.20725288  1
  O  O33  1  0.52797141  0.94632547  0.79274712  1
  O  O34  1  0.94396347  0.62268021  0.18222136  1
  O  O35  1  0.05603653  0.37731979  0.81777864  1
  O  O36  1  0.44396347  0.37731979  0.31777864  1
  O  O37  1  0.55603653  0.62268021  0.68222136  1
  O  O38  1  0.86475529  0.25421122  0.11717657  1
  O  O39  1  0.13524471  0.74578878  0.88282343  1
  O  O40  1  0.36475529  0.74578878  0.38282343  1
  O  O41  1  0.63524471  0.25421122  0.61717657  1
