# generated using pymatgen
data_Ca3AsI3
_symmetry_space_group_name_H-M   'P 1'
_cell_length_a   10.82968565
_cell_length_b   10.82986115
_cell_length_c   10.82983122
_cell_angle_alpha   109.47146621
_cell_angle_beta   109.47086942
_cell_angle_gamma   109.47094750
_symmetry_Int_Tables_number   1
_chemical_formula_structural   Ca3AsI3
_chemical_formula_sum   'Ca12 As4 I12'
_cell_volume   977.77868802
_cell_formula_units_Z   4
loop_
 _symmetry_equiv_pos_site_id
 _symmetry_equiv_pos_as_xyz
  1  'x, y, z'
loop_
 _atom_site_type_symbol
 _atom_site_label
 _atom_site_symmetry_multiplicity
 _atom_site_fract_x
 _atom_site_fract_y
 _atom_site_fract_z
 _atom_site_occupancy
  Ca  Ca0  1  0.46954063  0.48477029  0.23477059  1
  Ca  Ca1  1  0.75000134  0.23477109  0.26523128  1
  Ca  Ca2  1  0.75000132  0.01523205  0.48477031  1
  Ca  Ca3  1  0.23477026  0.46954014  0.48476997  1
  Ca  Ca4  1  0.26523198  0.75000110  0.23477048  1
  Ca  Ca5  1  0.03046188  0.26523144  0.01523087  1
  Ca  Ca6  1  0.01523152  0.03046197  0.26523138  1
  Ca  Ca7  1  0.48477167  0.75000129  0.01523097  1
  Ca  Ca8  1  0.48477055  0.23477050  0.46954016  1
  Ca  Ca9  1  0.01523187  0.48477028  0.75000061  1
  Ca  Ca10  1  0.26523203  0.01523210  0.03046150  1
  Ca  Ca11  1  0.23477056  0.26523121  0.75000052  1
  As  As12  1  0.25000089  0.25000095  0.25000060  1
  As  As13  1  0.50000162  0.00000151  0.25000071  1
  As  As14  1  0.00000098  0.25000084  0.50000024  1
  As  As15  1  0.25000138  0.50000096  0.00000083  1
  I  I16  1  0.25000104  0.75319380  0.74680514  1
  I  I17  1  0.50638720  0.50319631  0.75319528  1
  I  I18  1  0.99361546  0.74680626  0.99680527  1
  I  I19  1  0.74680904  0.24998578  0.75317748  1
  I  I20  1  0.99680552  0.99361526  0.74680543  1
  I  I21  1  0.25000112  0.99680636  0.50319555  1
  I  I22  1  0.75319603  0.50638670  0.50319605  1
  I  I23  1  0.50316793  0.24998578  0.99680778  1
  I  I24  1  0.75317489  0.74680513  0.24999286  1
  I  I25  1  0.74680703  0.99680635  0.99361539  1
  I  I26  1  0.99681720  0.50319641  0.25000820  1
  I  I27  1  0.50319705  0.75319615  0.50638653  1
