# generated using pymatgen
data_Pb(IO3)2
_symmetry_space_group_name_H-M   'P 1'
_cell_length_a   6.95170149
_cell_length_b   7.09512990
_cell_length_c   13.23736186
_cell_angle_alpha   85.56023883
_cell_angle_beta   86.41353088
_cell_angle_gamma   63.12026229
_symmetry_Int_Tables_number   1
_chemical_formula_structural   Pb(IO3)2
_chemical_formula_sum   'Pb4 I8 O24'
_cell_volume   580.34106009
_cell_formula_units_Z   4
loop_
 _symmetry_equiv_pos_site_id
 _symmetry_equiv_pos_as_xyz
  1  'x, y, z'
loop_
 _atom_site_type_symbol
 _atom_site_label
 _atom_site_symmetry_multiplicity
 _atom_site_fract_x
 _atom_site_fract_y
 _atom_site_fract_z
 _atom_site_occupancy
  Pb  Pb0  1  0.97661906  0.84757348  0.86909821  1
  Pb  Pb1  1  0.02338094  0.15242652  0.13090179  1
  Pb  Pb2  1  0.96523933  0.32613064  0.62980988  1
  Pb  Pb3  1  0.03476067  0.67386936  0.37019012  1
  I  I4  1  0.65430608  0.96005225  0.61606634  1
  I  I5  1  0.34569392  0.03994775  0.38393366  1
  I  I6  1  0.33127180  0.60959956  0.61549369  1
  I  I7  1  0.66872820  0.39040044  0.38450631  1
  I  I8  1  0.32869436  0.14548275  0.87495835  1
  I  I9  1  0.67130564  0.85451725  0.12504165  1
  I  I10  1  0.67117319  0.49489539  0.88275108  1
  I  I11  1  0.32882681  0.50510461  0.11724892  1
  O  O12  1  0.90319620  0.93053111  0.66808400  1
  O  O13  1  0.09680380  0.06946889  0.33191600  1
  O  O14  1  0.73463871  0.94123838  0.48213978  1
  O  O15  1  0.26536129  0.05876162  0.51786022  1
  O  O16  1  0.67096420  0.69824825  0.64749310  1
  O  O17  1  0.32903580  0.30175175  0.35250690  1
  O  O18  1  0.57717353  0.36713831  0.58993728  1
  O  O19  1  0.42282647  0.63286169  0.41006272  1
  O  O20  1  0.29802234  0.55386422  0.74843789  1
  O  O21  1  0.70197766  0.44613578  0.25156211  1
  O  O22  1  0.14463970  0.53238232  0.56003314  1
  O  O23  1  0.85536030  0.46761768  0.43996686  1
  O  O24  1  0.58340381  0.90668933  0.89400957  1
  O  O25  1  0.41659619  0.09331067  0.10599043  1
  O  O26  1  0.27813513  0.08877346  0.75123680  1
  O  O27  1  0.72186487  0.91122654  0.24876320  1
  O  O28  1  0.15622128  0.05446092  0.94943403  1
  O  O29  1  0.84377872  0.94553908  0.05056597  1
  O  O30  1  0.92793920  0.48921277  0.83869618  1
  O  O31  1  0.07206080  0.51078723  0.16130382  1
  O  O32  1  0.72083841  0.45255911  0.01793089  1
  O  O33  1  0.27916159  0.54744089  0.98206911  1
  O  O34  1  0.71895252  0.23693572  0.84468820  1
  O  O35  1  0.28104748  0.76306428  0.15531180  1
