# generated using pymatgen
data_P
_symmetry_space_group_name_H-M   'P 1'
_cell_length_a   5.63511723
_cell_length_b   6.32565480
_cell_length_c   19.63243666
_cell_angle_alpha   90.00114453
_cell_angle_beta   89.99956569
_cell_angle_gamma   104.65521906
_symmetry_Int_Tables_number   1
_chemical_formula_structural   P
_chemical_formula_sum   P10
_cell_volume   677.04613638
_cell_formula_units_Z   10
loop_
 _symmetry_equiv_pos_site_id
 _symmetry_equiv_pos_as_xyz
  1  'x, y, z'
loop_
 _atom_site_type_symbol
 _atom_site_label
 _atom_site_symmetry_multiplicity
 _atom_site_fract_x
 _atom_site_fract_y
 _atom_site_fract_z
 _atom_site_occupancy
  P  P0  1  0.14579637  0.68959014  0.58739329  1
  P  P1  1  0.17229931  0.36139955  0.55702557  1
  P  P2  1  0.17229792  0.36139299  0.44297180  1
  P  P3  1  0.14580162  0.68958223  0.41260473  1
  P  P4  1  0.22712617  0.91279188  0.49999938  1
  P  P5  1  0.54286534  0.33045997  0.41311360  1
  P  P6  1  0.75654353  0.65858444  0.44200299  1
  P  P7  1  0.75654186  0.65858863  0.55799564  1
  P  P8  1  0.54286661  0.33047047  0.58688481  1
  P  P9  1  0.60848927  0.12512670  0.49999920  1
