# generated using pymatgen
data_Na2TiZn2SiO7
_symmetry_space_group_name_H-M   'P 1'
_cell_length_a   5.17906165
_cell_length_b   11.69168695
_cell_length_c   20.03764549
_cell_angle_alpha   90.00000000
_cell_angle_beta   90.00000000
_cell_angle_gamma   90.00000000
_symmetry_Int_Tables_number   1
_chemical_formula_structural   Na2TiZn2SiO7
_chemical_formula_sum   'Na16 Ti8 Zn16 Si8 O56'
_cell_volume   1213.31885862
_cell_formula_units_Z   8
loop_
 _symmetry_equiv_pos_site_id
 _symmetry_equiv_pos_as_xyz
  1  'x, y, z'
loop_
 _atom_site_type_symbol
 _atom_site_label
 _atom_site_symmetry_multiplicity
 _atom_site_fract_x
 _atom_site_fract_y
 _atom_site_fract_z
 _atom_site_occupancy
  Na  Na0  1  0.75253209  0.66387618  0.17315131  1
  Na  Na1  1  0.73227327  0.17753967  0.50379230  1
  Na  Na2  1  0.23227327  0.82246033  0.99620770  1
  Na  Na3  1  0.76772673  0.67753967  0.49620770  1
  Na  Na4  1  0.26772673  0.32246033  0.00379230  1
  Na  Na5  1  0.26772673  0.82246033  0.49620770  1
  Na  Na6  1  0.76772673  0.17753967  0.00379230  1
  Na  Na7  1  0.23227327  0.32246033  0.50379230  1
  Na  Na8  1  0.25253209  0.33612382  0.32684869  1
  Na  Na9  1  0.74746791  0.16387618  0.82684869  1
  Na  Na10  1  0.24746791  0.83612382  0.67315131  1
  Na  Na11  1  0.73227327  0.67753967  0.99620770  1
  Na  Na12  1  0.74746791  0.66387618  0.67315131  1
  Na  Na13  1  0.25253209  0.83612382  0.17315131  1
  Na  Na14  1  0.75253209  0.16387618  0.32684869  1
  Na  Na15  1  0.24746791  0.33612382  0.82684869  1
  Ti  Ti16  1  0.78584093  0.18302648  0.16400035  1
  Ti  Ti17  1  0.28584093  0.81697352  0.33599965  1
  Ti  Ti18  1  0.71415907  0.68302648  0.83599965  1
  Ti  Ti19  1  0.21415907  0.31697352  0.66400035  1
  Ti  Ti20  1  0.21415907  0.81697352  0.83599965  1
  Ti  Ti21  1  0.71415907  0.18302648  0.66400035  1
  Ti  Ti22  1  0.28584093  0.31697352  0.16400035  1
  Ti  Ti23  1  0.78584093  0.68302648  0.33599965  1
  Zn  Zn24  1  0.75284639  0.91848792  0.73994254  1
  Zn  Zn25  1  0.75284639  0.41848792  0.76005746  1
  Zn  Zn26  1  0.25284639  0.58151208  0.73994254  1
  Zn  Zn27  1  0.25284639  0.08151208  0.76005746  1
  Zn  Zn28  1  0.24715361  0.08151208  0.26005746  1
  Zn  Zn29  1  0.24715361  0.58151208  0.23994254  1
  Zn  Zn30  1  0.74715361  0.41848792  0.26005746  1
  Zn  Zn31  1  0.78592691  0.92439723  0.42990311  1
  Zn  Zn32  1  0.28592691  0.07560277  0.07009689  1
  Zn  Zn33  1  0.71407309  0.42439723  0.57009689  1
  Zn  Zn34  1  0.21407309  0.57560277  0.92990311  1
  Zn  Zn35  1  0.21407309  0.07560277  0.57009689  1
  Zn  Zn36  1  0.71407309  0.92439723  0.92990311  1
  Zn  Zn37  1  0.28592691  0.57560277  0.42990311  1
  Zn  Zn38  1  0.78592691  0.42439723  0.07009689  1
  Zn  Zn39  1  0.74715361  0.91848792  0.23994254  1
  Si  Si40  1  0.77798604  0.92718814  0.08821152  1
  Si  Si41  1  0.27798604  0.07281186  0.41178848  1
  Si  Si42  1  0.72201396  0.42718814  0.91178848  1
  Si  Si43  1  0.22201396  0.57281186  0.58821152  1
  Si  Si44  1  0.22201396  0.07281186  0.91178848  1
  Si  Si45  1  0.72201396  0.92718814  0.58821152  1
  Si  Si46  1  0.27798604  0.57281186  0.08821152  1
  Si  Si47  1  0.77798604  0.42718814  0.41178848  1
  O  O48  1  0.69841696  0.34986198  0.34783864  1
  O  O49  1  0.19841696  0.65013802  0.15216136  1
  O  O50  1  0.80158304  0.84986198  0.65216136  1
  O  O51  1  0.30158304  0.15013802  0.84783864  1
  O  O52  1  0.30158304  0.65013802  0.65216136  1
  O  O53  1  0.80158304  0.34986198  0.84783864  1
  O  O54  1  0.19841696  0.15013802  0.34783864  1
  O  O55  1  0.69841696  0.84986198  0.15216136  1
  O  O56  1  0.65350397  0.05801665  0.09818187  1
  O  O57  1  0.15350397  0.94198335  0.40181813  1
  O  O58  1  0.84649603  0.55801665  0.90181813  1
  O  O59  1  0.34649603  0.44198335  0.59818187  1
  O  O60  1  0.34649603  0.94198335  0.90181813  1
  O  O61  1  0.84649603  0.05801665  0.59818187  1
  O  O62  1  0.15350397  0.44198335  0.09818187  1
  O  O63  1  0.65350397  0.55801665  0.40181813  1
  O  O64  1  0.66297752  0.36859818  0.47906313  1
  O  O65  1  0.16297752  0.63140182  0.02093687  1
  O  O66  1  0.83702248  0.86859818  0.52093687  1
  O  O67  1  0.33702248  0.13140182  0.97906313  1
  O  O68  1  0.33702248  0.63140182  0.52093687  1
  O  O69  1  0.83702248  0.36859818  0.97906313  1
  O  O70  1  0.16297752  0.13140182  0.47906313  1
  O  O71  1  0.66297752  0.86859818  0.02093687  1
  O  O72  1  0.95385576  0.30413997  0.21372914  1
  O  O73  1  0.58510406  0.29633845  0.10751067  1
  O  O74  1  0.45385576  0.69586003  0.28627086  1
  O  O75  1  0.04614424  0.19586003  0.71372914  1
  O  O76  1  0.04614424  0.69586003  0.78627086  1
  O  O77  1  0.54614424  0.30413997  0.71372914  1
  O  O78  1  0.45385576  0.19586003  0.21372914  1
  O  O79  1  0.95385576  0.80413997  0.28627086  1
  O  O80  1  0.59151382  0.06226491  0.41705565  1
  O  O81  1  0.09151382  0.93773509  0.08294435  1
  O  O82  1  0.90848618  0.56226491  0.58294435  1
  O  O83  1  0.40848618  0.43773509  0.91705565  1
  O  O84  1  0.40848618  0.93773509  0.58294435  1
  O  O85  1  0.90848618  0.06226491  0.91705565  1
  O  O86  1  0.09151382  0.43773509  0.41705565  1
  O  O87  1  0.59151382  0.56226491  0.08294435  1
  O  O88  1  0.89871204  0.06807177  0.22436821  1
  O  O89  1  0.39871204  0.93192823  0.27563179  1
  O  O90  1  0.60128796  0.56807177  0.77563179  1
  O  O91  1  0.10128796  0.43192823  0.72436821  1
  O  O92  1  0.10128796  0.93192823  0.77563179  1
  O  O93  1  0.60128796  0.06807177  0.72436821  1
  O  O94  1  0.39871204  0.43192823  0.22436821  1
  O  O95  1  0.89871204  0.56807177  0.27563179  1
  O  O96  1  0.58510406  0.79633845  0.39248933  1
  O  O97  1  0.08510406  0.20366155  0.10751067  1
  O  O98  1  0.91489594  0.29633845  0.60751067  1
  O  O99  1  0.41489594  0.70366155  0.89248933  1
  O  O100  1  0.41489594  0.20366155  0.60751067  1
  O  O101  1  0.91489594  0.79633845  0.89248933  1
  O  O102  1  0.08510406  0.70366155  0.39248933  1
  O  O103  1  0.54614424  0.80413997  0.78627086  1
