# generated using pymatgen
data_MgP4O11
_symmetry_space_group_name_H-M   'P 1'
_cell_length_a   22.24429948
_cell_length_b   5.34089966
_cell_length_c   7.43459059
_cell_angle_alpha   69.18055516
_cell_angle_beta   90.00000000
_cell_angle_gamma   90.00000000
_symmetry_Int_Tables_number   1
_chemical_formula_structural   MgP4O11
_chemical_formula_sum   'Mg4 P16 O44'
_cell_volume   825.59076470
_cell_formula_units_Z   4
loop_
 _symmetry_equiv_pos_site_id
 _symmetry_equiv_pos_as_xyz
  1  'x, y, z'
loop_
 _atom_site_type_symbol
 _atom_site_label
 _atom_site_symmetry_multiplicity
 _atom_site_fract_x
 _atom_site_fract_y
 _atom_site_fract_z
 _atom_site_occupancy
  Mg  Mg0  1  0.61435941  0.00207900  0.63371915  1
  Mg  Mg1  1  0.11435941  0.99792100  0.86628085  1
  Mg  Mg2  1  0.38564059  0.99792100  0.36628085  1
  Mg  Mg3  1  0.88564059  0.00207900  0.13371915  1
  P  P4  1  0.07149407  0.69501240  0.30709033  1
  P  P5  1  0.57149407  0.30498760  0.19290967  1
  P  P6  1  0.92850593  0.30498760  0.69290967  1
  P  P7  1  0.42850593  0.69501240  0.80709033  1
  P  P8  1  0.19525243  0.39936798  0.02901787  1
  P  P9  1  0.69525243  0.60063202  0.47098213  1
  P  P10  1  0.80474757  0.60063202  0.97098213  1
  P  P11  1  0.30474757  0.39936798  0.52901787  1
  P  P12  1  0.96395430  0.39848275  0.29695447  1
  P  P13  1  0.46395430  0.60151725  0.20304553  1
  P  P14  1  0.03604570  0.60151725  0.70304553  1
  P  P15  1  0.53604570  0.39848275  0.79695447  1
  P  P16  1  0.32151492  0.32520242  0.94366649  1
  P  P17  1  0.82151492  0.67479758  0.55633351  1
  P  P18  1  0.67848508  0.67479758  0.05633351  1
  P  P19  1  0.17848508  0.32520242  0.44366649  1
  O  O20  1  0.33696024  0.65409087  0.47730651  1
  O  O21  1  0.83696024  0.34590913  0.02269349  1
  O  O22  1  0.66303976  0.34590913  0.52269349  1
  O  O23  1  0.16303976  0.65409087  0.97730651  1
  O  O24  1  0.54652748  0.21408543  0.69477038  1
  O  O25  1  0.04652748  0.78591457  0.80522962  1
  O  O26  1  0.45347252  0.78591457  0.30522962  1
  O  O27  1  0.95347252  0.21408543  0.19477038  1
  O  O28  1  0.56654117  0.65731158  0.75318024  1
  O  O29  1  0.06654117  0.34268842  0.74681976  1
  O  O30  1  0.43345883  0.34268842  0.24681976  1
  O  O31  1  0.93345883  0.65731158  0.25318024  1
  O  O32  1  0.31827657  0.19336771  0.44702074  1
  O  O33  1  0.81827657  0.80663229  0.05297926  1
  O  O34  1  0.68172343  0.80663229  0.55297926  1
  O  O35  1  0.18172343  0.19336771  0.94702074  1
  O  O36  1  0.30602321  0.25717994  0.76216689  1
  O  O37  1  0.95468661  0.22808681  0.52555516  1
  O  O38  1  0.54531339  0.22808681  0.02555516  1
  O  O39  1  0.04531339  0.77191319  0.47444484  1
  O  O40  1  0.46380462  0.44605053  0.79784518  1
  O  O41  1  0.96380462  0.55394947  0.70215482  1
  O  O42  1  0.53619538  0.55394947  0.20215482  1
  O  O43  1  0.03619538  0.44605053  0.29784518  1
  O  O44  1  0.19397679  0.25717994  0.26216689  1
  O  O45  1  0.69397679  0.74282006  0.23783311  1
  O  O46  1  0.80602321  0.74282006  0.73783311  1
  O  O47  1  0.26621089  0.46672413  0.99550581  1
  O  O48  1  0.42496236  0.92727296  0.63084973  1
  O  O49  1  0.92496236  0.07272704  0.86915027  1
  O  O50  1  0.57503764  0.07272704  0.36915027  1
  O  O51  1  0.07503764  0.92727296  0.13084973  1
  O  O52  1  0.36461756  0.57409585  0.87808675  1
  O  O53  1  0.86461756  0.42590415  0.62191325  1
  O  O54  1  0.63538244  0.42590415  0.12191325  1
  O  O55  1  0.13538244  0.57409585  0.37808675  1
  O  O56  1  0.34443542  0.08937333  0.09694758  1
  O  O57  1  0.84443542  0.91062667  0.40305242  1
  O  O58  1  0.65556458  0.91062667  0.90305242  1
  O  O59  1  0.15556458  0.08937333  0.59694758  1
  O  O60  1  0.23378911  0.46672413  0.49550581  1
  O  O61  1  0.73378911  0.53327587  0.00449419  1
  O  O62  1  0.76621089  0.53327587  0.50449419  1
  O  O63  1  0.45468661  0.77191319  0.97444484  1
