# generated using pymatgen
data_MgO
_symmetry_space_group_name_H-M   'P 1'
_cell_length_a   2.96560846
_cell_length_b   2.96560841
_cell_length_c   2.96560719
_cell_angle_alpha   59.99999152
_cell_angle_beta   59.99999220
_cell_angle_gamma   59.99998781
_symmetry_Int_Tables_number   1
_chemical_formula_structural   MgO
_chemical_formula_sum   'Mg1 O1'
_cell_volume   18.44277009
_cell_formula_units_Z   1
loop_
 _symmetry_equiv_pos_site_id
 _symmetry_equiv_pos_as_xyz
  1  'x, y, z'
loop_
 _atom_site_type_symbol
 _atom_site_label
 _atom_site_symmetry_multiplicity
 _atom_site_fract_x
 _atom_site_fract_y
 _atom_site_fract_z
 _atom_site_occupancy
  Mg  Mg0  1  0.00000000  0.00000000  -0.00000000  1
  O  O1  1  0.50000000  0.50000000  0.50000000  1
