# generated using pymatgen
data_CsLaHgSe3
_symmetry_space_group_name_H-M   'P 1'
_cell_length_a   8.33244207
_cell_length_b   8.33244207
_cell_length_c   11.50578571
_cell_angle_alpha   90.00000000
_cell_angle_beta   90.00000000
_cell_angle_gamma   148.94202674
_symmetry_Int_Tables_number   1
_chemical_formula_structural   CsLaHgSe3
_chemical_formula_sum   'Cs2 La2 Hg2 Se6'
_cell_volume   412.12666972
_cell_formula_units_Z   2
loop_
 _symmetry_equiv_pos_site_id
 _symmetry_equiv_pos_as_xyz
  1  'x, y, z'
loop_
 _atom_site_type_symbol
 _atom_site_label
 _atom_site_symmetry_multiplicity
 _atom_site_fract_x
 _atom_site_fract_y
 _atom_site_fract_z
 _atom_site_occupancy
  Cs  Cs0  1  0.25559625  0.74440375  0.75000000  1
  Cs  Cs1  1  0.74440375  0.25559625  0.25000000  1
  La  La2  1  0.00000000  -0.00000000  0.50000000  1
  La  La3  1  0.00000000  -0.00000000  0.00000000  1
  Hg  Hg4  1  0.45776985  0.54223015  0.25000000  1
  Hg  Hg5  1  0.54223015  0.45776985  0.75000000  1
  Se  Se6  1  0.06241802  0.93758198  0.25000000  1
  Se  Se7  1  0.93758198  0.06241802  0.75000000  1
  Se  Se8  1  0.62307413  0.37692587  0.55221134  1
  Se  Se9  1  0.62307413  0.37692587  0.94778866  1
  Se  Se10  1  0.37692587  0.62307413  0.05221134  1
  Se  Se11  1  0.37692587  0.62307413  0.44778866  1
