# generated using pymatgen
data_K14P16Pd9O56
_symmetry_space_group_name_H-M   'P 1'
_cell_length_a   11.95238515
_cell_length_b   11.95238515
_cell_length_c   12.42171254
_cell_angle_alpha   66.42744422
_cell_angle_beta   66.42744422
_cell_angle_gamma   72.53823002
_symmetry_Int_Tables_number   1
_chemical_formula_structural   K14P16Pd9O56
_chemical_formula_sum   'K14 P16 Pd9 O56'
_cell_volume   1469.86828817
_cell_formula_units_Z   1
loop_
 _symmetry_equiv_pos_site_id
 _symmetry_equiv_pos_as_xyz
  1  'x, y, z'
loop_
 _atom_site_type_symbol
 _atom_site_label
 _atom_site_symmetry_multiplicity
 _atom_site_fract_x
 _atom_site_fract_y
 _atom_site_fract_z
 _atom_site_occupancy
  K  K0  1  0.12087483  0.58579348  0.41717655  1
  K  K1  1  0.58579348  0.12087483  0.41717655  1
  K  K2  1  0.87837493  0.41514960  0.58277963  1
  K  K3  1  0.41514960  0.87837493  0.58277963  1
  K  K4  1  0.11353652  0.64807732  0.09833627  1
  K  K5  1  0.64807732  0.11353652  0.09833627  1
  K  K6  1  0.88371862  0.35413441  0.90129600  1
  K  K7  1  0.35413441  0.88371862  0.90129600  1
  K  K8  1  0.84140378  0.84140378  0.40708406  1
  K  K9  1  0.15749220  0.15749220  0.59415071  1
  K  K10  1  0.99924510  0.99924510  0.50114419  1
  K  K11  1  0.74094204  0.25896450  0.50016043  1
  K  K12  1  0.25896450  0.74094204  0.50016043  1
  K  K13  1  0.25284998  0.25284998  0.99926425  1
  P  P14  1  0.92416846  0.13969602  0.19616250  1
  P  P15  1  0.13969602  0.92416846  0.19616250  1
  P  P16  1  0.07548401  0.85994913  0.80369106  1
  P  P17  1  0.85994913  0.07548401  0.80369106  1
  P  P18  1  0.81922689  0.60436585  0.31080202  1
  P  P19  1  0.60436585  0.81922689  0.31080202  1
  P  P20  1  0.18063212  0.39579210  0.68844477  1
  P  P21  1  0.39579210  0.18063212  0.68844477  1
  P  P22  1  0.10889302  0.32093374  0.30092701  1
  P  P23  1  0.32093374  0.10889302  0.30092701  1
  P  P24  1  0.89072130  0.68002599  0.69990008  1
  P  P25  1  0.68002599  0.89072130  0.69990008  1
  P  P26  1  0.62817843  0.42548978  0.19289087  1
  P  P27  1  0.42548978  0.62817843  0.19289087  1
  P  P28  1  0.37166979  0.57584609  0.80669161  1
  P  P29  1  0.57584609  0.37166979  0.80669161  1
  Pd  Pd30  1  0.43453900  0.43453900  0.45248839  1
  Pd  Pd31  1  0.56603434  0.56603434  0.54693853  1
  Pd  Pd32  1  0.91563115  0.41316820  0.15629952  1
  Pd  Pd33  1  0.41316820  0.91563115  0.15629952  1
  Pd  Pd34  1  0.08325810  0.58796272  0.84358792  1
  Pd  Pd35  1  0.58796272  0.08325810  0.84358792  1
  Pd  Pd36  1  0.00004441  0.00004441  0.99956460  1
  Pd  Pd37  1  0.37379335  0.37379335  0.24283718  1
  Pd  Pd38  1  0.62695420  0.62695420  0.75676899  1
  O  O39  1  0.93174365  0.60643294  0.33800548  1
  O  O40  1  0.60643294  0.93174365  0.33800548  1
  O  O41  1  0.06794231  0.39360814  0.66242426  1
  O  O42  1  0.39360814  0.06794231  0.66242426  1
  O  O43  1  0.20330593  0.20330593  0.25856971  1
  O  O44  1  0.79762521  0.79762521  0.74001424  1
  O  O45  1  0.76456238  0.41447445  0.11552038  1
  O  O46  1  0.41447445  0.76456238  0.11552038  1
  O  O47  1  0.23561282  0.58285200  0.88585682  1
  O  O48  1  0.58285200  0.23561282  0.88585682  1
  O  O49  1  0.99025346  0.25297143  0.10921199  1
  O  O50  1  0.25297143  0.99025346  0.10921199  1
  O  O51  1  0.01206993  0.74598247  0.89065186  1
  O  O52  1  0.74598247  0.01206993  0.89065186  1
  O  O53  1  0.00511721  0.27260101  0.41601713  1
  O  O54  1  0.27260101  0.00511721  0.41601713  1
  O  O55  1  0.99483036  0.72749198  0.58373109  1
  O  O56  1  0.72749198  0.99483036  0.58373109  1
  O  O57  1  0.56449684  0.34796295  0.16643740  1
  O  O58  1  0.34796295  0.56449684  0.16643740  1
  O  O59  1  0.43542925  0.65215071  0.83373846  1
  O  O60  1  0.65215071  0.43542925  0.83373846  1
  O  O61  1  0.88177772  0.09085613  0.12219703  1
  O  O62  1  0.09085613  0.88177772  0.12219703  1
  O  O63  1  0.11803817  0.90961724  0.87747680  1
  O  O64  1  0.90961724  0.11803817  0.87747680  1
  O  O65  1  0.74719014  0.74719014  0.28676354  1
  O  O66  1  0.25250939  0.25250939  0.71376315  1
  O  O67  1  0.18683727  0.38557450  0.32686327  1
  O  O68  1  0.38557450  0.18683727  0.32686327  1
  O  O69  1  0.81323068  0.61440178  0.67371933  1
  O  O70  1  0.61440178  0.81323068  0.67371933  1
  O  O71  1  0.73170507  0.51992416  0.42471233  1
  O  O72  1  0.51992416  0.73170507  0.42471233  1
  O  O73  1  0.26820543  0.48008707  0.57575576  1
  O  O74  1  0.48008707  0.26820543  0.57575576  1
  O  O75  1  0.82244388  0.15332229  0.31255508  1
  O  O76  1  0.15332229  0.82244388  0.31255508  1
  O  O77  1  0.17811417  0.84786510  0.68682192  1
  O  O78  1  0.84786510  0.17811417  0.68682192  1
  O  O79  1  0.07635717  0.40523508  0.18152794  1
  O  O80  1  0.40523508  0.07635717  0.18152794  1
  O  O81  1  0.92573334  0.59270880  0.81674173  1
  O  O82  1  0.59270880  0.92573334  0.81674173  1
  O  O83  1  0.56948351  0.56948351  0.14206384  1
  O  O84  1  0.43019044  0.43019044  0.85808433  1
  O  O85  1  0.60593092  0.39170303  0.33288506  1
  O  O86  1  0.39170303  0.60593092  0.33288506  1
  O  O87  1  0.39370116  0.60820257  0.66732938  1
  O  O88  1  0.60820257  0.39370116  0.66732938  1
  O  O89  1  0.02986267  0.02986267  0.24666043  1
  O  O90  1  0.97049663  0.97049663  0.75287747  1
  O  O91  1  0.84675257  0.57813093  0.19030062  1
  O  O92  1  0.57813093  0.84675257  0.19030062  1
  O  O93  1  0.15412310  0.42005490  0.81045384  1
  O  O94  1  0.42005490  0.15412310  0.81045384  1
