# generated using pymatgen
data_CaGa4(WO6)2
_symmetry_space_group_name_H-M   'P 1'
_cell_length_a   5.44039941
_cell_length_b   5.25909054
_cell_length_c   9.02751377
_cell_angle_alpha   84.46983330
_cell_angle_beta   94.61662662
_cell_angle_gamma   106.33856774
_symmetry_Int_Tables_number   1
_chemical_formula_structural   CaGa4(WO6)2
_chemical_formula_sum   'Ca1 Ga4 W2 O12'
_cell_volume   246.32120994
_cell_formula_units_Z   1
loop_
 _symmetry_equiv_pos_site_id
 _symmetry_equiv_pos_as_xyz
  1  'x, y, z'
loop_
 _atom_site_type_symbol
 _atom_site_label
 _atom_site_symmetry_multiplicity
 _atom_site_fract_x
 _atom_site_fract_y
 _atom_site_fract_z
 _atom_site_occupancy
  Ca  Ca0  1  0.32030600  0.92813800  0.17407400  1
  Ga  Ga1  1  0.93966300  0.10361400  0.33055400  1
  Ga  Ga2  1  0.96436300  0.04411100  0.65863800  1
  Ga  Ga3  1  0.59501000  0.50873000  0.16687200  1
  Ga  Ga4  1  0.47004100  0.51638300  0.85556400  1
  W  W5  1  0.86113600  0.05428100  0.98066800  1
  W  W6  1  0.54694400  0.46833200  0.50744500  1
  O  O7  1  0.11407700  0.27158800  0.15072500  1
  O  O8  1  0.14368700  0.24274600  0.83922000  1
  O  O9  1  0.19546800  0.19096700  0.49686800  1
  O  O10  1  0.47871500  0.75089200  0.00318300  1
  O  O11  1  0.42566300  0.61370300  0.32465900  1
  O  O12  1  0.40924900  0.60439600  0.65017200  1
  O  O13  1  0.65595800  0.25174000  0.32724600  1
  O  O14  1  0.72080600  0.25566100  0.62557500  1
  O  O15  1  0.61869100  0.29639300  0.00867400  1
  O  O16  1  0.83123900  0.79253700  0.49611300  1
  O  O17  1  0.88137900  0.81127400  0.18241900  1
  O  O18  1  0.82800400  0.79491900  0.82133300  1
