# generated using pymatgen
data_H8CN5ClO3
_symmetry_space_group_name_H-M   'P 1'
_cell_length_a   7.64836249
_cell_length_b   12.65140199
_cell_length_c   7.80484711
_cell_angle_alpha   90.00000000
_cell_angle_beta   119.19243578
_cell_angle_gamma   90.00000000
_symmetry_Int_Tables_number   1
_chemical_formula_structural   H8CN5ClO3
_chemical_formula_sum   'H32 C4 N20 Cl4 O12'
_cell_volume   659.29386514
_cell_formula_units_Z   4
loop_
 _symmetry_equiv_pos_site_id
 _symmetry_equiv_pos_as_xyz
  1  'x, y, z'
loop_
 _atom_site_type_symbol
 _atom_site_label
 _atom_site_symmetry_multiplicity
 _atom_site_fract_x
 _atom_site_fract_y
 _atom_site_fract_z
 _atom_site_occupancy
  H  H0  1  0.16200174  0.34276710  0.05115003  1
  H  H1  1  0.16200174  0.15723290  0.55115003  1
  H  H2  1  0.83799826  0.65723290  0.94884997  1
  H  H3  1  0.83799826  0.84276710  0.44884997  1
  H  H4  1  0.46199341  0.37112493  0.39845770  1
  H  H5  1  0.46199341  0.12887507  0.89845770  1
  H  H6  1  0.53800659  0.62887507  0.60154230  1
  H  H7  1  0.53800659  0.87112493  0.10154230  1
  H  H8  1  0.30329243  0.45995523  0.41113364  1
  H  H9  1  0.30329243  0.04004477  0.91113364  1
  H  H10  1  0.69670757  0.54004477  0.58886636  1
  H  H11  1  0.69670757  0.95995523  0.08886636  1
  H  H12  1  0.23264070  0.33263500  0.36552523  1
  H  H13  1  0.23264070  0.16736500  0.86552523  1
  H  H14  1  0.76735930  0.66736500  0.63447477  1
  H  H15  1  0.76735930  0.83263500  0.13447477  1
  H  H16  1  0.24769661  0.55664409  0.81670854  1
  H  H17  1  0.24769661  0.94335591  0.31670854  1
  H  H18  1  0.75230339  0.44335591  0.18329146  1
  H  H19  1  0.75230339  0.05664409  0.68329146  1
  H  H20  1  0.09326509  0.44732567  0.78071343  1
  H  H21  1  0.09326509  0.05267433  0.28071343  1
  H  H22  1  0.90673491  0.55267433  0.21928657  1
  H  H23  1  0.90673491  0.94732567  0.71928657  1
  H  H24  1  0.94007247  0.22074234  0.24024157  1
  H  H25  1  0.94007247  0.27925766  0.74024157  1
  H  H26  1  0.05992753  0.77925766  0.75975843  1
  H  H27  1  0.05992753  0.72074234  0.25975843  1
  H  H28  1  0.96276951  0.29937658  0.40653993  1
  H  H29  1  0.96276951  0.20062342  0.90653993  1
  H  H30  1  0.03723049  0.70062342  0.59346007  1
  H  H31  1  0.03723049  0.79937658  0.09346007  1
  C  C32  1  0.28233569  0.49071735  0.06646151  1
  C  C33  1  0.28233569  0.00928265  0.56646151  1
  C  C34  1  0.71766431  0.50928265  0.93353849  1
  C  C35  1  0.71766431  0.99071735  0.43353849  1
  N  N36  1  0.41854867  0.55361525  0.20664038  1
  N  N37  1  0.41854867  0.94638475  0.70664038  1
  N  N38  1  0.58145133  0.44638475  0.79335962  1
  N  N39  1  0.58145133  0.05361525  0.29335962  1
  N  N40  1  0.48958140  0.63723351  0.15328719  1
  N  N41  1  0.48958140  0.86276649  0.65328719  1
  N  N42  1  0.51041860  0.36276649  0.84671281  1
  N  N43  1  0.51041860  0.13723351  0.34671281  1
  N  N44  1  0.21585727  0.41019645  0.13578453  1
  N  N45  1  0.21585727  0.08980355  0.63578453  1
  N  N46  1  0.78414273  0.58980355  0.86421547  1
  N  N47  1  0.78414273  0.91019645  0.36421547  1
  N  N48  1  0.31270378  0.39229848  0.34087069  1
  N  N49  1  0.31270378  0.10770152  0.84087069  1
  N  N50  1  0.68729622  0.60770152  0.65912931  1
  N  N51  1  0.68729622  0.89229848  0.15912931  1
  N  N52  1  0.20354438  0.49707103  0.87374347  1
  N  N53  1  0.20354438  0.00292897  0.37374347  1
  N  N54  1  0.79645562  0.50292897  0.12625653  1
  N  N55  1  0.79645562  0.99707103  0.62625653  1
  Cl  Cl56  1  0.80326054  0.10963423  0.01223676  1
  Cl  Cl57  1  0.80326054  0.39036577  0.51223676  1
  Cl  Cl58  1  0.19673946  0.89036577  0.98776324  1
  Cl  Cl59  1  0.19673946  0.60963423  0.48776324  1
  O  O60  1  0.43159454  0.66280181  0.97888072  1
  O  O61  1  0.43159454  0.83719819  0.47888072  1
  O  O62  1  0.56840546  0.33719819  0.02111928  1
  O  O63  1  0.56840546  0.16280181  0.52111928  1
  O  O64  1  0.62269841  0.68819571  0.29242776  1
  O  O65  1  0.62269841  0.81180429  0.79242776  1
  O  O66  1  0.37730159  0.31180429  0.70757224  1
  O  O67  1  0.37730159  0.18819571  0.20757224  1
  O  O68  1  0.03914466  0.25551109  0.36202215  1
  O  O69  1  0.03914466  0.24448891  0.86202215  1
  O  O70  1  0.96085534  0.74448891  0.63797785  1
  O  O71  1  0.96085534  0.75551109  0.13797785  1
