# generated using pymatgen
data_Lu4Mg(Te5O13)2
_symmetry_space_group_name_H-M   'P 1'
_cell_length_a   6.88367060
_cell_length_b   8.65010509
_cell_length_c   11.20757180
_cell_angle_alpha   89.73561605
_cell_angle_beta   88.40760862
_cell_angle_gamma   75.96785056
_symmetry_Int_Tables_number   1
_chemical_formula_structural   Lu4Mg(Te5O13)2
_chemical_formula_sum   'Lu4 Mg1 Te10 O26'
_cell_volume   647.18357946
_cell_formula_units_Z   1
loop_
 _symmetry_equiv_pos_site_id
 _symmetry_equiv_pos_as_xyz
  1  'x, y, z'
loop_
 _atom_site_type_symbol
 _atom_site_label
 _atom_site_symmetry_multiplicity
 _atom_site_fract_x
 _atom_site_fract_y
 _atom_site_fract_z
 _atom_site_occupancy
  Lu  Lu0  1  0.98906247  0.27377148  0.76428757  1
  Lu  Lu1  1  0.55277553  0.52836693  0.18552376  1
  Lu  Lu2  1  0.99945926  0.73547041  0.24716970  1
  Lu  Lu3  1  0.43647753  0.43124535  0.81217306  1
  Mg  Mg4  1  0.39015775  0.01558757  0.78346694  1
  Te  Te5  1  0.86107538  0.65130658  0.89657170  1
  Te  Te6  1  0.65491049  0.07516182  0.61170587  1
  Te  Te7  1  0.11812382  0.35529307  0.10595508  1
  Te  Te8  1  0.70317633  0.11550311  0.01246087  1
  Te  Te9  1  0.44708997  0.90229127  0.30333724  1
  Te  Te10  1  0.72487898  0.60408966  0.50805341  1
  Te  Te11  1  0.84141137  0.19734238  0.34495349  1
  Te  Te12  1  0.28068133  0.86702135  0.00378027  1
  Te  Te13  1  0.15889529  0.80133334  0.65525276  1
  Te  Te14  1  0.25235687  0.40281400  0.49060470  1
  O  O15  1  0.52629213  0.32168383  0.98894444  1
  O  O16  1  0.67590488  0.76553747  0.23071915  1
  O  O17  1  0.92652913  0.97961681  0.30434903  1
  O  O18  1  0.64999332  0.49199377  0.37971088  1
  O  O19  1  0.23540461  0.49964305  0.18787288  1
  O  O20  1  0.03400338  0.34507941  0.56911601  1
  O  O21  1  0.04349107  0.81565564  0.06263352  1
  O  O22  1  0.66023001  0.26465070  0.22055443  1
  O  O23  1  0.93057841  0.74149379  0.73543408  1
  O  O24  1  0.86566707  0.50899092  0.10744553  1
  O  O25  1  0.46535404  0.66948015  0.02207217  1
  O  O26  1  0.93625398  0.17036604  0.94310856  1
  O  O27  1  0.11308208  0.01718313  0.71015369  1
  O  O28  1  0.96295067  0.64275739  0.43374682  1
  O  O29  1  0.29600919  0.24597165  0.78400911  1
  O  O30  1  0.34748532  0.98761953  0.13548283  1
  O  O31  1  0.75304199  0.49997604  0.81616923  1
  O  O32  1  0.31189604  0.73760767  0.28870157  1
  O  O33  1  0.33001269  0.51463309  0.62011825  1
  O  O34  1  0.35947527  0.74699469  0.77113823  1
  O  O35  1  0.47156743  0.20139958  0.49127304  1
  O  O36  1  0.06830877  0.26563283  0.26762826  1
  O  O37  1  0.11833835  0.50693235  0.90284850  1
  O  O38  1  0.68782824  0.25634798  0.70316033  1
  O  O39  1  0.54766583  0.81204773  0.47785040  1
  O  O40  1  0.62395672  0.99124945  0.88921264  1
