# generated using pymatgen
data_Ca5VN5
_symmetry_space_group_name_H-M   'P 1'
_cell_length_a   6.02291634
_cell_length_b   6.77578923
_cell_length_c   16.59949223
_cell_angle_alpha   90.00000000
_cell_angle_beta   90.00000000
_cell_angle_gamma   90.00000000
_symmetry_Int_Tables_number   1
_chemical_formula_structural   Ca5VN5
_chemical_formula_sum   'Ca20 V4 N20'
_cell_volume   677.42547162
_cell_formula_units_Z   4
loop_
 _symmetry_equiv_pos_site_id
 _symmetry_equiv_pos_as_xyz
  1  'x, y, z'
loop_
 _atom_site_type_symbol
 _atom_site_label
 _atom_site_symmetry_multiplicity
 _atom_site_fract_x
 _atom_site_fract_y
 _atom_site_fract_z
 _atom_site_occupancy
  Ca  Ca0  1  0.71044430  0.99192747  0.92548015  1
  Ca  Ca1  1  0.28955570  0.49192747  0.07451985  1
  Ca  Ca2  1  0.71044430  0.00807253  0.57451985  1
  Ca  Ca3  1  0.28955570  0.50807253  0.42548015  1
  Ca  Ca4  1  0.28955570  0.00807253  0.07451985  1
  Ca  Ca5  1  0.71044430  0.50807253  0.92548015  1
  Ca  Ca6  1  0.28955570  0.99192747  0.42548015  1
  Ca  Ca7  1  0.71044430  0.49192747  0.57451985  1
  Ca  Ca8  1  0.81095356  0.25000000  0.08179723  1
  Ca  Ca9  1  0.18904644  0.75000000  0.91820277  1
  Ca  Ca10  1  0.81095356  0.75000000  0.41820277  1
  Ca  Ca11  1  0.18904644  0.25000000  0.58179723  1
  Ca  Ca12  1  0.48678637  0.25000000  0.23674970  1
  Ca  Ca13  1  0.51321363  0.75000000  0.76325030  1
  Ca  Ca14  1  0.48678637  0.75000000  0.26325030  1
  Ca  Ca15  1  0.51321363  0.25000000  0.73674970  1
  Ca  Ca16  1  0.95301488  0.50000000  0.25000000  1
  Ca  Ca17  1  0.04698512  0.00000000  0.75000000  1
  Ca  Ca18  1  0.04698512  0.50000000  0.75000000  1
  Ca  Ca19  1  0.95301488  0.00000000  0.25000000  1
  V  V20  1  0.71162807  0.25000000  0.40664997  1
  V  V21  1  0.28837193  0.75000000  0.59335003  1
  V  V22  1  0.71162807  0.75000000  0.09335003  1
  V  V23  1  0.28837193  0.25000000  0.90664997  1
  N  N24  1  0.63926348  0.46891726  0.34530875  1
  N  N25  1  0.36073652  0.96891726  0.65469125  1
  N  N26  1  0.63926348  0.53108274  0.15469125  1
  N  N27  1  0.36073652  0.03108274  0.84530875  1
  N  N28  1  0.36073652  0.53108274  0.65469125  1
  N  N29  1  0.63926348  0.03108274  0.34530875  1
  N  N30  1  0.36073652  0.46891726  0.84530875  1
  N  N31  1  0.63926348  0.96891726  0.15469125  1
  N  N32  1  0.99173789  0.25000000  0.44765256  1
  N  N33  1  0.00826211  0.75000000  0.55234744  1
  N  N34  1  0.99173789  0.75000000  0.05234744  1
  N  N35  1  0.00826211  0.25000000  0.94765256  1
  N  N36  1  0.51721563  0.25000000  0.48949976  1
  N  N37  1  0.48278437  0.75000000  0.51050024  1
  N  N38  1  0.51721563  0.75000000  0.01050024  1
  N  N39  1  0.48278437  0.25000000  0.98949976  1
  N  N40  1  0.86540696  0.25000000  0.67464606  1
  N  N41  1  0.13459304  0.75000000  0.32535394  1
  N  N42  1  0.86540696  0.75000000  0.82535394  1
  N  N43  1  0.13459304  0.25000000  0.17464606  1
