# generated using pymatgen
data_K3Nb2Cu3Se8
_symmetry_space_group_name_H-M   'P 1'
_cell_length_a   5.71699387
_cell_length_b   12.56832134
_cell_length_c   13.92690219
_cell_angle_alpha   68.86296546
_cell_angle_beta   78.15586468
_cell_angle_gamma   76.85379638
_symmetry_Int_Tables_number   1
_chemical_formula_structural   K3Nb2Cu3Se8
_chemical_formula_sum   'K6 Nb4 Cu6 Se16'
_cell_volume   900.49828124
_cell_formula_units_Z   2
loop_
 _symmetry_equiv_pos_site_id
 _symmetry_equiv_pos_as_xyz
  1  'x, y, z'
loop_
 _atom_site_type_symbol
 _atom_site_label
 _atom_site_symmetry_multiplicity
 _atom_site_fract_x
 _atom_site_fract_y
 _atom_site_fract_z
 _atom_site_occupancy
  K  K0  1  0.73126741  0.71028614  0.90493775  1
  K  K1  1  0.34649129  0.78971386  0.59506225  1
  K  K2  1  0.26873259  0.28971386  0.09506225  1
  K  K3  1  0.65350871  0.21028614  0.40493775  1
  K  K4  1  -0.00000000  0.50000000  0.50000000  1
  K  K5  1  -0.00000000  0.00000000  -0.00000000  1
  Nb  Nb6  1  0.15620820  0.47073972  0.77874882  1
  Nb  Nb7  1  0.40569674  0.02926028  0.72125118  1
  Nb  Nb8  1  0.84379180  0.52926028  0.22125118  1
  Nb  Nb9  1  0.59430326  0.97073972  0.27874882  1
  Cu  Cu10  1  0.27583787  0.25000000  0.75000000  1
  Cu  Cu11  1  0.72416213  0.75000000  0.25000000  1
  Cu  Cu12  1  0.90312747  0.03444595  0.72079670  1
  Cu  Cu13  1  0.65837012  0.46555405  0.77920330  1
  Cu  Cu14  1  0.09687253  0.96555405  0.27920330  1
  Cu  Cu15  1  0.34162988  0.53444595  0.22079670  1
  Se  Se16  1  0.94769755  0.30615573  0.87480229  1
  Se  Se17  1  0.12865558  0.19384427  0.62519771  1
  Se  Se18  1  0.05230245  0.69384427  0.12519771  1
  Se  Se19  1  0.87134442  0.80615573  0.37480229  1
  Se  Se20  1  0.48877594  0.41331199  0.65658097  1
  Se  Se21  1  0.55866890  0.08668801  0.84341903  1
  Se  Se22  1  0.51122406  0.58668801  0.34341903  1
  Se  Se23  1  0.44133110  0.91331199  0.15658097  1
  Se  Se24  1  0.87034421  0.62960902  0.68410345  1
  Se  Se25  1  0.18405668  0.87039098  0.81589655  1
  Se  Se26  1  0.12965579  0.37039098  0.31589655  1
  Se  Se27  1  0.81594332  0.12960902  0.18410345  1
  Se  Se28  1  0.74365284  0.96886860  0.60691133  1
  Se  Se29  1  0.31943277  0.53113140  0.89308867  1
  Se  Se30  1  0.25634716  0.03113140  0.39308867  1
  Se  Se31  1  0.68056723  0.46886860  0.10691133  1
