# generated using pymatgen
data_KGe
_symmetry_space_group_name_H-M   'P 1'
_cell_length_a   10.70239106
_cell_length_b   10.70239106
_cell_length_c   11.52887961
_cell_angle_alpha   117.65559320
_cell_angle_beta   117.65559320
_cell_angle_gamma   90.00000000
_symmetry_Int_Tables_number   1
_chemical_formula_structural   KGe
_chemical_formula_sum   'K16 Ge16'
_cell_volume   996.20857872
_cell_formula_units_Z   16
loop_
 _symmetry_equiv_pos_site_id
 _symmetry_equiv_pos_as_xyz
  1  'x, y, z'
loop_
 _atom_site_type_symbol
 _atom_site_label
 _atom_site_symmetry_multiplicity
 _atom_site_fract_x
 _atom_site_fract_y
 _atom_site_fract_z
 _atom_site_occupancy
  K  K0  1  0.25000000  0.39115738  -0.00000000  1
  K  K1  1  0.25000000  0.89115738  -0.00000000  1
  K  K2  1  0.10884262  0.75000000  0.50000000  1
  K  K3  1  0.89115738  0.25000000  0.50000000  1
  K  K4  1  0.75000000  0.60884262  0.00000000  1
  K  K5  1  0.75000000  0.10884262  0.00000000  1
  K  K6  1  0.60884262  0.75000000  0.50000000  1
  K  K7  1  0.39115738  0.25000000  0.50000000  1
  K  K8  1  0.75266321  0.24733679  0.75000000  1
  K  K9  1  0.49733679  0.74733679  0.75000000  1
  K  K10  1  0.00266321  0.99733679  0.25000000  1
  K  K11  1  0.74733679  0.49733679  0.25000000  1
  K  K12  1  0.24733679  0.75266321  0.25000000  1
  K  K13  1  0.50266321  0.25266321  0.25000000  1
  K  K14  1  0.99733679  0.00266321  0.75000000  1
  K  K15  1  0.25266321  0.50266321  0.75000000  1
  Ge  Ge16  1  0.27962818  0.48977658  0.35391611  1
  Ge  Ge17  1  0.57428693  0.98977658  0.35391611  1
  Ge  Ge18  1  0.36414153  0.07428693  0.85391611  1
  Ge  Ge19  1  0.98977658  0.57428693  0.85391611  1
  Ge  Ge20  1  0.72037182  0.51022342  0.64608389  1
  Ge  Ge21  1  0.42571307  0.01022342  0.64608389  1
  Ge  Ge22  1  0.63585847  0.92571307  0.14608389  1
  Ge  Ge23  1  0.01022342  0.42571307  0.14608389  1
  Ge  Ge24  1  0.77962818  0.86414153  0.35391611  1
  Ge  Ge25  1  0.07428693  0.36414153  0.35391611  1
  Ge  Ge26  1  0.86414153  0.77962818  0.85391611  1
  Ge  Ge27  1  0.48977658  0.27962818  0.85391611  1
  Ge  Ge28  1  0.22037182  0.13585847  0.64608389  1
  Ge  Ge29  1  0.92571307  0.63585847  0.64608389  1
  Ge  Ge30  1  0.13585847  0.22037182  0.14608389  1
  Ge  Ge31  1  0.51022342  0.72037182  0.14608389  1
