# generated using pymatgen
data_LuCuS2
_symmetry_space_group_name_H-M   'P 1'
_cell_length_a   3.82992335
_cell_length_b   3.82998149
_cell_length_c   6.06580551
_cell_angle_alpha   89.99929943
_cell_angle_beta   90.00070181
_cell_angle_gamma   119.99818979
_symmetry_Int_Tables_number   1
_chemical_formula_structural   LuCuS2
_chemical_formula_sum   'Lu1 Cu1 S2'
_cell_volume   77.05730068
_cell_formula_units_Z   1
loop_
 _symmetry_equiv_pos_site_id
 _symmetry_equiv_pos_as_xyz
  1  'x, y, z'
loop_
 _atom_site_type_symbol
 _atom_site_label
 _atom_site_symmetry_multiplicity
 _atom_site_fract_x
 _atom_site_fract_y
 _atom_site_fract_z
 _atom_site_occupancy
  Lu  Lu0  1  0.00001442  0.00000467  0.00286560  1
  Cu  Cu1  1  0.33335012  0.66668689  0.39767660  1
  S  S2  1  0.33334166  0.66666674  0.77342986  1
  S  S3  1  0.66669480  0.33334070  0.26902794  1
