# generated using pymatgen
data_MnCd4S5
_symmetry_space_group_name_H-M   'P 1'
_cell_length_a   10.92715653
_cell_length_b   10.92715653
_cell_length_c   6.70728087
_cell_angle_alpha   89.99759813
_cell_angle_beta   89.99759813
_cell_angle_gamma   141.80337446
_symmetry_Int_Tables_number   1
_chemical_formula_structural   MnCd4S5
_chemical_formula_sum   'Mn2 Cd8 S10'
_cell_volume   495.22628660
_cell_formula_units_Z   2
loop_
 _symmetry_equiv_pos_site_id
 _symmetry_equiv_pos_as_xyz
  1  'x, y, z'
loop_
 _atom_site_type_symbol
 _atom_site_label
 _atom_site_symmetry_multiplicity
 _atom_site_fract_x
 _atom_site_fract_y
 _atom_site_fract_z
 _atom_site_occupancy
  Mn  Mn0  1  0.33427517  0.93195763  0.37696643  1
  Mn  Mn1  1  0.93195763  0.33427517  0.37696643  1
  Cd  Cd2  1  0.66575744  0.26261431  0.87372649  1
  Cd  Cd3  1  0.26261431  0.66575744  0.87372649  1
  Cd  Cd4  1  0.86711581  0.07039507  0.87446486  1
  Cd  Cd5  1  0.46739644  0.46739644  0.87598260  1
  Cd  Cd6  1  0.07039507  0.86711581  0.87446486  1
  Cd  Cd7  1  0.73646658  0.53016094  0.37736204  1
  Cd  Cd8  1  0.53016094  0.73646658  0.37736204  1
  Cd  Cd9  1  0.13243269  0.13243269  0.37761202  1
  S  S10  1  0.66205842  0.25274302  0.49272521  1
  S  S11  1  0.25274302  0.66205842  0.49272521  1
  S  S12  1  0.86977139  0.07875236  0.49393758  1
  S  S13  1  0.47149220  0.47149220  0.49610415  1
  S  S14  1  0.07875236  0.86977139  0.49393758  1
  S  S15  1  0.73423363  0.53200856  0.99669353  1
  S  S16  1  0.33464722  0.93375202  0.01573035  1
  S  S17  1  0.93375202  0.33464722  0.01573035  1
  S  S18  1  0.53200856  0.73423363  0.99669353  1
  S  S19  1  0.13142912  0.13142912  0.99710526  1
