# generated using pymatgen
data_CsGa(PO3)4
_symmetry_space_group_name_H-M   'P 1'
_cell_length_a   14.64014414
_cell_length_b   14.64014414
_cell_length_c   14.64014414
_cell_angle_alpha   90.00000000
_cell_angle_beta   90.00000000
_cell_angle_gamma   90.00000000
_symmetry_Int_Tables_number   1
_chemical_formula_structural   CsGa(PO3)4
_chemical_formula_sum   'Cs12 Ga12 P48 O144'
_cell_volume   3137.87802532
_cell_formula_units_Z   12
loop_
 _symmetry_equiv_pos_site_id
 _symmetry_equiv_pos_as_xyz
  1  'x, y, z'
loop_
 _atom_site_type_symbol
 _atom_site_label
 _atom_site_symmetry_multiplicity
 _atom_site_fract_x
 _atom_site_fract_y
 _atom_site_fract_z
 _atom_site_occupancy
  Cs  Cs0  1  -0.00000000  0.00000000  0.50000000  1
  Cs  Cs1  1  -0.00000000  0.50000000  -0.00000000  1
  Cs  Cs2  1  0.50000000  0.00000000  -0.00000000  1
  Cs  Cs3  1  0.50000000  0.50000000  0.50000000  1
  Cs  Cs4  1  0.34396206  0.65603794  0.15603794  1
  Cs  Cs5  1  0.65603794  0.15603794  0.34396206  1
  Cs  Cs6  1  0.15603794  0.34396206  0.65603794  1
  Cs  Cs7  1  0.84396206  0.84396206  0.84396206  1
  Cs  Cs8  1  0.65603794  0.34396206  0.84396206  1
  Cs  Cs9  1  0.34396206  0.84396206  0.65603794  1
  Cs  Cs10  1  0.84396206  0.65603794  0.34396206  1
  Cs  Cs11  1  0.15603794  0.15603794  0.15603794  1
  Ga  Ga12  1  0.50000000  0.50000000  -0.00000000  1
  Ga  Ga13  1  0.50000000  0.00000000  0.50000000  1
  Ga  Ga14  1  -0.00000000  0.50000000  0.50000000  1
  Ga  Ga15  1  -0.00000000  0.00000000  -0.00000000  1
  Ga  Ga16  1  0.19089287  0.80910713  0.30910713  1
  Ga  Ga17  1  0.80910713  0.30910713  0.19089287  1
  Ga  Ga18  1  0.30910713  0.19089287  0.80910713  1
  Ga  Ga19  1  0.69089287  0.69089287  0.69089287  1
  Ga  Ga20  1  0.80910713  0.19089287  0.69089287  1
  Ga  Ga21  1  0.19089287  0.69089287  0.80910713  1
  Ga  Ga22  1  0.69089287  0.80910713  0.19089287  1
  Ga  Ga23  1  0.30910713  0.30910713  0.30910713  1
  P  P24  1  0.08497088  0.71197311  0.47574126  1
  P  P25  1  0.91502912  0.21197311  0.02425874  1
  P  P26  1  0.41502912  0.28802689  0.97574126  1
  P  P27  1  0.58497088  0.78802689  0.52425874  1
  P  P28  1  0.47574126  0.08497088  0.71197311  1
  P  P29  1  0.02425874  0.91502912  0.21197311  1
  P  P30  1  0.97574126  0.41502912  0.28802689  1
  P  P31  1  0.52425874  0.58497088  0.78802689  1
  P  P32  1  0.71197311  0.47574126  0.08497088  1
  P  P33  1  0.21197311  0.02425874  0.91502912  1
  P  P34  1  0.28802689  0.97574126  0.41502912  1
  P  P35  1  0.78802689  0.52425874  0.58497088  1
  P  P36  1  0.91502912  0.28802689  0.52425874  1
  P  P37  1  0.08497088  0.78802689  0.97574126  1
  P  P38  1  0.58497088  0.71197311  0.02425874  1
  P  P39  1  0.41502912  0.21197311  0.47574126  1
  P  P40  1  0.52425874  0.91502912  0.28802689  1
  P  P41  1  0.97574126  0.08497088  0.78802689  1
  P  P42  1  0.02425874  0.58497088  0.71197311  1
  P  P43  1  0.47574126  0.41502912  0.21197311  1
  P  P44  1  0.28802689  0.52425874  0.91502912  1
  P  P45  1  0.78802689  0.97574126  0.08497088  1
  P  P46  1  0.71197311  0.02425874  0.58497088  1
  P  P47  1  0.21197311  0.47574126  0.41502912  1
  P  P48  1  0.27973403  0.66577326  0.44796048  1
  P  P49  1  0.72026597  0.16577326  0.05203952  1
  P  P50  1  0.22026597  0.33422674  0.94796048  1
  P  P51  1  0.77973403  0.83422674  0.55203952  1
  P  P52  1  0.44796048  0.27973403  0.66577326  1
  P  P53  1  0.05203952  0.72026597  0.16577326  1
  P  P54  1  0.94796048  0.22026597  0.33422674  1
  P  P55  1  0.55203952  0.77973403  0.83422674  1
  P  P56  1  0.66577326  0.44796048  0.27973403  1
  P  P57  1  0.16577326  0.05203952  0.72026597  1
  P  P58  1  0.33422674  0.94796048  0.22026597  1
  P  P59  1  0.83422674  0.55203952  0.77973403  1
  P  P60  1  0.72026597  0.33422674  0.55203952  1
  P  P61  1  0.27973403  0.83422674  0.94796048  1
  P  P62  1  0.77973403  0.66577326  0.05203952  1
  P  P63  1  0.22026597  0.16577326  0.44796048  1
  P  P64  1  0.55203952  0.72026597  0.33422674  1
  P  P65  1  0.94796048  0.27973403  0.83422674  1
  P  P66  1  0.05203952  0.77973403  0.66577326  1
  P  P67  1  0.44796048  0.22026597  0.16577326  1
  P  P68  1  0.33422674  0.55203952  0.72026597  1
  P  P69  1  0.83422674  0.94796048  0.27973403  1
  P  P70  1  0.66577326  0.05203952  0.77973403  1
  P  P71  1  0.16577326  0.44796048  0.22026597  1
  O  O72  1  0.17806839  0.50456245  0.31525677  1
  O  O73  1  0.82193161  0.00456245  0.18474323  1
  O  O74  1  0.32193161  0.49543755  0.81525677  1
  O  O75  1  0.67806839  0.99543755  0.68474323  1
  O  O76  1  0.31525677  0.17806839  0.50456245  1
  O  O77  1  0.18474323  0.82193161  0.00456245  1
  O  O78  1  0.81525677  0.32193161  0.49543755  1
  O  O79  1  0.68474323  0.67806839  0.99543755  1
  O  O80  1  0.50456245  0.31525677  0.17806839  1
  O  O81  1  0.00456245  0.18474323  0.82193161  1
  O  O82  1  0.49543755  0.81525677  0.32193161  1
  O  O83  1  0.99543755  0.68474323  0.67806839  1
  O  O84  1  0.82193161  0.49543755  0.68474323  1
  O  O85  1  0.17806839  0.99543755  0.81525677  1
  O  O86  1  0.67806839  0.50456245  0.18474323  1
  O  O87  1  0.32193161  0.00456245  0.31525677  1
  O  O88  1  0.68474323  0.82193161  0.49543755  1
  O  O89  1  0.81525677  0.17806839  0.99543755  1
  O  O90  1  0.18474323  0.67806839  0.50456245  1
  O  O91  1  0.31525677  0.32193161  0.00456245  1
  O  O92  1  0.49543755  0.68474323  0.82193161  1
  O  O93  1  0.99543755  0.81525677  0.17806839  1
  O  O94  1  0.50456245  0.18474323  0.67806839  1
  O  O95  1  0.00456245  0.31525677  0.32193161  1
  O  O96  1  0.02139195  0.98120059  0.13309138  1
  O  O97  1  0.97860805  0.48120059  0.36690862  1
  O  O98  1  0.47860805  0.01879941  0.63309138  1
  O  O99  1  0.52139195  0.51879941  0.86690862  1
  O  O100  1  0.13309138  0.02139195  0.98120059  1
  O  O101  1  0.36690862  0.97860805  0.48120059  1
  O  O102  1  0.63309138  0.47860805  0.01879941  1
  O  O103  1  0.86690862  0.52139195  0.51879941  1
  O  O104  1  0.98120059  0.13309138  0.02139195  1
  O  O105  1  0.48120059  0.36690862  0.97860805  1
  O  O106  1  0.01879941  0.63309138  0.47860805  1
  O  O107  1  0.51879941  0.86690862  0.52139195  1
  O  O108  1  0.97860805  0.01879941  0.86690862  1
  O  O109  1  0.02139195  0.51879941  0.63309138  1
  O  O110  1  0.52139195  0.98120059  0.36690862  1
  O  O111  1  0.47860805  0.48120059  0.13309138  1
  O  O112  1  0.86690862  0.97860805  0.01879941  1
  O  O113  1  0.63309138  0.02139195  0.51879941  1
  O  O114  1  0.36690862  0.52139195  0.98120059  1
  O  O115  1  0.13309138  0.47860805  0.48120059  1
  O  O116  1  0.01879941  0.86690862  0.97860805  1
  O  O117  1  0.51879941  0.63309138  0.02139195  1
  O  O118  1  0.98120059  0.36690862  0.52139195  1
  O  O119  1  0.48120059  0.13309138  0.47860805  1
  O  O120  1  0.49543020  0.64190992  0.30677563  1
  O  O121  1  0.50456980  0.14190992  0.19322437  1
  O  O122  1  0.00456980  0.35809008  0.80677563  1
  O  O123  1  0.99543020  0.85809008  0.69322437  1
  O  O124  1  0.30677563  0.49543020  0.64190992  1
  O  O125  1  0.19322437  0.50456980  0.14190992  1
  O  O126  1  0.80677563  0.00456980  0.35809008  1
  O  O127  1  0.69322437  0.99543020  0.85809008  1
  O  O128  1  0.64190992  0.30677563  0.49543020  1
  O  O129  1  0.14190992  0.19322437  0.50456980  1
  O  O130  1  0.35809008  0.80677563  0.00456980  1
  O  O131  1  0.85809008  0.69322437  0.99543020  1
  O  O132  1  0.50456980  0.35809008  0.69322437  1
  O  O133  1  0.49543020  0.85809008  0.80677563  1
  O  O134  1  0.99543020  0.64190992  0.19322437  1
  O  O135  1  0.00456980  0.14190992  0.30677563  1
  O  O136  1  0.69322437  0.50456980  0.35809008  1
  O  O137  1  0.80677563  0.49543020  0.85809008  1
  O  O138  1  0.19322437  0.99543020  0.64190992  1
  O  O139  1  0.30677563  0.00456980  0.14190992  1
  O  O140  1  0.35809008  0.69322437  0.50456980  1
  O  O141  1  0.85809008  0.80677563  0.49543020  1
  O  O142  1  0.64190992  0.19322437  0.99543020  1
  O  O143  1  0.14190992  0.30677563  0.00456980  1
  O  O144  1  0.29434386  0.85309092  0.23523891  1
  O  O145  1  0.70565614  0.35309092  0.26476109  1
  O  O146  1  0.20565614  0.14690908  0.73523891  1
  O  O147  1  0.79434386  0.64690908  0.76476109  1
  O  O148  1  0.23523891  0.29434386  0.85309092  1
  O  O149  1  0.26476109  0.70565614  0.35309092  1
  O  O150  1  0.73523891  0.20565614  0.14690908  1
  O  O151  1  0.76476109  0.79434386  0.64690908  1
  O  O152  1  0.85309092  0.23523891  0.29434386  1
  O  O153  1  0.35309092  0.26476109  0.70565614  1
  O  O154  1  0.14690908  0.73523891  0.20565614  1
  O  O155  1  0.64690908  0.76476109  0.79434386  1
  O  O156  1  0.70565614  0.14690908  0.76476109  1
  O  O157  1  0.29434386  0.64690908  0.73523891  1
  O  O158  1  0.79434386  0.85309092  0.26476109  1
  O  O159  1  0.20565614  0.35309092  0.23523891  1
  O  O160  1  0.76476109  0.70565614  0.14690908  1
  O  O161  1  0.73523891  0.29434386  0.64690908  1
  O  O162  1  0.26476109  0.79434386  0.85309092  1
  O  O163  1  0.23523891  0.20565614  0.35309092  1
  O  O164  1  0.14690908  0.76476109  0.70565614  1
  O  O165  1  0.64690908  0.73523891  0.29434386  1
  O  O166  1  0.85309092  0.26476109  0.79434386  1
  O  O167  1  0.35309092  0.23523891  0.20565614  1
  O  O168  1  0.08690821  0.76558934  0.38772575  1
  O  O169  1  0.91309179  0.26558934  0.11227425  1
  O  O170  1  0.41309179  0.23441066  0.88772575  1
  O  O171  1  0.58690821  0.73441066  0.61227425  1
  O  O172  1  0.38772575  0.08690821  0.76558934  1
  O  O173  1  0.11227425  0.91309179  0.26558934  1
  O  O174  1  0.88772575  0.41309179  0.23441066  1
  O  O175  1  0.61227425  0.58690821  0.73441066  1
  O  O176  1  0.76558934  0.38772575  0.08690821  1
  O  O177  1  0.26558934  0.11227425  0.91309179  1
  O  O178  1  0.23441066  0.88772575  0.41309179  1
  O  O179  1  0.73441066  0.61227425  0.58690821  1
  O  O180  1  0.91309179  0.23441066  0.61227425  1
  O  O181  1  0.08690821  0.73441066  0.88772575  1
  O  O182  1  0.58690821  0.76558934  0.11227425  1
  O  O183  1  0.41309179  0.26558934  0.38772575  1
  O  O184  1  0.61227425  0.91309179  0.23441066  1
  O  O185  1  0.88772575  0.08690821  0.73441066  1
  O  O186  1  0.11227425  0.58690821  0.76558934  1
  O  O187  1  0.38772575  0.41309179  0.26558934  1
  O  O188  1  0.23441066  0.61227425  0.91309179  1
  O  O189  1  0.73441066  0.88772575  0.08690821  1
  O  O190  1  0.76558934  0.11227425  0.58690821  1
  O  O191  1  0.26558934  0.38772575  0.41309179  1
  O  O192  1  0.28357176  0.55500504  0.43676714  1
  O  O193  1  0.71642824  0.05500504  0.06323286  1
  O  O194  1  0.21642824  0.44499496  0.93676714  1
  O  O195  1  0.78357176  0.94499496  0.56323286  1
  O  O196  1  0.43676714  0.28357176  0.55500504  1
  O  O197  1  0.06323286  0.71642824  0.05500504  1
  O  O198  1  0.93676714  0.21642824  0.44499496  1
  O  O199  1  0.56323286  0.78357176  0.94499496  1
  O  O200  1  0.55500504  0.43676714  0.28357176  1
  O  O201  1  0.05500504  0.06323286  0.71642824  1
  O  O202  1  0.44499496  0.93676714  0.21642824  1
  O  O203  1  0.94499496  0.56323286  0.78357176  1
  O  O204  1  0.71642824  0.44499496  0.56323286  1
  O  O205  1  0.28357176  0.94499496  0.93676714  1
  O  O206  1  0.78357176  0.55500504  0.06323286  1
  O  O207  1  0.21642824  0.05500504  0.43676714  1
  O  O208  1  0.56323286  0.71642824  0.44499496  1
  O  O209  1  0.93676714  0.28357176  0.94499496  1
  O  O210  1  0.06323286  0.78357176  0.55500504  1
  O  O211  1  0.43676714  0.21642824  0.05500504  1
  O  O212  1  0.44499496  0.56323286  0.71642824  1
  O  O213  1  0.94499496  0.93676714  0.28357176  1
  O  O214  1  0.55500504  0.06323286  0.78357176  1
  O  O215  1  0.05500504  0.43676714  0.21642824  1
