# generated using pymatgen
data_Nd2SiTeO4
_symmetry_space_group_name_H-M   'P 1'
_cell_length_a   6.43374884
_cell_length_b   8.71365890
_cell_length_c   9.86818881
_cell_angle_alpha   94.74707259
_cell_angle_beta   90.00000000
_cell_angle_gamma   90.00000000
_symmetry_Int_Tables_number   1
_chemical_formula_structural   Nd2SiTeO4
_chemical_formula_sum   'Nd8 Si4 Te4 O16'
_cell_volume   551.32768472
_cell_formula_units_Z   4
loop_
 _symmetry_equiv_pos_site_id
 _symmetry_equiv_pos_as_xyz
  1  'x, y, z'
loop_
 _atom_site_type_symbol
 _atom_site_label
 _atom_site_symmetry_multiplicity
 _atom_site_fract_x
 _atom_site_fract_y
 _atom_site_fract_z
 _atom_site_occupancy
  Nd  Nd0  1  0.69557961  0.16455102  0.65420010  1
  Nd  Nd1  1  0.80442039  0.66455102  0.65420010  1
  Nd  Nd2  1  0.30442039  0.83544898  0.34579990  1
  Nd  Nd3  1  0.19557961  0.33544898  0.34579990  1
  Nd  Nd4  1  0.84792733  0.69398558  0.10462624  1
  Nd  Nd5  1  0.34792733  0.80601442  0.89537376  1
  Nd  Nd6  1  0.15207267  0.30601442  0.89537376  1
  Nd  Nd7  1  0.65207267  0.19398558  0.10462624  1
  Si  Si8  1  0.19042054  0.05699344  0.12454060  1
  Si  Si9  1  0.80957946  0.94300656  0.87545940  1
  Si  Si10  1  0.69042054  0.44300556  0.87545940  1
  Si  Si11  1  0.30957946  0.55699344  0.12454060  1
  Te  Te12  1  0.28617793  0.61641505  0.59400724  1
  Te  Te13  1  0.78617893  0.88358495  0.40599276  1
  Te  Te14  1  0.71382107  0.38358495  0.40599276  1
  Te  Te15  1  0.21382107  0.11641505  0.59400724  1
  O  O16  1  0.14106139  0.59092048  0.24793873  1
  O  O17  1  0.64106139  0.90907952  0.75206127  1
  O  O18  1  0.85893861  0.40907952  0.75206127  1
  O  O19  1  0.35893861  0.09092048  0.24793873  1
  O  O20  1  0.48888044  0.68456410  0.15329182  1
  O  O21  1  0.98888044  0.81543590  0.84670818  1
  O  O22  1  0.51111956  0.31543590  0.84670818  1
  O  O23  1  0.01111956  0.18456410  0.15329182  1
  O  O24  1  0.13320459  0.87619603  0.12476503  1
  O  O25  1  0.80731110  0.42180359  0.01932386  1
  O  O26  1  0.86679541  0.12380397  0.87523497  1
  O  O27  1  0.36679541  0.37619603  0.12476503  1
  O  O28  1  0.69268890  0.92180359  0.01932386  1
  O  O29  1  0.19268890  0.57819641  0.98067614  1
  O  O30  1  0.30731110  0.07819641  0.98067614  1
  O  O31  1  0.63320459  0.62380397  0.87523497  1
