# generated using pymatgen
data_KSb5S8
_symmetry_space_group_name_H-M   'P 1'
_cell_length_a   19.65786740
_cell_length_b   8.37507334
_cell_length_c   12.33876911
_cell_angle_alpha   48.08829599
_cell_angle_beta   90.00000000
_cell_angle_gamma   90.00000000
_symmetry_Int_Tables_number   1
_chemical_formula_structural   KSb5S8
_chemical_formula_sum   'K4 Sb20 S32'
_cell_volume   1511.72222509
_cell_formula_units_Z   4
loop_
 _symmetry_equiv_pos_site_id
 _symmetry_equiv_pos_as_xyz
  1  'x, y, z'
loop_
 _atom_site_type_symbol
 _atom_site_label
 _atom_site_symmetry_multiplicity
 _atom_site_fract_x
 _atom_site_fract_y
 _atom_site_fract_z
 _atom_site_occupancy
  K  K0  1  0.94939995  0.07559579  0.23391729  1
  K  K1  1  0.05060005  0.07559579  0.73391729  1
  K  K2  1  0.55754449  0.00544808  0.50109481  1
  K  K3  1  0.44245551  0.00544808  0.00109481  1
  Sb  Sb4  1  0.84840268  0.40121090  0.53332254  1
  Sb  Sb5  1  0.15159732  0.40121090  0.03332254  1
  Sb  Sb6  1  0.95494529  0.57722830  0.70485365  1
  Sb  Sb7  1  0.04505471  0.57722830  0.20485365  1
  Sb  Sb8  1  0.87229906  0.00621374  0.97291063  1
  Sb  Sb9  1  0.12770094  0.00621374  0.47291063  1
  Sb  Sb10  1  0.62714598  0.63736583  0.29296438  1
  Sb  Sb11  1  0.37285402  0.63736583  0.79296438  1
  Sb  Sb12  1  0.74085920  0.80290441  0.49491752  1
  Sb  Sb13  1  0.25914080  0.80290441  0.99491752  1
  Sb  Sb14  1  0.78371452  0.38064025  0.24337123  1
  Sb  Sb15  1  0.21628548  0.38064025  0.74337123  1
  Sb  Sb16  1  0.71065371  0.20479428  0.04949612  1
  Sb  Sb17  1  0.28934629  0.20479428  0.54949612  1
  Sb  Sb18  1  0.54090736  0.57647796  0.95394881  1
  Sb  Sb19  1  0.45909264  0.57647796  0.45394881  1
  Sb  Sb20  1  0.64934246  0.14909834  0.77062578  1
  Sb  Sb21  1  0.35065754  0.14909834  0.27062578  1
  Sb  Sb22  1  0.77158650  0.79037577  0.80100465  1
  Sb  Sb23  1  0.22841350  0.79037577  0.30100465  1
  S  S24  1  0.96301201  0.55719176  0.51661329  1
  S  S25  1  0.03698799  0.55719176  0.01661329  1
  S  S26  1  0.91927656  0.64997217  0.19298114  1
  S  S27  1  0.08072344  0.64997217  0.69298114  1
  S  S28  1  0.98239048  0.19607067  0.92152758  1
  S  S29  1  0.01760952  0.19607067  0.42152758  1
  S  S30  1  0.50658530  0.53672709  0.28713783  1
  S  S31  1  0.49341470  0.53672709  0.78713783  1
  S  S32  1  0.59406823  0.60599076  0.49668837  1
  S  S33  1  0.40593177  0.60599076  -0.00331163  1
  S  S34  1  0.80312194  0.43921681  0.70153826  1
  S  S35  1  0.19687806  0.43921681  0.20153826  1
  S  S36  1  0.77674690  0.76944146  0.32354940  1
  S  S37  1  0.22325310  0.76944146  0.82354940  1
  S  S38  1  0.83938879  0.03001733  0.45123101  1
  S  S39  1  0.16061121  0.03001733  0.95123101  1
  S  S40  1  0.59970957  0.02030173  0.08809506  1
  S  S41  1  0.40029043  0.02030173  0.58809506  1
  S  S42  1  0.67718201  0.20802924  0.24457134  1
  S  S43  1  0.32281799  0.20802924  0.74457134  1
  S  S44  1  0.54097192  0.97514597  0.78853616  1
  S  S45  1  0.45902808  0.97514597  0.28853616  1
  S  S46  1  0.65903813  0.55988593  0.84278359  1
  S  S47  1  0.34096187  0.55988593  0.34278359  1
  S  S48  1  0.27927046  0.82202420  0.46788788  1
  S  S49  1  0.72072954  0.82202420  0.96788788  1
  S  S50  1  0.29345561  0.15508048  0.09121124  1
  S  S51  1  0.70654439  0.15508048  0.59121124  1
  S  S52  1  0.11174749  0.99391920  0.28177067  1
  S  S53  1  0.88825251  0.99391920  0.78177067  1
  S  S54  1  0.16838516  0.42133354  0.54535077  1
  S  S55  1  0.83161484  0.42133354  0.04535077  1
