# generated using pymatgen
data_Fe4OF6
_symmetry_space_group_name_H-M   'P 1'
_cell_length_a   5.16004006
_cell_length_b   7.18946648
_cell_length_c   7.14826210
_cell_angle_alpha   91.46828497
_cell_angle_beta   90.23628725
_cell_angle_gamma   90.36731971
_symmetry_Int_Tables_number   1
_chemical_formula_structural   Fe4OF6
_chemical_formula_sum   'Fe8 O2 F12'
_cell_volume   265.09080558
_cell_formula_units_Z   2
loop_
 _symmetry_equiv_pos_site_id
 _symmetry_equiv_pos_as_xyz
  1  'x, y, z'
loop_
 _atom_site_type_symbol
 _atom_site_label
 _atom_site_symmetry_multiplicity
 _atom_site_fract_x
 _atom_site_fract_y
 _atom_site_fract_z
 _atom_site_occupancy
  Fe  Fe0  1  0.44211200  0.50905900  0.74398900  1
  Fe  Fe1  1  0.94171800  0.74143400  0.50669800  1
  Fe  Fe2  1  0.96434500  0.74535700  0.01922000  1
  Fe  Fe3  1  0.46676100  0.02228900  0.74761500  1
  Fe  Fe4  1  0.53440900  0.97837700  0.25629400  1
  Fe  Fe5  1  0.05793700  0.25634000  0.49314600  1
  Fe  Fe6  1  0.03722000  0.25849000  0.98167700  1
  Fe  Fe7  1  0.55764900  0.49104500  0.25492600  1
  O  O8  1  0.24951800  0.25107300  0.75024300  1
  O  O9  1  0.75114900  0.74956600  0.25082200  1
  F  F10  1  0.87448800  0.29360400  0.23663000  1
  F  F11  1  0.37038600  0.23251900  0.28233400  1
  F  F12  1  0.12222900  0.70424700  0.76311600  1
  F  F13  1  0.62596900  0.76738000  0.71388200  1
  F  F14  1  0.75474800  0.03790500  0.96641100  1
  F  F15  1  0.75211200  0.06115200  0.52591900  1
  F  F16  1  0.74867300  0.46200800  0.53976000  1
  F  F17  1  0.74216200  0.47209800  0.94097600  1
  F  F18  1  0.25553400  0.52903100  0.06045700  1
  F  F19  1  0.25099700  0.53695300  0.45959300  1
  F  F20  1  0.25662900  0.95826400  0.03137400  1
  F  F21  1  0.24325400  0.94180600  0.47492000  1
