# generated using pymatgen
data_Ga2PbSe4
_symmetry_space_group_name_H-M   'P 1'
_cell_length_a   6.26409156
_cell_length_b   6.26409156
_cell_length_c   10.91882396
_cell_angle_alpha   90.00000000
_cell_angle_beta   90.00000000
_cell_angle_gamma   119.84659149
_symmetry_Int_Tables_number   1
_chemical_formula_structural   Ga2PbSe4
_chemical_formula_sum   'Ga4 Pb2 Se8'
_cell_volume   371.61391557
_cell_formula_units_Z   2
loop_
 _symmetry_equiv_pos_site_id
 _symmetry_equiv_pos_as_xyz
  1  'x, y, z'
loop_
 _atom_site_type_symbol
 _atom_site_label
 _atom_site_symmetry_multiplicity
 _atom_site_fract_x
 _atom_site_fract_y
 _atom_site_fract_z
 _atom_site_occupancy
  Ga  Ga0  1  0.76042014  0.23668263  0.50000000  1
  Ga  Ga1  1  0.23957986  0.76331737  0.50000000  1
  Ga  Ga2  1  0.76331737  0.23957986  0.00000000  1
  Ga  Ga3  1  0.23668263  0.76042014  0.00000000  1
  Pb  Pb4  1  0.50000000  0.50000000  0.25000000  1
  Pb  Pb5  1  0.50000000  0.50000000  0.75000000  1
  Se  Se6  1  0.81288170  0.65156472  0.50000000  1
  Se  Se7  1  0.18711830  0.34843528  0.50000000  1
  Se  Se8  1  0.34843528  0.18711830  0.00000000  1
  Se  Se9  1  0.65156472  0.81288170  0.00000000  1
  Se  Se10  1  0.00000000  0.50000000  0.16954683  1
  Se  Se11  1  0.50000000  -0.00000000  0.33045317  1
  Se  Se12  1  0.00000000  0.50000000  0.83045317  1
  Se  Se13  1  0.50000000  -0.00000000  0.66954683  1
