# generated using pymatgen
data_Pr2HfS5
_symmetry_space_group_name_H-M   'P 1'
_cell_length_a   7.40190545
_cell_length_b   8.06202239
_cell_length_c   11.60210436
_cell_angle_alpha   90.00000000
_cell_angle_beta   90.00000000
_cell_angle_gamma   90.00000000
_symmetry_Int_Tables_number   1
_chemical_formula_structural   Pr2HfS5
_chemical_formula_sum   'Pr8 Hf4 S20'
_cell_volume   692.34777488
_cell_formula_units_Z   4
loop_
 _symmetry_equiv_pos_site_id
 _symmetry_equiv_pos_as_xyz
  1  'x, y, z'
loop_
 _atom_site_type_symbol
 _atom_site_label
 _atom_site_symmetry_multiplicity
 _atom_site_fract_x
 _atom_site_fract_y
 _atom_site_fract_z
 _atom_site_occupancy
  Pr  Pr0  1  0.54324626  0.00044062  0.32563647  1
  Pr  Pr1  1  0.95675374  0.49955938  0.82563647  1
  Pr  Pr2  1  0.45675374  0.50044062  0.67436353  1
  Pr  Pr3  1  0.04324626  -0.00044062  0.17436353  1
  Pr  Pr4  1  0.45675374  -0.00044062  0.67436353  1
  Pr  Pr5  1  0.04324626  0.50044062  0.17436353  1
  Pr  Pr6  1  0.54324626  0.49955938  0.32563647  1
  Pr  Pr7  1  0.95675374  0.00044062  0.82563647  1
  Hf  Hf8  1  0.07180377  0.75000000  0.49260256  1
  Hf  Hf9  1  0.42819623  0.75000000  0.99260256  1
  Hf  Hf10  1  0.92819623  0.25000000  0.50739744  1
  Hf  Hf11  1  0.57180377  0.25000000  0.00739744  1
  S  S12  1  0.83150527  0.53403635  0.58027944  1
  S  S13  1  0.66849473  0.96596365  0.08027944  1
  S  S14  1  0.16849473  0.03403635  0.41972056  1
  S  S15  1  0.33150527  0.46596365  0.91972056  1
  S  S16  1  0.16849473  0.46596365  0.41972056  1
  S  S17  1  0.33150527  0.03403635  0.91972056  1
  S  S18  1  0.83150527  0.96596365  0.58027944  1
  S  S19  1  0.66849473  0.53403635  0.08027944  1
  S  S20  1  0.85112295  0.75000000  0.31467406  1
  S  S21  1  0.64887705  0.75000000  0.81467406  1
  S  S22  1  0.14887705  0.25000000  0.68532594  1
  S  S23  1  0.35112295  0.25000000  0.18532594  1
  S  S24  1  0.44011970  0.75000000  0.49463923  1
  S  S25  1  0.05988030  0.75000000  0.99463923  1
  S  S26  1  0.55988030  0.25000000  0.50536077  1
  S  S27  1  0.94011970  0.25000000  0.00536077  1
  S  S28  1  0.16976351  0.75000000  0.70488631  1
  S  S29  1  0.33023649  0.75000000  0.20488631  1
  S  S30  1  0.83023649  0.25000000  0.29511369  1
  S  S31  1  0.66976351  0.25000000  0.79511369  1
