# generated using pymatgen
data_NaZnBP2O11
_symmetry_space_group_name_H-M   'P 1'
_cell_length_a   10.05422209
_cell_length_b   10.05422209
_cell_length_c   14.68039772
_cell_angle_alpha   90.00000000
_cell_angle_beta   90.00000000
_cell_angle_gamma   119.99999767
_symmetry_Int_Tables_number   1
_chemical_formula_structural   NaZnBP2O11
_chemical_formula_sum   'Na6 Zn6 B6 P12 O66'
_cell_volume   1285.18430036
_cell_formula_units_Z   6
loop_
 _symmetry_equiv_pos_site_id
 _symmetry_equiv_pos_as_xyz
  1  'x, y, z'
loop_
 _atom_site_type_symbol
 _atom_site_label
 _atom_site_symmetry_multiplicity
 _atom_site_fract_x
 _atom_site_fract_y
 _atom_site_fract_z
 _atom_site_occupancy
  Na  Na0  1  0.73664496  0.26335504  0.75000000  1
  Na  Na1  1  0.52671008  0.26335504  0.41666700  1
  Na  Na2  1  0.26335504  0.73664496  0.25000000  1
  Na  Na3  1  0.47328992  0.73664496  0.91666700  1
  Na  Na4  1  0.73664496  0.47328992  0.08333300  1
  Na  Na5  1  0.26335504  0.52671008  0.58333300  1
  Zn  Zn6  1  0.49663322  0.50336678  0.75000000  1
  Zn  Zn7  1  0.00673356  0.50336678  0.41666700  1
  Zn  Zn8  1  0.50336678  0.49663322  0.25000000  1
  Zn  Zn9  1  0.99326644  0.49663322  0.91666700  1
  Zn  Zn10  1  0.49663322  0.99326644  0.08333300  1
  Zn  Zn11  1  0.50336678  0.00673356  0.58333300  1
  B  B12  1  0.15824363  0.84175637  0.75000000  1
  B  B13  1  0.68351274  0.84175637  0.41666700  1
  B  B14  1  0.84175637  0.15824363  0.25000000  1
  B  B15  1  0.31648726  0.15824363  0.91666700  1
  B  B16  1  0.15824363  0.31648726  0.08333300  1
  B  B17  1  0.84175637  0.68351274  0.58333300  1
  P  P18  1  0.62159266  0.77105214  0.59719212  1
  P  P19  1  0.14945948  0.37840734  0.26385912  1
  P  P20  1  0.37840734  0.22894786  0.09719212  1
  P  P21  1  0.85054052  0.22894786  0.06947488  1
  P  P22  1  0.22894786  0.85054052  0.93052512  1
  P  P23  1  0.85054052  0.62159266  0.76385912  1
  P  P24  1  0.77105214  0.62159266  0.40280788  1
  P  P25  1  0.14945948  0.77105214  0.56947488  1
  P  P26  1  0.77105214  0.14945948  0.43052512  1
  P  P27  1  0.22894786  0.37840734  0.90280788  1
  P  P28  1  0.37840734  0.14945948  0.73614088  1
  P  P29  1  0.62159266  0.85054052  0.23614088  1
  O  O30  1  0.77014825  0.11561805  0.86465441  1
  O  O31  1  0.34546979  0.22985175  0.53132141  1
  O  O32  1  0.22985175  0.88438195  0.36465441  1
  O  O33  1  0.65453021  0.88438195  0.80201259  1
  O  O34  1  0.88438195  0.65453021  0.19798741  1
  O  O35  1  0.65453021  0.77014825  0.03132141  1
  O  O36  1  0.11561805  0.77014825  0.13534559  1
  O  O37  1  0.34546979  0.11561805  0.30201259  1
  O  O38  1  0.11561805  0.34546979  0.69798741  1
  O  O39  1  0.88438195  0.22985175  0.63534559  1
  O  O40  1  0.22985175  0.34546979  0.46867859  1
  O  O41  1  0.77014825  0.65453021  0.96867859  1
  O  O42  1  0.77975825  0.77975825  0.00000000  1
  O  O43  1  0.00000000  0.22024175  0.66666700  1
  O  O44  1  0.22024175  0.22024175  0.50000000  1
  O  O45  1  0.22024175  0.00000000  0.33333300  1
  O  O46  1  1.00000000  0.77975825  0.16666700  1
  O  O47  1  0.77975825  1.00000000  0.83333300  1
  O  O48  1  0.57943040  0.75118949  0.49236209  1
  O  O49  1  0.17175909  0.42056960  0.15902909  1
  O  O50  1  0.42056960  0.24881051  0.99236209  1
  O  O51  1  0.82824091  0.24881051  0.17430491  1
  O  O52  1  0.24881051  0.82824091  0.82569509  1
  O  O53  1  0.82824091  0.57943040  0.65902909  1
  O  O54  1  0.75118949  0.57943040  0.50763791  1
  O  O55  1  0.17175909  0.75118949  0.67430491  1
  O  O56  1  0.75118949  0.17175909  0.32569509  1
  O  O57  1  0.24881051  0.42056960  0.00763791  1
  O  O58  1  0.42056960  0.17175909  0.84097091  1
  O  O59  1  0.57943040  0.82824091  0.34097091  1
  O  O60  1  0.62324229  0.91621067  0.63132625  1
  O  O61  1  0.29296838  0.37675771  0.29799325  1
  O  O62  1  0.37675771  0.08378933  0.13132625  1
  O  O63  1  0.70703162  0.08378933  0.03534075  1
  O  O64  1  0.08378933  0.70703162  0.96465925  1
  O  O65  1  0.70703162  0.62324229  0.79799325  1
  O  O66  1  0.91621067  0.62324229  0.36867375  1
  O  O67  1  0.29296838  0.91621067  0.53534075  1
  O  O68  1  0.91621067  0.29296838  0.46465925  1
  O  O69  1  0.08378933  0.37675771  0.86867375  1
  O  O70  1  0.37675771  0.29296838  0.70200675  1
  O  O71  1  0.62324229  0.70703162  0.20200675  1
  O  O72  1  0.78324277  0.78747505  0.60989303  1
  O  O73  1  0.00423228  0.21675723  0.27656003  1
  O  O74  1  0.21675723  0.21252495  0.10989303  1
  O  O75  1  0.99576772  0.21252495  0.05677397  1
  O  O76  1  0.21252495  0.99576772  0.94322603  1
  O  O77  1  0.99576772  0.78324277  0.77656003  1
  O  O78  1  0.78747505  0.78324277  0.39010697  1
  O  O79  1  0.00423228  0.78747505  0.55677397  1
  O  O80  1  0.78747505  0.00423228  0.44322603  1
  O  O81  1  0.21252495  0.21675723  0.89010697  1
  O  O82  1  0.21675723  0.00423228  0.72343997  1
  O  O83  1  0.78324277  0.99576772  0.22343997  1
  O  O84  1  0.37356751  0.50488057  0.85508017  1
  O  O85  1  0.13131305  0.62643249  0.52174717  1
  O  O86  1  0.62643249  0.49511943  0.35508017  1
  O  O87  1  0.86868695  0.49511943  0.81158683  1
  O  O88  1  0.49511943  0.86868695  0.18841317  1
  O  O89  1  0.86868695  0.37356751  0.02174717  1
  O  O90  1  0.50488057  0.37356751  0.14491983  1
  O  O91  1  0.13131305  0.50488057  0.31158683  1
  O  O92  1  0.50488057  0.13131305  0.68841317  1
  O  O93  1  0.49511943  0.62643249  0.64491983  1
  O  O94  1  0.62643249  0.13131305  0.47825283  1
  O  O95  1  0.37356751  0.86868695  0.97825283  1
