# generated using pymatgen
data_CeTlF5
_symmetry_space_group_name_H-M   'P 1'
_cell_length_a   8.27363409
_cell_length_b   8.15768151
_cell_length_c   13.54061819
_cell_angle_alpha   90.00000000
_cell_angle_beta   90.00000000
_cell_angle_gamma   102.96680332
_symmetry_Int_Tables_number   1
_chemical_formula_structural   CeTlF5
_chemical_formula_sum   'Ce8 Tl8 F40'
_cell_volume   890.60165234
_cell_formula_units_Z   8
loop_
 _symmetry_equiv_pos_site_id
 _symmetry_equiv_pos_as_xyz
  1  'x, y, z'
loop_
 _atom_site_type_symbol
 _atom_site_label
 _atom_site_symmetry_multiplicity
 _atom_site_fract_x
 _atom_site_fract_y
 _atom_site_fract_z
 _atom_site_occupancy
  Ce  Ce0  1  0.03655195  0.05600651  0.74629235  1
  Ce  Ce1  1  0.96344805  0.94399349  0.25370765  1
  Ce  Ce2  1  0.46344805  0.94399349  0.24629235  1
  Ce  Ce3  1  0.53655195  0.05600651  0.75370765  1
  Ce  Ce4  1  0.09590869  0.51703158  0.25612029  1
  Ce  Ce5  1  0.90409131  0.48296842  0.74387971  1
  Ce  Ce6  1  0.40409131  0.48296842  0.75612029  1
  Ce  Ce7  1  0.59590869  0.51703158  0.24387971  1
  Tl  Tl8  1  0.30229341  0.22223402  0.48106376  1
  Tl  Tl9  1  0.69770659  0.77776598  0.51893624  1
  Tl  Tl10  1  0.19770659  0.77776598  0.98106376  1
  Tl  Tl11  1  0.80229341  0.22223402  0.01893624  1
  Tl  Tl12  1  0.27781951  0.26692306  0.02266206  1
  Tl  Tl13  1  0.72218049  0.73307694  0.97733794  1
  Tl  Tl14  1  0.22218049  0.73307694  0.52266206  1
  Tl  Tl15  1  0.77781951  0.26692306  0.47733794  1
  F  F16  1  0.06247755  0.47835265  0.09948201  1
  F  F17  1  0.93752245  0.52164735  0.90051799  1
  F  F18  1  0.43752245  0.52164735  0.59948201  1
  F  F19  1  0.56247755  0.47835265  0.40051799  1
  F  F20  1  0.01591236  0.72512235  0.35171862  1
  F  F21  1  0.98408764  0.27487765  0.64828138  1
  F  F22  1  0.48408764  0.27487765  0.85171862  1
  F  F23  1  0.51591236  0.72512235  0.14828138  1
  F  F24  1  0.11127981  0.43192735  0.40718284  1
  F  F25  1  0.88872019  0.56807265  0.59281716  1
  F  F26  1  0.38872019  0.56807265  0.90718284  1
  F  F27  1  0.61127981  0.43192735  0.09281716  1
  F  F28  1  0.31112914  0.21727697  0.68690284  1
  F  F29  1  0.68887086  0.78272303  0.31309716  1
  F  F30  1  0.18887086  0.78272303  0.18690284  1
  F  F31  1  0.81112914  0.21727697  0.81309716  1
  F  F32  1  0.02964083  0.23030736  0.23978964  1
  F  F33  1  0.97035917  0.76969264  0.76021036  1
  F  F34  1  0.47035917  0.76969264  0.73978964  1
  F  F35  1  0.52964083  0.23030736  0.26021036  1
  F  F36  1  0.35586327  0.67922221  0.32085816  1
  F  F37  1  0.64413673  0.32077779  0.67914184  1
  F  F38  1  0.14413673  0.32077779  0.82085816  1
  F  F39  1  0.85586327  0.67922221  0.17914184  1
  F  F40  1  0.48163005  0.00940040  0.60055461  1
  F  F41  1  0.51836995  0.99059960  0.39944539  1
  F  F42  1  0.01836995  0.99059960  0.10055461  1
  F  F43  1  0.98163005  0.00940040  0.89944539  1
  F  F44  1  0.42261639  0.02797700  0.10004216  1
  F  F45  1  0.57738361  0.97202300  0.89995784  1
  F  F46  1  0.07738361  0.97202300  0.60004216  1
  F  F47  1  0.92261639  0.02797700  0.39995784  1
  F  F48  1  0.32343631  0.42002351  0.20810497  1
  F  F49  1  0.67656369  0.57997649  0.79189503  1
  F  F50  1  0.17656369  0.57997649  0.70810497  1
  F  F51  1  0.82343631  0.42002351  0.29189503  1
  F  F52  1  0.23299429  0.03052942  0.30466122  1
  F  F53  1  0.76700571  0.96947058  0.69533878  1
  F  F54  1  0.26700571  0.96947058  0.80466122  1
  F  F55  1  0.73299429  0.03052942  0.19533878  1
