# generated using pymatgen
data_CsLu(NbBr3)6
_symmetry_space_group_name_H-M   'P 1'
_cell_length_a   9.80909084
_cell_length_b   9.80909084
_cell_length_c   18.29688726
_cell_angle_alpha   90.00000000
_cell_angle_beta   90.00000000
_cell_angle_gamma   120.00000311
_symmetry_Int_Tables_number   1
_chemical_formula_structural   CsLu(NbBr3)6
_chemical_formula_sum   'Cs2 Lu2 Nb12 Br36'
_cell_volume   1524.63309684
_cell_formula_units_Z   2
loop_
 _symmetry_equiv_pos_site_id
 _symmetry_equiv_pos_as_xyz
  1  'x, y, z'
loop_
 _atom_site_type_symbol
 _atom_site_label
 _atom_site_symmetry_multiplicity
 _atom_site_fract_x
 _atom_site_fract_y
 _atom_site_fract_z
 _atom_site_occupancy
  Cs  Cs0  1  0.33333300  0.66666700  0.75000000  1
  Cs  Cs1  1  0.66666700  0.33333300  0.25000000  1
  Lu  Lu2  1  0.66666700  0.33333300  0.75000000  1
  Lu  Lu3  1  0.33333300  0.66666700  0.25000000  1
  Nb  Nb4  1  0.84954957  0.03966579  0.56572778  1
  Nb  Nb5  1  0.15045043  0.96033421  0.43427222  1
  Nb  Nb6  1  0.96033421  0.80988378  0.56572778  1
  Nb  Nb7  1  0.84954957  0.80988378  0.93427222  1
  Nb  Nb8  1  0.03966579  0.19011622  0.43427222  1
  Nb  Nb9  1  0.15045043  0.19011622  0.06572778  1
  Nb  Nb10  1  0.19011622  0.15045043  0.56572778  1
  Nb  Nb11  1  0.96033421  0.15045043  0.93427222  1
  Nb  Nb12  1  0.80988378  0.84954957  0.43427222  1
  Nb  Nb13  1  0.03966579  0.84954957  0.06572778  1
  Nb  Nb14  1  0.19011622  0.03966579  0.93427222  1
  Nb  Nb15  1  0.80988378  0.96033421  0.06572778  1
  Br  Br16  1  0.63635359  0.08917723  0.66337850  1
  Br  Br17  1  0.36364641  0.91082277  0.33662150  1
  Br  Br18  1  0.91082277  0.54717636  0.66337850  1
  Br  Br19  1  0.63635359  0.54717636  0.83662150  1
  Br  Br20  1  0.08917723  0.45282364  0.33662150  1
  Br  Br21  1  0.36364641  0.45282364  0.16337850  1
  Br  Br22  1  0.45282364  0.36364641  0.66337850  1
  Br  Br23  1  0.91082277  0.36364641  0.83662150  1
  Br  Br24  1  0.54717636  0.63635359  0.33662150  1
  Br  Br25  1  0.08917723  0.63635359  0.16337850  1
  Br  Br26  1  0.45282364  0.08917723  0.83662150  1
  Br  Br27  1  0.54717636  0.91082277  0.16337850  1
  Br  Br28  1  0.04738345  0.23466546  0.66100431  1
  Br  Br29  1  0.95261655  0.76533454  0.33899569  1
  Br  Br30  1  0.76533454  0.81271699  0.66100431  1
  Br  Br31  1  0.04738345  0.81271699  0.83899569  1
  Br  Br32  1  0.23466546  0.18728301  0.33899569  1
  Br  Br33  1  0.95261655  0.18728301  0.16100431  1
  Br  Br34  1  0.18728301  0.95261655  0.66100431  1
  Br  Br35  1  0.76533454  0.95261655  0.83899569  1
  Br  Br36  1  0.81271699  0.04738345  0.33899569  1
  Br  Br37  1  0.23466546  0.04738345  0.16100431  1
  Br  Br38  1  0.18728301  0.23466546  0.83899569  1
  Br  Br39  1  0.81271699  0.76533454  0.16100431  1
  Br  Br40  1  0.28027777  0.41932742  0.50098986  1
  Br  Br41  1  0.71972223  0.58067258  0.49901014  1
  Br  Br42  1  0.58067258  0.86095035  0.50098986  1
  Br  Br43  1  0.28027777  0.86095035  0.99901014  1
  Br  Br44  1  0.41932742  0.13904965  0.49901014  1
  Br  Br45  1  0.71972223  0.13904965  0.00098986  1
  Br  Br46  1  0.13904965  0.71972223  0.50098986  1
  Br  Br47  1  0.58067258  0.71972223  0.99901014  1
  Br  Br48  1  0.86095035  0.28027777  0.49901014  1
  Br  Br49  1  0.41932742  0.28027777  0.00098986  1
  Br  Br50  1  0.13904965  0.41932742  0.99901014  1
  Br  Br51  1  0.86095035  0.58067258  0.00098986  1
