# generated using pymatgen
data_K2Nd2Mg(SO4)4
_symmetry_space_group_name_H-M   'P 1'
_cell_length_a   5.54757227
_cell_length_b   7.13556368
_cell_length_c   9.88056419
_cell_angle_alpha   99.86859655
_cell_angle_beta   89.73405611
_cell_angle_gamma   86.31635992
_symmetry_Int_Tables_number   1
_chemical_formula_structural   K2Nd2Mg(SO4)4
_chemical_formula_sum   'K2 Nd2 Mg1 S4 O16'
_cell_volume   384.49055791
_cell_formula_units_Z   1
loop_
 _symmetry_equiv_pos_site_id
 _symmetry_equiv_pos_as_xyz
  1  'x, y, z'
loop_
 _atom_site_type_symbol
 _atom_site_label
 _atom_site_symmetry_multiplicity
 _atom_site_fract_x
 _atom_site_fract_y
 _atom_site_fract_z
 _atom_site_occupancy
  K  K0  1  0.72296796  0.19047762  0.10533593  1
  K  K1  1  0.26104043  0.81252860  0.82558540  1
  Nd  Nd2  1  0.16732995  0.72191778  0.27575811  1
  Nd  Nd3  1  0.78530988  0.31452097  0.72446856  1
  Mg  Mg4  1  0.70018972  0.00230712  0.38397668  1
  S  S5  1  0.24300853  0.30833417  0.90930819  1
  S  S6  1  0.76872697  0.76772088  0.58328008  1
  S  S7  1  0.73398309  0.67186006  0.07047222  1
  S  S8  1  0.28588963  0.24803956  0.44012006  1
  O  O9  1  0.70170461  0.53544433  0.94178628  1
  O  O10  1  0.27525255  0.39948769  0.35703211  1
  O  O11  1  0.70743266  0.63185556  0.67532702  1
  O  O12  1  0.99470572  0.69553425  0.50554264  1
  O  O13  1  0.31930842  0.05675224  0.34526696  1
  O  O14  1  0.47105674  0.19063821  0.85969703  1
  O  O15  1  0.94036843  0.79208983  0.05493777  1
  O  O16  1  0.18630007  0.44552117  0.81292840  1
  O  O17  1  0.07331170  0.25496050  0.53159670  1
  O  O18  1  0.50255674  0.79118338  0.10378569  1
  O  O19  1  0.79600272  0.56661247  0.18645362  1
  O  O20  1  0.26376625  0.39796135  0.05312128  1
  O  O21  1  0.03984985  0.17536618  0.89213862  1
  O  O22  1  0.80715782  0.95630275  0.66989119  1
  O  O23  1  0.51567070  0.25236523  0.52376721  1
  O  O24  1  0.56210886  0.79244009  0.48985125  1
