# generated using pymatgen
data_CaAs2F12
_symmetry_space_group_name_H-M   'P 1'
_cell_length_a   5.33800965
_cell_length_b   5.33800965
_cell_length_c   7.53196625
_cell_angle_alpha   90.00000000
_cell_angle_beta   90.00000000
_cell_angle_gamma   90.00000000
_symmetry_Int_Tables_number   1
_chemical_formula_structural   CaAs2F12
_chemical_formula_sum   'Ca1 As2 F12'
_cell_volume   214.61846010
_cell_formula_units_Z   1
loop_
 _symmetry_equiv_pos_site_id
 _symmetry_equiv_pos_as_xyz
  1  'x, y, z'
loop_
 _atom_site_type_symbol
 _atom_site_label
 _atom_site_symmetry_multiplicity
 _atom_site_fract_x
 _atom_site_fract_y
 _atom_site_fract_z
 _atom_site_occupancy
  Ca  Ca0  1  -0.00000000  0.00000000  -0.00000000  1
  As  As1  1  -0.00000000  0.50000000  0.24905198  1
  As  As2  1  0.50000000  0.00000000  0.75094802  1
  F  F3  1  0.26323313  0.22490547  0.76817381  1
  F  F4  1  0.73676687  0.77509453  0.76817381  1
  F  F5  1  0.22490547  0.73676687  0.23182619  1
  F  F6  1  0.77509453  0.26323313  0.23182619  1
  F  F7  1  -0.00000000  0.50000000  0.47393306  1
  F  F8  1  0.50000000  0.00000000  0.52606694  1
  F  F9  1  -0.00000000  0.50000000  0.01091693  1
  F  F10  1  0.50000000  0.00000000  0.98908307  1
  F  F11  1  0.22490547  0.26323313  0.23182619  1
  F  F12  1  0.77509453  0.73676687  0.23182619  1
  F  F13  1  0.26323313  0.77509453  0.76817381  1
  F  F14  1  0.73676687  0.22490547  0.76817381  1
