# generated using pymatgen
data_CaFe3O5
_symmetry_space_group_name_H-M   'P 1'
_cell_length_a   3.05341439
_cell_length_b   5.36785301
_cell_length_c   12.74636714
_cell_angle_alpha   90.00000000
_cell_angle_beta   90.00000000
_cell_angle_gamma   106.52398691
_symmetry_Int_Tables_number   1
_chemical_formula_structural   CaFe3O5
_chemical_formula_sum   'Ca2 Fe6 O10'
_cell_volume   200.28842532
_cell_formula_units_Z   2
loop_
 _symmetry_equiv_pos_site_id
 _symmetry_equiv_pos_as_xyz
  1  'x, y, z'
loop_
 _atom_site_type_symbol
 _atom_site_label
 _atom_site_symmetry_multiplicity
 _atom_site_fract_x
 _atom_site_fract_y
 _atom_site_fract_z
 _atom_site_occupancy
  O  O0  1  0.90061592  0.80123010  0.63718301  1
  O  O1  1  0.09938518  0.19877036  0.36281715  1
  O  O2  1  0.09938518  0.19877036  0.13718254  1
  O  O3  1  0.90061592  0.80123010  0.86281684  1
  O  O4  1  0.65119554  0.30238935  0.94918529  1
  O  O5  1  0.34880455  0.69760911  0.05081487  1
  O  O6  1  0.34880455  0.69760911  0.44918481  1
  O  O7  1  0.65119554  0.30238935  0.55081456  1
  O  O8  1  0.18885392  0.37770785  0.75000031  1
  O  O9  1  0.81114617  0.62229061  0.24999984  1
  Ca  Ca10  1  0.52127346  0.04254520  0.75000031  1
  Ca  Ca11  1  0.47872763  0.95745526  0.24999984  1
  Fe  Fe12  1  0.00000000  0.00000000  0.49999969  1
  Fe  Fe13  1  0.26797826  0.53595652  0.89058536  1
  Fe  Fe14  1  0.73202183  0.46404193  0.10941480  1
  Fe  Fe15  1  0.00000000  0.00000000  0.00000000  1
  Fe  Fe16  1  0.73202183  0.46404193  0.39058567  1
  Fe  Fe17  1  0.26797826  0.53595652  0.60941449  1
