# generated using pymatgen
data_PbS
_symmetry_space_group_name_H-M   'P 1'
_cell_length_a   4.11388368
_cell_length_b   4.11657020
_cell_length_c   7.55994474
_cell_angle_alpha   90.00000000
_cell_angle_beta   90.00000000
_cell_angle_gamma   119.97842247
_symmetry_Int_Tables_number   1
_chemical_formula_structural   PbS
_chemical_formula_sum   'Pb2 S2'
_cell_volume   110.89990492
_cell_formula_units_Z   2
loop_
 _symmetry_equiv_pos_site_id
 _symmetry_equiv_pos_as_xyz
  1  'x, y, z'
loop_
 _atom_site_type_symbol
 _atom_site_label
 _atom_site_symmetry_multiplicity
 _atom_site_fract_x
 _atom_site_fract_y
 _atom_site_fract_z
 _atom_site_occupancy
  Pb  Pb0  1  -0.00103265  -0.00206431  0.48673181  1
  Pb  Pb1  1  0.00103265  0.00206431  0.98673181  1
  S  S2  1  0.33285453  0.66570805  0.69246819  1
  S  S3  1  0.66714547  0.33429195  0.19246819  1
