# generated using pymatgen
data_HfTl2Se3
_symmetry_space_group_name_H-M   'P 1'
_cell_length_a   3.91011883
_cell_length_b   8.21820332
_cell_length_c   10.75886288
_cell_angle_alpha   97.48027782
_cell_angle_beta   90.00000000
_cell_angle_gamma   90.00000000
_symmetry_Int_Tables_number   1
_chemical_formula_structural   HfTl2Se3
_chemical_formula_sum   'Hf2 Tl4 Se6'
_cell_volume   342.78470167
_cell_formula_units_Z   2
loop_
 _symmetry_equiv_pos_site_id
 _symmetry_equiv_pos_as_xyz
  1  'x, y, z'
loop_
 _atom_site_type_symbol
 _atom_site_label
 _atom_site_symmetry_multiplicity
 _atom_site_fract_x
 _atom_site_fract_y
 _atom_site_fract_z
 _atom_site_occupancy
  Hf  Hf0  1  0.75000000  0.58948129  0.66447590  1
  Hf  Hf1  1  0.25000000  0.41051871  0.33552410  1
  Tl  Tl2  1  0.75000000  0.93726512  0.34144581  1
  Tl  Tl3  1  0.25000000  0.06273488  0.65855419  1
  Tl  Tl4  1  0.75000000  0.25164039  0.00154547  1
  Tl  Tl5  1  0.25000000  0.74835961  0.99845453  1
  Se  Se6  1  0.75000000  0.86675248  0.80698604  1
  Se  Se7  1  0.25000000  0.13324752  0.19301396  1
  Se  Se8  1  0.75000000  0.54603761  0.21447748  1
  Se  Se9  1  0.25000000  0.45396239  0.78552252  1
  Se  Se10  1  0.75000000  0.31141892  0.48490671  1
  Se  Se11  1  0.25000000  0.68858108  0.51509329  1
