# generated using pymatgen
data_CsInSe2
_symmetry_space_group_name_H-M   'P 1'
_cell_length_a   8.28849289
_cell_length_b   8.28849289
_cell_length_c   17.19810930
_cell_angle_alpha   83.05315670
_cell_angle_beta   83.05315670
_cell_angle_gamma   89.99705873
_symmetry_Int_Tables_number   1
_chemical_formula_structural   CsInSe2
_chemical_formula_sum   'Cs8 In8 Se16'
_cell_volume   1164.08394629
_cell_formula_units_Z   8
loop_
 _symmetry_equiv_pos_site_id
 _symmetry_equiv_pos_as_xyz
  1  'x, y, z'
loop_
 _atom_site_type_symbol
 _atom_site_label
 _atom_site_symmetry_multiplicity
 _atom_site_fract_x
 _atom_site_fract_y
 _atom_site_fract_z
 _atom_site_occupancy
  Cs  Cs0  1  0.65099726  0.27631130  0.39510772  1
  Cs  Cs1  1  0.72368870  0.34900274  0.10489228  1
  Cs  Cs2  1  0.34900274  0.72368870  0.60489228  1
  Cs  Cs3  1  0.27631130  0.65099726  0.89510772  1
  Cs  Cs4  1  0.27731385  0.15217026  0.89125481  1
  Cs  Cs5  1  0.84782974  0.72268615  0.60874519  1
  Cs  Cs6  1  0.72268615  0.84782974  0.10874519  1
  Cs  Cs7  1  0.15217026  0.27731385  0.39125481  1
  In  In8  1  0.58533500  0.20857066  0.66608023  1
  In  In9  1  0.79142934  0.41466500  0.83391977  1
  In  In10  1  0.41466500  0.79142934  0.33391977  1
  In  In11  1  0.20857066  0.58533500  0.16608023  1
  In  In12  1  0.08190888  0.20847944  0.66650685  1
  In  In13  1  0.79152056  0.91809112  0.83349315  1
  In  In14  1  0.91809112  0.79152056  0.33349315  1
  In  In15  1  0.20847944  0.08190888  0.16650685  1
  Se  Se16  1  0.55162496  0.44837504  0.75000000  1
  Se  Se17  1  0.44837504  0.55162496  0.25000000  1
  Se  Se18  1  0.55075785  0.92647140  0.74988416  1
  Se  Se19  1  0.07352860  0.44924215  0.75011584  1
  Se  Se20  1  0.44924215  0.07352860  0.25011584  1
  Se  Se21  1  0.92647140  0.55075785  0.24988416  1
  Se  Se22  1  0.07416478  0.92583522  0.75000000  1
  Se  Se23  1  0.92583522  0.07416478  0.25000000  1
  Se  Se24  1  0.35660253  0.23269242  0.57320622  1
  Se  Se25  1  0.76730758  0.64339747  0.92679378  1
  Se  Se26  1  0.64339747  0.76730758  0.42679378  1
  Se  Se27  1  0.23269242  0.35660253  0.07320622  1
  Se  Se28  1  0.85754545  0.23246112  0.57197595  1
  Se  Se29  1  0.76753888  0.14245455  0.92802405  1
  Se  Se30  1  0.14245455  0.76753888  0.42802405  1
  Se  Se31  1  0.23246112  0.85754545  0.07197595  1
