# generated using pymatgen
data_K2TeMo2(PO7)2
_symmetry_space_group_name_H-M   'P 1'
_cell_length_a   8.63677716
_cell_length_b   11.09218661
_cell_length_c   12.55253392
_cell_angle_alpha   90.00000000
_cell_angle_beta   90.00000000
_cell_angle_gamma   90.00000000
_symmetry_Int_Tables_number   1
_chemical_formula_structural   K2TeMo2(PO7)2
_chemical_formula_sum   'K8 Te4 Mo8 P8 O56'
_cell_volume   1202.54208822
_cell_formula_units_Z   4
loop_
 _symmetry_equiv_pos_site_id
 _symmetry_equiv_pos_as_xyz
  1  'x, y, z'
loop_
 _atom_site_type_symbol
 _atom_site_label
 _atom_site_symmetry_multiplicity
 _atom_site_fract_x
 _atom_site_fract_y
 _atom_site_fract_z
 _atom_site_occupancy
  K  K0  1  0.02668477  0.21877055  0.30199841  1
  K  K1  1  0.97331523  0.78122945  0.69800159  1
  K  K2  1  0.47331523  0.71877055  0.19800159  1
  K  K3  1  0.02668477  0.28122945  0.69800159  1
  K  K4  1  0.52668477  0.28122945  0.80199841  1
  K  K5  1  0.97331523  0.71877055  0.30199841  1
  K  K6  1  0.47331523  0.78122945  0.80199841  1
  K  K7  1  0.52668477  0.21877055  0.19800159  1
  Te  Te8  1  0.13436566  0.25000000  0.00000000  1
  Te  Te9  1  0.86563434  0.75000000  0.00000000  1
  Te  Te10  1  0.36563434  0.75000000  0.50000000  1
  Te  Te11  1  0.63436566  0.25000000  0.50000000  1
  Mo  Mo12  1  0.23551344  0.47805970  0.37991844  1
  Mo  Mo13  1  0.76448656  0.52194030  0.62008156  1
  Mo  Mo14  1  0.26448656  0.97805970  0.12008156  1
  Mo  Mo15  1  0.23551344  0.02194030  0.62008156  1
  Mo  Mo16  1  0.73551344  0.02194030  0.87991844  1
  Mo  Mo17  1  0.76448656  0.97805970  0.37991844  1
  Mo  Mo18  1  0.26448656  0.52194030  0.87991844  1
  Mo  Mo19  1  0.73551344  0.47805970  0.12008156  1
  P  P20  1  0.35471372  0.00688181  0.36956006  1
  P  P21  1  0.64528628  0.99311819  0.63043994  1
  P  P22  1  0.14528628  0.50688181  0.13043994  1
  P  P23  1  0.35471372  0.49311819  0.63043994  1
  P  P24  1  0.85471372  0.49311819  0.86956006  1
  P  P25  1  0.64528628  0.50688181  0.36956006  1
  P  P26  1  0.14528628  0.99311819  0.86956006  1
  P  P27  1  0.85471372  0.00688181  0.13043994  1
  O  O28  1  0.26917440  0.05951509  0.46658565  1
  O  O29  1  0.73082560  0.94048491  0.53341435  1
  O  O30  1  0.23082560  0.55951509  0.03341435  1
  O  O31  1  0.26917440  0.44048491  0.53341435  1
  O  O32  1  0.76917440  0.44048491  0.96658565  1
  O  O33  1  0.73082560  0.55951509  0.46658565  1
  O  O34  1  0.23082560  0.94048491  0.96658565  1
  O  O35  1  0.76917440  0.05951509  0.03341435  1
  O  O36  1  0.31126372  0.34370951  0.33772819  1
  O  O37  1  0.68873628  0.65629049  0.66227181  1
  O  O38  1  0.18873628  0.84370951  0.16227181  1
  O  O39  1  0.31126372  0.15629049  0.66227181  1
  O  O40  1  0.81126372  0.15629049  0.83772819  1
  O  O41  1  0.68873628  0.84370951  0.33772819  1
  O  O42  1  0.18873628  0.65629049  0.83772819  1
  O  O43  1  0.81126372  0.34370951  0.16227181  1
  O  O44  1  0.02143634  0.05089305  0.12751995  1
  O  O45  1  0.97856366  0.94910695  0.87247905  1
  O  O46  1  0.47856366  0.55089305  0.37248005  1
  O  O47  1  0.02143634  0.44910695  0.87247905  1
  O  O48  1  0.52143634  0.44910695  0.62752095  1
  O  O49  1  0.97856366  0.55089305  0.12751995  1
  O  O50  1  0.47856366  0.94910695  0.62752095  1
  O  O51  1  0.52143634  0.05089305  0.37248005  1
  O  O52  1  0.28080512  0.15508156  0.07063626  1
  O  O53  1  0.71919488  0.84491844  0.92936374  1
  O  O54  1  0.21919488  0.65508156  0.42936374  1
  O  O55  1  0.28080512  0.34491844  0.92936374  1
  O  O56  1  0.78080512  0.34491844  0.57063626  1
  O  O57  1  0.71919488  0.65508156  0.07063626  1
  O  O58  1  0.21919488  0.84491844  0.57063626  1
  O  O59  1  0.78080512  0.15508156  0.42936374  1
  O  O60  1  0.04203019  0.45154010  0.37746130  1
  O  O61  1  0.95796981  0.54845990  0.62253870  1
  O  O62  1  0.45796981  0.95154010  0.12253870  1
  O  O63  1  0.04203019  0.04845990  0.62253870  1
  O  O64  1  0.54203019  0.04845990  0.87746130  1
  O  O65  1  0.95796981  0.95154010  0.37746130  1
  O  O66  1  0.45796981  0.54845990  0.87746130  1
  O  O67  1  0.54203019  0.45154010  0.12253870  1
  O  O68  1  0.27252881  0.05479192  0.26903838  1
  O  O69  1  0.72747119  0.94520808  0.73096162  1
  O  O70  1  0.22747119  0.55479192  0.23096162  1
  O  O71  1  0.27252881  0.44520808  0.73096162  1
  O  O72  1  0.77252881  0.44520808  0.76903838  1
  O  O73  1  0.72747119  0.55479192  0.26903838  1
  O  O74  1  0.22747119  0.94520808  0.76903838  1
  O  O75  1  0.77252881  0.05479192  0.23096162  1
  O  O76  1  0.15647037  0.36854716  0.13102892  1
  O  O77  1  0.84352963  0.63145284  0.86897108  1
  O  O78  1  0.34352963  0.86854716  0.36897108  1
  O  O79  1  0.15647037  0.13145284  0.86897108  1
  O  O80  1  0.65647037  0.13145284  0.63102892  1
  O  O81  1  0.84352963  0.86854716  0.13102892  1
  O  O82  1  0.34352963  0.63145284  0.63102892  1
  O  O83  1  0.65647037  0.36854716  0.36897108  1
