# generated using pymatgen
data_Mo3WS8
_symmetry_space_group_name_H-M   'P 1'
_cell_length_a   3.18440759
_cell_length_b   3.18440759
_cell_length_c   34.70536046
_cell_angle_alpha   90.00000000
_cell_angle_beta   90.00000000
_cell_angle_gamma   120.00002597
_symmetry_Int_Tables_number   1
_chemical_formula_structural   Mo3WS8
_chemical_formula_sum   'Mo3 W1 S8'
_cell_volume   304.77853580
_cell_formula_units_Z   1
loop_
 _symmetry_equiv_pos_site_id
 _symmetry_equiv_pos_as_xyz
  1  'x, y, z'
loop_
 _atom_site_type_symbol
 _atom_site_label
 _atom_site_symmetry_multiplicity
 _atom_site_fract_x
 _atom_site_fract_y
 _atom_site_fract_z
 _atom_site_occupancy
  Mo  Mo0  1  0.33333300  0.66666700  0.09415584  1
  Mo  Mo1  1  0.33333300  0.66666700  0.46959330  1
  Mo  Mo2  1  0.66666700  0.33333300  0.28179132  1
  W  W3  1  0.66666700  0.33333300  0.65736953  1
  S  S4  1  0.33333300  0.66666700  0.32652618  1
  S  S5  1  0.33333300  0.66666700  0.70226622  1
  S  S6  1  0.66666700  0.33333300  0.04945523  1
  S  S7  1  0.66666700  0.33333300  0.42488002  1
  S  S8  1  0.66666700  0.33333300  0.13888069  1
  S  S9  1  0.66666700  0.33333300  0.51431718  1
  S  S10  1  0.33333300  0.66666700  0.23708098  1
  S  S11  1  0.33333300  0.66666700  0.61243052  1
