# generated using pymatgen
data_La3SbO3
_symmetry_space_group_name_H-M   'P 1'
_cell_length_a   4.11787468
_cell_length_b   7.23676318
_cell_length_c   11.09381465
_cell_angle_alpha   81.89587963
_cell_angle_beta   79.30157069
_cell_angle_gamma   73.46264535
_symmetry_Int_Tables_number   1
_chemical_formula_structural   La3SbO3
_chemical_formula_sum   'La6 Sb2 O6'
_cell_volume   310.04650780
_cell_formula_units_Z   2
loop_
 _symmetry_equiv_pos_site_id
 _symmetry_equiv_pos_as_xyz
  1  'x, y, z'
loop_
 _atom_site_type_symbol
 _atom_site_label
 _atom_site_symmetry_multiplicity
 _atom_site_fract_x
 _atom_site_fract_y
 _atom_site_fract_z
 _atom_site_occupancy
  La  La0  1  0.38074918  0.79424100  0.44422462  1
  La  La1  1  0.61924787  0.20577128  0.55577895  1
  La  La2  1  0.37219140  0.35682400  0.89891414  1
  La  La3  1  0.62781511  0.64316965  0.10108564  1
  La  La4  1  0.84589356  0.10138843  0.20682307  1
  La  La5  1  0.15410736  0.89860649  0.79317401  1
  Sb  Sb6  1  0.87784607  0.56238389  0.68250027  1
  Sb  Sb7  1  0.12214992  0.43760770  0.31750796  1
  O  O8  1  0.81041228  0.96827811  0.41096265  1
  O  O9  1  0.18958214  0.03173393  0.58904123  1
  O  O10  1  0.56423818  0.07350406  0.79802231  1
  O  O11  1  0.43576167  0.92649459  0.20197168  1
  O  O12  1  0.83883410  0.31075571  0.01189014  1
  O  O13  1  0.16117115  0.68924016  0.98810335  1
