# generated using pymatgen
data_La2P3(HO2)5
_symmetry_space_group_name_H-M   'P 1'
_cell_length_a   6.69180771
_cell_length_b   10.93781078
_cell_length_c   14.10270968
_cell_angle_alpha   100.69231715
_cell_angle_beta   90.00536896
_cell_angle_gamma   107.81573596
_symmetry_Int_Tables_number   1
_chemical_formula_structural   La2P3(HO2)5
_chemical_formula_sum   'La8 P12 H20 O40'
_cell_volume   963.88198314
_cell_formula_units_Z   4
loop_
 _symmetry_equiv_pos_site_id
 _symmetry_equiv_pos_as_xyz
  1  'x, y, z'
loop_
 _atom_site_type_symbol
 _atom_site_label
 _atom_site_symmetry_multiplicity
 _atom_site_fract_x
 _atom_site_fract_y
 _atom_site_fract_z
 _atom_site_occupancy
  La  La0  1  0.73080578  0.22607510  0.65671276  1
  La  La1  1  0.50484781  0.77390205  0.84333840  1
  La  La2  1  0.26919022  0.77392590  0.34328724  1
  La  La3  1  0.49514619  0.22609795  0.15666360  1
  La  La4  1  0.71608782  0.43324685  0.91619821  1
  La  La5  1  0.28263129  0.56660509  0.58379183  1
  La  La6  1  0.28391718  0.56675615  0.08380479  1
  La  La7  1  0.71736371  0.43339491  0.41620617  1
  P  P8  1  0.99825729  0.73386974  0.94643758  1
  P  P9  1  0.26420035  0.26614807  0.55351664  1
  P  P10  1  0.00174071  0.26612826  0.05356442  1
  P  P11  1  0.73579665  0.73385293  0.44648336  1
  P  P12  1  0.22296279  0.43175466  0.81485560  1
  P  P13  1  0.79125036  0.56822884  0.68516035  1
  P  P14  1  0.77703921  0.56824434  0.18514640  1
  P  P15  1  0.20874764  0.43177016  0.31483765  1
  P  P16  1  0.48209433  0.11911605  0.88318805  1
  P  P17  1  0.36301829  0.88080331  0.61682230  1
  P  P18  1  0.51790367  0.88088395  0.11681295  1
  P  P19  1  0.63697971  0.11919769  0.38317770  1
  H  H20  1  0.99858353  0.81684991  0.03485638  1
  H  H21  1  0.18160832  0.18323188  0.46506858  1
  H  H22  1  0.00142047  0.18315309  0.96514362  1
  H  H23  1  0.81839368  0.81676712  0.53493242  1
  H  H24  1  0.30639065  0.34351236  0.75814751  1
  H  H25  1  0.96295565  0.65644420  0.74186478  1
  H  H26  1  0.69361235  0.65648764  0.24185249  1
  H  H27  1  0.03704135  0.34355680  0.25813322  1
  H  H28  1  0.26510146  0.06459617  0.86374710  1
  H  H29  1  0.20046580  0.93524821  0.63622928  1
  H  H30  1  0.73489754  0.93540383  0.13625190  1
  H  H31  1  0.79953120  0.06475179  0.36377172  1
  H  H32  1  0.91133116  0.00648949  0.67739956  1
  H  H33  1  0.90494963  0.99346486  0.82249698  1
  H  H34  1  0.08867284  0.99351051  0.32260044  1
  H  H35  1  0.09505037  0.00653414  0.17750202  1
  H  H36  1  0.12178804  0.12356659  0.67442238  1
  H  H37  1  -0.00167893  0.87642911  0.82555758  1
  H  H38  1  0.87821296  0.87643341  0.32557662  1
  H  H39  1  0.00167693  0.12357189  0.17444142  1
  O  O40  1  0.51814537  0.21369560  0.98089701  1
  O  O41  1  0.30477660  0.78630167  0.51907388  1
  O  O42  1  0.48185363  0.78630240  0.01910199  1
  O  O43  1  0.69522240  0.21369733  0.48092812  1
  O  O44  1  0.77176646  0.67907839  0.90219739  1
  O  O45  1  0.09240236  0.32085247  0.59772561  1
  O  O46  1  0.22823654  0.32092361  0.09780361  1
  O  O47  1  0.90759564  0.67914753  0.40227239  1
  O  O48  1  0.15213217  0.81050109  0.88375357  1
  O  O49  1  0.34135304  0.18950336  0.61622379  1
  O  O50  1  0.84787183  0.18950191  0.11624443  1
  O  O51  1  0.65864596  0.81049564  0.38377621  1
  O  O52  1  0.35553570  0.47187033  0.91208788  1
  O  O53  1  0.88368877  0.52813502  0.58793377  1
  O  O54  1  0.64447230  0.52813067  0.08791212  1
  O  O55  1  0.11630523  0.47186498  0.41206423  1
  O  O56  1  0.25792150  0.55093538  0.76666438  1
  O  O57  1  0.70699127  0.44903031  0.73331967  1
  O  O58  1  0.74208050  0.44906462  0.23333662  1
  O  O59  1  0.29300873  0.55097169  0.26668033  1
  O  O60  1  0.05560025  0.61591392  0.96753291  1
  O  O61  1  0.43948746  0.38413428  0.53245479  1
  O  O62  1  0.94440275  0.38408708  0.03246509  1
  O  O63  1  0.56051354  0.61586172  0.46754421  1
  O  O64  1  0.57624602  0.00967718  0.87748614  1
  O  O65  1  0.56651009  0.99035395  0.62261995  1
  O  O66  1  0.42375398  0.99032082  0.12251286  1
  O  O67  1  0.43348791  0.00964305  0.37738105  1
  O  O68  1  0.56208981  0.20695308  0.80898154  1
  O  O69  1  0.35517228  0.79294324  0.69101443  1
  O  O70  1  0.43791119  0.79304692  0.19101846  1
  O  O71  1  0.64482772  0.20705676  0.30898857  1
  O  O72  1  0.99152518  0.36093025  0.82175078  1
  O  O73  1  0.63062070  0.63903121  0.67824859  1
  O  O74  1  0.00848082  0.63906975  0.17825022  1
  O  O75  1  0.36937930  0.36097179  0.32175141  1
  O  O76  1  0.97659386  0.10016370  0.69625526  1
  O  O77  1  0.87638284  0.89975978  0.80383934  1
  O  O78  1  0.02340714  0.89983430  0.30374474  1
  O  O79  1  0.12361616  0.10023822  0.19615966  1
