# generated using pymatgen
data_La(Tl3Te2)3
_symmetry_space_group_name_H-M   'P 1'
_cell_length_a   9.28598549
_cell_length_b   9.28598549
_cell_length_c   9.28598549
_cell_angle_alpha   121.75558924
_cell_angle_beta   121.75558924
_cell_angle_gamma   86.98520930
_symmetry_Int_Tables_number   1
_chemical_formula_structural   La(Tl3Te2)3
_chemical_formula_sum   'La1 Tl9 Te6'
_cell_volume   550.34578396
_cell_formula_units_Z   1
loop_
 _symmetry_equiv_pos_site_id
 _symmetry_equiv_pos_as_xyz
  1  'x, y, z'
loop_
 _atom_site_type_symbol
 _atom_site_label
 _atom_site_symmetry_multiplicity
 _atom_site_fract_x
 _atom_site_fract_y
 _atom_site_fract_z
 _atom_site_occupancy
  La  La0  1  -0.00000000  0.00000000  -0.00000000  1
  Tl  Tl1  1  0.80271797  0.00715716  0.49254137  1
  Tl  Tl2  1  0.51461579  0.31017660  0.50745863  1
  Tl  Tl3  1  0.31017660  0.80271797  0.79556081  1
  Tl  Tl4  1  0.00715716  0.51461579  0.20443919  1
  Tl  Tl5  1  0.19728203  0.99284284  0.50745863  1
  Tl  Tl6  1  0.48538421  0.68982340  0.49254137  1
  Tl  Tl7  1  0.68982340  0.19728203  0.20443919  1
  Tl  Tl8  1  0.99284284  0.48538421  0.79556081  1
  Tl  Tl9  1  0.50000000  0.50000000  -0.00000000  1
  Te  Te10  1  0.84676603  0.67191617  0.51868220  1
  Te  Te11  1  0.15323397  0.32808383  0.48131780  1
  Te  Te12  1  0.32808383  0.84676603  0.17484787  1
  Te  Te13  1  0.67191617  0.15323397  0.82515213  1
  Te  Te14  1  0.76063412  0.76063412  -0.00000000  1
  Te  Te15  1  0.23936588  0.23936588  -0.00000000  1
