# generated using pymatgen
data_KSr2I5
_symmetry_space_group_name_H-M   'P 1'
_cell_length_a   9.07794784
_cell_length_b   9.98575942
_cell_length_c   14.51094956
_cell_angle_alpha   90.01460752
_cell_angle_beta   90.00000000
_cell_angle_gamma   90.00000000
_symmetry_Int_Tables_number   1
_chemical_formula_structural   KSr2I5
_chemical_formula_sum   'K4 Sr8 I20'
_cell_volume   1315.42048335
_cell_formula_units_Z   4
loop_
 _symmetry_equiv_pos_site_id
 _symmetry_equiv_pos_as_xyz
  1  'x, y, z'
loop_
 _atom_site_type_symbol
 _atom_site_label
 _atom_site_symmetry_multiplicity
 _atom_site_fract_x
 _atom_site_fract_y
 _atom_site_fract_z
 _atom_site_occupancy
  K  K0  1  0.03507297  0.50445043  0.32574618  1
  K  K1  1  0.96492703  0.49554957  0.67425382  1
  K  K2  1  0.53507297  0.49554957  0.17425382  1
  K  K3  1  0.46492703  0.50445043  0.82574618  1
  Sr  Sr4  1  0.02091605  0.00332992  0.32008056  1
  Sr  Sr5  1  0.97908395  0.99667008  0.67991944  1
  Sr  Sr6  1  0.52091605  0.99667008  0.17991944  1
  Sr  Sr7  1  0.47908395  0.00332992  0.82008056  1
  Sr  Sr8  1  0.07359787  0.25111986  0.00548773  1
  Sr  Sr9  1  0.92640213  0.74888014  0.99451227  1
  Sr  Sr10  1  0.57359787  0.74888014  0.49451227  1
  Sr  Sr11  1  0.42640213  0.25111986  0.50548773  1
  I  I12  1  0.16937725  0.53966769  0.09188337  1
  I  I13  1  0.83062275  0.46033231  0.90811663  1
  I  I14  1  0.66937725  0.46033231  0.40811663  1
  I  I15  1  0.33062275  0.53966769  0.59188337  1
  I  I16  1  0.83053168  0.22411300  0.18138844  1
  I  I17  1  0.16946832  0.77588700  0.81861156  1
  I  I18  1  0.33053168  0.77588700  0.31861156  1
  I  I19  1  0.66946832  0.22411300  0.68138844  1
  I  I20  1  0.30493705  0.23291055  0.28357721  1
  I  I21  1  0.69506295  0.76708945  0.71642279  1
  I  I22  1  0.80493705  0.76708945  0.21642279  1
  I  I23  1  0.19506295  0.23291055  0.78357721  1
  I  I24  1  0.45788077  0.22065466  0.00348018  1
  I  I25  1  0.54211923  0.77934534  0.99651982  1
  I  I26  1  0.95788077  0.77934534  0.49651982  1
  I  I27  1  0.04211923  0.22065466  0.50348018  1
  I  I28  1  0.65896414  0.04150209  0.40012019  1
  I  I29  1  0.34103586  0.95849791  0.59987981  1
  I  I30  1  0.15896414  0.95849791  0.09987981  1
  I  I31  1  0.84103586  0.04150209  0.90012019  1
