# generated using pymatgen
data_Na12MnCu2H16(SO4)8
_symmetry_space_group_name_H-M   'P 1'
_cell_length_a   9.79202392
_cell_length_b   13.06348276
_cell_length_c   13.27477916
_cell_angle_alpha   90.00000000
_cell_angle_beta   91.00333929
_cell_angle_gamma   90.00000000
_symmetry_Int_Tables_number   1
_chemical_formula_structural   Na12MnCu2H16(SO4)8
_chemical_formula_sum   'Na24 Mn2 Cu4 H32 S16 O64'
_cell_volume   1697.82199029
_cell_formula_units_Z   2
loop_
 _symmetry_equiv_pos_site_id
 _symmetry_equiv_pos_as_xyz
  1  'x, y, z'
loop_
 _atom_site_type_symbol
 _atom_site_label
 _atom_site_symmetry_multiplicity
 _atom_site_fract_x
 _atom_site_fract_y
 _atom_site_fract_z
 _atom_site_occupancy
  Na  Na0  1  0.83323841  0.04321392  0.57780418  1
  Na  Na1  1  0.33323841  0.45678608  0.07780418  1
  Na  Na2  1  0.16676159  0.95678608  0.42219582  1
  Na  Na3  1  0.66676159  0.54321392  0.92219582  1
  Na  Na4  1  0.98223660  0.27482277  0.55448459  1
  Na  Na5  1  0.48223660  0.22517723  0.05448459  1
  Na  Na6  1  0.01776340  0.72517723  0.44551541  1
  Na  Na7  1  0.51776340  0.77482277  0.94551541  1
  Na  Na8  1  0.56495020  0.15037351  0.73556026  1
  Na  Na9  1  0.06495020  0.34962649  0.23556026  1
  Na  Na10  1  0.43504980  0.84962649  0.26443974  1
  Na  Na11  1  0.93504980  0.65037351  0.76443974  1
  Na  Na12  1  0.78249416  0.90617057  0.79893181  1
  Na  Na13  1  0.28249416  0.59382943  0.29893181  1
  Na  Na14  1  0.21750584  0.09382943  0.20106819  1
  Na  Na15  1  0.71750584  0.40617057  0.70106819  1
  Na  Na16  1  0.34864532  0.38137577  0.61791507  1
  Na  Na17  1  0.84864532  0.11862423  0.11791507  1
  Na  Na18  1  0.65135468  0.61862423  0.38208493  1
  Na  Na19  1  0.15135468  0.88137577  0.88208493  1
  Na  Na20  1  0.22205028  0.05562803  0.66821705  1
  Na  Na21  1  0.72205028  0.44437197  0.16821705  1
  Na  Na22  1  0.77794972  0.94437197  0.33178295  1
  Na  Na23  1  0.27794972  0.55562803  0.83178295  1
  Mn  Mn24  1  0.50000000  0.00000000  0.50000000  1
  Mn  Mn25  1  0.00000000  0.50000000  0.00000000  1
  Cu  Cu26  1  0.96759533  0.25232799  0.87465701  1
  Cu  Cu27  1  0.46759533  0.24767201  0.37465701  1
  Cu  Cu28  1  0.03240467  0.74767201  0.12534299  1
  Cu  Cu29  1  0.53240467  0.75232799  0.62534299  1
  H  H30  1  0.15547413  0.85844087  0.61037604  1
  H  H31  1  0.65547413  0.64155913  0.11037604  1
  H  H32  1  0.84452587  0.14155913  0.38962396  1
  H  H33  1  0.34452587  0.35844087  0.88962396  1
  H  H34  1  0.99569747  0.87560331  0.60320432  1
  H  H35  1  0.49569747  0.62439669  0.10320432  1
  H  H36  1  0.00430253  0.12439669  0.39679568  1
  H  H37  1  0.50430253  0.37560331  0.89679568  1
  H  H38  1  0.51615251  0.02597412  0.89489835  1
  H  H39  1  0.01615251  0.47402588  0.39489835  1
  H  H40  1  0.48384749  0.97402588  0.10510165  1
  H  H41  1  0.98384749  0.52597412  0.60510165  1
  H  H42  1  0.63092281  0.09445190  0.93767382  1
  H  H43  1  0.13092281  0.40554810  0.43767382  1
  H  H44  1  0.36907719  0.90554810  0.06232618  1
  H  H45  1  0.86907719  0.59445190  0.56232618  1
  H  H46  1  0.26401323  0.24895493  0.77026947  1
  H  H47  1  0.76401323  0.25104507  0.27026947  1
  H  H48  1  0.73598677  0.75104507  0.22973053  1
  H  H49  1  0.23598677  0.74895493  0.72973053  1
  H  H50  1  0.32238187  0.17529805  0.85230591  1
  H  H51  1  0.82238187  0.32470195  0.35230591  1
  H  H52  1  0.67761813  0.82470195  0.14769409  1
  H  H53  1  0.17761813  0.67529805  0.64769409  1
  H  H54  1  0.61509478  0.50792865  0.56210759  1
  H  H55  1  0.11509478  0.99207135  0.06210759  1
  H  H56  1  0.38490522  0.49207135  0.43789241  1
  H  H57  1  0.88490522  0.00792865  0.93789241  1
  H  H58  1  0.71094616  0.43414741  0.50004219  1
  H  H59  1  0.21094616  0.06585259  0.00004219  1
  H  H60  1  0.28905384  0.56585259  0.49995781  1
  H  H61  1  0.78905384  0.93414741  -0.00004219  1
  S  S62  1  0.61048320  0.24743585  0.51338527  1
  S  S63  1  0.11048320  0.25256415  0.01338527  1
  S  S64  1  0.38951680  0.75256415  0.48661473  1
  S  S65  1  0.88951680  0.74743585  0.98661473  1
  S  S66  1  0.93894855  0.11440079  0.77540441  1
  S  S67  1  0.43894855  0.38559921  0.27540441  1
  S  S68  1  0.06105145  0.88559921  0.22459559  1
  S  S69  1  0.56105145  0.61440079  0.72459559  1
  S  S70  1  0.45325513  0.88731651  0.72044293  1
  S  S71  1  0.95325513  0.61268349  0.22044293  1
  S  S72  1  0.54674487  0.11268349  0.27955707  1
  S  S73  1  0.04674487  0.38731651  0.77955707  1
  S  S74  1  0.27471822  0.18574811  0.44322933  1
  S  S75  1  0.77471822  0.31425189  0.94322933  1
  S  S76  1  0.72528178  0.81425189  0.55677067  1
  S  S77  1  0.22528178  0.68574811  0.05677067  1
  O  O78  1  0.75090962  0.29565510  0.49723718  1
  O  O79  1  0.25090962  0.20434490  0.99723718  1
  O  O80  1  0.24909038  0.70434490  0.50276282  1
  O  O81  1  0.74909038  0.79565510  0.00276282  1
  O  O82  1  0.55820877  0.29353634  0.61104086  1
  O  O83  1  0.05820877  0.20646366  0.11104086  1
  O  O84  1  0.44179123  0.70646366  0.38895914  1
  O  O85  1  0.94179123  0.79353634  0.88895914  1
  O  O86  1  0.00148176  0.01731503  0.82103174  1
  O  O87  1  0.50148176  0.48268497  0.32103174  1
  O  O88  1  0.99851824  0.98268497  0.17896826  1
  O  O89  1  0.49851824  0.51731503  0.67896826  1
  O  O90  1  0.00511281  0.13137131  0.67337027  1
  O  O91  1  0.50511281  0.36862869  0.17337027  1
  O  O92  1  0.99488719  0.86862869  0.32662973  1
  O  O93  1  0.49488719  0.63137131  0.82662973  1
  O  O94  1  0.30121115  0.87908919  0.74511879  1
  O  O95  1  0.80121115  0.62091081  0.24511879  1
  O  O96  1  0.69878885  0.12091081  0.25488121  1
  O  O97  1  0.19878885  0.37908919  0.75488121  1
  O  O98  1  0.21305626  0.25633911  0.51957550  1
  O  O99  1  0.71305626  0.24366089  0.01957550  1
  O  O100  1  0.78694374  0.74366089  0.48042450  1
  O  O101  1  0.28694374  0.75633911  0.98042450  1
  O  O102  1  0.30519932  0.08394900  0.49997984  1
  O  O103  1  0.80519932  0.41605100  0.99997984  1
  O  O104  1  0.69480068  0.91605100  0.50002016  1
  O  O105  1  0.19480068  0.58394900  0.00002016  1
  O  O106  1  0.08509133  0.89874096  0.57568764  1
  O  O107  1  0.58509133  0.60125904  0.07568764  1
  O  O108  1  0.91490867  0.10125904  0.42431236  1
  O  O109  1  0.41490867  0.39874096  0.92431236  1
  O  O110  1  0.63433660  0.13346265  0.53697566  1
  O  O111  1  0.13433660  0.36653735  0.03697566  1
  O  O112  1  0.36566340  0.86653735  0.46302434  1
  O  O113  1  0.86566340  0.63346265  0.96302434  1
  O  O114  1  0.46695096  0.99055724  0.66479871  1
  O  O115  1  0.96695096  0.50944276  0.16479871  1
  O  O116  1  0.53304904  0.00944276  0.33520129  1
  O  O117  1  0.03304904  0.49055724  0.83520129  1
  O  O118  1  0.53304782  0.90003222  0.81910123  1
  O  O119  1  0.03304782  0.59996778  0.31910123  1
  O  O120  1  0.46695218  0.09996778  0.18089877  1
  O  O121  1  0.96695218  0.40003222  0.68089877  1
  O  O122  1  0.53485658  0.09723845  0.91560115  1
  O  O123  1  0.03485658  0.40276155  0.41560115  1
  O  O124  1  0.46514342  0.90276155  0.08439885  1
  O  O125  1  0.96514342  0.59723845  0.58439885  1
  O  O126  1  0.32127437  0.18678827  0.77922916  1
  O  O127  1  0.82127437  0.31321173  0.27922916  1
  O  O128  1  0.67872563  0.81321173  0.22077084  1
  O  O129  1  0.17872563  0.68678827  0.72077084  1
  O  O130  1  0.78998642  0.08736065  0.75186607  1
  O  O131  1  0.28998642  0.41263935  0.25186607  1
  O  O132  1  0.21001358  0.91263935  0.24813393  1
  O  O133  1  0.71001358  0.58736065  0.74813393  1
  O  O134  1  0.16465799  0.15671243  0.36429386  1
  O  O135  1  0.66465799  0.34328757  0.86429386  1
  O  O136  1  0.83534201  0.84328757  0.63570614  1
  O  O137  1  0.33534201  0.65671243  0.13570614  1
  O  O138  1  0.69637224  0.50667699  0.51901031  1
  O  O139  1  0.19637224  0.99332301  0.01901031  1
  O  O140  1  0.30362776  0.49332301  0.48098969  1
  O  O141  1  0.80362776  0.00667699  0.98098969  1
