# generated using pymatgen
data_Cs3As(PSe3)3
_symmetry_space_group_name_H-M   'P 1'
_cell_length_a   8.15201066
_cell_length_b   13.36012350
_cell_length_c   19.96321716
_cell_angle_alpha   78.01480602
_cell_angle_beta   90.00000000
_cell_angle_gamma   90.00000000
_symmetry_Int_Tables_number   1
_chemical_formula_structural   Cs3As(PSe3)3
_chemical_formula_sum   'Cs12 As4 P12 Se36'
_cell_volume   2126.83587067
_cell_formula_units_Z   4
loop_
 _symmetry_equiv_pos_site_id
 _symmetry_equiv_pos_as_xyz
  1  'x, y, z'
loop_
 _atom_site_type_symbol
 _atom_site_label
 _atom_site_symmetry_multiplicity
 _atom_site_fract_x
 _atom_site_fract_y
 _atom_site_fract_z
 _atom_site_occupancy
  Cs  Cs0  1  0.03179749  0.30292249  0.07912264  1
  Cs  Cs1  1  0.53179749  0.19707751  0.92087736  1
  Cs  Cs2  1  0.96820251  0.69707751  0.92087736  1
  Cs  Cs3  1  0.46820251  0.80292249  0.07912264  1
  Cs  Cs4  1  0.52752751  0.08304641  0.26040161  1
  Cs  Cs5  1  0.02752751  0.41695359  0.73959839  1
  Cs  Cs6  1  0.47247249  0.91695359  0.73959839  1
  Cs  Cs7  1  0.97247249  0.58304641  0.26040161  1
  Cs  Cs8  1  0.52120544  0.31194330  0.56763764  1
  Cs  Cs9  1  0.02120544  0.18805670  0.43236236  1
  Cs  Cs10  1  0.47879456  0.68805670  0.43236236  1
  Cs  Cs11  1  0.97879456  0.81194330  0.56763764  1
  As  As12  1  0.50200019  0.43971299  0.17702904  1
  As  As13  1  0.00200019  0.06028701  0.82297096  1
  As  As14  1  0.49799981  0.56028701  0.82297096  1
  As  As15  1  -0.00200019  0.93971299  0.17702904  1
  P  P16  1  0.61066364  0.34594289  0.35856150  1
  P  P17  1  0.11066364  0.15405711  0.64143850  1
  P  P18  1  0.38933636  0.65405711  0.64143850  1
  P  P19  1  0.88933636  0.84594289  0.35856150  1
  P  P20  1  0.87648186  0.06759289  0.67528878  1
  P  P21  1  0.37648186  0.43240711  0.32471122  1
  P  P22  1  0.12351814  0.93240711  0.32471122  1
  P  P23  1  0.62351814  0.56759289  0.67528878  1
  P  P24  1  0.61441227  0.45564348  0.01970040  1
  P  P25  1  0.11441227  0.04435652  0.98029960  1
  P  P26  1  0.38558773  0.54435652  0.98029960  1
  P  P27  1  0.88558773  0.95564348  0.01970040  1
  Se  Se28  1  0.75640097  0.43821712  0.41060474  1
  Se  Se29  1  0.25640097  0.06178288  0.58939526  1
  Se  Se30  1  0.24359903  0.56178288  0.58939526  1
  Se  Se31  1  0.74359903  0.93821712  0.41060474  1
  Se  Se32  1  0.54198476  0.19669839  0.41184775  1
  Se  Se33  1  0.04198476  0.30330161  0.58815225  1
  Se  Se34  1  0.45801524  0.80330161  0.58815225  1
  Se  Se35  1  0.95801524  0.69669839  0.41184775  1
  Se  Se36  1  0.71966875  0.34377791  0.25205692  1
  Se  Se37  1  0.21966875  0.15622209  0.74794308  1
  Se  Se38  1  0.28033125  0.65622209  0.74794308  1
  Se  Se39  1  0.78033125  0.84377791  0.25205692  1
  Se  Se40  1  0.73826145  0.04686061  0.59003119  1
  Se  Se41  1  0.23826145  0.45313939  0.40996881  1
  Se  Se42  1  0.26173855  0.95313939  0.40996881  1
  Se  Se43  1  0.76173855  0.54686061  0.59003119  1
  Se  Se44  1  0.03435680  0.07449109  0.25357561  1
  Se  Se45  1  0.53435680  0.42550891  0.74642439  1
  Se  Se46  1  0.96564320  0.92550891  0.74642439  1
  Se  Se47  1  0.46564320  0.57449109  0.25357561  1
  Se  Se48  1  0.26005663  0.34221887  0.25576360  1
  Se  Se49  1  0.76005663  0.15778113  0.74423640  1
  Se  Se50  1  0.73994337  0.65778113  0.74423640  1
  Se  Se51  1  0.23994337  0.84221887  0.25576360  1
  Se  Se52  1  0.77258952  0.04788629  0.08718005  1
  Se  Se53  1  0.27258952  0.45211371  0.91281995  1
  Se  Se54  1  0.22741048  0.95211371  0.91281995  1
  Se  Se55  1  0.72741048  0.54788629  0.08718005  1
  Se  Se56  1  0.52669578  0.30995406  0.08124814  1
  Se  Se57  1  0.02669578  0.19004594  0.91875186  1
  Se  Se58  1  0.47330422  0.69004594  0.91875186  1
  Se  Se59  1  0.97330422  0.80995406  0.08124814  1
  Se  Se60  1  0.26211974  0.05867514  0.06687225  1
  Se  Se61  1  0.76211974  0.44132486  0.93312775  1
  Se  Se62  1  0.73788026  0.94132486  0.93312775  1
  Se  Se63  1  0.23788026  0.55867514  0.06687225  1
