# generated using pymatgen
data_MgAl4(HO)12
_symmetry_space_group_name_H-M   'P 1'
_cell_length_a   7.12988043
_cell_length_b   8.21342829
_cell_length_c   7.55808058
_cell_angle_alpha   104.20167499
_cell_angle_beta   137.88013741
_cell_angle_gamma   98.47250759
_symmetry_Int_Tables_number   1
_chemical_formula_structural   MgAl4(HO)12
_chemical_formula_sum   'Mg1 Al4 H12 O12'
_cell_volume   248.13508093
_cell_formula_units_Z   1
loop_
 _symmetry_equiv_pos_site_id
 _symmetry_equiv_pos_as_xyz
  1  'x, y, z'
loop_
 _atom_site_type_symbol
 _atom_site_label
 _atom_site_symmetry_multiplicity
 _atom_site_fract_x
 _atom_site_fract_y
 _atom_site_fract_z
 _atom_site_occupancy
  Mg  Mg0  1  0.69858666  0.78535702  0.66873449  1
  Al  Al1  1  0.42315199  0.90508589  0.26186660  1
  Al  Al2  1  0.49875593  0.14971334  0.66590550  1
  Al  Al3  1  0.99555765  0.59944226  0.62061276  1
  Al  Al4  1  0.04991435  0.31058109  0.36397472  1
  H  H5  1  0.92157294  0.93759048  0.51167398  1
  H  H6  1  0.90010984  0.95146779  0.16531888  1
  H  H7  1  0.63951443  0.50491504  0.91957179  1
  H  H8  1  0.44647407  0.51648702  0.12735392  1
  H  H9  1  0.17785376  0.67105276  0.45761175  1
  H  H10  1  0.88135815  0.28882838  0.56813798  1
  H  H11  1  0.33837246  0.19164160  0.24844918  1
  H  H12  1  0.70900573  0.78411856  0.91385711  1
  H  H13  1  0.44762636  0.94528095  0.95038418  1
  H  H14  1  0.45105864  0.20768007  0.96597700  1
  H  H15  1  0.13679140  0.36429499  0.10613149  1
  H  H16  1  0.88592676  0.58138517  0.88156679  1
  O  O17  1  0.82638318  0.93894724  0.55909060  1
  O  O18  1  0.06341495  0.08538304  0.37015664  1
  O  O19  1  0.51655999  0.40704315  0.71705721  1
  O  O20  1  0.57163468  0.53892422  0.32975341  1
  O  O21  1  0.03360253  0.55781760  0.40059608  1
  O  O22  1  0.04513191  0.38698040  0.62810124  1
  O  O23  1  0.48779908  0.15123320  0.38628395  1
  O  O24  1  0.41618300  0.90020866  0.49667776  1
  O  O25  1  0.34229312  0.84847462  0.94688834  1
  O  O26  1  0.57677249  0.16356378  0.97639497  1
  O  O27  1  0.97805442  0.27108997  0.05374150  1
  O  O28  1  0.02422351  0.66645072  0.90388116  1
