# generated using pymatgen
data_K3Mg2Cl7
_symmetry_space_group_name_H-M   'P 1'
_cell_length_a   13.15606875
_cell_length_b   13.15606875
_cell_length_c   13.15606875
_cell_angle_alpha   158.30510272
_cell_angle_beta   158.30510272
_cell_angle_gamma   30.87029962
_symmetry_Int_Tables_number   1
_chemical_formula_structural   K3Mg2Cl7
_chemical_formula_sum   'K3 Mg2 Cl7'
_cell_volume   310.95660439
_cell_formula_units_Z   1
loop_
 _symmetry_equiv_pos_site_id
 _symmetry_equiv_pos_as_xyz
  1  'x, y, z'
loop_
 _atom_site_type_symbol
 _atom_site_label
 _atom_site_symmetry_multiplicity
 _atom_site_fract_x
 _atom_site_fract_y
 _atom_site_fract_z
 _atom_site_occupancy
  K  K0  1  0.31799210  0.31799210  0.00000000  1
  K  K1  1  0.68200790  0.68200790  -0.00000000  1
  K  K2  1  0.50000000  0.50000000  -0.00000000  1
  Mg  Mg3  1  0.09932785  0.09932785  -0.00000000  1
  Mg  Mg4  1  0.90067215  0.90067215  0.00000000  1
  Cl  Cl5  1  0.59579140  0.09579140  0.50000000  1
  Cl  Cl6  1  0.40420860  0.90420860  0.50000000  1
  Cl  Cl7  1  0.09579140  0.59579140  0.50000000  1
  Cl  Cl8  1  0.90420860  0.40420860  0.50000000  1
  Cl  Cl9  1  0.19637481  0.19637481  0.00000000  1
  Cl  Cl10  1  0.80362519  0.80362519  -0.00000000  1
  Cl  Cl11  1  -0.00000000  -0.00000000  -0.00000000  1
