# generated using pymatgen
data_Ge19(AsBr)4
_symmetry_space_group_name_H-M   'P 1'
_cell_length_a   10.72113130
_cell_length_b   10.72113130
_cell_length_c   10.72113130
_cell_angle_alpha   90.00000000
_cell_angle_beta   90.00000000
_cell_angle_gamma   90.00000000
_symmetry_Int_Tables_number   1
_chemical_formula_structural   Ge19(AsBr)4
_chemical_formula_sum   'Ge38 As8 Br8'
_cell_volume   1232.31531072
_cell_formula_units_Z   2
loop_
 _symmetry_equiv_pos_site_id
 _symmetry_equiv_pos_as_xyz
  1  'x, y, z'
loop_
 _atom_site_type_symbol
 _atom_site_label
 _atom_site_symmetry_multiplicity
 _atom_site_fract_x
 _atom_site_fract_y
 _atom_site_fract_z
 _atom_site_occupancy
  Ge  Ge0  1  0.31799840  0.31799840  0.31799840  1
  Ge  Ge1  1  0.68200160  0.68200160  0.31799840  1
  Ge  Ge2  1  0.68200160  0.31799840  0.68200160  1
  Ge  Ge3  1  0.81799840  0.81799840  0.81799840  1
  Ge  Ge4  1  0.31799840  0.68200160  0.68200160  1
  Ge  Ge5  1  0.18200160  0.18200160  0.81799840  1
  Ge  Ge6  1  0.81799840  0.18200160  0.18200160  1
  Ge  Ge7  1  0.18200160  0.81799840  0.18200160  1
  Ge  Ge8  1  0.99809314  0.11714163  0.30975314  1
  Ge  Ge9  1  0.00190686  0.88285837  0.30975314  1
  Ge  Ge10  1  0.00190686  0.11714163  0.69024686  1
  Ge  Ge11  1  0.30975314  0.99809314  0.11714163  1
  Ge  Ge12  1  0.61714163  0.49809314  0.80975314  1
  Ge  Ge13  1  0.99809314  0.88285837  0.69024686  1
  Ge  Ge14  1  0.30975314  0.00190686  0.88285837  1
  Ge  Ge15  1  0.38285837  0.50190686  0.80975314  1
  Ge  Ge16  1  0.69024686  0.00190686  0.11714163  1
  Ge  Ge17  1  0.61714163  0.50190686  0.19024686  1
  Ge  Ge18  1  0.69024686  0.99809314  0.88285837  1
  Ge  Ge19  1  0.38285837  0.49809314  0.19024686  1
  Ge  Ge20  1  0.11714163  0.30975314  0.99809314  1
  Ge  Ge21  1  0.49809314  0.80975314  0.61714163  1
  Ge  Ge22  1  0.11714163  0.69024686  0.00190686  1
  Ge  Ge23  1  0.50190686  0.19024686  0.61714163  1
  Ge  Ge24  1  0.88285837  0.69024686  0.99809314  1
  Ge  Ge25  1  0.49809314  0.19024686  0.38285837  1
  Ge  Ge26  1  0.88285837  0.30975314  0.00190686  1
  Ge  Ge27  1  0.50190686  0.80975314  0.38285837  1
  Ge  Ge28  1  0.80975314  0.61714163  0.49809314  1
  Ge  Ge29  1  0.80975314  0.38285837  0.50190686  1
  Ge  Ge30  1  0.19024686  0.38285837  0.49809314  1
  Ge  Ge31  1  0.19024686  0.61714163  0.50190686  1
  Ge  Ge32  1  0.25000000  0.50000000  -0.00000000  1
  Ge  Ge33  1  0.75000000  0.50000000  -0.00000000  1
  Ge  Ge34  1  -0.00000000  0.25000000  0.50000000  1
  Ge  Ge35  1  -0.00000000  0.75000000  0.50000000  1
  Ge  Ge36  1  0.50000000  -0.00000000  0.25000000  1
  Ge  Ge37  1  0.50000000  -0.00000000  0.75000000  1
  As  As38  1  0.18443384  0.18443384  0.18443384  1
  As  As39  1  0.81556616  0.81556616  0.18443384  1
  As  As40  1  0.81556616  0.18443384  0.81556616  1
  As  As41  1  0.68443384  0.68443384  0.68443384  1
  As  As42  1  0.18443384  0.81556616  0.81556616  1
  As  As43  1  0.31556616  0.31556616  0.68443384  1
  As  As44  1  0.68443384  0.31556616  0.31556616  1
  As  As45  1  0.31556616  0.68443384  0.31556616  1
  Br  Br46  1  0.25000000  -0.00000000  0.50000000  1
  Br  Br47  1  0.75000000  -0.00000000  0.50000000  1
  Br  Br48  1  0.50000000  0.25000000  -0.00000000  1
  Br  Br49  1  0.50000000  0.75000000  -0.00000000  1
  Br  Br50  1  -0.00000000  0.50000000  0.25000000  1
  Br  Br51  1  -0.00000000  0.50000000  0.75000000  1
  Br  Br52  1  -0.00000000  -0.00000000  -0.00000000  1
  Br  Br53  1  0.50000000  0.50000000  0.50000000  1
