# generated using pymatgen
data_Cs2HgCl4
_symmetry_space_group_name_H-M   'P 1'
_cell_length_a   7.59063973
_cell_length_b   9.92671705
_cell_length_c   13.74893787
_cell_angle_alpha   90.00000000
_cell_angle_beta   90.00000000
_cell_angle_gamma   90.00000000
_symmetry_Int_Tables_number   1
_chemical_formula_structural   Cs2HgCl4
_chemical_formula_sum   'Cs8 Hg4 Cl16'
_cell_volume   1035.98429475
_cell_formula_units_Z   4
loop_
 _symmetry_equiv_pos_site_id
 _symmetry_equiv_pos_as_xyz
  1  'x, y, z'
loop_
 _atom_site_type_symbol
 _atom_site_label
 _atom_site_symmetry_multiplicity
 _atom_site_fract_x
 _atom_site_fract_y
 _atom_site_fract_z
 _atom_site_occupancy
  Cs  Cs0  1  0.00761694  0.73355326  0.82028086  1
  Cs  Cs1  1  0.49238306  0.26644674  0.32028086  1
  Cs  Cs2  1  0.50761694  0.76644674  0.17971914  1
  Cs  Cs3  1  0.99238306  0.23355326  0.67971914  1
  Cs  Cs4  1  0.00771546  0.86498459  0.42759964  1
  Cs  Cs5  1  0.49228454  0.13501541  0.92759964  1
  Cs  Cs6  1  0.50771546  0.63501541  0.57240036  1
  Cs  Cs7  1  0.99228454  0.36498459  0.07240036  1
  Hg  Hg8  1  0.00693792  0.46025632  0.42515275  1
  Hg  Hg9  1  0.49306208  0.53974368  0.92515275  1
  Hg  Hg10  1  0.50693792  0.03974368  0.57484725  1
  Hg  Hg11  1  0.99306208  0.96025632  0.07484725  1
  Cl  Cl12  1  0.49452651  0.42946128  0.09306540  1
  Cl  Cl13  1  0.00547349  0.57053872  0.59306540  1
  Cl  Cl14  1  0.99452651  0.07053872  0.90693460  1
  Cl  Cl15  1  0.50547349  0.92946128  0.40693460  1
  Cl  Cl16  1  0.46096426  0.78628299  0.91927772  1
  Cl  Cl17  1  0.03903574  0.21371701  0.41927772  1
  Cl  Cl18  1  0.96096426  0.71371701  0.08072228  1
  Cl  Cl19  1  0.53903574  0.28628299  0.58072228  1
  Cl  Cl20  1  0.23204540  0.41972192  0.84940206  1
  Cl  Cl21  1  0.26795460  0.58027808  0.34940206  1
  Cl  Cl22  1  0.73204540  0.08027808  0.15059794  1
  Cl  Cl23  1  0.76795460  0.91972192  0.65059794  1
  Cl  Cl24  1  0.75541196  0.43160591  0.84745784  1
  Cl  Cl25  1  0.74458804  0.56839409  0.34745784  1
  Cl  Cl26  1  0.25541196  0.06839409  0.15254216  1
  Cl  Cl27  1  0.24458804  0.93160591  0.65254216  1
