# generated using pymatgen
data_Lu2SiO5
_symmetry_space_group_name_H-M   'P 1'
_cell_length_a   6.55519777
_cell_length_b   6.54426014
_cell_length_c   8.97361427
_cell_angle_alpha   90.00000000
_cell_angle_beta   100.02208792
_cell_angle_gamma   90.00000000
_symmetry_Int_Tables_number   1
_chemical_formula_structural   Lu2SiO5
_chemical_formula_sum   'Lu8 Si4 O20'
_cell_volume   379.08417533
_cell_formula_units_Z   4
loop_
 _symmetry_equiv_pos_site_id
 _symmetry_equiv_pos_as_xyz
  1  'x, y, z'
loop_
 _atom_site_type_symbol
 _atom_site_label
 _atom_site_symmetry_multiplicity
 _atom_site_fract_x
 _atom_site_fract_y
 _atom_site_fract_z
 _atom_site_occupancy
  Lu  Lu0  1  0.27421558  0.11752920  0.46482854  1
  Lu  Lu1  1  0.22578442  0.61752920  0.53517146  1
  Lu  Lu2  1  0.72578442  0.88247080  0.53517146  1
  Lu  Lu3  1  0.77421558  0.38247080  0.46482854  1
  Lu  Lu4  1  0.99022904  0.64177656  0.85178947  1
  Lu  Lu5  1  0.50977096  0.14177656  0.14821053  1
  Lu  Lu6  1  0.00977096  0.35822344  0.14821053  1
  Lu  Lu7  1  0.49022904  0.85822344  0.85178947  1
  Si  Si8  1  0.98735773  0.09874402  0.79768127  1
  Si  Si9  1  0.51264227  0.59874402  0.20231873  1
  Si  Si10  1  0.01264227  0.90125598  0.20231873  1
  Si  Si11  1  0.48735773  0.40125598  0.79768127  1
  O  O12  1  0.42007860  0.87781192  0.60630650  1
  O  O13  1  0.07992140  0.37781192  0.39369350  1
  O  O14  1  0.57992140  0.12218808  0.39369350  1
  O  O15  1  0.92007860  0.62218808  0.60630650  1
  O  O16  1  0.99438236  0.29991188  0.90141342  1
  O  O17  1  0.50561764  0.79991188  0.09858658  1
  O  O18  1  0.00561764  0.70008812  0.09858658  1
  O  O19  1  0.49438236  0.20008812  0.90141342  1
  O  O20  1  0.96476466  0.14829074  0.61438358  1
  O  O21  1  0.53523534  0.64829174  0.38561642  1
  O  O22  1  0.03523534  0.85170826  0.38561642  1
  O  O23  1  0.46476466  0.35170926  0.61438358  1
  O  O24  1  0.28857576  0.55978519  0.78950011  1
  O  O25  1  0.21142424  0.05978519  0.21049989  1
  O  O26  1  0.71142424  0.44021481  0.21049989  1
  O  O27  1  0.78857576  0.94021481  0.78950011  1
  O  O28  1  0.66965438  0.56550784  0.85087152  1
  O  O29  1  0.83034562  0.06550784  0.14912848  1
  O  O30  1  0.33034562  0.43449216  0.14912848  1
  O  O31  1  0.16965438  0.93449216  0.85087152  1
