# generated using pymatgen
data_MgCo4(Te2O5)4
_symmetry_space_group_name_H-M   'P 1'
_cell_length_a   7.21797646
_cell_length_b   10.99906875
_cell_length_c   6.31252205
_cell_angle_alpha   93.50586638
_cell_angle_beta   89.91877175
_cell_angle_gamma   88.66718852
_symmetry_Int_Tables_number   1
_chemical_formula_structural   MgCo4(Te2O5)4
_chemical_formula_sum   'Mg1 Co4 Te8 O20'
_cell_volume   500.08230701
_cell_formula_units_Z   1
loop_
 _symmetry_equiv_pos_site_id
 _symmetry_equiv_pos_as_xyz
  1  'x, y, z'
loop_
 _atom_site_type_symbol
 _atom_site_label
 _atom_site_symmetry_multiplicity
 _atom_site_fract_x
 _atom_site_fract_y
 _atom_site_fract_z
 _atom_site_occupancy
  Mg  Mg0  1  0.68270057  0.61521467  0.94107549  1
  Co  Co1  1  0.01166537  0.05236942  0.23780364  1
  Co  Co2  1  0.99614831  0.93602601  0.72884677  1
  Co  Co3  1  0.49755771  0.55455134  0.32343770  1
  Co  Co4  1  0.47912020  0.42214518  0.76369593  1
  Te  Te5  1  0.12914395  0.33674303  0.47057871  1
  Te  Te6  1  0.15108437  0.67259232  0.00066637  1
  Te  Te7  1  0.37016681  0.14785298  0.94011561  1
  Te  Te8  1  0.38035429  0.85294100  0.50254536  1
  Te  Te9  1  0.63206540  0.15918472  0.47065798  1
  Te  Te10  1  0.61424020  0.88812600  0.99191986  1
  Te  Te11  1  0.86588698  0.65415845  0.50098731  1
  Te  Te12  1  0.87992475  0.34057095  0.99664204  1
  O  O13  1  0.01477133  0.42935324  0.23626300  1
  O  O14  1  0.96298456  0.58152581  0.84011154  1
  O  O15  1  0.15163243  0.05772987  0.93055053  1
  O  O16  1  0.14688062  0.92703521  0.44463166  1
  O  O17  1  0.20447516  0.19666109  0.30392821  1
  O  O18  1  0.19623709  0.79174601  0.80165978  1
  O  O19  1  0.27646118  0.29343585  0.81532777  1
  O  O20  1  0.33611493  0.70459801  0.34163763  1
  O  O21  1  0.35260084  0.42624349  0.46563726  1
  O  O22  1  0.37251842  0.57369523  0.94612852  1
  O  O23  1  0.50831334  0.94283569  0.27707891  1
  O  O24  1  0.45646748  0.07865961  0.65798275  1
  O  O25  1  0.65578741  0.43760241  0.04244415  1
  O  O26  1  0.65379154  0.57128118  0.61483842  1
  O  O27  1  0.67556180  0.28881481  0.68220960  1
  O  O28  1  0.71740114  0.66429516  0.24827311  1
  O  O29  1  0.82024193  0.20827910  0.15962471  1
  O  O30  1  0.79901841  0.80759550  0.63895612  1
  O  O31  1  0.85176952  0.07026985  0.52515771  1
  O  O32  1  0.87119896  0.92836281  0.04400187  1
