# generated using pymatgen
data_Ba3Y2WO9
_symmetry_space_group_name_H-M   'P 1'
_cell_length_a   6.04431808
_cell_length_b   8.56139338
_cell_length_c   10.47110456
_cell_angle_alpha   65.86987065
_cell_angle_beta   73.22470435
_cell_angle_gamma   90.00000000
_symmetry_Int_Tables_number   1
_chemical_formula_structural   Ba3Y2WO9
_chemical_formula_sum   'Ba6 Y4 W2 O18'
_cell_volume   469.12789627
_cell_formula_units_Z   2
loop_
 _symmetry_equiv_pos_site_id
 _symmetry_equiv_pos_as_xyz
  1  'x, y, z'
loop_
 _atom_site_type_symbol
 _atom_site_label
 _atom_site_symmetry_multiplicity
 _atom_site_fract_x
 _atom_site_fract_y
 _atom_site_fract_z
 _atom_site_occupancy
  Ba  Ba0  1  0.50000000  0.26408820  0.00000000  1
  Ba  Ba1  1  0.83835368  0.57939356  0.32329164  1
  Ba  Ba2  1  0.16164632  0.90268620  0.67670836  1
  Ba  Ba3  1  0.50000000  0.73591180  0.00000000  1
  Ba  Ba4  1  0.83835368  0.09731380  0.32329164  1
  Ba  Ba5  1  0.16164632  0.42060644  0.67670836  1
  Y  Y6  1  -0.00000000  -0.00000000  0.00000000  1
  Y  Y7  1  0.32829276  0.32829276  0.34341348  1
  Y  Y8  1  0.67170724  0.67170724  0.65658652  1
  Y  Y9  1  -0.00000000  0.50000000  0.00000000  1
  W  W10  1  0.33469143  0.83469143  0.33061614  1
  W  W11  1  0.66530857  0.16530857  0.66938286  1
  O  O12  1  -0.00000000  0.24622274  0.00000000  1
  O  O13  1  0.33032315  0.60303764  0.33935171  1
  O  O14  1  0.66967685  0.94239135  0.66064829  1
  O  O15  1  0.16134181  0.41057946  0.17884109  1
  O  O16  1  0.49038416  0.76049417  0.47901066  1
  O  O17  1  0.81515796  0.08953536  0.82092727  1
  O  O18  1  0.34018189  0.58942054  0.82115891  1
  O  O19  1  0.63608624  0.91046464  0.17907273  1
  O  O20  1  0.96939582  0.23950583  0.52098934  1
  O  O21  1  -0.00000000  0.75377726  0.00000000  1
  O  O22  1  0.33032315  0.05760865  0.33935171  1
  O  O23  1  0.66967685  0.39696236  0.66064829  1
  O  O24  1  0.83865819  0.58942054  0.82115891  1
  O  O25  1  0.18484204  0.91046464  0.17907273  1
  O  O26  1  0.50961584  0.23950583  0.52098934  1
  O  O27  1  0.65981811  0.41057946  0.17884109  1
  O  O28  1  0.03060418  0.76049417  0.47901066  1
  O  O29  1  0.36391376  0.08953536  0.82092727  1
