# generated using pymatgen
data_CsMo2P3O13
_symmetry_space_group_name_H-M   'P 1'
_cell_length_a   6.38207627
_cell_length_b   9.84392037
_cell_length_c   19.62163003
_cell_angle_alpha   90.00000000
_cell_angle_beta   90.00000000
_cell_angle_gamma   106.86487021
_symmetry_Int_Tables_number   1
_chemical_formula_structural   CsMo2P3O13
_chemical_formula_sum   'Cs4 Mo8 P12 O52'
_cell_volume   1179.70470061
_cell_formula_units_Z   4
loop_
 _symmetry_equiv_pos_site_id
 _symmetry_equiv_pos_as_xyz
  1  'x, y, z'
loop_
 _atom_site_type_symbol
 _atom_site_label
 _atom_site_symmetry_multiplicity
 _atom_site_fract_x
 _atom_site_fract_y
 _atom_site_fract_z
 _atom_site_occupancy
  Cs  Cs0  1  0.73163857  0.00310084  0.58575542  1
  Cs  Cs1  1  0.26836143  0.99689916  0.08575542  1
  Cs  Cs2  1  0.71707915  0.63115094  0.75750236  1
  Cs  Cs3  1  0.28292085  0.36884906  0.25750236  1
  Mo  Mo4  1  0.43759831  0.60842376  0.46523095  1
  Mo  Mo5  1  0.56240169  0.39157624  0.96523095  1
  Mo  Mo6  1  0.35442869  0.92701153  0.75489732  1
  Mo  Mo7  1  0.64557131  0.07298847  0.25489732  1
  Mo  Mo8  1  0.06049493  0.37112291  0.71014238  1
  Mo  Mo9  1  0.93950507  0.62887709  0.21014238  1
  Mo  Mo10  1  0.14300338  0.05527802  0.42720018  1
  Mo  Mo11  1  0.85699662  0.94472198  0.92720018  1
  P  P12  1  0.23818701  0.69273450  0.62270887  1
  P  P13  1  0.76181299  0.30726550  0.12270887  1
  P  P14  1  0.90073725  0.03204213  0.76764926  1
  P  P15  1  0.09926275  0.96795787  0.26764926  1
  P  P16  1  0.51081876  0.27777372  0.67669200  1
  P  P17  1  0.48918124  0.72222628  0.17669200  1
  P  P18  1  0.25873768  0.29231907  0.55485032  1
  P  P19  1  0.74126232  0.70768093  0.05485032  1
  P  P20  1  0.59734789  0.95611236  0.41092916  1
  P  P21  1  0.40265211  0.04388764  0.91092916  1
  P  P22  1  0.98296684  0.70110308  0.50027421  1
  P  P23  1  0.01703316  0.29889692  0.00027421  1
  O  O24  1  0.33558746  0.40956961  0.50411100  1
  O  O25  1  0.66441254  0.59043039  0.00411100  1
  O  O26  1  0.43312842  0.55384593  0.38512124  1
  O  O27  1  0.56687158  0.44615407  0.88512124  1
  O  O28  1  0.74392889  0.61790449  0.49320062  1
  O  O29  1  0.25607111  0.38209551  0.99320062  1
  O  O30  1  0.54792152  0.81438341  0.44728215  1
  O  O31  1  0.45207848  0.18561659  0.94728215  1
  O  O32  1  0.40862286  0.67574007  0.57330794  1
  O  O33  1  0.59137714  0.32425993  0.07330794  1
  O  O34  1  0.16257048  0.57475422  0.67431429  1
  O  O35  1  0.83742952  0.42524578  0.17431429  1
  O  O36  1  0.02402168  0.69604455  0.58129655  1
  O  O37  1  0.97597832  0.30395545  0.08129655  1
  O  O38  1  0.31337536  0.83437323  0.65996232  1
  O  O39  1  0.68662464  0.16562677  0.15996232  1
  O  O40  1  0.42075376  0.06413775  0.83379721  1
  O  O41  1  0.57924624  0.93586225  0.33379721  1
  O  O42  1  0.28867317  0.77631195  0.79897130  1
  O  O43  1  0.71132683  0.22368805  0.29897130  1
  O  O44  1  0.67314290  0.93864419  0.74646675  1
  O  O45  1  0.32685710  0.06135581  0.24646675  1
  O  O46  1  0.45496139  0.12416277  0.69556031  1
  O  O47  1  0.54503861  0.87583723  0.19556031  1
  O  O48  1  0.05070911  0.94228120  0.74762397  1
  O  O49  1  0.94929089  0.05771880  0.24762397  1
  O  O50  1  0.95703286  0.16362789  0.72312809  1
  O  O51  1  0.04296714  0.83637211  0.22312809  1
  O  O52  1  0.37525192  0.36103521  0.71201564  1
  O  O53  1  0.62474808  0.63896479  0.21201564  1
  O  O54  1  0.75030723  0.36117807  0.68483380  1
  O  O55  1  0.24969277  0.63882193  0.18483380  1
  O  O56  1  0.47183932  0.28633311  0.59677783  1
  O  O57  1  0.52816068  0.71366689  0.09677783  1
  O  O58  1  0.05897288  0.42322408  0.79052964  1
  O  O59  1  0.94102712  0.57677592  0.29052964  1
  O  O60  1  0.09351544  0.31339034  0.60538908  1
  O  O61  1  0.90648456  0.68660966  0.10538908  1
  O  O62  1  0.17692086  0.14784186  0.52106516  1
  O  O63  1  0.82307914  0.85215814  0.02106416  1
  O  O64  1  0.08556618  0.92878308  0.34266623  1
  O  O65  1  0.91443382  0.07121692  0.84266623  1
  O  O66  1  0.21899749  0.20664860  0.38357168  1
  O  O67  1  0.78100251  0.79335140  0.88357168  1
  O  O68  1  0.82561165  0.04581345  0.43219702  1
  O  O69  1  0.17438835  0.95418655  0.93219702  1
  O  O70  1  0.03515124  0.85550490  0.48172763  1
  O  O71  1  0.96484876  0.14449510  0.98172763  1
  O  O72  1  0.44226785  0.03521887  0.43866316  1
  O  O73  1  0.55773215  0.96478113  0.93866316  1
  O  O74  1  0.12599691  0.62221648  0.46649196  1
  O  O75  1  0.87400309  0.37778352  0.96649196  1
