# generated using pymatgen
data_Rb2Ba6Sb5HO
_symmetry_space_group_name_H-M   'P 1'
_cell_length_a   15.57788699
_cell_length_b   15.57788699
_cell_length_c   15.57788699
_cell_angle_alpha   146.80662714
_cell_angle_beta   146.80662714
_cell_angle_gamma   47.65018785
_symmetry_Int_Tables_number   1
_chemical_formula_structural   Rb2Ba6Sb5HO
_chemical_formula_sum   'Rb4 Ba12 Sb10 H2 O2'
_cell_volume   1128.54853283
_cell_formula_units_Z   2
loop_
 _symmetry_equiv_pos_site_id
 _symmetry_equiv_pos_as_xyz
  1  'x, y, z'
loop_
 _atom_site_type_symbol
 _atom_site_label
 _atom_site_symmetry_multiplicity
 _atom_site_fract_x
 _atom_site_fract_y
 _atom_site_fract_z
 _atom_site_occupancy
  Rb  Rb0  1  0.66746967  0.16746967  0.83494034  1
  Rb  Rb1  1  0.33253033  0.83253033  0.16505966  1
  Rb  Rb2  1  0.16746967  0.33253033  0.50000000  1
  Rb  Rb3  1  0.83253033  0.66746967  0.50000000  1
  Ba  Ba4  1  0.46468437  0.96468437  0.81683872  1
  Ba  Ba5  1  0.14784565  0.64784565  0.18316128  1
  Ba  Ba6  1  0.96468437  0.14784565  0.50000000  1
  Ba  Ba7  1  0.64784565  0.46468437  0.50000000  1
  Ba  Ba8  1  0.53531563  0.03531563  0.18316128  1
  Ba  Ba9  1  0.85215435  0.35215435  0.81683872  1
  Ba  Ba10  1  0.03531563  0.85215435  0.50000000  1
  Ba  Ba11  1  0.35215435  0.53531563  0.50000000  1
  Ba  Ba12  1  0.40728357  0.40728357  0.00000000  1
  Ba  Ba13  1  0.90728357  0.90728357  0.00000000  1
  Ba  Ba14  1  0.59271643  0.59271643  0.00000000  1
  Ba  Ba15  1  0.09271643  0.09271643  0.00000000  1
  Sb  Sb16  1  0.01287708  0.51287708  0.73103220  1
  Sb  Sb17  1  0.78184488  0.28184488  0.26896780  1
  Sb  Sb18  1  0.51287708  0.78184488  0.50000000  1
  Sb  Sb19  1  0.28184488  0.01287708  0.50000000  1
  Sb  Sb20  1  0.98712292  0.48712292  0.26896780  1
  Sb  Sb21  1  0.21815512  0.71815512  0.73103220  1
  Sb  Sb22  1  0.48712292  0.21815512  0.50000000  1
  Sb  Sb23  1  0.71815512  0.98712292  0.50000000  1
  Sb  Sb24  1  0.25000000  0.25000000  0.00000000  1
  Sb  Sb25  1  0.75000000  0.75000000  0.00000000  1
  H  H26  1  0.50000000  0.50000000  0.00000000  1
  H  H27  1  -0.00000000  0.00000000  0.00000000  1
  O  O28  1  0.25000000  0.75000000  0.50000000  1
  O  O29  1  0.75000000  0.25000000  0.50000000  1
