# generated using pymatgen
data_Ba2MgFe2B2(P2O9)2
_symmetry_space_group_name_H-M   'P 1'
_cell_length_a   5.39159816
_cell_length_b   9.12785440
_cell_length_c   8.34669969
_cell_angle_alpha   94.25236993
_cell_angle_beta   79.98255264
_cell_angle_gamma   90.36585506
_symmetry_Int_Tables_number   1
_chemical_formula_structural   Ba2MgFe2B2(P2O9)2
_chemical_formula_sum   'Ba2 Mg1 Fe2 B2 P4 O18'
_cell_volume   403.38743564
_cell_formula_units_Z   1
loop_
 _symmetry_equiv_pos_site_id
 _symmetry_equiv_pos_as_xyz
  1  'x, y, z'
loop_
 _atom_site_type_symbol
 _atom_site_label
 _atom_site_symmetry_multiplicity
 _atom_site_fract_x
 _atom_site_fract_y
 _atom_site_fract_z
 _atom_site_occupancy
  Ba  Ba0  1  0.26018120  0.71817456  0.90546672  1
  Ba  Ba1  1  0.75054781  0.30228911  0.12852384  1
  Mg  Mg2  1  0.28777301  0.45648533  0.56830495  1
  Fe  Fe3  1  0.71506410  0.84338873  0.20741995  1
  Fe  Fe4  1  0.30895637  0.15291225  0.80204764  1
  B  B5  1  0.94090401  0.77393528  0.50936505  1
  B  B6  1  0.05925772  0.22082271  0.49516886  1
  P  P7  1  0.75153963  0.41512421  0.70761564  1
  P  P8  1  0.23462443  0.58352767  0.27587036  1
  P  P9  1  0.78799838  0.93075930  0.81190365  1
  P  P10  1  0.24000589  0.06869854  0.18938892  1
  O  O11  1  0.60364811  0.32171645  0.83547196  1
  O  O12  1  0.44176168  0.67563301  0.18408718  1
  O  O13  1  0.02309125  0.55602561  0.17737297  1
  O  O14  1  0.99274957  0.48226872  0.75710641  1
  O  O15  1  0.83932443  0.31209074  0.54003479  1
  O  O16  1  0.13225972  0.66099246  0.45819930  1
  O  O17  1  0.57700139  0.53181850  0.66060843  1
  O  O18  1  0.34470466  0.44063829  0.32714805  1
  O  O19  1  0.93876202  0.06715776  0.84816326  1
  O  O20  1  0.10596865  0.92968666  0.14216600  1
  O  O21  1  0.52960086  0.96269493  0.76850867  1
  O  O22  1  0.50399071  0.04679415  0.22787777  1
  O  O23  1  0.75207887  0.82281475  0.94979738  1
  O  O24  1  0.24977296  0.18677599  0.06255556  1
  O  O25  1  0.96601091  0.83286675  0.66790788  1
  O  O26  1  0.05140085  0.14275024  0.34707066  1
  O  O27  1  0.77532377  0.81509639  0.42593889  1
  O  O28  1  0.24819705  0.23043589  0.58140927  1
