# generated using pymatgen
data_Dy2MgSe4
_symmetry_space_group_name_H-M   'P 1'
_cell_length_a   13.23042640
_cell_length_b   7.90081667
_cell_length_c   13.45308258
_cell_angle_alpha   90.00000000
_cell_angle_beta   90.00000000
_cell_angle_gamma   90.00000000
_symmetry_Int_Tables_number   1
_chemical_formula_structural   Dy2MgSe4
_chemical_formula_sum   'Dy16 Mg8 Se32'
_cell_volume   1406.26650864
_cell_formula_units_Z   8
loop_
 _symmetry_equiv_pos_site_id
 _symmetry_equiv_pos_as_xyz
  1  'x, y, z'
loop_
 _atom_site_type_symbol
 _atom_site_label
 _atom_site_symmetry_multiplicity
 _atom_site_fract_x
 _atom_site_fract_y
 _atom_site_fract_z
 _atom_site_occupancy
  Dy  Dy0  1  0.10778460  0.88207870  0.68599702  1
  Dy  Dy1  1  0.89221540  0.11792130  0.18599702  1
  Dy  Dy2  1  0.39221540  0.88207870  0.18599702  1
  Dy  Dy3  1  0.60778460  0.11792130  0.68599702  1
  Dy  Dy4  1  0.12783776  0.38068723  0.32633322  1
  Dy  Dy5  1  0.87216224  0.61931277  0.82633322  1
  Dy  Dy6  1  0.37216224  0.38068723  0.82633322  1
  Dy  Dy7  1  0.62783776  0.61931277  0.32633322  1
  Dy  Dy8  1  0.13304073  0.62814872  0.99052668  1
  Dy  Dy9  1  0.86695927  0.37185128  0.49052668  1
  Dy  Dy10  1  0.36695927  0.62814872  0.49052668  1
  Dy  Dy11  1  0.63304073  0.37185128  0.99052668  1
  Dy  Dy12  1  0.13311163  0.12859932  0.99106528  1
  Dy  Dy13  1  0.86688837  0.87140068  0.49106528  1
  Dy  Dy14  1  0.36688837  0.12859932  0.49106528  1
  Dy  Dy15  1  0.63311163  0.87140068  0.99106528  1
  Mg  Mg16  1  0.11068848  0.38117187  0.69036096  1
  Mg  Mg17  1  0.88931152  0.61882813  0.19036096  1
  Mg  Mg18  1  0.38931152  0.38117187  0.19036096  1
  Mg  Mg19  1  0.61068848  0.61882813  0.69036096  1
  Mg  Mg20  1  0.12654110  0.87778016  0.32106488  1
  Mg  Mg21  1  0.87345890  0.12221984  0.82106488  1
  Mg  Mg22  1  0.37345890  0.87778016  0.82106488  1
  Mg  Mg23  1  0.62654110  0.12221984  0.32106488  1
  Se  Se24  1  0.01293438  0.87710198  0.87782282  1
  Se  Se25  1  0.98706562  0.12289802  0.37782282  1
  Se  Se26  1  0.48706562  0.87710198  0.37782282  1
  Se  Se27  1  0.51293438  0.12289802  0.87782282  1
  Se  Se28  1  0.03465505  0.37659979  0.13002322  1
  Se  Se29  1  0.96534495  0.62340021  0.63002322  1
  Se  Se30  1  0.46534495  0.37659979  0.63002322  1
  Se  Se31  1  0.53465505  0.62340021  0.13002322  1
  Se  Se32  1  0.02105458  0.37260533  0.86873897  1
  Se  Se33  1  0.97894542  0.62739467  0.36873897  1
  Se  Se34  1  0.47894542  0.37260533  0.36873897  1
  Se  Se35  1  0.52105458  0.62739467  0.86873897  1
  Se  Se36  1  0.04192936  0.87211817  0.13633700  1
  Se  Se37  1  0.95807064  0.12788183  0.63633700  1
  Se  Se38  1  0.45807064  0.87211817  0.63633700  1
  Se  Se39  1  0.54192936  0.12788183  0.13633700  1
  Se  Se40  1  0.21168115  0.87914161  0.50324405  1
  Se  Se41  1  0.78831885  0.12085839  0.00324405  1
  Se  Se42  1  0.28831885  0.87914161  0.00324405  1
  Se  Se43  1  0.71168115  0.12085839  0.50324405  1
  Se  Se44  1  0.21221652  0.37933942  0.51881303  1
  Se  Se45  1  0.78778348  0.62066058  0.01881303  1
  Se  Se46  1  0.28778348  0.37933942  0.01881303  1
  Se  Se47  1  0.71221652  0.62066058  0.51881303  1
  Se  Se48  1  0.23147181  0.12711120  0.77806773  1
  Se  Se49  1  0.76852819  0.87288880  0.27806773  1
  Se  Se50  1  0.26852819  0.12711120  0.27806773  1
  Se  Se51  1  0.73147181  0.87288880  0.77806773  1
  Se  Se52  1  0.23014319  0.63103605  0.77860614  1
  Se  Se53  1  0.76985681  0.36896395  0.27860614  1
  Se  Se54  1  0.26985681  0.63103605  0.27860614  1
  Se  Se55  1  0.73014319  0.36896395  0.77860614  1
