# generated using pymatgen
data_Na2Si2Se5
_symmetry_space_group_name_H-M   'P 1'
_cell_length_a   9.43029707
_cell_length_b   9.43029707
_cell_length_c   10.96174126
_cell_angle_alpha   90.00000000
_cell_angle_beta   90.00000000
_cell_angle_gamma   89.79984965
_symmetry_Int_Tables_number   1
_chemical_formula_structural   Na2Si2Se5
_chemical_formula_sum   'Na8 Si8 Se20'
_cell_volume   974.82721411
_cell_formula_units_Z   4
loop_
 _symmetry_equiv_pos_site_id
 _symmetry_equiv_pos_as_xyz
  1  'x, y, z'
loop_
 _atom_site_type_symbol
 _atom_site_label
 _atom_site_symmetry_multiplicity
 _atom_site_fract_x
 _atom_site_fract_y
 _atom_site_fract_z
 _atom_site_occupancy
  Na  Na0  1  0.57874083  0.07854552  0.75000000  1
  Na  Na1  1  0.42125917  0.92145448  0.25000000  1
  Na  Na2  1  0.92145448  0.42125917  0.75000000  1
  Na  Na3  1  0.07854552  0.57874083  0.25000000  1
  Na  Na4  1  0.14823495  0.14823495  0.50000000  1
  Na  Na5  1  0.85176505  0.85176505  0.00000000  1
  Na  Na6  1  0.85176505  0.85176505  0.50000000  1
  Na  Na7  1  0.14823495  0.14823495  0.00000000  1
  Si  Si8  1  0.58520508  0.68593355  0.75000000  1
  Si  Si9  1  0.41479492  0.31406645  0.25000000  1
  Si  Si10  1  0.31406645  0.41479492  0.75000000  1
  Si  Si11  1  0.68593355  0.58520508  0.25000000  1
  Si  Si12  1  0.25379403  0.74620597  0.91719443  1
  Si  Si13  1  0.74620597  0.25379403  0.41719443  1
  Si  Si14  1  0.25379403  0.74620597  0.58280557  1
  Si  Si15  1  0.74620597  0.25379403  0.08280557  1
  Se  Se16  1  0.72869261  0.81448878  0.25000000  1
  Se  Se17  1  0.27130739  0.18551122  0.75000000  1
  Se  Se18  1  0.18551122  0.27130739  0.25000000  1
  Se  Se19  1  0.81448878  0.72869261  0.75000000  1
  Se  Se20  1  0.15756783  0.84243217  0.08153503  1
  Se  Se21  1  0.84243217  0.15756783  0.58153503  1
  Se  Se22  1  0.15756783  0.84243217  0.41846497  1
  Se  Se23  1  0.84243217  0.15756783  0.91846497  1
  Se  Se24  1  0.15184336  0.84815664  0.75000000  1
  Se  Se25  1  0.84815664  0.15184336  0.25000000  1
  Se  Se26  1  0.50682977  0.20754614  0.07824875  1
  Se  Se27  1  0.49317023  0.79245386  0.57824875  1
  Se  Se28  1  0.79245386  0.49317023  0.42175125  1
  Se  Se29  1  0.20754614  0.50682977  0.92175125  1
  Se  Se30  1  0.49317023  0.79245386  0.92175125  1
  Se  Se31  1  0.50682977  0.20754614  0.42175125  1
  Se  Se32  1  0.20754614  0.50682977  0.57824875  1
  Se  Se33  1  0.79245386  0.49317023  0.07824875  1
  Se  Se34  1  0.55299098  0.44700902  0.75000000  1
  Se  Se35  1  0.44700902  0.55299098  0.25000000  1
