# generated using pymatgen
data_KCa2Mg2V3O12
_symmetry_space_group_name_H-M   'P 1'
_cell_length_a   11.03251205
_cell_length_b   11.03251205
_cell_length_c   11.03251205
_cell_angle_alpha   69.72590852
_cell_angle_beta   69.72590852
_cell_angle_gamma   107.87714301
_symmetry_Int_Tables_number   1
_chemical_formula_structural   KCa2Mg2V3O12
_chemical_formula_sum   'K4 Ca8 Mg8 V12 O48'
_cell_volume   1033.11817519
_cell_formula_units_Z   4
loop_
 _symmetry_equiv_pos_site_id
 _symmetry_equiv_pos_as_xyz
  1  'x, y, z'
loop_
 _atom_site_type_symbol
 _atom_site_label
 _atom_site_symmetry_multiplicity
 _atom_site_fract_x
 _atom_site_fract_y
 _atom_site_fract_z
 _atom_site_occupancy
  K  K0  1  0.62500000  0.37500000  0.75000000  1
  K  K1  1  0.87500000  0.12500000  0.25000000  1
  K  K2  1  0.37500000  0.62500000  0.25000000  1
  K  K3  1  0.12500000  0.87500000  0.75000000  1
  Ca  Ca4  1  0.62727573  0.25000000  0.12272427  1
  Ca  Ca5  1  0.87272427  0.75000000  0.37727573  1
  Ca  Ca6  1  0.75000000  0.37272427  0.37727573  1
  Ca  Ca7  1  0.25000000  0.12727573  0.12272427  1
  Ca  Ca8  1  0.37272427  0.75000000  0.87727573  1
  Ca  Ca9  1  0.12727573  0.25000000  0.62272427  1
  Ca  Ca10  1  0.25000000  0.62727573  0.62272427  1
  Ca  Ca11  1  0.75000000  0.87272427  0.87727573  1
  Mg  Mg12  1  0.50000000  0.50000000  0.50000000  1
  Mg  Mg13  1  0.50000000  -0.00000000  -0.00000000  1
  Mg  Mg14  1  0.00000000  -0.00000000  0.50000000  1
  Mg  Mg15  1  0.00000000  0.50000000  -0.00000000  1
  Mg  Mg16  1  0.50000000  -0.00000000  0.50000000  1
  Mg  Mg17  1  0.50000000  0.50000000  -0.00000000  1
  Mg  Mg18  1  0.00000000  -0.00000000  -0.00000000  1
  Mg  Mg19  1  0.00000000  0.50000000  0.50000000  1
  V  V20  1  0.37500000  0.12500000  0.75000000  1
  V  V21  1  0.12500000  0.37500000  0.25000000  1
  V  V22  1  0.87603555  0.25000000  0.87396445  1
  V  V23  1  0.62396445  0.75000000  0.62603555  1
  V  V24  1  0.75000000  0.62396445  0.12603555  1
  V  V25  1  0.25000000  0.87603555  0.37396445  1
  V  V26  1  0.62500000  0.87500000  0.25000000  1
  V  V27  1  0.87500000  0.62500000  0.75000000  1
  V  V28  1  0.12396445  0.75000000  0.12603555  1
  V  V29  1  0.37603555  0.25000000  0.37396445  1
  V  V30  1  0.25000000  0.37603555  0.87396445  1
  V  V31  1  0.75000000  0.12396445  0.62603555  1
  O  O32  1  0.51002044  0.30245045  0.59746283  1
  O  O33  1  0.39991328  0.10748327  0.90253717  1
  O  O34  1  0.10008672  0.19754955  0.29243002  1
  O  O35  1  0.98997956  0.39251673  0.20756998  1
  O  O36  1  0.69417384  0.19863669  0.91853297  1
  O  O37  1  0.88283034  0.30136331  0.00446286  1
  O  O38  1  0.80582616  0.88729319  0.49553714  1
  O  O39  1  0.61716966  0.61270681  0.58146703  1
  O  O40  1  0.79741615  0.48594919  0.12079961  1
  O  O41  1  0.70258385  0.58178423  0.31146696  1
  O  O42  1  0.10674881  0.91821577  0.37920039  1
  O  O43  1  0.39325119  0.01405081  0.18853304  1
  O  O44  1  0.48997956  0.69754955  0.40253717  1
  O  O45  1  0.60008672  0.89251673  0.09746283  1
  O  O46  1  0.89991328  0.80245045  0.70756998  1
  O  O47  1  0.01002044  0.60748327  0.79243002  1
  O  O48  1  0.30582616  0.80136331  0.08146703  1
  O  O49  1  0.11716966  0.69863669  0.99553714  1
  O  O50  1  0.19417384  0.11270681  0.50446286  1
  O  O51  1  0.38283034  0.38729319  0.41853297  1
  O  O52  1  0.20258385  0.51405081  0.87920039  1
  O  O53  1  0.29741615  0.41821577  0.68853304  1
  O  O54  1  0.89325119  0.08178423  0.62079961  1
  O  O55  1  0.60674881  0.98594919  0.81146696  1
  O  O56  1  0.48594919  0.79741615  0.62079961  1
  O  O57  1  0.58178423  0.70258385  0.81146696  1
  O  O58  1  0.91821577  0.10674881  0.87920039  1
  O  O59  1  0.01405081  0.39325119  0.68853304  1
  O  O60  1  0.30245045  0.51002044  0.09746283  1
  O  O61  1  0.10748327  0.39991328  0.40253717  1
  O  O62  1  0.19754955  0.10008672  0.79243002  1
  O  O63  1  0.39251673  0.98997956  0.70756998  1
  O  O64  1  0.19863669  0.69417384  0.41853297  1
  O  O65  1  0.30136331  0.88283034  0.50446286  1
  O  O66  1  0.88729319  0.80582616  0.99553714  1
  O  O67  1  0.61270681  0.61716966  0.08146703  1
  O  O68  1  0.51405081  0.20258385  0.37920039  1
  O  O69  1  0.41821577  0.29741615  0.18853304  1
  O  O70  1  0.08178423  0.89325119  0.12079961  1
  O  O71  1  0.98594919  0.60674881  0.31146696  1
  O  O72  1  0.69754955  0.48997956  0.90253717  1
  O  O73  1  0.89251673  0.60008672  0.59746283  1
  O  O74  1  0.80245045  0.89991328  0.20756998  1
  O  O75  1  0.60748327  0.01002044  0.29243002  1
  O  O76  1  0.80136331  0.30582616  0.58146703  1
  O  O77  1  0.69863669  0.11716966  0.49553714  1
  O  O78  1  0.11270681  0.19417384  0.00446286  1
  O  O79  1  0.38729319  0.38283034  0.91853297  1
