# generated using pymatgen
data_Cs3Sc2I9
_symmetry_space_group_name_H-M   'P 1'
_cell_length_a   8.50658936
_cell_length_b   8.50658936
_cell_length_c   21.37010373
_cell_angle_alpha   90.00000000
_cell_angle_beta   90.00000000
_cell_angle_gamma   119.99999689
_symmetry_Int_Tables_number   1
_chemical_formula_structural   Cs3Sc2I9
_chemical_formula_sum   'Cs6 Sc4 I18'
_cell_volume   1339.20854776
_cell_formula_units_Z   2
loop_
 _symmetry_equiv_pos_site_id
 _symmetry_equiv_pos_as_xyz
  1  'x, y, z'
loop_
 _atom_site_type_symbol
 _atom_site_label
 _atom_site_symmetry_multiplicity
 _atom_site_fract_x
 _atom_site_fract_y
 _atom_site_fract_z
 _atom_site_occupancy
  Cs  Cs0  1  0.66666700  0.33333300  0.93046143  1
  Cs  Cs1  1  0.33333300  0.66666700  0.06953857  1
  Cs  Cs2  1  0.33333300  0.66666700  0.43046143  1
  Cs  Cs3  1  0.66666700  0.33333300  0.56953857  1
  Cs  Cs4  1  -0.00000000  -0.00000000  0.75000000  1
  Cs  Cs5  1  -0.00000000  -0.00000000  0.25000000  1
  Sc  Sc6  1  0.66666700  0.33333300  0.34141066  1
  Sc  Sc7  1  0.33333300  0.66666700  0.65858934  1
  Sc  Sc8  1  0.33333300  0.66666700  0.84141066  1
  Sc  Sc9  1  0.66666700  0.33333300  0.15858934  1
  I  I10  1  0.82971247  0.17028753  0.41038949  1
  I  I11  1  0.17028753  0.82971247  0.58961051  1
  I  I12  1  0.34057606  0.17028753  0.41038949  1
  I  I13  1  0.17028753  0.82971247  0.91038949  1
  I  I14  1  0.65942394  0.82971247  0.58961051  1
  I  I15  1  0.82971247  0.17028753  0.08961051  1
  I  I16  1  0.82971247  0.65942394  0.41038949  1
  I  I17  1  0.65942394  0.82971247  0.91038949  1
  I  I18  1  0.17028753  0.34057606  0.58961051  1
  I  I19  1  0.34057606  0.17028753  0.08961051  1
  I  I20  1  0.17028753  0.34057606  0.91038949  1
  I  I21  1  0.82971247  0.65942394  0.08961051  1
  I  I22  1  0.48960015  0.51039985  0.75000000  1
  I  I23  1  0.51039985  0.48960015  0.25000000  1
  I  I24  1  0.02079870  0.51039985  0.75000000  1
  I  I25  1  0.97920130  0.48960015  0.25000000  1
  I  I26  1  0.48960015  0.97920130  0.75000000  1
  I  I27  1  0.51039985  0.02079870  0.25000000  1
