# generated using pymatgen
data_Cr2P4Pb3O16
_symmetry_space_group_name_H-M   'P 1'
_cell_length_a   8.93737411
_cell_length_b   8.97124192
_cell_length_c   9.26671021
_cell_angle_alpha   90.00000000
_cell_angle_beta   116.76385677
_cell_angle_gamma   90.00000000
_symmetry_Int_Tables_number   1
_chemical_formula_structural   Cr2P4Pb3O16
_chemical_formula_sum   'Cr4 P8 Pb6 O32'
_cell_volume   663.40134711
_cell_formula_units_Z   2
loop_
 _symmetry_equiv_pos_site_id
 _symmetry_equiv_pos_as_xyz
  1  'x, y, z'
loop_
 _atom_site_type_symbol
 _atom_site_label
 _atom_site_symmetry_multiplicity
 _atom_site_fract_x
 _atom_site_fract_y
 _atom_site_fract_z
 _atom_site_occupancy
  Cr  Cr0  1  0.24825035  0.86911801  0.74422979  1
  Cr  Cr1  1  0.75174965  0.36911801  0.75577021  1
  Cr  Cr2  1  0.75174965  0.13088199  0.25577021  1
  Cr  Cr3  1  0.24825035  0.63088199  0.24422979  1
  P  P4  1  0.57490699  0.41064357  0.35908833  1
  P  P5  1  0.42509301  0.91064357  0.14091167  1
  P  P6  1  0.42509301  0.58935643  0.64091167  1
  P  P7  1  0.57490699  0.08935643  0.85908833  1
  P  P8  1  0.98084343  0.36154902  0.15625528  1
  P  P9  1  0.01915657  0.86154902  0.34374472  1
  P  P10  1  0.01915657  0.63845098  0.84374472  1
  P  P11  1  0.98084343  0.13845098  0.65625528  1
  Pb  Pb12  1  0.29908356  0.29265407  0.02688020  1
  Pb  Pb13  1  0.70091644  0.79265407  0.47311980  1
  Pb  Pb14  1  0.70091644  0.70734593  0.97311980  1
  Pb  Pb15  1  0.29908356  0.20734593  0.52688020  1
  Pb  Pb16  1  -0.00000000  -0.00000000  -0.00000000  1
  Pb  Pb17  1  -0.00000000  0.50000000  0.50000000  1
  O  O18  1  0.15612402  0.91004815  0.50843247  1
  O  O19  1  0.84387598  0.41004815  0.99156753  1
  O  O20  1  0.84387598  0.08995185  0.49156753  1
  O  O21  1  0.15612402  0.58995185  0.00843247  1
  O  O22  1  0.09404615  0.79423175  0.23689062  1
  O  O23  1  0.90595385  0.29423175  0.26310938  1
  O  O24  1  0.90595385  0.20576825  0.76310938  1
  O  O25  1  0.09404615  0.70576825  0.73689062  1
  O  O26  1  0.59056606  0.28258798  0.25596395  1
  O  O27  1  0.40943394  0.78258798  0.24403605  1
  O  O28  1  0.40943394  0.71741202  0.74403605  1
  O  O29  1  0.59056606  0.21741202  0.75596395  1
  O  O30  1  0.38823760  0.45411485  0.25850848  1
  O  O31  1  0.61176240  0.95411485  0.24149152  1
  O  O32  1  0.61176240  0.54588515  0.74149152  1
  O  O33  1  0.38823760  0.04588515  0.75850848  1
  O  O34  1  0.08042578  0.00352741  0.75738397  1
  O  O35  1  0.91957422  0.50352741  0.74261603  1
  O  O36  1  0.91957422  0.99647259  0.24261603  1
  O  O37  1  0.08042578  0.49647259  0.25738397  1
  O  O38  1  0.39109039  0.85010736  0.97648879  1
  O  O39  1  0.60890961  0.35010736  0.52351121  1
  O  O40  1  0.60890961  0.14989264  0.02351121  1
  O  O41  1  0.39109039  0.64989264  0.47648879  1
  O  O42  1  0.10060328  0.25181535  0.13502293  1
  O  O43  1  0.89939672  0.75181535  0.36497707  1
  O  O44  1  0.89939672  0.74818465  0.86497707  1
  O  O45  1  0.10060328  0.24818465  0.63502293  1
  O  O46  1  0.31345190  0.04295115  0.12929464  1
  O  O47  1  0.68654810  0.54295115  0.37070536  1
  O  O48  1  0.68654810  0.95704885  0.87070536  1
  O  O49  1  0.31345190  0.45704885  0.62929464  1
