# generated using pymatgen
data_Cs2V3O8
_symmetry_space_group_name_H-M   'P 1'
_cell_length_a   8.92495072
_cell_length_b   8.92495072
_cell_length_c   6.07255594
_cell_angle_alpha   90.00000000
_cell_angle_beta   90.00000000
_cell_angle_gamma   90.00000000
_symmetry_Int_Tables_number   1
_chemical_formula_structural   Cs2V3O8
_chemical_formula_sum   'Cs4 V6 O16'
_cell_volume   483.70789705
_cell_formula_units_Z   2
loop_
 _symmetry_equiv_pos_site_id
 _symmetry_equiv_pos_as_xyz
  1  'x, y, z'
loop_
 _atom_site_type_symbol
 _atom_site_label
 _atom_site_symmetry_multiplicity
 _atom_site_fract_x
 _atom_site_fract_y
 _atom_site_fract_z
 _atom_site_occupancy
  Cs  Cs0  1  0.32919186  0.17080814  0.46169967  1
  Cs  Cs1  1  0.67080814  0.82919186  0.46169967  1
  Cs  Cs2  1  0.82919186  0.32919186  0.46169967  1
  Cs  Cs3  1  0.17080814  0.67080814  0.46169967  1
  V  V4  1  0.36656687  0.86656687  0.98362873  1
  V  V5  1  0.63343313  0.13343313  0.98362873  1
  V  V6  1  0.86656687  0.63343313  0.98362873  1
  V  V7  1  0.13343313  0.36656687  0.98362873  1
  V  V8  1  0.50000000  0.50000000  0.98831753  1
  V  V9  1  -0.00000000  0.00000000  0.98831753  1
  O  O10  1  0.50000000  0.50000000  0.72152600  1
  O  O11  1  -0.00000000  0.00000000  0.72152600  1
  O  O12  1  0.37090502  0.87090502  0.71295543  1
  O  O13  1  0.62909498  0.12909498  0.71295543  1
  O  O14  1  0.87090502  0.62909498  0.71295543  1
  O  O15  1  0.12909498  0.37090502  0.71295543  1
  O  O16  1  0.41680259  0.69244440  0.08314639  1
  O  O17  1  0.58319741  0.30755560  0.08314639  1
  O  O18  1  0.91680259  0.80755560  0.08314639  1
  O  O19  1  0.08319741  0.19244440  0.08314639  1
  O  O20  1  0.30755560  0.41680259  0.08314639  1
  O  O21  1  0.69244440  0.58319741  0.08314639  1
  O  O22  1  0.19244440  0.91680259  0.08314639  1
  O  O23  1  0.80755560  0.08319741  0.08314639  1
  O  O24  1  0.50000000  0.00000000  0.09140426  1
  O  O25  1  -0.00000000  0.50000000  0.09140426  1
