# generated using pymatgen
data_Hg8Bi3As4Cl13
_symmetry_space_group_name_H-M   'P 1'
_cell_length_a   11.65381861
_cell_length_b   11.65381861
_cell_length_c   43.96313471
_cell_angle_alpha   90.00000000
_cell_angle_beta   90.00000000
_cell_angle_gamma   120.00000226
_symmetry_Int_Tables_number   1
_chemical_formula_structural   Hg8Bi3As4Cl13
_chemical_formula_sum   'Hg48 Bi18 As24 Cl78'
_cell_volume   5170.77667666
_cell_formula_units_Z   6
loop_
 _symmetry_equiv_pos_site_id
 _symmetry_equiv_pos_as_xyz
  1  'x, y, z'
loop_
 _atom_site_type_symbol
 _atom_site_label
 _atom_site_symmetry_multiplicity
 _atom_site_fract_x
 _atom_site_fract_y
 _atom_site_fract_z
 _atom_site_occupancy
  Hg  Hg0  1  0.66572414  0.68717985  0.41608435  1
  Hg  Hg1  1  0.31282015  0.97854429  0.74941835  1
  Hg  Hg2  1  0.02145571  0.33427586  0.08275135  1
  Hg  Hg3  1  0.33427384  0.02146301  0.25058321  1
  Hg  Hg4  1  0.97853699  0.31281083  0.58391721  1
  Hg  Hg5  1  0.68718917  0.66572616  0.91725021  1
  Hg  Hg6  1  0.39066212  0.65424809  0.34633410  1
  Hg  Hg7  1  0.34575191  0.73641403  0.67966810  1
  Hg  Hg8  1  0.26358597  0.60933788  0.01300110  1
  Hg  Hg9  1  0.60933417  0.26358178  0.32033334  1
  Hg  Hg10  1  0.73641822  0.34575239  0.65366734  1
  Hg  Hg11  1  0.65424761  0.39066583  0.98700034  1
  Hg  Hg12  1  0.99999928  0.38276365  0.33333280  1
  Hg  Hg13  1  0.61723635  0.61723563  0.66666680  1
  Hg  Hg14  1  0.38276437  0.00000072  0.99999980  1
  Hg  Hg15  1  0.38929759  0.77613155  0.43138530  1
  Hg  Hg16  1  0.22386845  0.61316604  0.76471930  1
  Hg  Hg17  1  0.38683396  0.61070241  0.09805230  1
  Hg  Hg18  1  0.61072722  0.38682635  0.23528543  1
  Hg  Hg19  1  0.61317365  0.22390087  0.56861943  1
  Hg  Hg20  1  0.77609913  0.38927278  0.90195243  1
  Hg  Hg21  1  0.69128042  0.03769623  0.37610707  1
  Hg  Hg22  1  0.96230377  0.65358419  0.70944107  1
  Hg  Hg23  1  0.34641581  0.30871958  0.04277407  1
  Hg  Hg24  1  0.30871741  0.34641355  0.29055975  1
  Hg  Hg25  1  0.65358645  0.96230386  0.62389375  1
  Hg  Hg26  1  0.03769614  0.69128259  0.95722675  1
  Hg  Hg27  1  0.64100192  0.41628945  0.48368763  1
  Hg  Hg28  1  0.58371055  0.22471247  0.81702163  1
  Hg  Hg29  1  0.77528753  0.35899808  0.15035463  1
  Hg  Hg30  1  0.35899033  0.77529852  0.18297767  1
  Hg  Hg31  1  0.22470148  0.58369181  0.51631167  1
  Hg  Hg32  1  0.41630819  0.64100967  0.84964467  1
  Hg  Hg33  1  0.78887083  0.42498268  0.40392539  1
  Hg  Hg34  1  0.57501732  0.36388815  0.73725939  1
  Hg  Hg35  1  0.63611185  0.21112917  0.07059239  1
  Hg  Hg36  1  0.21113045  0.63611945  0.26274014  1
  Hg  Hg37  1  0.36388055  0.57501100  0.59607414  1
  Hg  Hg38  1  0.42498900  0.78886955  0.92940714  1
  Hg  Hg39  1  0.02296353  0.70912997  0.46396456  1
  Hg  Hg40  1  0.29087003  0.31383356  0.79729856  1
  Hg  Hg41  1  0.68616644  0.97703647  0.13063156  1
  Hg  Hg42  1  0.97703239  0.68616289  0.20270332  1
  Hg  Hg43  1  0.31383711  0.29086949  0.53603732  1
  Hg  Hg44  1  0.70913051  0.02296761  0.86937032  1
  Hg  Hg45  1  0.38412341  0.99999350  0.50001373  1
  Hg  Hg46  1  0.00000650  0.38412990  0.83334773  1
  Hg  Hg47  1  0.61587010  0.61587659  0.16668073  1
  Bi  Bi48  1  0.86689466  0.14516471  0.46551230  1
  Bi  Bi49  1  0.85483529  0.72172994  0.79884630  1
  Bi  Bi50  1  0.27827006  0.13310534  0.13217930  1
  Bi  Bi51  1  0.13310476  0.27826994  0.20115358  1
  Bi  Bi52  1  0.72173006  0.85483482  0.53448758  1
  Bi  Bi53  1  0.14516518  0.86689524  0.86782058  1
  Bi  Bi54  1  0.16082822  0.92032844  0.36653893  1
  Bi  Bi55  1  0.07967156  0.24049978  0.69987293  1
  Bi  Bi56  1  0.75950022  0.83917178  0.03320593  1
  Bi  Bi57  1  0.83917143  0.75950052  0.30012746  1
  Bi  Bi58  1  0.24049948  0.07967091  0.63346146  1
  Bi  Bi59  1  0.92032909  0.16082857  0.96679446  1
  Bi  Bi60  1  0.26005647  0.28047420  0.41699808  1
  Bi  Bi61  1  0.71952580  0.97958227  0.75033208  1
  Bi  Bi62  1  0.02041773  0.73994353  0.08366508  1
  Bi  Bi63  1  0.73994480  0.02041831  0.24966848  1
  Bi  Bi64  1  0.97958169  0.71952649  0.58300248  1
  Bi  Bi65  1  0.28047351  0.26005520  0.91633548  1
  As  As66  1  0.54547213  0.79204452  0.38943892  1
  As  As67  1  0.20795548  0.75342761  0.72277292  1
  As  As68  1  0.24657239  0.45452787  0.05610592  1
  As  As69  1  0.45451660  0.24656120  0.27722983  1
  As  As70  1  0.75343880  0.20795539  0.61056383  1
  As  As71  1  0.79204461  0.54548340  0.94389683  1
  As  As72  1  0.22354976  0.50135002  0.30706021  1
  As  As73  1  0.49864998  0.72219974  0.64039421  1
  As  As74  1  0.27780026  0.77645024  0.97372721  1
  As  As75  1  0.77645113  0.27779991  0.35960623  1
  As  As76  1  0.72220009  0.49865122  0.69294023  1
  As  As77  1  0.50134878  0.22354887  0.02627323  1
  As  As78  1  0.78660660  0.58232350  0.44344256  1
  As  As79  1  0.41767650  0.20428311  0.77677656  1
  As  As80  1  0.79571689  0.21339340  0.11010956  1
  As  As81  1  0.21340007  0.79573796  0.22322415  1
  As  As82  1  0.20426204  0.41766211  0.55655815  1
  As  As83  1  0.58233789  0.78659993  0.88989115  1
  As  As84  1  0.25719260  0.76589677  0.47875091  1
  As  As85  1  0.23410323  0.49129583  0.81208491  1
  As  As86  1  0.50870417  0.74280740  0.14541791  1
  As  As87  1  0.74281414  0.50870803  0.18792265  1
  As  As88  1  0.49129197  0.23410610  0.52125665  1
  As  As89  1  0.76589390  0.25718586  0.85458965  1
  Cl  Cl90  1  0.18915260  0.17301859  0.35638531  1
  Cl  Cl91  1  0.82698141  0.01613401  0.68971931  1
  Cl  Cl92  1  0.98386599  0.81084740  0.02305231  1
  Cl  Cl93  1  0.81084765  0.98386642  0.31028066  1
  Cl  Cl94  1  0.01613358  0.82698122  0.64361466  1
  Cl  Cl95  1  0.17301878  0.18915235  0.97694766  1
  Cl  Cl96  1  0.64310095  0.14453907  0.44486774  1
  Cl  Cl97  1  0.85546093  0.49856188  0.77820174  1
  Cl  Cl98  1  0.50143812  0.35689905  0.11153474  1
  Cl  Cl99  1  0.35691436  0.50144557  0.22179617  1
  Cl  Cl100  1  0.49855443  0.85546878  0.55513017  1
  Cl  Cl101  1  0.14453122  0.64308564  0.88846317  1
  Cl  Cl102  1  0.22508746  0.00248629  0.42569551  1
  Cl  Cl103  1  0.99751371  0.22260117  0.75902951  1
  Cl  Cl104  1  0.77739883  0.77491254  0.09236251  1
  Cl  Cl105  1  0.77490850  0.77739808  0.24096952  1
  Cl  Cl106  1  0.22260192  0.99751042  0.57430352  1
  Cl  Cl107  1  0.00248958  0.22509150  0.90763652  1
  Cl  Cl108  1  0.13331897  0.68828253  0.38223221  1
  Cl  Cl109  1  0.31171747  0.44503643  0.71556621  1
  Cl  Cl110  1  0.55496357  0.86668103  0.04889921  1
  Cl  Cl111  1  0.86668064  0.55496324  0.28443475  1
  Cl  Cl112  1  0.44503676  0.31171741  0.61776875  1
  Cl  Cl113  1  0.68828259  0.13331936  0.95110175  1
  Cl  Cl114  1  0.20452065  0.45214991  0.39681363  1
  Cl  Cl115  1  0.54785009  0.75237074  0.73014763  1
  Cl  Cl116  1  0.24762926  0.79547935  0.06348063  1
  Cl  Cl117  1  0.79547942  0.24763137  0.26985255  1
  Cl  Cl118  1  0.75236863  0.54784805  0.60318655  1
  Cl  Cl119  1  0.45215195  0.20452058  0.93651955  1
  Cl  Cl120  1  0.93386354  0.09525558  0.41066071  1
  Cl  Cl121  1  0.90474442  0.83860796  0.74399471  1
  Cl  Cl122  1  0.16139204  0.06613646  0.07732771  1
  Cl  Cl123  1  0.06613597  0.16139032  0.25600517  1
  Cl  Cl124  1  0.83860968  0.90474565  0.58933917  1
  Cl  Cl125  1  0.09525435  0.93386403  0.92267217  1
  Cl  Cl126  1  0.49037527  0.38329234  0.39039827  1
  Cl  Cl127  1  0.61670766  0.10708293  0.72373227  1
  Cl  Cl128  1  0.89291707  0.50962473  0.05706527  1
  Cl  Cl129  1  0.50962385  0.89291673  0.27626811  1
  Cl  Cl130  1  0.10708327  0.61670712  0.60960211  1
  Cl  Cl131  1  0.38329288  0.49037615  0.94293511  1
  Cl  Cl132  1  0.40182990  0.45796208  0.46007480  1
  Cl  Cl133  1  0.54203792  0.94386782  0.79340880  1
  Cl  Cl134  1  0.05613218  0.59817010  0.12674180  1
  Cl  Cl135  1  0.59817386  0.05613698  0.20659148  1
  Cl  Cl136  1  0.94386302  0.54203688  0.53992548  1
  Cl  Cl137  1  0.45796312  0.40182614  0.87325848  1
  Cl  Cl138  1  0.12972932  0.88048357  0.30455129  1
  Cl  Cl139  1  0.11951643  0.24924575  0.63788529  1
  Cl  Cl140  1  0.75075425  0.87027068  0.97121829  1
  Cl  Cl141  1  0.87026909  0.75075351  0.36211389  1
  Cl  Cl142  1  0.24924649  0.11951559  0.69544789  1
  Cl  Cl143  1  0.88048441  0.12973091  0.02878089  1
  Cl  Cl144  1  0.98359059  0.40296322  0.46190767  1
  Cl  Cl145  1  0.59703678  0.58062737  0.79524167  1
  Cl  Cl146  1  0.41937263  0.01640941  0.12857467  1
  Cl  Cl147  1  0.01641219  0.41937286  0.20475877  1
  Cl  Cl148  1  0.58062714  0.59703933  0.53809277  1
  Cl  Cl149  1  0.40296067  0.98358781  0.87142577  1
  Cl  Cl150  1  0.80887452  0.14169107  0.52684794  1
  Cl  Cl151  1  0.85830893  0.66718345  0.86018194  1
  Cl  Cl152  1  0.33281655  0.19112548  0.19351494  1
  Cl  Cl153  1  0.19112373  0.33281518  0.13981795  1
  Cl  Cl154  1  0.66718482  0.85830855  0.47315195  1
  Cl  Cl155  1  0.14169145  0.80887627  0.80648495  1
  Cl  Cl156  1  0.10588134  0.17117898  0.48095267  1
  Cl  Cl157  1  0.82882102  0.93470236  0.81428667  1
  Cl  Cl158  1  0.06529764  0.89411866  0.14761967  1
  Cl  Cl159  1  0.89412305  0.06529809  0.18571332  1
  Cl  Cl160  1  0.93470191  0.82882495  0.51904732  1
  Cl  Cl161  1  0.17117505  0.10587695  0.85238032  1
  Cl  Cl162  1  0.40941580  0.00228309  0.35544266  1
  Cl  Cl163  1  0.99771691  0.40713271  0.68877666  1
  Cl  Cl164  1  0.59286729  0.59058420  0.02210966  1
  Cl  Cl165  1  0.59058545  0.59286995  0.31122316  1
  Cl  Cl166  1  0.40713005  0.99771551  0.64455716  1
  Cl  Cl167  1  0.00228449  0.40941455  0.97789016  1
