# generated using pymatgen
data_LaTmS3
_symmetry_space_group_name_H-M   'P 1'
_cell_length_a   3.99324770
_cell_length_b   11.05744785
_cell_length_c   21.55754485
_cell_angle_alpha   78.68861920
_cell_angle_beta   90.00000000
_cell_angle_gamma   90.00000000
_symmetry_Int_Tables_number   1
_chemical_formula_structural   LaTmS3
_chemical_formula_sum   'La8 Tm8 S24'
_cell_volume   933.38664576
_cell_formula_units_Z   8
loop_
 _symmetry_equiv_pos_site_id
 _symmetry_equiv_pos_as_xyz
  1  'x, y, z'
loop_
 _atom_site_type_symbol
 _atom_site_label
 _atom_site_symmetry_multiplicity
 _atom_site_fract_x
 _atom_site_fract_y
 _atom_site_fract_z
 _atom_site_occupancy
  La  La0  1  0.25000000  0.30091406  0.76518829  1
  La  La1  1  0.75000000  0.69908594  0.23481171  1
  La  La2  1  0.25000000  0.90829965  0.86547574  1
  La  La3  1  0.75000000  0.09170035  0.13452426  1
  La  La4  1  0.25000000  0.68998214  0.73375171  1
  La  La5  1  0.75000000  0.31001786  0.26624829  1
  La  La6  1  0.25000000  0.79982859  0.53581803  1
  La  La7  1  0.75000000  0.20017141  0.46418197  1
  Tm  Tm8  1  0.25000000  0.55266027  0.41681267  1
  Tm  Tm9  1  0.75000000  0.44733973  0.58318733  1
  Tm  Tm10  1  0.25000000  0.97200472  0.34978115  1
  Tm  Tm11  1  0.75000000  0.02799528  0.65021885  1
  Tm  Tm12  1  0.25000000  0.81779503  0.04680506  1
  Tm  Tm13  1  0.75000000  0.18220497  0.95319494  1
  Tm  Tm14  1  0.25000000  0.47812926  0.08664931  1
  Tm  Tm15  1  0.75000000  0.52187074  0.91335069  1
  S  S16  1  0.25000000  0.08752688  0.03405609  1
  S  S17  1  0.75000000  0.91247312  0.96594391  1
  S  S18  1  0.25000000  0.20460732  0.36487114  1
  S  S19  1  0.75000000  0.79539268  0.63512886  1
  S  S20  1  0.25000000  0.74664933  0.32633470  1
  S  S21  1  0.75000000  0.25335067  0.67366530  1
  S  S22  1  0.25000000  0.63379215  0.96458978  1
  S  S23  1  0.75000000  0.36620785  0.03541022  1
  S  S24  1  0.25000000  0.50788550  0.21949881  1
  S  S25  1  0.75000000  0.49211450  0.78050119  1
  S  S26  1  0.25000000  0.25383091  0.17181062  1
  S  S27  1  0.75000000  0.74616909  0.82818938  1
  S  S28  1  0.25000000  0.87498415  0.16205872  1
  S  S29  1  0.75000000  0.12501585  0.83794128  1
  S  S30  1  0.25000000  0.35855922  0.51379457  1
  S  S31  1  0.75000000  0.64144078  0.48620543  1
  S  S32  1  0.25000000  0.05753647  0.55773476  1
  S  S33  1  0.75000000  0.94246353  0.44226524  1
  S  S34  1  0.25000000  0.96483485  0.72947182  1
  S  S35  1  0.75000000  0.03516515  0.27052818  1
  S  S36  1  0.25000000  0.54365802  0.63414525  1
  S  S37  1  0.75000000  0.45634198  0.36585475  1
  S  S38  1  0.25000000  0.34291223  0.90208209  1
  S  S39  1  0.75000000  0.65708777  0.09791791  1
