# generated using pymatgen
data_Mo3(Se2S)2
_symmetry_space_group_name_H-M   'P 1'
_cell_length_a   3.27307300
_cell_length_b   3.27307330
_cell_length_c   28.89125807
_cell_angle_alpha   90.00339934
_cell_angle_beta   89.99662199
_cell_angle_gamma   120.00060114
_symmetry_Int_Tables_number   1
_chemical_formula_structural   Mo3(Se2S)2
_chemical_formula_sum   'Mo3 Se4 S2'
_cell_volume   268.04386804
_cell_formula_units_Z   1
loop_
 _symmetry_equiv_pos_site_id
 _symmetry_equiv_pos_as_xyz
  1  'x, y, z'
loop_
 _atom_site_type_symbol
 _atom_site_label
 _atom_site_symmetry_multiplicity
 _atom_site_fract_x
 _atom_site_fract_y
 _atom_site_fract_z
 _atom_site_occupancy
  Mo  Mo0  1  0.00001190  -0.00001260  0.76960635  1
  Mo  Mo1  1  -0.00001498  0.00001657  0.23041463  1
  Mo  Mo2  1  0.33333203  0.66666701  0.99998026  1
  Se  Se3  1  0.33336847  0.66663037  0.71183511  1
  Se  Se4  1  0.33333539  0.66666538  0.17256392  1
  Se  Se5  1  0.33332588  0.66667399  0.82744328  1
  Se  Se6  1  0.33331077  0.66669275  0.28818903  1
  S  S7  1  -0.00000936  0.00000704  0.05278791  1
  S  S8  1  0.00000490  -0.00000551  0.94717852  1
