# generated using pymatgen
data_Al2InN3
_symmetry_space_group_name_H-M   'P 1'
_cell_length_a   5.62899009
_cell_length_b   5.61103028
_cell_length_c   5.19946180
_cell_angle_alpha   89.99999060
_cell_angle_beta   90.00001133
_cell_angle_gamma   119.89457119
_symmetry_Int_Tables_number   1
_chemical_formula_structural   Al2InN3
_chemical_formula_sum   'Al4 In2 N6'
_cell_volume   142.37132320
_cell_formula_units_Z   2
loop_
 _symmetry_equiv_pos_site_id
 _symmetry_equiv_pos_as_xyz
  1  'x, y, z'
loop_
 _atom_site_type_symbol
 _atom_site_label
 _atom_site_symmetry_multiplicity
 _atom_site_fract_x
 _atom_site_fract_y
 _atom_site_fract_z
 _atom_site_occupancy
  Al  Al0  1  0.34344305  0.33490022  0.49162672  1
  Al  Al1  1  0.65655658  0.99145682  0.49162673  1
  Al  Al2  1  0.65655669  0.66509982  0.99162683  1
  Al  Al3  1  0.34344327  0.00854295  0.99162690  1
  In  In4  1  -0.00000006  0.67808444  0.48638376  1
  In  In5  1  0.00000019  0.32191575  0.98638384  1
  N  N6  1  0.37056307  0.33358054  0.85579997  1
  N  N7  1  0.62943699  0.96301741  0.85580009  1
  N  N8  1  0.62943705  0.66641945  0.35579979  1
  N  N9  1  0.37056277  0.03698239  0.35580005  1
  N  N10  1  -0.00000001  0.70190866  0.90676283  1
  N  N11  1  0.00000042  0.29809154  0.40676249  1
