# generated using pymatgen
data_KSbCl6
_symmetry_space_group_name_H-M   'P 1'
_cell_length_a   6.80100621
_cell_length_b   6.80100621
_cell_length_c   11.94722308
_cell_angle_alpha   81.09609713
_cell_angle_beta   81.09609713
_cell_angle_gamma   55.60827429
_symmetry_Int_Tables_number   1
_chemical_formula_structural   KSbCl6
_chemical_formula_sum   'K2 Sb2 Cl12'
_cell_volume   448.97013874
_cell_formula_units_Z   2
loop_
 _symmetry_equiv_pos_site_id
 _symmetry_equiv_pos_as_xyz
  1  'x, y, z'
loop_
 _atom_site_type_symbol
 _atom_site_label
 _atom_site_symmetry_multiplicity
 _atom_site_fract_x
 _atom_site_fract_y
 _atom_site_fract_z
 _atom_site_occupancy
  K  K0  1  0.91769102  0.08230898  0.75000000  1
  K  K1  1  0.08230898  0.91769102  0.25000000  1
  Sb  Sb2  1  0.50000000  0.00000000  0.50000000  1
  Sb  Sb3  1  -0.00000000  0.50000000  -0.00000000  1
  Cl  Cl4  1  0.46743761  0.69317925  0.61163815  1
  Cl  Cl5  1  0.53256239  0.30682075  0.38836185  1
  Cl  Cl6  1  0.30682075  0.53256239  0.88836185  1
  Cl  Cl7  1  0.69317925  0.46743761  0.11163815  1
  Cl  Cl8  1  0.38757677  0.20625994  0.66671208  1
  Cl  Cl9  1  0.61242323  0.79374006  0.33328792  1
  Cl  Cl10  1  0.79374006  0.61242323  0.83328792  1
  Cl  Cl11  1  0.20625994  0.38757677  0.16671208  1
  Cl  Cl12  1  0.79290820  0.91205653  0.03373501  1
  Cl  Cl13  1  0.20709180  0.08794347  0.96626499  1
  Cl  Cl14  1  0.08794347  0.20709180  0.46626499  1
  Cl  Cl15  1  0.91205653  0.79290820  0.53373501  1
