# generated using pymatgen
data_NaNdSiO4
_symmetry_space_group_name_H-M   'P 1'
_cell_length_a   5.49237855
_cell_length_b   9.30207881
_cell_length_c   20.87290144
_cell_angle_alpha   90.00000000
_cell_angle_beta   90.00000000
_cell_angle_gamma   90.00000000
_symmetry_Int_Tables_number   1
_chemical_formula_structural   NaNdSiO4
_chemical_formula_sum   'Na12 Nd12 Si12 O48'
_cell_volume   1066.40776683
_cell_formula_units_Z   12
loop_
 _symmetry_equiv_pos_site_id
 _symmetry_equiv_pos_as_xyz
  1  'x, y, z'
loop_
 _atom_site_type_symbol
 _atom_site_label
 _atom_site_symmetry_multiplicity
 _atom_site_fract_x
 _atom_site_fract_y
 _atom_site_fract_z
 _atom_site_occupancy
  Na  Na0  1  0.95654940  0.43299002  0.05519442  1
  Na  Na1  1  0.45654940  0.56700998  0.94480558  1
  Na  Na2  1  0.95654940  0.06700998  0.55519442  1
  Na  Na3  1  0.45654940  0.93299002  0.44480558  1
  Na  Na4  1  0.01731293  0.07415007  0.22282248  1
  Na  Na5  1  0.51731293  0.92584993  0.77717752  1
  Na  Na6  1  0.01731293  0.42584993  0.72282248  1
  Na  Na7  1  0.51731293  0.57415007  0.27717752  1
  Na  Na8  1  0.00255045  0.42788508  0.39069289  1
  Na  Na9  1  0.50255045  0.57211492  0.60930711  1
  Na  Na10  1  0.00255045  0.07211492  0.89069289  1
  Na  Na11  1  0.50255045  0.92788508  0.10930711  1
  Nd  Nd12  1  0.52728556  0.30369661  0.16647382  1
  Nd  Nd13  1  0.02728556  0.69630339  0.83352618  1
  Nd  Nd14  1  0.52728556  0.19630339  0.66647382  1
  Nd  Nd15  1  0.02728556  0.80369661  0.33352618  1
  Nd  Nd16  1  0.50911867  0.19878940  0.33279878  1
  Nd  Nd17  1  0.00911867  0.80121060  0.66720122  1
  Nd  Nd18  1  0.50911867  0.30121060  0.83279878  1
  Nd  Nd19  1  0.00911867  0.69878940  0.16720122  1
  Nd  Nd20  1  0.46182601  0.30382307  0.49982687  1
  Nd  Nd21  1  0.96182601  0.69617693  0.50017313  1
  Nd  Nd22  1  0.46182601  0.19617693  0.99982687  1
  Nd  Nd23  1  0.96182601  0.80382307  0.00017313  1
  Si  Si24  1  0.00467557  0.08563410  0.07692124  1
  Si  Si25  1  0.50467557  0.91436590  0.92307876  1
  Si  Si26  1  0.00467557  0.41436590  0.57692124  1
  Si  Si27  1  0.50467557  0.58563410  0.42307876  1
  Si  Si28  1  0.00654617  0.41670373  0.24337260  1
  Si  Si29  1  0.50654617  0.58329627  0.75662740  1
  Si  Si30  1  0.00654617  0.08329627  0.74337260  1
  Si  Si31  1  0.50654617  0.91670373  0.25662740  1
  Si  Si32  1  0.97306496  0.08659694  0.40904616  1
  Si  Si33  1  0.47306496  0.91340306  0.59095384  1
  Si  Si34  1  0.97306496  0.41340306  0.90904616  1
  Si  Si35  1  0.47306496  0.58659694  0.09095384  1
  O  O36  1  0.44582418  0.42942380  0.39132253  1
  O  O37  1  0.94582418  0.57057620  0.60867747  1
  O  O38  1  0.44582418  0.07057620  0.89132253  1
  O  O39  1  0.94582418  0.92942380  0.10867747  1
  O  O40  1  0.07061540  0.44040373  0.50113899  1
  O  O41  1  0.57061540  0.55959627  0.49886101  1
  O  O42  1  0.07061540  0.05959627  0.00113899  1
  O  O43  1  0.57061540  0.94040373  0.99886101  1
  O  O44  1  0.77319842  0.19298046  0.08446090  1
  O  O45  1  0.27319842  0.80701954  0.91553910  1
  O  O46  1  0.77319842  0.30701954  0.58446090  1
  O  O47  1  0.27319842  0.69298046  0.41553910  1
  O  O48  1  0.25302641  0.15496310  0.10700633  1
  O  O49  1  0.75302641  0.84503690  0.89299367  1
  O  O50  1  0.25302641  0.34503690  0.60700633  1
  O  O51  1  0.75302641  0.65496310  0.39299367  1
  O  O52  1  0.57155739  0.07433311  0.22602142  1
  O  O53  1  0.07155739  0.92566689  0.77397858  1
  O  O54  1  0.57155739  0.42566689  0.72602142  1
  O  O55  1  0.07155739  0.57433311  0.27397858  1
  O  O56  1  0.93584508  0.06126458  0.33232666  1
  O  O57  1  0.94008404  0.43794377  0.16734053  1
  O  O58  1  0.94008404  0.06205623  0.66734053  1
  O  O59  1  0.44008404  0.93794377  0.33265947  1
  O  O60  1  0.22924031  0.30346961  0.25384284  1
  O  O61  1  0.72924031  0.69653039  0.74615716  1
  O  O62  1  0.22924031  0.19653039  0.75384284  1
  O  O63  1  0.72924031  0.80346961  0.24615716  1
  O  O64  1  0.75288073  0.35623870  0.27366144  1
  O  O65  1  0.25288073  0.64376130  0.72633856  1
  O  O66  1  0.75288073  0.14376130  0.77366144  1
  O  O67  1  0.25288073  0.85623870  0.22633856  1
  O  O68  1  0.45851276  0.42867498  0.05677594  1
  O  O69  1  0.95851276  0.57132502  0.94322406  1
  O  O70  1  0.45851276  0.07132502  0.55677594  1
  O  O71  1  0.95851276  0.92867498  0.44322406  1
  O  O72  1  0.73346500  0.66114929  0.07529772  1
  O  O73  1  0.23346500  0.33885071  0.92470228  1
  O  O74  1  0.73346500  0.83885071  0.57529772  1
  O  O75  1  0.23346500  0.16114929  0.42470228  1
  O  O76  1  0.25081855  0.69034921  0.06840596  1
  O  O77  1  0.75081855  0.30965079  0.93159404  1
  O  O78  1  0.25081855  0.80965079  0.56840596  1
  O  O79  1  0.75081855  0.19034921  0.43159404  1
  O  O80  1  0.43584508  0.56126458  0.16767334  1
  O  O81  1  0.93584508  0.43873542  0.83232666  1
  O  O82  1  0.43584508  0.93873542  0.66767334  1
  O  O83  1  0.44008404  0.56205623  0.83265947  1
