# generated using pymatgen
data_K3SbS3
_symmetry_space_group_name_H-M   'P 1'
_cell_length_a   9.49237996
_cell_length_b   9.49237996
_cell_length_c   9.49237996
_cell_angle_alpha   90.00000000
_cell_angle_beta   90.00000000
_cell_angle_gamma   90.00000000
_symmetry_Int_Tables_number   1
_chemical_formula_structural   K3SbS3
_chemical_formula_sum   'K12 Sb4 S12'
_cell_volume   855.31352858
_cell_formula_units_Z   4
loop_
 _symmetry_equiv_pos_site_id
 _symmetry_equiv_pos_as_xyz
  1  'x, y, z'
loop_
 _atom_site_type_symbol
 _atom_site_label
 _atom_site_symmetry_multiplicity
 _atom_site_fract_x
 _atom_site_fract_y
 _atom_site_fract_z
 _atom_site_occupancy
  K  K0  1  0.43987573  0.93987573  0.56012427  1
  K  K1  1  0.93987573  0.56012427  0.43987573  1
  K  K2  1  0.56012427  0.43987573  0.93987573  1
  K  K3  1  0.06012427  0.06012427  0.06012427  1
  K  K4  1  0.93499413  0.43499413  0.06500587  1
  K  K5  1  0.43499413  0.06500587  0.93499413  1
  K  K6  1  0.06500587  0.93499413  0.43499413  1
  K  K7  1  0.56500587  0.56500587  0.56500587  1
  K  K8  1  0.67710642  0.17710642  0.32289358  1
  K  K9  1  0.17710642  0.32289358  0.67710642  1
  K  K10  1  0.32289358  0.67710642  0.17710642  1
  K  K11  1  0.82289358  0.82289358  0.82289358  1
  Sb  Sb12  1  0.22116997  0.72116997  0.77883003  1
  Sb  Sb13  1  0.72116997  0.77883003  0.22116997  1
  Sb  Sb14  1  0.77883003  0.22116997  0.72116997  1
  Sb  Sb15  1  0.27883003  0.27883003  0.27883003  1
  S  S16  1  0.15107531  0.96708174  0.75400548  1
  S  S17  1  0.24599452  0.65107531  0.53291826  1
  S  S18  1  0.46708174  0.74599452  0.84892469  1
  S  S19  1  0.65107531  0.53291826  0.24599452  1
  S  S20  1  0.74599452  0.84892469  0.46708174  1
  S  S21  1  0.96708174  0.75400548  0.15107531  1
  S  S22  1  0.84892469  0.46708174  0.74599452  1
  S  S23  1  0.75400548  0.15107531  0.96708174  1
  S  S24  1  0.53291826  0.24599452  0.65107531  1
  S  S25  1  0.34892469  0.03291826  0.25400548  1
  S  S26  1  0.25400548  0.34892469  0.03291826  1
  S  S27  1  0.03291826  0.25400548  0.34892469  1
