# generated using pymatgen
data_MgCr2Sb2(PO4)4
_symmetry_space_group_name_H-M   'P 1'
_cell_length_a   11.04842509
_cell_length_b   6.53314560
_cell_length_c   4.89938265
_cell_angle_alpha   90.59811725
_cell_angle_beta   89.51097694
_cell_angle_gamma   94.70632861
_symmetry_Int_Tables_number   1
_chemical_formula_structural   MgCr2Sb2(PO4)4
_chemical_formula_sum   'Mg1 Cr2 Sb2 P4 O16'
_cell_volume   352.42016128
_cell_formula_units_Z   1
loop_
 _symmetry_equiv_pos_site_id
 _symmetry_equiv_pos_as_xyz
  1  'x, y, z'
loop_
 _atom_site_type_symbol
 _atom_site_label
 _atom_site_symmetry_multiplicity
 _atom_site_fract_x
 _atom_site_fract_y
 _atom_site_fract_z
 _atom_site_occupancy
  Mg  Mg0  1  0.50000000  0.00000000  0.50000000  1
  Cr  Cr1  1  0.19447300  0.77740300  0.39607500  1
  Cr  Cr2  1  0.80552700  0.22259800  0.60392500  1
  Sb  Sb3  1  0.27325500  0.30425900  0.97470300  1
  Sb  Sb4  1  0.72674500  0.69574100  0.02529700  1
  P  P5  1  0.09630500  0.25404000  0.42390800  1
  P  P6  1  0.37650500  0.79218100  0.88916700  1
  P  P7  1  0.62349500  0.20781900  0.11083300  1
  P  P8  1  0.90369500  0.74596000  0.57609200  1
  O  O9  1  0.03898800  0.76198100  0.61891700  1
  O  O10  1  0.12362200  0.25680500  0.73465300  1
  O  O11  1  0.16400800  0.08240100  0.27134900  1
  O  O12  1  0.16276400  0.45069500  0.28024100  1
  O  O13  1  0.33919900  0.99060600  0.74027400  1
  O  O14  1  0.28253700  0.61424000  0.79156200  1
  O  O15  1  0.36857400  0.80986900  0.20591200  1
  O  O16  1  0.49501000  0.23510400  0.22143300  1
  O  O17  1  0.50499000  0.76489600  0.77856700  1
  O  O18  1  0.63142600  0.19013100  0.79408800  1
  O  O19  1  0.66080100  0.00939400  0.25972600  1
  O  O20  1  0.71746300  0.38576000  0.20843800  1
  O  O21  1  0.83723600  0.54930500  0.71975900  1
  O  O22  1  0.83599200  0.91759900  0.72865100  1
  O  O23  1  0.87637800  0.74319500  0.26534700  1
  O  O24  1  0.96101200  0.23801900  0.38108300  1
