# generated using pymatgen
data_HoFeO3
_symmetry_space_group_name_H-M   'P 1'
_cell_length_a   5.25636467
_cell_length_b   5.60062622
_cell_length_c   7.60683986
_cell_angle_alpha   90.00000000
_cell_angle_beta   90.00000000
_cell_angle_gamma   90.00000000
_symmetry_Int_Tables_number   1
_chemical_formula_structural   HoFeO3
_chemical_formula_sum   'Ho4 Fe4 O12'
_cell_volume   223.93725501
_cell_formula_units_Z   4
loop_
 _symmetry_equiv_pos_site_id
 _symmetry_equiv_pos_as_xyz
  1  'x, y, z'
loop_
 _atom_site_type_symbol
 _atom_site_label
 _atom_site_symmetry_multiplicity
 _atom_site_fract_x
 _atom_site_fract_y
 _atom_site_fract_z
 _atom_site_occupancy
  Ho  Ho0  1  0.01963990  0.92816823  0.75000000  1
  Ho  Ho1  1  0.51963990  0.57183177  0.25000000  1
  Ho  Ho2  1  0.48036010  0.42816823  0.75000000  1
  Ho  Ho3  1  0.98036010  0.07183177  0.25000000  1
  Fe  Fe4  1  0.00000000  0.50000000  0.50000000  1
  Fe  Fe5  1  0.50000000  -0.00000000  0.50000000  1
  Fe  Fe6  1  0.50000000  -0.00000000  0.00000000  1
  Fe  Fe7  1  0.00000000  0.50000000  0.00000000  1
  O  O8  1  0.68905522  0.30764706  0.43950341  1
  O  O9  1  0.18905522  0.19235294  0.56049659  1
  O  O10  1  0.81094478  0.80764706  0.06049659  1
  O  O11  1  0.31094478  0.69235294  0.93950341  1
  O  O12  1  0.31094478  0.69235294  0.56049659  1
  O  O13  1  0.81094478  0.80764706  0.43950341  1
  O  O14  1  0.18905522  0.19235294  0.93950341  1
  O  O15  1  0.68905522  0.30764706  0.06049659  1
  O  O16  1  0.11903335  0.45612813  0.25000000  1
  O  O17  1  0.61903335  0.04387187  0.75000000  1
  O  O18  1  0.38096665  0.95612813  0.25000000  1
  O  O19  1  0.88096665  0.54387187  0.75000000  1
