# generated using pymatgen
data_KCaBr3
_symmetry_space_group_name_H-M   'P 1'
_cell_length_a   7.58990711
_cell_length_b   8.05949747
_cell_length_c   10.97533155
_cell_angle_alpha   90.00000000
_cell_angle_beta   90.00000000
_cell_angle_gamma   90.00000000
_symmetry_Int_Tables_number   1
_chemical_formula_structural   KCaBr3
_chemical_formula_sum   'K4 Ca4 Br12'
_cell_volume   671.37021892
_cell_formula_units_Z   4
loop_
 _symmetry_equiv_pos_site_id
 _symmetry_equiv_pos_as_xyz
  1  'x, y, z'
loop_
 _atom_site_type_symbol
 _atom_site_label
 _atom_site_symmetry_multiplicity
 _atom_site_fract_x
 _atom_site_fract_y
 _atom_site_fract_z
 _atom_site_occupancy
  K  K0  1  0.02764502  0.42008870  0.25000000  1
  K  K1  1  0.97235498  0.57991130  0.75000000  1
  K  K2  1  0.52764502  0.07991130  0.75000000  1
  K  K3  1  0.47235498  0.92008870  0.25000000  1
  Ca  Ca4  1  0.00000000  0.00000000  -0.00000000  1
  Ca  Ca5  1  0.50000000  0.50000000  -0.00000000  1
  Ca  Ca6  1  0.00000000  0.00000000  0.50000000  1
  Ca  Ca7  1  0.50000000  0.50000000  0.50000000  1
  Br  Br8  1  0.30951529  0.19688087  0.05538442  1
  Br  Br9  1  0.69048471  0.80311913  0.94461558  1
  Br  Br10  1  0.80951529  0.30311913  0.94461558  1
  Br  Br11  1  0.69048471  0.80311913  0.55538442  1
  Br  Br12  1  0.19048471  0.69688087  0.05538442  1
  Br  Br13  1  0.30951529  0.19688087  0.44461558  1
  Br  Br14  1  0.19048471  0.69688087  0.44461558  1
  Br  Br15  1  0.80951529  0.30311913  0.55538442  1
  Br  Br16  1  0.61022903  0.53081304  0.25000000  1
  Br  Br17  1  0.38977097  0.46918696  0.75000000  1
  Br  Br18  1  0.11022903  0.96918696  0.75000000  1
  Br  Br19  1  0.88977097  0.03081304  0.25000000  1
