# generated using pymatgen
data_BaCrO4
_symmetry_space_group_name_H-M   'P 1'
_cell_length_a   5.53654833
_cell_length_b   7.36427117
_cell_length_c   9.15309800
_cell_angle_alpha   90.00000000
_cell_angle_beta   90.00000000
_cell_angle_gamma   90.00000000
_symmetry_Int_Tables_number   1
_chemical_formula_structural   BaCrO4
_chemical_formula_sum   'Ba4 Cr4 O16'
_cell_volume   373.19599937
_cell_formula_units_Z   4
loop_
 _symmetry_equiv_pos_site_id
 _symmetry_equiv_pos_as_xyz
  1  'x, y, z'
loop_
 _atom_site_type_symbol
 _atom_site_label
 _atom_site_symmetry_multiplicity
 _atom_site_fract_x
 _atom_site_fract_y
 _atom_site_fract_z
 _atom_site_occupancy
  Ba  Ba0  1  0.25000000  0.34507912  0.68385092  1
  Ba  Ba1  1  0.75000000  0.65492088  0.31614908  1
  Ba  Ba2  1  0.75000000  0.84507912  0.81614908  1
  Ba  Ba3  1  0.25000000  0.15492088  0.18385092  1
  Cr  Cr4  1  0.25000000  0.69431292  0.05729543  1
  Cr  Cr5  1  0.75000000  0.30568708  0.94270457  1
  Cr  Cr6  1  0.75000000  0.19431292  0.44270457  1
  Cr  Cr7  1  0.25000000  0.80568708  0.55729543  1
  O  O8  1  0.50831377  0.17742122  0.91827594  1
  O  O9  1  0.00831377  0.82257878  0.08172406  1
  O  O10  1  0.49168623  0.67742122  0.58172406  1
  O  O11  1  0.99168623  0.32257878  0.41827594  1
  O  O12  1  0.49168623  0.82257878  0.08172406  1
  O  O13  1  0.99168623  0.17742122  0.91827594  1
  O  O14  1  0.50831377  0.32257878  0.41827594  1
  O  O15  1  0.00831377  0.67742122  0.58172406  1
  O  O16  1  0.25000000  0.88318849  0.38952141  1
  O  O17  1  0.75000000  0.11681151  0.61047859  1
  O  O18  1  0.75000000  0.38318849  0.11047859  1
  O  O19  1  0.25000000  0.61681151  0.88952141  1
  O  O20  1  0.25000000  0.96756917  0.68044774  1
  O  O21  1  0.75000000  0.03243083  0.31955226  1
  O  O22  1  0.75000000  0.46756917  0.81955226  1
  O  O23  1  0.25000000  0.53243083  0.18044774  1
