# generated using pymatgen
data_NaEuNbSnO6
_symmetry_space_group_name_H-M   'P 1'
_cell_length_a   5.68865474
_cell_length_b   5.68865469
_cell_length_c   5.68865447
_cell_angle_alpha   60.00000127
_cell_angle_beta   60.00000160
_cell_angle_gamma   59.99999383
_symmetry_Int_Tables_number   1
_chemical_formula_structural   NaEuNbSnO6
_chemical_formula_sum   'Na1 Eu1 Nb1 Sn1 O6'
_cell_volume   130.17083628
_cell_formula_units_Z   1
loop_
 _symmetry_equiv_pos_site_id
 _symmetry_equiv_pos_as_xyz
  1  'x, y, z'
loop_
 _atom_site_type_symbol
 _atom_site_label
 _atom_site_symmetry_multiplicity
 _atom_site_fract_x
 _atom_site_fract_y
 _atom_site_fract_z
 _atom_site_occupancy
  Na  Na0  1  0.24999992  0.24999998  0.25000005  1
  Eu  Eu1  1  0.75000044  0.75000032  0.74999962  1
  Nb  Nb2  1  0.99999994  0.99999994  0.00000006  1
  Sn  Sn3  1  0.50000000  0.49999996  0.50000002  1
  O  O4  1  0.75243672  0.24756316  0.24756329  1
  O  O5  1  0.24756324  0.75243672  0.75243681  1
  O  O6  1  0.75243672  0.24756316  0.75243683  1
  O  O7  1  0.24756324  0.75243672  0.24756322  1
  O  O8  1  0.75243670  0.75243683  0.24756323  1
  O  O9  1  0.24756308  0.24756320  0.75243686  1
