# generated using pymatgen
data_MgFe6(OF2)4
_symmetry_space_group_name_H-M   'P 1'
_cell_length_a   7.54195073
_cell_length_b   6.02798040
_cell_length_c   5.75702222
_cell_angle_alpha   69.94993993
_cell_angle_beta   74.12174377
_cell_angle_gamma   76.55757269
_symmetry_Int_Tables_number   1
_chemical_formula_structural   MgFe6(OF2)4
_chemical_formula_sum   'Mg1 Fe6 O4 F8'
_cell_volume   233.68476400
_cell_formula_units_Z   1
loop_
 _symmetry_equiv_pos_site_id
 _symmetry_equiv_pos_as_xyz
  1  'x, y, z'
loop_
 _atom_site_type_symbol
 _atom_site_label
 _atom_site_symmetry_multiplicity
 _atom_site_fract_x
 _atom_site_fract_y
 _atom_site_fract_z
 _atom_site_occupancy
  Mg  Mg0  1  0.17364500  0.08989800  0.56587900  1
  Fe  Fe1  1  0.85910800  0.59007500  0.70686900  1
  Fe  Fe2  1  0.65822800  0.34421600  0.32604200  1
  Fe  Fe3  1  0.36123900  0.60727000  0.60539400  1
  Fe  Fe4  1  0.15159200  0.55133400  0.14903300  1
  Fe  Fe5  1  0.51560100  0.93166600  0.02074100  1
  Fe  Fe6  1  0.96037200  0.04042000  0.10833100  1
  O  O7  1  0.34118200  0.90001300  0.33125600  1
  O  O8  1  0.67734200  0.63138700  0.01999100  1
  O  O9  1  0.00180400  0.28450400  0.78468800  1
  O  O10  1  0.97639400  0.73162200  0.36168700  1
  F  F11  1  0.63837900  0.06743100  0.65385700  1
  F  F12  1  0.33302600  0.35370700  0.93594300  1
  F  F13  1  0.32198300  0.86993100  0.85888700  1
  F  F14  1  0.99526600  0.24999800  0.31854500  1
  F  F15  1  0.65028900  0.53522100  0.57843200  1
  F  F16  1  0.04103100  0.75889000  0.79537100  1
  F  F17  1  0.34049100  0.36144500  0.41406200  1
  F  F18  1  0.66969600  0.10096800  0.12124400  1
