# generated using pymatgen
data_Nd3CuSnSe7
_symmetry_space_group_name_H-M   'P 1'
_cell_length_a   10.59525425
_cell_length_b   10.59525425
_cell_length_c   6.34624082
_cell_angle_alpha   90.00000000
_cell_angle_beta   90.00000000
_cell_angle_gamma   119.99999758
_symmetry_Int_Tables_number   1
_chemical_formula_structural   Nd3CuSnSe7
_chemical_formula_sum   'Nd6 Cu2 Sn2 Se14'
_cell_volume   616.97839467
_cell_formula_units_Z   2
loop_
 _symmetry_equiv_pos_site_id
 _symmetry_equiv_pos_as_xyz
  1  'x, y, z'
loop_
 _atom_site_type_symbol
 _atom_site_label
 _atom_site_symmetry_multiplicity
 _atom_site_fract_x
 _atom_site_fract_y
 _atom_site_fract_z
 _atom_site_occupancy
  Nd  Nd0  1  0.64400588  0.86185749  0.95834708  1
  Nd  Nd1  1  0.78214739  0.64400588  0.45834708  1
  Nd  Nd2  1  0.86185749  0.21785261  0.45834708  1
  Nd  Nd3  1  0.13814251  0.78214739  0.95834708  1
  Nd  Nd4  1  0.21785261  0.35599412  0.95834708  1
  Nd  Nd5  1  0.35599412  0.13814251  0.45834708  1
  Cu  Cu6  1  0.00000000  0.00000000  0.50755620  1
  Cu  Cu7  1  0.00000000  0.00000000  0.00755620  1
  Sn  Sn8  1  0.66666700  0.33333300  0.88144476  1
  Sn  Sn9  1  0.33333300  0.66666700  0.38144476  1
  Se  Se10  1  0.48485102  0.57021190  0.21026515  1
  Se  Se11  1  0.91463911  0.48485102  0.71026515  1
  Se  Se12  1  0.57021190  0.08536089  0.71026515  1
  Se  Se13  1  0.42978810  0.91463911  0.21026515  1
  Se  Se14  1  0.33333300  0.66666700  0.77416746  1
  Se  Se15  1  0.66666700  0.33333300  0.27416746  1
  Se  Se16  1  0.08536089  0.51514898  0.21026515  1
  Se  Se17  1  0.51514898  0.42978810  0.71026515  1
  Se  Se18  1  0.25596694  0.10158007  0.99599797  1
  Se  Se19  1  0.15438686  0.25596694  0.49599797  1
  Se  Se20  1  0.10158007  0.84561314  0.49599797  1
  Se  Se21  1  0.89841993  0.15438686  0.99599797  1
  Se  Se22  1  0.84561314  0.74403306  0.99599797  1
  Se  Se23  1  0.74403306  0.89841993  0.49599797  1
