# generated using pymatgen
data_Ba(BiS2)2
_symmetry_space_group_name_H-M   'P 1'
_cell_length_a   21.94153590
_cell_length_b   21.94130155
_cell_length_c   4.15546315
_cell_angle_alpha   90.00003254
_cell_angle_beta   89.99999066
_cell_angle_gamma   119.99986289
_symmetry_Int_Tables_number   1
_chemical_formula_structural   Ba(BiS2)2
_chemical_formula_sum   'Ba9 Bi18 S36'
_cell_volume   1732.52726611
_cell_formula_units_Z   9
loop_
 _symmetry_equiv_pos_site_id
 _symmetry_equiv_pos_as_xyz
  1  'x, y, z'
loop_
 _atom_site_type_symbol
 _atom_site_label
 _atom_site_symmetry_multiplicity
 _atom_site_fract_x
 _atom_site_fract_y
 _atom_site_fract_z
 _atom_site_occupancy
  Ba  Ba0  1  0.66666720  0.33333394  0.50000034  1
  Ba  Ba1  1  0.33333132  0.66666543  0.00000047  1
  Ba  Ba2  1  0.99999872  -0.00000190  0.49999997  1
  Ba  Ba3  1  0.41452174  0.17775855  0.50000125  1
  Ba  Ba4  1  0.82224575  0.23676037  0.50000000  1
  Ba  Ba5  1  0.76324106  0.58548539  0.49999949  1
  Ba  Ba6  1  0.58232239  0.82079000  -0.00000018  1
  Ba  Ba7  1  0.17920511  0.76152973  -0.00000033  1
  Ba  Ba8  1  0.23846913  0.41767741  0.00000020  1
  Bi  Bi9  1  0.43984177  0.55488556  0.50000005  1
  Bi  Bi10  1  0.44511382  0.88495413  0.50000022  1
  Bi  Bi11  1  0.11503932  0.56015897  0.49999976  1
  Bi  Bi12  1  0.56096390  0.44598646  0.00000008  1
  Bi  Bi13  1  0.55400907  0.11497385  0.00000013  1
  Bi  Bi14  1  0.88502504  0.43902927  0.00000005  1
  Bi  Bi15  1  0.65786102  0.03118134  0.50000036  1
  Bi  Bi16  1  0.96881659  0.62667786  0.50000008  1
  Bi  Bi17  1  0.37332294  0.34214229  0.50000017  1
  Bi  Bi18  1  0.34074716  0.96681641  0.00000110  1
  Bi  Bi19  1  0.03318454  0.37393426  -0.00000017  1
  Bi  Bi20  1  0.62606795  0.65924649  -0.00000003  1
  Bi  Bi21  1  0.99540648  0.79911968  0.00000087  1
  Bi  Bi22  1  0.20088205  0.19628641  0.00000032  1
  Bi  Bi23  1  0.80371145  0.00459453  -0.00000004  1
  Bi  Bi24  1  0.00715221  0.19891054  0.50000028  1
  Bi  Bi25  1  0.80108974  0.80824173  0.50000012  1
  Bi  Bi26  1  0.19176158  0.99285010  0.50000036  1
  S  S27  1  0.83834144  0.48564114  0.50000016  1
  S  S28  1  0.51436047  0.35270034  0.49999599  1
  S  S29  1  0.64730180  0.16165531  0.50000021  1
  S  S30  1  0.16258334  0.51505641  -0.00000018  1
  S  S31  1  0.48494351  0.64752896  0.00000024  1
  S  S32  1  0.35246913  0.83741392  0.00000008  1
  S  S33  1  0.93353042  0.82904382  0.50000045  1
  S  S34  1  0.17095599  0.10448437  0.50000011  1
  S  S35  1  0.89551491  0.06647369  0.50000012  1
  S  S36  1  0.05380529  0.14394006  0.00000013  1
  S  S37  1  0.85606009  0.90986795  0.00000016  1
  S  S38  1  0.09013411  0.94619313  0.00000202  1
  S  S39  1  0.06619405  0.76441176  0.50000010  1
  S  S40  1  0.23558606  0.30178124  0.50000009  1
  S  S41  1  0.69821725  0.93380434  0.50000000  1
  S  S42  1  0.93929418  0.23483098  0.00000007  1
  S  S43  1  0.76517118  0.70446450  -0.00000020  1
  S  S44  1  0.29553430  0.06070539  0.00000050  1
  S  S45  1  0.24517495  0.89529222  0.50000023  1
  S  S46  1  0.10471065  0.34988994  0.50000021  1
  S  S47  1  0.65011124  0.75481473  0.50000022  1
  S  S48  1  0.75492437  0.10242134  0.00000015  1
  S  S49  1  0.89757922  0.65250576  -0.00000017  1
  S  S50  1  0.34749732  0.24507522  0.00000007  1
  S  S51  1  0.60161014  0.55914024  0.50000002  1
  S  S52  1  0.44086817  0.04247360  0.50000043  1
  S  S53  1  0.95753409  0.39840432  0.50000023  1
  S  S54  1  0.40039766  0.44218212  0.00000011  1
  S  S55  1  0.55782175  0.95821708  -0.00000000  1
  S  S56  1  0.04178020  0.59960407  -0.00000004  1
  S  S57  1  0.22583190  0.68180985  0.50000004  1
  S  S58  1  0.31818556  0.54402417  0.50000015  1
  S  S59  1  0.45597415  0.77416562  0.50000009  1
  S  S60  1  0.77445766  0.31688141  0.00000004  1
  S  S61  1  0.68311476  0.45757120  -0.00000024  1
  S  S62  1  0.54242662  0.22554002  0.00000046  1
