# generated using pymatgen
data_Cs2ReF6
_symmetry_space_group_name_H-M   'P 1'
_cell_length_a   6.28118566
_cell_length_b   6.28120145
_cell_length_c   4.94872613
_cell_angle_alpha   90.00217411
_cell_angle_beta   89.99788581
_cell_angle_gamma   119.99894739
_symmetry_Int_Tables_number   1
_chemical_formula_structural   Cs2ReF6
_chemical_formula_sum   'Cs2 Re1 F6'
_cell_volume   169.08808695
_cell_formula_units_Z   1
loop_
 _symmetry_equiv_pos_site_id
 _symmetry_equiv_pos_as_xyz
  1  'x, y, z'
loop_
 _atom_site_type_symbol
 _atom_site_label
 _atom_site_symmetry_multiplicity
 _atom_site_fract_x
 _atom_site_fract_y
 _atom_site_fract_z
 _atom_site_occupancy
  Cs  Cs0  1  0.33333270  0.66666965  0.29880565  1
  Cs  Cs1  1  0.66666293  0.33333275  0.70113018  1
  Re  Re2  1  -0.00000256  -0.00000226  -0.00002732  1
  F  F3  1  0.84747603  0.15251673  0.21742176  1
  F  F4  1  0.15249714  0.84750250  0.78260621  1
  F  F5  1  0.84746731  0.69494052  0.21742714  1
  F  F6  1  0.15250503  0.30500493  0.78260267  1
  F  F7  1  0.30506352  0.15253496  0.21742925  1
  F  F8  1  0.69499689  0.84749922  0.78260547  1
