# generated using pymatgen
data_CoSe2O5
_symmetry_space_group_name_H-M   'P 1'
_cell_length_a   6.03250795
_cell_length_b   6.85454364
_cell_length_c   10.32688205
_cell_angle_alpha   90.00041396
_cell_angle_beta   89.99939194
_cell_angle_gamma   89.99181073
_symmetry_Int_Tables_number   1
_chemical_formula_structural   CoSe2O5
_chemical_formula_sum   'Co4 Se8 O20'
_cell_volume   427.01748716
_cell_formula_units_Z   4
loop_
 _symmetry_equiv_pos_site_id
 _symmetry_equiv_pos_as_xyz
  1  'x, y, z'
loop_
 _atom_site_type_symbol
 _atom_site_label
 _atom_site_symmetry_multiplicity
 _atom_site_fract_x
 _atom_site_fract_y
 _atom_site_fract_z
 _atom_site_occupancy
  Co  Co0  1  0.75000761  -0.00000175  0.06243308  1
  Co  Co1  1  0.25001691  0.49998508  0.43743851  1
  Co  Co2  1  0.24999765  -0.00000238  0.93753982  1
  Co  Co3  1  0.74999626  0.50001299  0.56252288  1
  Se  Se4  1  0.46815023  0.63289579  0.15391005  1
  Se  Se5  1  0.96818993  0.86703895  0.34615719  1
  Se  Se6  1  0.53178682  0.13296499  0.34614416  1
  Se  Se7  1  0.03183448  0.36711051  0.15391155  1
  Se  Se8  1  0.96816077  0.63290443  0.84610891  1
  Se  Se9  1  0.46815729  0.86704188  0.65388399  1
  Se  Se10  1  0.03182783  0.13293716  0.65389357  1
  Se  Se11  1  0.53183293  0.36707885  0.84609664  1
  O  O12  1  0.75001210  -0.00000491  0.43406224  1
  O  O13  1  0.24999635  0.50001477  0.06603752  1
  O  O14  1  0.24997450  -0.00000750  0.56598058  1
  O  O15  1  0.75000651  0.50001157  0.93402415  1
  O  O16  1  0.05092850  0.15716464  0.06643771  1
  O  O17  1  0.55106149  0.34314881  0.43365097  1
  O  O18  1  0.94895358  0.65684063  0.43366630  1
  O  O19  1  0.44906629  0.84285335  0.06642899  1
  O  O20  1  0.94882476  0.84301809  0.93348841  1
  O  O21  1  0.44906841  0.65692492  0.56637710  1
  O  O22  1  0.05091256  0.34305067  0.56638905  1
  O  O23  1  0.55118719  0.15700052  0.93348384  1
  O  O24  1  0.66653772  0.19346982  0.20913967  1
  O  O25  1  0.16666823  0.30631982  0.29084720  1
  O  O26  1  0.33332657  0.69370262  0.29084010  1
  O  O27  1  0.83347911  0.80650857  0.20914249  1
  O  O28  1  0.33336539  0.80634047  0.79085110  1
  O  O29  1  0.83344633  0.69356240  0.70912802  1
  O  O30  1  0.66659291  0.30647361  0.70912347  1
  O  O31  1  0.16663279  0.19363963  0.79085976  1
