# generated using pymatgen
data_CoAsS
_symmetry_space_group_name_H-M   'P 1'
_cell_length_a   5.55750629
_cell_length_b   5.55750629
_cell_length_c   5.55750629
_cell_angle_alpha   90.00000000
_cell_angle_beta   90.00000000
_cell_angle_gamma   90.00000000
_symmetry_Int_Tables_number   1
_chemical_formula_structural   CoAsS
_chemical_formula_sum   'Co4 As4 S4'
_cell_volume   171.64845105
_cell_formula_units_Z   4
loop_
 _symmetry_equiv_pos_site_id
 _symmetry_equiv_pos_as_xyz
  1  'x, y, z'
loop_
 _atom_site_type_symbol
 _atom_site_label
 _atom_site_symmetry_multiplicity
 _atom_site_fract_x
 _atom_site_fract_y
 _atom_site_fract_z
 _atom_site_occupancy
  Co  Co0  1  0.50691590  0.49308410  0.99308410  1
  Co  Co1  1  0.49308410  0.99308410  0.50691590  1
  Co  Co2  1  0.00691590  0.00691590  0.00691590  1
  Co  Co3  1  0.99308410  0.50691590  0.49308410  1
  As  As4  1  0.62048323  0.87951677  0.12048323  1
  As  As5  1  0.12048323  0.62048323  0.87951677  1
  As  As6  1  0.37951677  0.37951677  0.37951677  1
  As  As7  1  0.87951677  0.12048323  0.62048323  1
  S  S8  1  0.38262341  0.11737659  0.88262341  1
  S  S9  1  0.88262341  0.38262341  0.11737659  1
  S  S10  1  0.11737659  0.88262341  0.38262341  1
  S  S11  1  0.61737659  0.61737659  0.61737659  1
