# generated using pymatgen
data_HgBrCl
_symmetry_space_group_name_H-M   'P 1'
_cell_length_a   4.17537974
_cell_length_b   6.97044514
_cell_length_c   13.13306859
_cell_angle_alpha   90.00000000
_cell_angle_beta   90.00000000
_cell_angle_gamma   90.00000000
_symmetry_Int_Tables_number   1
_chemical_formula_structural   HgBrCl
_chemical_formula_sum   'Hg4 Br4 Cl4'
_cell_volume   382.22818264
_cell_formula_units_Z   4
loop_
 _symmetry_equiv_pos_site_id
 _symmetry_equiv_pos_as_xyz
  1  'x, y, z'
loop_
 _atom_site_type_symbol
 _atom_site_label
 _atom_site_symmetry_multiplicity
 _atom_site_fract_x
 _atom_site_fract_y
 _atom_site_fract_z
 _atom_site_occupancy
  Hg  Hg0  1  0.42860127  0.89774841  0.87184180  1
  Hg  Hg1  1  0.92860127  0.60225159  0.12815820  1
  Hg  Hg2  1  0.57139873  0.39774841  0.62815820  1
  Hg  Hg3  1  0.07139873  0.10225159  0.37184180  1
  Br  Br4  1  0.70967278  0.17999382  0.23083144  1
  Br  Br5  1  0.20967278  0.32000618  0.76916856  1
  Br  Br6  1  0.29032722  0.67999382  0.26916856  1
  Br  Br7  1  0.79032722  0.82000618  0.73083144  1
  Cl  Cl8  1  0.08185894  0.98549368  0.00385253  1
  Cl  Cl9  1  0.58185894  0.51450632  0.99614747  1
  Cl  Cl10  1  0.91814106  0.48549368  0.49614747  1
  Cl  Cl11  1  0.41814106  0.01450632  0.50385253  1
