# generated using pymatgen
data_Ca(YS2)2
_symmetry_space_group_name_H-M   'P 1'
_cell_length_a   3.89858059
_cell_length_b   12.99509933
_cell_length_c   13.13802218
_cell_angle_alpha   90.00000000
_cell_angle_beta   90.00000000
_cell_angle_gamma   90.00000000
_symmetry_Int_Tables_number   1
_chemical_formula_structural   Ca(YS2)2
_chemical_formula_sum   'Ca4 Y8 S16'
_cell_volume   665.60428686
_cell_formula_units_Z   4
loop_
 _symmetry_equiv_pos_site_id
 _symmetry_equiv_pos_as_xyz
  1  'x, y, z'
loop_
 _atom_site_type_symbol
 _atom_site_label
 _atom_site_symmetry_multiplicity
 _atom_site_fract_x
 _atom_site_fract_y
 _atom_site_fract_z
 _atom_site_occupancy
  Ca  Ca0  1  0.75000000  0.62995244  0.41823559  1
  Ca  Ca1  1  0.25000000  0.37004756  0.58176441  1
  Ca  Ca2  1  0.75000000  0.12995244  0.08176441  1
  Ca  Ca3  1  0.25000000  0.87004756  0.91823559  1
  Y  Y4  1  0.75000000  0.89202385  0.58351955  1
  Y  Y5  1  0.25000000  0.10797615  0.41648045  1
  Y  Y6  1  0.75000000  0.39202385  0.91648045  1
  Y  Y7  1  0.25000000  0.60797615  0.08351955  1
  Y  Y8  1  0.25000000  0.64619804  0.70308847  1
  Y  Y9  1  0.75000000  0.35380196  0.29691153  1
  Y  Y10  1  0.25000000  0.14619804  0.79691153  1
  Y  Y11  1  0.75000000  0.85380196  0.20308847  1
  S  S12  1  0.25000000  0.97099314  0.11778866  1
  S  S13  1  0.75000000  0.02900686  0.88221134  1
  S  S14  1  0.25000000  0.47099314  0.38221134  1
  S  S15  1  0.75000000  0.52900686  0.61778866  1
  S  S16  1  0.75000000  0.74360128  0.02558415  1
  S  S17  1  0.25000000  0.25639872  0.97441585  1
  S  S18  1  0.75000000  0.24360128  0.47441585  1
  S  S19  1  0.25000000  0.75639872  0.52558415  1
  S  S20  1  0.25000000  0.53336527  0.88271554  1
  S  S21  1  0.75000000  0.46663473  0.11728446  1
  S  S22  1  0.25000000  0.03336527  0.61728446  1
  S  S23  1  0.75000000  0.96663473  0.38271554  1
  S  S24  1  0.75000000  0.78221544  0.76325634  1
  S  S25  1  0.25000000  0.21778456  0.23674366  1
  S  S26  1  0.75000000  0.28221544  0.73674366  1
  S  S27  1  0.25000000  0.71778456  0.26325634  1
