# generated using pymatgen
data_Nb2PbO6
_symmetry_space_group_name_H-M   'P 1'
_cell_length_a   7.23816281
_cell_length_b   7.23816280
_cell_length_c   7.23816333
_cell_angle_alpha   93.87606594
_cell_angle_beta   93.87607402
_cell_angle_gamma   93.87607334
_symmetry_Int_Tables_number   1
_chemical_formula_structural   Nb2PbO6
_chemical_formula_sum   'Nb6 Pb3 O18'
_cell_volume   376.48840989
_cell_formula_units_Z   3
loop_
 _symmetry_equiv_pos_site_id
 _symmetry_equiv_pos_as_xyz
  1  'x, y, z'
loop_
 _atom_site_type_symbol
 _atom_site_label
 _atom_site_symmetry_multiplicity
 _atom_site_fract_x
 _atom_site_fract_y
 _atom_site_fract_z
 _atom_site_occupancy
  Nb  Nb0  1  0.54119201  0.84101396  0.19747085  1
  Nb  Nb1  1  0.84101396  0.19747085  0.54119201  1
  Nb  Nb2  1  0.19747085  0.54119201  0.84101396  1
  Nb  Nb3  1  0.15358381  0.81005241  0.50864038  1
  Nb  Nb4  1  0.81005241  0.50864038  0.15358381  1
  Nb  Nb5  1  0.50864038  0.15358381  0.81005241  1
  Pb  Pb6  1  0.99756466  0.99756466  0.99756466  1
  Pb  Pb7  1  0.35478831  0.35478831  0.35478831  1
  Pb  Pb8  1  0.68402296  0.68402296  0.68402296  1
  O  O9  1  0.40283973  0.67752720  0.95519201  1
  O  O10  1  0.67752720  0.95519201  0.40283973  1
  O  O11  1  0.95519201  0.40283973  0.67752720  1
  O  O12  1  0.94715521  0.67587600  0.39317797  1
  O  O13  1  0.67587600  0.39317797  0.94715521  1
  O  O14  1  0.39317797  0.94715521  0.67587600  1
  O  O15  1  0.77163082  0.05411755  0.77122476  1
  O  O16  1  0.05411755  0.77122476  0.77163082  1
  O  O17  1  0.77122476  0.77163082  0.05411755  1
  O  O18  1  0.05787743  0.51378845  0.05829691  1
  O  O19  1  0.51378845  0.05829691  0.05787743  1
  O  O20  1  0.05829691  0.05787743  0.51378845  1
  O  O21  1  0.57829208  0.29044304  0.57896583  1
  O  O22  1  0.29044304  0.57896583  0.57829208  1
  O  O23  1  0.57896583  0.57829208  0.29044304  1
  O  O24  1  0.29332227  0.83954013  0.29219924  1
  O  O25  1  0.83954013  0.29219924  0.29332227  1
  O  O26  1  0.29219924  0.29332227  0.83954013  1
