# generated using pymatgen
data_DyRhO3
_symmetry_space_group_name_H-M   'P 1'
_cell_length_a   5.21847713
_cell_length_b   5.75597356
_cell_length_c   7.57328100
_cell_angle_alpha   90.00000000
_cell_angle_beta   90.00000000
_cell_angle_gamma   90.00000000
_symmetry_Int_Tables_number   1
_chemical_formula_structural   DyRhO3
_chemical_formula_sum   'Dy4 Rh4 O12'
_cell_volume   227.48179479
_cell_formula_units_Z   4
loop_
 _symmetry_equiv_pos_site_id
 _symmetry_equiv_pos_as_xyz
  1  'x, y, z'
loop_
 _atom_site_type_symbol
 _atom_site_label
 _atom_site_symmetry_multiplicity
 _atom_site_fract_x
 _atom_site_fract_y
 _atom_site_fract_z
 _atom_site_occupancy
  Dy  Dy0  1  0.02982562  0.41613109  0.25000000  1
  Dy  Dy1  1  0.97017438  0.58386891  0.75000000  1
  Dy  Dy2  1  0.52982562  0.08386891  0.75000000  1
  Dy  Dy3  1  0.47017438  0.91613109  0.25000000  1
  Rh  Rh4  1  0.00000000  -0.00000000  -0.00000000  1
  Rh  Rh5  1  0.50000000  0.50000000  -0.00000000  1
  Rh  Rh6  1  0.00000000  -0.00000000  0.50000000  1
  Rh  Rh7  1  0.50000000  0.50000000  0.50000000  1
  O  O8  1  0.32385808  0.18991933  0.06132975  1
  O  O9  1  0.67614192  0.81008067  0.93867025  1
  O  O10  1  0.82385808  0.31008067  0.93867025  1
  O  O11  1  0.67614192  0.81008067  0.56132975  1
  O  O12  1  0.17614192  0.68991933  0.06132975  1
  O  O13  1  0.32385808  0.18991933  0.43867025  1
  O  O14  1  0.17614192  0.68991933  0.43867025  1
  O  O15  1  0.82385808  0.31008067  0.56132975  1
  O  O16  1  0.63283576  0.55103914  0.25000000  1
  O  O17  1  0.36716424  0.44896086  0.75000000  1
  O  O18  1  0.13283576  0.94896086  0.75000000  1
  O  O19  1  0.86716424  0.05103914  0.25000000  1
