# generated using pymatgen
data_MgFeSiO4
_symmetry_space_group_name_H-M   'P 1'
_cell_length_a   4.80995625
_cell_length_b   5.96953027
_cell_length_c   10.32344557
_cell_angle_alpha   90.00000000
_cell_angle_beta   90.00000000
_cell_angle_gamma   90.00000000
_symmetry_Int_Tables_number   1
_chemical_formula_structural   MgFeSiO4
_chemical_formula_sum   'Mg4 Fe4 Si4 O16'
_cell_volume   296.41894501
_cell_formula_units_Z   4
loop_
 _symmetry_equiv_pos_site_id
 _symmetry_equiv_pos_as_xyz
  1  'x, y, z'
loop_
 _atom_site_type_symbol
 _atom_site_label
 _atom_site_symmetry_multiplicity
 _atom_site_fract_x
 _atom_site_fract_y
 _atom_site_fract_z
 _atom_site_occupancy
  Mg  Mg0  1  0.49435670  0.75000000  0.22232316  1
  Mg  Mg1  1  0.00564330  0.75000000  0.72232316  1
  Mg  Mg2  1  0.50564330  0.25000000  0.77767684  1
  Mg  Mg3  1  0.99435670  0.25000000  0.27767684  1
  Fe  Fe4  1  0.50000000  -0.00000000  0.50000000  1
  Fe  Fe5  1  0.00000000  0.50000000  -0.00000000  1
  Fe  Fe6  1  0.50000000  0.50000000  0.50000000  1
  Fe  Fe7  1  0.00000000  -0.00000000  -0.00000000  1
  Si  Si8  1  0.93082443  0.75000000  0.40179111  1
  Si  Si9  1  0.56917557  0.75000000  0.90179111  1
  Si  Si10  1  0.06917557  0.25000000  0.59820889  1
  Si  Si11  1  0.43082443  0.25000000  0.09820889  1
  O  O12  1  0.27012150  0.75000000  0.40285296  1
  O  O13  1  0.22987850  0.75000000  0.90285296  1
  O  O14  1  0.72987850  0.25000000  0.59714704  1
  O  O15  1  0.77012150  0.25000000  0.09714704  1
  O  O16  1  0.70165599  0.75000000  0.04963320  1
  O  O17  1  0.79834401  0.75000000  0.54963320  1
  O  O18  1  0.29834401  0.25000000  0.95036680  1
  O  O19  1  0.20165599  0.25000000  0.45036680  1
  O  O20  1  0.78478133  0.96628409  0.33257225  1
  O  O21  1  0.71521867  0.53371591  0.83257225  1
  O  O22  1  0.21521867  0.46628409  0.66742775  1
  O  O23  1  0.28478133  0.03371591  0.16742775  1
  O  O24  1  0.21521867  0.03371591  0.66742775  1
  O  O25  1  0.28478133  0.46628409  0.16742775  1
  O  O26  1  0.78478133  0.53371591  0.33257225  1
  O  O27  1  0.71521867  0.96628409  0.83257225  1
