# generated using pymatgen
data_Cs2Mg2(MoO4)3
_symmetry_space_group_name_H-M   'P 1'
_cell_length_a   11.07074275
_cell_length_b   11.07074275
_cell_length_c   11.07074275
_cell_angle_alpha   90.00000000
_cell_angle_beta   90.00000000
_cell_angle_gamma   90.00000000
_symmetry_Int_Tables_number   1
_chemical_formula_structural   Cs2Mg2(MoO4)3
_chemical_formula_sum   'Cs8 Mg8 Mo12 O48'
_cell_volume   1356.84512200
_cell_formula_units_Z   4
loop_
 _symmetry_equiv_pos_site_id
 _symmetry_equiv_pos_as_xyz
  1  'x, y, z'
loop_
 _atom_site_type_symbol
 _atom_site_label
 _atom_site_symmetry_multiplicity
 _atom_site_fract_x
 _atom_site_fract_y
 _atom_site_fract_z
 _atom_site_occupancy
  Cs  Cs0  1  0.04956338  0.04956338  0.04956338  1
  Cs  Cs1  1  0.45043662  0.95043662  0.54956338  1
  Cs  Cs2  1  0.95043662  0.54956338  0.45043662  1
  Cs  Cs3  1  0.54956338  0.45043662  0.95043662  1
  Cs  Cs4  1  0.81873965  0.81873965  0.81873965  1
  Cs  Cs5  1  0.68126035  0.18126035  0.31873965  1
  Cs  Cs6  1  0.18126035  0.31873965  0.68126035  1
  Cs  Cs7  1  0.31873965  0.68126035  0.18126035  1
  Mg  Mg8  1  0.33638220  0.33638220  0.33638220  1
  Mg  Mg9  1  0.16361780  0.66361780  0.83638220  1
  Mg  Mg10  1  0.66361780  0.83638220  0.16361780  1
  Mg  Mg11  1  0.83638220  0.16361780  0.66361780  1
  Mg  Mg12  1  0.60328583  0.60328583  0.60328583  1
  Mg  Mg13  1  0.89671417  0.39671417  0.10328583  1
  Mg  Mg14  1  0.39671417  0.10328583  0.89671417  1
  Mg  Mg15  1  0.10328583  0.89671417  0.39671417  1
  Mo  Mo16  1  0.02133114  0.21212433  0.37611577  1
  Mo  Mo17  1  0.47866886  0.78787567  0.87611577  1
  Mo  Mo18  1  0.97866886  0.71212433  0.12388423  1
  Mo  Mo19  1  0.37611577  0.02133114  0.21212433  1
  Mo  Mo20  1  0.52133114  0.28787567  0.62388423  1
  Mo  Mo21  1  0.87611577  0.47866886  0.78787567  1
  Mo  Mo22  1  0.12388423  0.97866886  0.71212433  1
  Mo  Mo23  1  0.62388423  0.52133114  0.28787567  1
  Mo  Mo24  1  0.21212433  0.37611577  0.02133114  1
  Mo  Mo25  1  0.71212433  0.12388423  0.97866886  1
  Mo  Mo26  1  0.28787567  0.62388423  0.52133114  1
  Mo  Mo27  1  0.78787567  0.87611577  0.47866886  1
  O  O28  1  0.01645630  0.05607342  0.33085081  1
  O  O29  1  0.48354370  0.94392658  0.83085081  1
  O  O30  1  0.98354370  0.55607342  0.16914919  1
  O  O31  1  0.33085081  0.01645630  0.05607342  1
  O  O32  1  0.51645630  0.44392658  0.66914919  1
  O  O33  1  0.83085081  0.48354370  0.94392658  1
  O  O34  1  0.16914919  0.98354370  0.55607342  1
  O  O35  1  0.66914919  0.51645630  0.44392658  1
  O  O36  1  0.05607342  0.33085081  0.01645630  1
  O  O37  1  0.55607342  0.16914919  0.98354370  1
  O  O38  1  0.44392658  0.66914919  0.51645630  1
  O  O39  1  0.94392658  0.83085081  0.48354370  1
  O  O40  1  0.26958657  0.48693772  0.43597453  1
  O  O41  1  0.23041343  0.51306228  0.93597453  1
  O  O42  1  0.73041343  0.98693772  0.06402547  1
  O  O43  1  0.43597453  0.26958657  0.48693772  1
  O  O44  1  0.76958657  0.01306228  0.56402547  1
  O  O45  1  0.93597453  0.23041343  0.51306228  1
  O  O46  1  0.06402547  0.73041343  0.98693772  1
  O  O47  1  0.56402547  0.76958657  0.01306228  1
  O  O48  1  0.48693772  0.43597453  0.26958657  1
  O  O49  1  0.98693772  0.06402547  0.73041343  1
  O  O50  1  0.01306228  0.56402547  0.76958657  1
  O  O51  1  0.51306228  0.93597453  0.23041343  1
  O  O52  1  0.04819352  0.80531379  0.23754616  1
  O  O53  1  0.45180648  0.19468621  0.73754616  1
  O  O54  1  0.95180648  0.30531379  0.26245384  1
  O  O55  1  0.23754616  0.04819352  0.80531379  1
  O  O56  1  0.54819352  0.69468621  0.76245384  1
  O  O57  1  0.73754616  0.45180648  0.19468621  1
  O  O58  1  0.26245384  0.95180648  0.30531379  1
  O  O59  1  0.76245384  0.54819352  0.69468621  1
  O  O60  1  0.80531379  0.23754616  0.04819352  1
  O  O61  1  0.30531379  0.26245384  0.95180648  1
  O  O62  1  0.69468621  0.76245384  0.54819352  1
  O  O63  1  0.19468621  0.73754616  0.45180648  1
  O  O64  1  0.17416580  0.25936546  0.40000218  1
  O  O65  1  0.32583420  0.74063454  0.90000218  1
  O  O66  1  0.82583420  0.75936546  0.09999782  1
  O  O67  1  0.40000218  0.17416580  0.25936546  1
  O  O68  1  0.67416580  0.24063454  0.59999782  1
  O  O69  1  0.90000218  0.32583420  0.74063454  1
  O  O70  1  0.09999782  0.82583420  0.75936546  1
  O  O71  1  0.59999782  0.67416580  0.24063454  1
  O  O72  1  0.25936546  0.40000218  0.17416580  1
  O  O73  1  0.75936546  0.09999782  0.82583420  1
  O  O74  1  0.24063454  0.59999782  0.67416580  1
  O  O75  1  0.74063454  0.90000218  0.32583420  1
