# generated using pymatgen
data_Na2Sr3As4
_symmetry_space_group_name_H-M   'P 1'
_cell_length_a   7.52903012
_cell_length_b   8.27277769
_cell_length_c   17.66061276
_cell_angle_alpha   61.97908712
_cell_angle_beta   90.00000000
_cell_angle_gamma   90.00000000
_symmetry_Int_Tables_number   1
_chemical_formula_structural   Na2Sr3As4
_chemical_formula_sum   'Na8 Sr12 As16'
_cell_volume   971.06155688
_cell_formula_units_Z   4
loop_
 _symmetry_equiv_pos_site_id
 _symmetry_equiv_pos_as_xyz
  1  'x, y, z'
loop_
 _atom_site_type_symbol
 _atom_site_label
 _atom_site_symmetry_multiplicity
 _atom_site_fract_x
 _atom_site_fract_y
 _atom_site_fract_z
 _atom_site_occupancy
  Na  Na0  1  0.85526166  0.26146030  0.25148399  1
  Na  Na1  1  0.35526166  0.73853970  0.24851601  1
  Na  Na2  1  0.14473834  0.73853970  0.74851601  1
  Na  Na3  1  0.64473834  0.26146030  0.75148399  1
  Na  Na4  1  0.68341816  0.04730320  0.12404834  1
  Na  Na5  1  0.18341816  0.95269680  0.37595166  1
  Na  Na6  1  0.31658184  0.95269680  0.87595166  1
  Na  Na7  1  0.81658184  0.04730320  0.62404834  1
  Sr  Sr8  1  0.52384175  0.59519629  0.09942487  1
  Sr  Sr9  1  0.02384175  0.40480371  0.40057513  1
  Sr  Sr10  1  0.47605419  0.71047576  0.59985925  1
  Sr  Sr11  1  0.97605419  0.28952424  0.90014075  1
  Sr  Sr12  1  0.47615825  0.40480371  0.90057513  1
  Sr  Sr13  1  0.97615825  0.59519629  0.59942487  1
  Sr  Sr14  1  0.52394581  0.28952424  0.40014075  1
  Sr  Sr15  1  0.02394581  0.71047576  0.09985925  1
  Sr  Sr16  1  0.32085914  0.18970955  0.62912364  1
  Sr  Sr17  1  0.82085914  0.81029045  0.87087636  1
  Sr  Sr18  1  0.67914086  0.81029045  0.37087636  1
  Sr  Sr19  1  0.17914086  0.18970955  0.12912364  1
  As  As20  1  0.85115917  0.43061296  0.03727525  1
  As  As21  1  0.35115917  0.56938704  0.46272475  1
  As  As22  1  0.14588566  0.99496947  0.53716775  1
  As  As23  1  0.64588566  0.00503053  0.96283225  1
  As  As24  1  0.14884083  0.56938704  0.96272475  1
  As  As25  1  0.64884083  0.43061296  0.53727525  1
  As  As26  1  0.85411434  0.00503053  0.46283225  1
  As  As27  1  0.35411434  0.99496947  0.03716775  1
  As  As28  1  0.74015653  0.62076403  0.25104052  1
  As  As29  1  0.24015653  0.37923597  0.24895948  1
  As  As30  1  0.25984347  0.37923597  0.74895948  1
  As  As31  1  0.75984347  0.62076403  0.75104052  1
  As  As32  1  0.98062654  0.83228622  0.24970945  1
  As  As33  1  0.48062654  0.16771378  0.25029055  1
  As  As34  1  0.01937346  0.16771378  0.75029055  1
  As  As35  1  0.51937346  0.83228622  0.74970945  1
