# generated using pymatgen
data_NaGaCl4
_symmetry_space_group_name_H-M   'P 1'
_cell_length_a   6.17621296
_cell_length_b   9.80326096
_cell_length_c   10.26203148
_cell_angle_alpha   90.00000000
_cell_angle_beta   90.00000000
_cell_angle_gamma   90.00000000
_symmetry_Int_Tables_number   1
_chemical_formula_structural   NaGaCl4
_chemical_formula_sum   'Na4 Ga4 Cl16'
_cell_volume   621.33550111
_cell_formula_units_Z   4
loop_
 _symmetry_equiv_pos_site_id
 _symmetry_equiv_pos_as_xyz
  1  'x, y, z'
loop_
 _atom_site_type_symbol
 _atom_site_label
 _atom_site_symmetry_multiplicity
 _atom_site_fract_x
 _atom_site_fract_y
 _atom_site_fract_z
 _atom_site_occupancy
  Na  Na0  1  0.93740083  0.96326382  0.37196125  1
  Na  Na1  1  0.56259917  0.03673618  0.87196125  1
  Na  Na2  1  0.43740083  0.53673618  0.62803875  1
  Na  Na3  1  0.06259917  0.46326382  0.12803875  1
  Ga  Ga4  1  0.03706531  0.76406792  0.78726966  1
  Ga  Ga5  1  0.46293469  0.23593208  0.28726966  1
  Ga  Ga6  1  0.53706531  0.73593208  0.21273034  1
  Ga  Ga7  1  0.96293469  0.26406792  0.71273034  1
  Cl  Cl8  1  0.17453167  0.77116496  0.59073934  1
  Cl  Cl9  1  0.32546833  0.22883504  0.09073934  1
  Cl  Cl10  1  0.67453167  0.72883504  0.40926066  1
  Cl  Cl11  1  0.82546833  0.27116496  0.90926066  1
  Cl  Cl12  1  0.13962409  0.94071674  0.90089170  1
  Cl  Cl13  1  0.36037591  0.05928326  0.40089170  1
  Cl  Cl14  1  0.63962409  0.55928326  0.09910830  1
  Cl  Cl15  1  0.86037591  0.44071674  0.59910830  1
  Cl  Cl16  1  0.68310569  0.75930753  0.78352116  1
  Cl  Cl17  1  0.81689431  0.24069247  0.28352116  1
  Cl  Cl18  1  0.18310569  0.74069247  0.21647884  1
  Cl  Cl19  1  0.31689431  0.25930753  0.71647884  1
  Cl  Cl20  1  0.17631598  0.57853628  0.87386906  1
  Cl  Cl21  1  0.32368402  0.42146372  0.37386906  1
  Cl  Cl22  1  0.67631598  0.92146372  0.12613094  1
  Cl  Cl23  1  0.82368402  0.07853628  0.62613094  1
