# generated using pymatgen
data_CsSb
_symmetry_space_group_name_H-M   'P 1'
_cell_length_a   7.43462159
_cell_length_b   14.51763341
_cell_length_c   15.42866911
_cell_angle_alpha   113.36173976
_cell_angle_beta   90.00000000
_cell_angle_gamma   90.00000000
_symmetry_Int_Tables_number   1
_chemical_formula_structural   CsSb
_chemical_formula_sum   'Cs16 Sb16'
_cell_volume   1528.74526255
_cell_formula_units_Z   16
loop_
 _symmetry_equiv_pos_site_id
 _symmetry_equiv_pos_as_xyz
  1  'x, y, z'
loop_
 _atom_site_type_symbol
 _atom_site_label
 _atom_site_symmetry_multiplicity
 _atom_site_fract_x
 _atom_site_fract_y
 _atom_site_fract_z
 _atom_site_occupancy
  Cs  Cs0  1  0.38113571  0.64478505  0.13234063  1
  Cs  Cs1  1  0.88113571  0.85521495  0.86765937  1
  Cs  Cs2  1  0.61886429  0.35521495  0.86765937  1
  Cs  Cs3  1  0.11886429  0.14478505  0.13234063  1
  Cs  Cs4  1  0.19002222  0.52580505  0.38970649  1
  Cs  Cs5  1  0.69002222  0.97419495  0.61029351  1
  Cs  Cs6  1  0.80997778  0.47419495  0.61029351  1
  Cs  Cs7  1  0.30997778  0.02580505  0.38970649  1
  Cs  Cs8  1  0.41456299  0.67978328  0.65771787  1
  Cs  Cs9  1  0.91456299  0.82021672  0.34228213  1
  Cs  Cs10  1  0.58543701  0.32021672  0.34228213  1
  Cs  Cs11  1  0.08543701  0.17978328  0.65771787  1
  Cs  Cs12  1  0.14352690  0.53830175  0.85424395  1
  Cs  Cs13  1  0.64352690  0.96169825  0.14575605  1
  Cs  Cs14  1  0.85647310  0.46169825  0.14575605  1
  Cs  Cs15  1  0.35647310  0.03830175  0.85424395  1
  Sb  Sb16  1  0.86761653  0.69950996  0.06922695  1
  Sb  Sb17  1  0.36761653  0.80049004  0.93077305  1
  Sb  Sb18  1  0.13238347  0.30049004  0.93077305  1
  Sb  Sb19  1  0.63238347  0.19950996  0.06922695  1
  Sb  Sb20  1  0.13054514  0.85372612  0.09005238  1
  Sb  Sb21  1  0.63054514  0.64627388  0.90994762  1
  Sb  Sb22  1  0.86945486  0.14627388  0.90994762  1
  Sb  Sb23  1  0.36945486  0.35372612  0.09005238  1
  Sb  Sb24  1  0.42547644  0.76907951  0.41050090  1
  Sb  Sb25  1  0.92547644  0.73092049  0.58949910  1
  Sb  Sb26  1  0.57452356  0.23092049  0.58949910  1
  Sb  Sb27  1  0.07452356  0.26907951  0.41050090  1
  Sb  Sb28  1  0.19302976  0.86676224  0.56978943  1
  Sb  Sb29  1  0.69302976  0.63323776  0.43021057  1
  Sb  Sb30  1  0.80697024  0.13323776  0.43021057  1
  Sb  Sb31  1  0.30697024  0.36676224  0.56978943  1
