# generated using pymatgen
data_CaLaCrSnO6
_symmetry_space_group_name_H-M   'P 1'
_cell_length_a   5.69443300
_cell_length_b   9.70904043
_cell_length_c   9.74779814
_cell_angle_alpha   70.15139485
_cell_angle_beta   89.99994698
_cell_angle_gamma   89.99964898
_symmetry_Int_Tables_number   1
_chemical_formula_structural   CaLaCrSnO6
_chemical_formula_sum   'Ca4 La4 Cr4 Sn4 O24'
_cell_volume   506.91495066
_cell_formula_units_Z   4
loop_
 _symmetry_equiv_pos_site_id
 _symmetry_equiv_pos_as_xyz
  1  'x, y, z'
loop_
 _atom_site_type_symbol
 _atom_site_label
 _atom_site_symmetry_multiplicity
 _atom_site_fract_x
 _atom_site_fract_y
 _atom_site_fract_z
 _atom_site_occupancy
  Ca  Ca0  1  0.45232500  0.13117700  0.61832200  1
  Ca  Ca1  1  0.45231800  0.63120000  0.11825400  1
  Ca  Ca2  1  0.04770300  0.63116100  0.61831000  1
  Ca  Ca3  1  0.04764000  0.13120300  0.11831900  1
  La  La4  1  0.95864900  0.36962200  0.38079100  1
  La  La5  1  0.95852600  0.86964600  0.88074100  1
  La  La6  1  0.54146100  0.86962700  0.38080500  1
  La  La7  1  0.54143100  0.36967600  0.88068400  1
  Cr  Cr8  1  0.00033300  0.49940800  0.99990800  1
  Cr  Cr9  1  0.49973800  0.99939600  0.99989100  1
  Cr  Cr10  1  0.00031800  0.99936700  0.49995100  1
  Cr  Cr11  1  0.49964400  0.49940100  0.50002600  1
  Sn  Sn12  1  0.00079500  0.75036100  0.25061800  1
  Sn  Sn13  1  0.00079400  0.25035500  0.75062500  1
  Sn  Sn14  1  0.49918000  0.25032100  0.25060700  1
  Sn  Sn15  1  0.49917600  0.75032100  0.75061000  1
  O  O16  1  0.46865300  0.07815900  0.16849000  1
  O  O17  1  0.46869400  0.57812700  0.66838100  1
  O  O18  1  0.03133800  0.07814300  0.66846500  1
  O  O19  1  0.03133200  0.57815000  0.16846000  1
  O  O20  1  0.21260600  0.37304700  0.57786400  1
  O  O21  1  0.21254800  0.87301800  0.07794500  1
  O  O22  1  0.28740700  0.87305900  0.57790100  1
  O  O23  1  0.28741900  0.37303100  0.07794500  1
  O  O24  1  0.20621900  0.16842800  0.38029800  1
  O  O25  1  0.20616300  0.66840000  0.88032400  1
  O  O26  1  0.29379900  0.66841900  0.38025500  1
  O  O27  1  0.29379000  0.16840500  0.88031900  1
  O  O28  1  0.70380000  0.32833100  0.62049100  1
  O  O29  1  0.70379200  0.82831600  0.12056400  1
  O  O30  1  0.79622800  0.82833500  0.62053600  1
  O  O31  1  0.79617100  0.32831600  0.12056900  1
  O  O32  1  0.70910300  0.12607900  0.42502300  1
  O  O33  1  0.70912400  0.62605600  0.92506200  1
  O  O34  1  0.79091000  0.62606600  0.42499400  1
  O  O35  1  0.79085900  0.12604500  0.92506200  1
  O  O36  1  0.97247500  0.92546100  0.32816600  1
  O  O37  1  0.97245600  0.42546200  0.82816300  1
  O  O38  1  0.52752700  0.92545900  0.82819500  1
  O  O39  1  0.52755500  0.42545600  0.32806900  1
