# generated using pymatgen
data_K3P6N11
_symmetry_space_group_name_H-M   'P 1'
_cell_length_a   10.39297942
_cell_length_b   10.39297942
_cell_length_c   10.39297942
_cell_angle_alpha   90.00000000
_cell_angle_beta   90.00000000
_cell_angle_gamma   90.00000000
_symmetry_Int_Tables_number   1
_chemical_formula_structural   K3P6N11
_chemical_formula_sum   'K12 P24 N44'
_cell_volume   1122.58749966
_cell_formula_units_Z   4
loop_
 _symmetry_equiv_pos_site_id
 _symmetry_equiv_pos_as_xyz
  1  'x, y, z'
loop_
 _atom_site_type_symbol
 _atom_site_label
 _atom_site_symmetry_multiplicity
 _atom_site_fract_x
 _atom_site_fract_y
 _atom_site_fract_z
 _atom_site_occupancy
  K  K0  1  -0.00085553  -0.00085553  -0.00085553  1
  K  K1  1  0.24914447  0.25085553  0.74914447  1
  K  K2  1  0.25085553  0.74914447  0.24914447  1
  K  K3  1  0.74914447  0.24914447  0.25085553  1
  K  K4  1  0.49914447  0.50085553  0.00085553  1
  K  K5  1  0.50085553  0.00085553  0.49914447  1
  K  K6  1  0.00085553  0.49914447  0.50085553  1
  K  K7  1  0.75085553  0.75085553  0.75085553  1
  K  K8  1  0.87500000  0.12500000  0.62500000  1
  K  K9  1  0.12500000  0.62500000  0.87500000  1
  K  K10  1  0.62500000  0.87500000  0.12500000  1
  K  K11  1  0.37500000  0.37500000  0.37500000  1
  P  P12  1  0.67788876  0.44860743  0.53363956  1
  P  P13  1  0.17788876  0.05139257  0.46636044  1
  P  P14  1  0.44860743  0.53363956  0.67788876  1
  P  P15  1  0.55139257  0.03363956  0.82211124  1
  P  P16  1  0.53363956  0.67788876  0.44860743  1
  P  P17  1  0.96636044  0.32211124  0.94860743  1
  P  P18  1  0.42788876  0.78363956  0.80139257  1
  P  P19  1  0.92788876  0.71636044  0.19860743  1
  P  P20  1  0.57211124  0.28363956  0.69860743  1
  P  P21  1  0.71636044  0.19860743  0.92788876  1
  P  P22  1  0.69860743  0.57211124  0.28363956  1
  P  P23  1  0.19860743  0.92788876  0.71636044  1
  P  P24  1  0.78363956  0.80139257  0.42788876  1
  P  P25  1  0.80139257  0.42788876  0.78363956  1
  P  P26  1  0.28363956  0.69860743  0.57211124  1
  P  P27  1  0.21636044  0.30139257  0.07211124  1
  P  P28  1  0.30139257  0.07211124  0.21636044  1
  P  P29  1  0.46636044  0.17788876  0.05139257  1
  P  P30  1  0.03363956  0.82211124  0.55139257  1
  P  P31  1  0.94860743  0.96636044  0.32211124  1
  P  P32  1  0.05139257  0.46636044  0.17788876  1
  P  P33  1  0.82211124  0.55139257  0.03363956  1
  P  P34  1  0.32211124  0.94860743  0.96636044  1
  P  P35  1  0.07211124  0.21636044  0.30139257  1
  N  N36  1  0.54640963  0.54640963  0.54640963  1
  N  N37  1  0.79640963  0.70359037  0.29640963  1
  N  N38  1  0.70359037  0.29640963  0.79640963  1
  N  N39  1  0.29640963  0.79640963  0.70359037  1
  N  N40  1  0.04640963  0.95359037  0.45359037  1
  N  N41  1  0.95359037  0.45359037  0.04640963  1
  N  N42  1  0.45359037  0.04640963  0.95359037  1
  N  N43  1  0.20359037  0.20359037  0.20359037  1
  N  N44  1  0.62500000  0.30272342  0.55272342  1
  N  N45  1  0.69727658  0.05272342  0.87500000  1
  N  N46  1  0.55272342  0.62500000  0.30272342  1
  N  N47  1  0.94727658  0.37500000  0.80272342  1
  N  N48  1  0.30272342  0.55272342  0.62500000  1
  N  N49  1  0.44727658  0.12500000  0.19727658  1
  N  N50  1  0.05272342  0.87500000  0.69727658  1
  N  N51  1  0.80272342  0.94727658  0.37500000  1
  N  N52  1  0.19727658  0.44727658  0.12500000  1
  N  N53  1  0.87500000  0.69727658  0.05272342  1
  N  N54  1  0.37500000  0.80272342  0.94727658  1
  N  N55  1  0.27859929  0.01371039  0.35508024  1
  N  N56  1  0.12500000  0.19727658  0.44727658  1
  N  N57  1  0.23628961  0.02859929  0.60508024  1
  N  N58  1  0.47140071  0.39491976  0.73628961  1
  N  N59  1  0.52859929  0.89491976  0.76371039  1
  N  N60  1  0.39491976  0.73628961  0.47140071  1
  N  N61  1  0.10508024  0.26371039  0.97140071  1
  N  N62  1  0.48628961  0.64491976  0.77859929  1
  N  N63  1  0.98628961  0.85508024  0.22140071  1
  N  N64  1  0.51371039  0.14491976  0.72140071  1
  N  N65  1  0.85508024  0.22140071  0.98628961  1
  N  N66  1  0.72140071  0.51371039  0.14491976  1
  N  N67  1  0.22140071  0.98628961  0.85508024  1
  N  N68  1  0.64491976  0.77859929  0.48628961  1
  N  N69  1  0.77859929  0.48628961  0.64491976  1
  N  N70  1  0.14491976  0.72140071  0.51371039  1
  N  N71  1  0.35508024  0.27859929  0.01371039  1
  N  N72  1  0.01371039  0.35508024  0.27859929  1
  N  N73  1  0.26371039  0.97140071  0.10508024  1
  N  N74  1  0.76371039  0.52859929  0.89491976  1
  N  N75  1  0.02859929  0.60508024  0.23628961  1
  N  N76  1  0.97140071  0.10508024  0.26371039  1
  N  N77  1  0.89491976  0.76371039  0.52859929  1
  N  N78  1  0.60508024  0.23628961  0.02859929  1
  N  N79  1  0.73628961  0.47140071  0.39491976  1
