# generated using pymatgen
data_DySbO4
_symmetry_space_group_name_H-M   'P 1'
_cell_length_a   5.34299457
_cell_length_b   7.58037193
_cell_length_c   7.47506454
_cell_angle_alpha   81.04240411
_cell_angle_beta   90.31113964
_cell_angle_gamma   91.82933991
_symmetry_Int_Tables_number   1
_chemical_formula_structural   DySbO4
_chemical_formula_sum   'Dy4 Sb4 O16'
_cell_volume   298.90932435
_cell_formula_units_Z   4
loop_
 _symmetry_equiv_pos_site_id
 _symmetry_equiv_pos_as_xyz
  1  'x, y, z'
loop_
 _atom_site_type_symbol
 _atom_site_label
 _atom_site_symmetry_multiplicity
 _atom_site_fract_x
 _atom_site_fract_y
 _atom_site_fract_z
 _atom_site_occupancy
  Dy  Dy0  1  0.26511172  0.13374651  0.61172249  1
  Dy  Dy1  1  0.73488828  0.86625349  0.38827751  1
  Dy  Dy2  1  0.21426953  0.15634405  0.10738766  1
  Dy  Dy3  1  0.78573047  0.84365595  0.89261234  1
  Sb  Sb4  1  0.23808063  0.66378694  0.19532471  1
  Sb  Sb5  1  0.76191937  0.33621306  0.80467529  1
  Sb  Sb6  1  0.72453264  0.33635543  0.30734461  1
  Sb  Sb7  1  0.27546736  0.66364457  0.69265539  1
  O  O8  1  0.08790697  0.43530270  0.69154890  1
  O  O9  1  0.91209303  0.56469730  0.30845110  1
  O  O10  1  0.61219779  0.32811247  0.55980576  1
  O  O11  1  0.38780221  0.67188753  0.44019424  1
  O  O12  1  0.87001901  0.33145521  0.06074341  1
  O  O13  1  0.12998099  0.66854479  0.93925659  1
  O  O14  1  0.40206956  0.43275357  0.19558834  1
  O  O15  1  0.59793044  0.56724643  0.80441166  1
  O  O16  1  0.03851188  0.88519804  0.17384332  1
  O  O17  1  0.96148812  0.11480196  0.82615668  1
  O  O18  1  0.50888517  0.11264328  0.32401399  1
  O  O19  1  0.49111483  0.88735672  0.67598601  1
  O  O20  1  0.47134254  0.18431625  0.87789799  1
  O  O21  1  0.52865746  0.81568375  0.12210201  1
  O  O22  1  0.99107937  0.16960821  0.38141461  1
  O  O23  1  0.00892063  0.83039179  0.61858539  1
