# generated using pymatgen
data_MgWF5
_symmetry_space_group_name_H-M   'P 1'
_cell_length_a   5.40263851
_cell_length_b   5.40263851
_cell_length_c   7.39483459
_cell_angle_alpha   70.29303410
_cell_angle_beta   70.29303410
_cell_angle_gamma   73.66031115
_symmetry_Int_Tables_number   1
_chemical_formula_structural   MgWF5
_chemical_formula_sum   'Mg2 W2 F10'
_cell_volume   187.84796652
_cell_formula_units_Z   2
loop_
 _symmetry_equiv_pos_site_id
 _symmetry_equiv_pos_as_xyz
  1  'x, y, z'
loop_
 _atom_site_type_symbol
 _atom_site_label
 _atom_site_symmetry_multiplicity
 _atom_site_fract_x
 _atom_site_fract_y
 _atom_site_fract_z
 _atom_site_occupancy
  Mg  Mg0  1  0.52026752  0.47973248  0.25000000  1
  Mg  Mg1  1  0.47973248  0.52026752  0.75000000  1
  W  W2  1  -0.00000000  0.00000000  -0.00000000  1
  W  W3  1  -0.00000000  0.00000000  0.50000000  1
  F  F4  1  0.15107302  0.84892698  0.75000000  1
  F  F5  1  0.84892698  0.15107302  0.25000000  1
  F  F6  1  0.69947980  0.78557917  0.63579495  1
  F  F7  1  0.21442083  0.30052020  0.86420505  1
  F  F8  1  0.67983588  0.30379689  0.94929748  1
  F  F9  1  0.69620311  0.32016412  0.55070252  1
  F  F10  1  0.32016412  0.69620311  0.05070252  1
  F  F11  1  0.30379689  0.67983588  0.44929748  1
  F  F12  1  0.78557917  0.69947980  0.13579495  1
  F  F13  1  0.30052020  0.21442083  0.36420505  1
