# generated using pymatgen
data_Cs4Mn3O6
_symmetry_space_group_name_H-M   'P 1'
_cell_length_a   8.39192898
_cell_length_b   12.20197097
_cell_length_c   12.32697661
_cell_angle_alpha   63.19043562
_cell_angle_beta   90.00000000
_cell_angle_gamma   90.00000000
_symmetry_Int_Tables_number   1
_chemical_formula_structural   Cs4Mn3O6
_chemical_formula_sum   'Cs16 Mn12 O24'
_cell_volume   1126.57916027
_cell_formula_units_Z   4
loop_
 _symmetry_equiv_pos_site_id
 _symmetry_equiv_pos_as_xyz
  1  'x, y, z'
loop_
 _atom_site_type_symbol
 _atom_site_label
 _atom_site_symmetry_multiplicity
 _atom_site_fract_x
 _atom_site_fract_y
 _atom_site_fract_z
 _atom_site_occupancy
  Cs  Cs0  1  0.00275834  0.34580141  0.84228066  1
  Cs  Cs1  1  0.00275834  0.65419859  0.15771934  1
  Cs  Cs2  1  0.60573672  0.17819215  0.16347492  1
  Cs  Cs3  1  0.60573672  0.82180785  0.83652508  1
  Cs  Cs4  1  0.39044390  0.33290969  0.32022578  1
  Cs  Cs5  1  0.39044390  0.66709031  0.67977422  1
  Cs  Cs6  1  0.50417813  0.32588992  0.82518225  1
  Cs  Cs7  1  0.50417813  0.67411008  0.17481775  1
  Cs  Cs8  1  0.11844445  0.15428036  0.16439479  1
  Cs  Cs9  1  0.11844445  0.84571964  0.83560521  1
  Cs  Cs10  1  0.87781153  0.32983775  0.34280734  1
  Cs  Cs11  1  0.87781153  0.67016225  0.65719266  1
  Cs  Cs12  1  0.25589293  0.17885318  0.66192860  1
  Cs  Cs13  1  0.25589293  0.82114682  0.33807140  1
  Cs  Cs14  1  0.75033107  0.84131962  0.31889229  1
  Cs  Cs15  1  0.75033107  0.15868038  0.68110771  1
  Mn  Mn16  1  0.64995143  -0.00000000  -0.00000000  1
  Mn  Mn17  1  0.35118652  0.50000000  0.50000000  1
  Mn  Mn18  1  0.31703706  -0.00000000  -0.00000000  1
  Mn  Mn19  1  0.68400578  0.50000000  0.50000000  1
  Mn  Mn20  1  0.16156467  -0.00000000  0.50000000  1
  Mn  Mn21  1  0.82913621  -0.00000000  0.50000000  1
  Mn  Mn22  1  0.50206143  0.50000000  -0.00000000  1
  Mn  Mn23  1  0.83361896  0.50000000  -0.00000000  1
  Mn  Mn24  1  0.17074992  0.50000000  -0.00000000  1
  Mn  Mn25  1  0.49489124  -0.00000000  0.50000000  1
  Mn  Mn26  1  0.98120697  -0.00000000  -0.00000000  1
  Mn  Mn27  1  0.01941472  0.50000000  0.50000000  1
  O  O28  1  0.00213819  0.40169805  0.10052884  1
  O  O29  1  0.00213819  0.59830195  0.89947116  1
  O  O30  1  0.14992017  0.10848201  0.91170638  1
  O  O31  1  0.14992017  0.89151799  0.08829362  1
  O  O32  1  0.85093865  0.58661318  0.39077722  1
  O  O33  1  0.85093865  0.41338682  0.60922278  1
  O  O34  1  0.47111245  0.05259515  0.87596759  1
  O  O35  1  0.47111245  0.94740485  0.12403241  1
  O  O36  1  0.53025775  0.62517001  0.44456347  1
  O  O37  1  0.53025775  0.37482999  0.55543653  1
  O  O38  1  0.82727928  0.11416868  0.99407326  1
  O  O39  1  0.82727928  0.88583132  0.00592674  1
  O  O40  1  0.17327321  0.49882951  0.39004580  1
  O  O41  1  0.17327321  0.50117049  0.60995420  1
  O  O42  1  0.68020857  0.53105974  0.87794415  1
  O  O43  1  0.68020857  0.46894026  0.12205585  1
  O  O44  1  0.32440217  0.62349561  0.96663770  1
  O  O45  1  0.32440217  0.37650439  0.03336230  1
  O  O46  1  0.32878819  0.93731258  0.61721001  1
  O  O47  1  0.32878819  0.06268742  0.38278999  1
  O  O48  1  0.64859057  0.87876679  0.57881680  1
  O  O49  1  0.64859057  0.12123321  0.42118320  1
  O  O50  1  0.00808926  0.04001160  0.58654281  1
  O  O51  1  0.00808926  0.95998840  0.41345719  1
