# generated using pymatgen
data_Ca(CoO2)2
_symmetry_space_group_name_H-M   'P 1'
_cell_length_a   2.90351506
_cell_length_b   8.77480142
_cell_length_c   10.26009863
_cell_angle_alpha   90.00000000
_cell_angle_beta   90.00000000
_cell_angle_gamma   90.00000000
_symmetry_Int_Tables_number   1
_chemical_formula_structural   Ca(CoO2)2
_chemical_formula_sum   'Ca4 Co8 O16'
_cell_volume   261.40441329
_cell_formula_units_Z   4
loop_
 _symmetry_equiv_pos_site_id
 _symmetry_equiv_pos_as_xyz
  1  'x, y, z'
loop_
 _atom_site_type_symbol
 _atom_site_label
 _atom_site_symmetry_multiplicity
 _atom_site_fract_x
 _atom_site_fract_y
 _atom_site_fract_z
 _atom_site_occupancy
  Ca  Ca0  1  0.75000000  0.76132215  0.66353599  1
  Ca  Ca1  1  0.25000000  0.23867785  0.33646401  1
  Ca  Ca2  1  0.75000000  0.26132215  0.83646401  1
  Ca  Ca3  1  0.25000000  0.73867785  0.16353599  1
  Co  Co4  1  0.75000000  0.94347912  0.88836087  1
  Co  Co5  1  0.25000000  0.05652088  0.11163913  1
  Co  Co6  1  0.75000000  0.44347912  0.61163913  1
  Co  Co7  1  0.25000000  0.55652088  0.38836087  1
  Co  Co8  1  0.75000000  0.91569911  0.40215212  1
  Co  Co9  1  0.25000000  0.08430089  0.59784788  1
  Co  Co10  1  0.75000000  0.41569911  0.09784788  1
  Co  Co11  1  0.25000000  0.58430089  0.90215212  1
  O  O12  1  0.75000000  0.69776317  0.34523699  1
  O  O13  1  0.25000000  0.30223683  0.65476301  1
  O  O14  1  0.75000000  0.19776317  0.15476301  1
  O  O15  1  0.25000000  0.80223683  0.84523699  1
  O  O16  1  0.75000000  0.61389547  0.02309795  1
  O  O17  1  0.25000000  0.38610453  0.97690205  1
  O  O18  1  0.75000000  0.11389547  0.47690205  1
  O  O19  1  0.25000000  0.88610453  0.52309795  1
  O  O20  1  0.75000000  0.53156357  0.78778520  1
  O  O21  1  0.25000000  0.46843643  0.21221480  1
  O  O22  1  0.75000000  0.03156357  0.71221480  1
  O  O23  1  0.25000000  0.96843643  0.28778520  1
  O  O24  1  0.75000000  0.91993361  0.07194668  1
  O  O25  1  0.25000000  0.08006639  0.92805332  1
  O  O26  1  0.75000000  0.41993361  0.42805332  1
  O  O27  1  0.25000000  0.58006639  0.57194668  1
