# generated using pymatgen
data_LiMg30CrO32
_symmetry_space_group_name_H-M   'P 1'
_cell_length_a   8.50418616
_cell_length_b   8.50881024
_cell_length_c   8.50881024
_cell_angle_alpha   90.00000000
_cell_angle_beta   90.00000000
_cell_angle_gamma   90.00000000
_symmetry_Int_Tables_number   1
_chemical_formula_structural   LiMg30CrO32
_chemical_formula_sum   'Li1 Mg30 Cr1 O32'
_cell_volume   615.70181682
_cell_formula_units_Z   1
loop_
 _symmetry_equiv_pos_site_id
 _symmetry_equiv_pos_as_xyz
  1  'x, y, z'
loop_
 _atom_site_type_symbol
 _atom_site_label
 _atom_site_symmetry_multiplicity
 _atom_site_fract_x
 _atom_site_fract_y
 _atom_site_fract_z
 _atom_site_occupancy
  Li  Li0  1  0.00000000  0.00000000  0.00000000  1
  Mg  Mg1  1  0.00000000  0.00000000  0.50000000  1
  Mg  Mg2  1  0.00000000  0.50000000  0.00000000  1
  Mg  Mg3  1  0.50000000  0.00000000  0.00000000  1
  Mg  Mg4  1  0.50000000  0.00000000  0.50000000  1
  Mg  Mg5  1  0.50000000  0.50000000  0.00000000  1
  Mg  Mg6  1  0.50000000  0.50000000  0.50000000  1
  Mg  Mg7  1  0.00000000  0.24481624  0.24481624  1
  Mg  Mg8  1  0.00000000  0.24481624  0.75518376  1
  Mg  Mg9  1  0.00000000  0.75518376  0.24481624  1
  Mg  Mg10  1  0.00000000  0.75518376  0.75518376  1
  Mg  Mg11  1  0.50000000  0.24867803  0.24867803  1
  Mg  Mg12  1  0.50000000  0.24867803  0.75132197  1
  Mg  Mg13  1  0.50000000  0.75132197  0.24867803  1
  Mg  Mg14  1  0.50000000  0.75132197  0.75132197  1
  Mg  Mg15  1  0.24727161  0.00000000  0.24614526  1
  Mg  Mg16  1  0.24727161  0.00000000  0.75385474  1
  Mg  Mg17  1  0.25092147  0.50000000  0.24753373  1
  Mg  Mg18  1  0.25092147  0.50000000  0.75246627  1
  Mg  Mg19  1  0.75272839  0.00000000  0.24614526  1
  Mg  Mg20  1  0.75272839  0.00000000  0.75385474  1
  Mg  Mg21  1  0.74907853  0.50000000  0.24753373  1
  Mg  Mg22  1  0.74907853  0.50000000  0.75246627  1
  Mg  Mg23  1  0.24727161  0.24614526  0.00000000  1
  Mg  Mg24  1  0.25092147  0.24753373  0.50000000  1
  Mg  Mg25  1  0.24727161  0.75385474  0.00000000  1
  Mg  Mg26  1  0.25092147  0.75246627  0.50000000  1
  Mg  Mg27  1  0.75272839  0.24614526  0.00000000  1
  Mg  Mg28  1  0.74907853  0.24753373  0.50000000  1
  Mg  Mg29  1  0.75272839  0.75385474  0.00000000  1
  Mg  Mg30  1  0.74907853  0.75246627  0.50000000  1
  Cr  Cr31  1  0.00000000  0.50000000  0.50000000  1
  O  O32  1  0.25582594  0.00000000  0.00000000  1
  O  O33  1  0.24952937  0.00000000  0.50000000  1
  O  O34  1  0.24952937  0.50000000  0.00000000  1
  O  O35  1  0.24282599  0.50000000  0.50000000  1
  O  O36  1  0.74417406  0.00000000  0.00000000  1
  O  O37  1  0.75047063  0.00000000  0.50000000  1
  O  O38  1  0.75047063  0.50000000  0.00000000  1
  O  O39  1  0.75717401  0.50000000  0.50000000  1
  O  O40  1  0.24962248  0.25093054  0.25093054  1
  O  O41  1  0.24962248  0.25093054  0.74906946  1
  O  O42  1  0.24962248  0.74906946  0.25093054  1
  O  O43  1  0.24962248  0.74906946  0.74906946  1
  O  O44  1  0.75037752  0.25093054  0.25093054  1
  O  O45  1  0.75037752  0.25093054  0.74906946  1
  O  O46  1  0.75037752  0.74906946  0.25093054  1
  O  O47  1  0.75037752  0.74906946  0.74906946  1
  O  O48  1  0.00000000  0.00000000  0.25852751  1
  O  O49  1  0.00000000  0.00000000  0.74147249  1
  O  O50  1  0.00000000  0.50000000  0.25858838  1
  O  O51  1  0.00000000  0.50000000  0.74141162  1
  O  O52  1  0.50000000  0.00000000  0.25188365  1
  O  O53  1  0.50000000  0.00000000  0.74811635  1
  O  O54  1  0.50000000  0.50000000  0.25252844  1
  O  O55  1  0.50000000  0.50000000  0.74747156  1
  O  O56  1  0.00000000  0.25852751  0.00000000  1
  O  O57  1  0.00000000  0.25858838  0.50000000  1
  O  O58  1  0.00000000  0.74147249  0.00000000  1
  O  O59  1  0.00000000  0.74141162  0.50000000  1
  O  O60  1  0.50000000  0.25188365  0.00000000  1
  O  O61  1  0.50000000  0.25252844  0.50000000  1
  O  O62  1  0.50000000  0.74811635  0.00000000  1
  O  O63  1  0.50000000  0.74747156  0.50000000  1
