# generated using pymatgen
data_NaZnAsO4
_symmetry_space_group_name_H-M   'P 1'
_cell_length_a   8.14943992
_cell_length_b   8.91271587
_cell_length_c   15.63422660
_cell_angle_alpha   90.07144748
_cell_angle_beta   90.00000000
_cell_angle_gamma   90.00000000
_symmetry_Int_Tables_number   1
_chemical_formula_structural   NaZnAsO4
_chemical_formula_sum   'Na12 Zn12 As12 O48'
_cell_volume   1135.56994276
_cell_formula_units_Z   12
loop_
 _symmetry_equiv_pos_site_id
 _symmetry_equiv_pos_as_xyz
  1  'x, y, z'
loop_
 _atom_site_type_symbol
 _atom_site_label
 _atom_site_symmetry_multiplicity
 _atom_site_fract_x
 _atom_site_fract_y
 _atom_site_fract_z
 _atom_site_occupancy
  Na  Na0  1  0.03471567  0.76945520  0.07181731  1
  Na  Na1  1  0.53471567  0.73054480  0.42818269  1
  Na  Na2  1  0.96528433  0.23054480  0.92818269  1
  Na  Na3  1  0.46528433  0.26945520  0.57181731  1
  Na  Na4  1  0.45857308  0.73965908  0.08849406  1
  Na  Na5  1  0.95857308  0.76034092  0.41150594  1
  Na  Na6  1  0.54142692  0.26034092  0.91150594  1
  Na  Na7  1  0.04142692  0.23965908  0.58849406  1
  Na  Na8  1  0.47014193  0.25535960  0.25424969  1
  Na  Na9  1  0.97014193  0.24464040  0.24575031  1
  Na  Na10  1  0.52985807  0.74464040  0.74575031  1
  Na  Na11  1  0.02985807  0.75535960  0.75424969  1
  Zn  Zn12  1  0.66300751  0.06266870  0.40824395  1
  Zn  Zn13  1  0.16300751  0.43733130  0.09175605  1
  Zn  Zn14  1  0.33699249  0.93733130  0.59175605  1
  Zn  Zn15  1  0.83699249  0.56266870  0.90824395  1
  Zn  Zn16  1  0.66822165  0.09571349  0.07831497  1
  Zn  Zn17  1  0.16822165  0.40428651  0.42168503  1
  Zn  Zn18  1  0.33177835  0.90428651  0.92168503  1
  Zn  Zn19  1  0.83177835  0.59571349  0.57831497  1
  Zn  Zn20  1  0.16957976  0.91999351  0.24131680  1
  Zn  Zn21  1  0.66957976  0.58000649  0.25868320  1
  Zn  Zn22  1  0.83042024  0.08000649  0.75868320  1
  Zn  Zn23  1  0.33042024  0.41999351  0.74131680  1
  As  As24  1  0.26621348  0.06205549  0.40975649  1
  As  As25  1  0.76621348  0.43794451  0.09024351  1
  As  As26  1  0.73378652  0.93794451  0.59024351  1
  As  As27  1  0.23378652  0.56205549  0.90975649  1
  As  As28  1  0.72637377  0.89046303  0.91989246  1
  As  As29  1  0.22637377  0.60953697  0.58010754  1
  As  As30  1  0.27362623  0.10953697  0.08010754  1
  As  As31  1  0.77362623  0.39046303  0.41989246  1
  As  As32  1  0.77200766  0.92234286  0.23247553  1
  As  As33  1  0.27200766  0.57765714  0.26752447  1
  As  As34  1  0.22799234  0.07765714  0.76752447  1
  As  As35  1  0.72799234  0.42234286  0.73247553  1
  O  O36  1  0.75534959  0.77063369  0.29804393  1
  O  O37  1  0.25534959  0.72936631  0.20195607  1
  O  O38  1  0.24465041  0.22936631  0.70195607  1
  O  O39  1  0.74465041  0.27063369  0.79804393  1
  O  O40  1  0.75153623  0.07945892  0.29356026  1
  O  O41  1  0.25153623  0.42054108  0.20643974  1
  O  O42  1  0.24846377  0.92054108  0.70643974  1
  O  O43  1  0.74846377  0.57945892  0.79356026  1
  O  O44  1  0.76718168  0.91708970  0.48330325  1
  O  O45  1  0.26718168  0.58291030  0.01669675  1
  O  O46  1  0.23281832  0.08291030  0.51669775  1
  O  O47  1  0.73281832  0.41708970  0.98330225  1
  O  O48  1  0.77226730  0.26476296  0.13568274  1
  O  O49  1  0.27226730  0.23523704  0.36431826  1
  O  O50  1  0.22773270  0.73523704  0.86431726  1
  O  O51  1  0.72773270  0.76476296  0.63568274  1
  O  O52  1  0.44635237  0.97120512  0.39225710  1
  O  O53  1  0.94635237  0.52879488  0.10774290  1
  O  O54  1  0.55364763  0.02879488  0.60774290  1
  O  O55  1  0.05364763  0.47120512  0.89225710  1
  O  O56  1  0.54468053  0.81979404  0.95374037  1
  O  O57  1  0.11958299  0.95643248  0.36081964  1
  O  O58  1  0.88041701  0.04356752  0.63918036  1
  O  O59  1  0.38041701  0.45643248  0.86081964  1
  O  O60  1  0.62705204  0.26564667  0.45015040  1
  O  O61  1  0.12705204  0.23435333  0.04984960  1
  O  O62  1  0.37294796  0.73435333  0.54984960  1
  O  O63  1  0.87294796  0.76564667  0.95015040  1
  O  O64  1  0.27793273  0.09062008  0.18835246  1
  O  O65  1  0.77793273  0.40937992  0.31164754  1
  O  O66  1  0.72206727  0.90937992  0.81164754  1
  O  O67  1  0.22206727  0.59062008  0.68835246  1
  O  O68  1  0.76201915  0.06161715  0.96499249  1
  O  O69  1  0.26201915  0.43838285  0.53500751  1
  O  O70  1  0.23798085  0.93838285  0.03500751  1
  O  O71  1  0.73798085  0.56161715  0.46499249  1
  O  O72  1  0.86895869  0.42274810  0.65214242  1
  O  O73  1  0.36895869  0.07725190  0.84785758  1
  O  O74  1  0.13104131  0.57725190  0.34785758  1
  O  O75  1  0.63104131  0.92274810  0.15214242  1
  O  O76  1  0.54319780  0.42955978  0.68259463  1
  O  O77  1  0.04319780  0.07044022  0.81740537  1
  O  O78  1  0.45680220  0.57044022  0.31740537  1
  O  O79  1  0.95680220  0.92955978  0.18259463  1
  O  O80  1  0.95531947  0.31979404  0.45374037  1
  O  O81  1  0.45531947  0.18020596  0.04625963  1
  O  O82  1  0.04468053  0.68020596  0.54625963  1
  O  O83  1  0.61958299  0.54356752  0.13918036  1
