# generated using pymatgen
data_MnSiO3
_symmetry_space_group_name_H-M   'P 1'
_cell_length_a   9.19633119
_cell_length_b   5.38038658
_cell_length_c   9.55593941
_cell_angle_alpha   77.65203509
_cell_angle_beta   90.00000000
_cell_angle_gamma   90.00000000
_symmetry_Int_Tables_number   1
_chemical_formula_structural   MnSiO3
_chemical_formula_sum   'Mn8 Si8 O24'
_cell_volume   461.88819585
_cell_formula_units_Z   8
loop_
 _symmetry_equiv_pos_site_id
 _symmetry_equiv_pos_as_xyz
  1  'x, y, z'
loop_
 _atom_site_type_symbol
 _atom_site_label
 _atom_site_symmetry_multiplicity
 _atom_site_fract_x
 _atom_site_fract_y
 _atom_site_fract_z
 _atom_site_occupancy
  Mn  Mn0  1  0.48981728  0.49632420  0.75018636  1
  Mn  Mn1  1  0.98981728  0.00367580  0.24981364  1
  Mn  Mn2  1  0.51018272  0.50367580  0.24981364  1
  Mn  Mn3  1  0.01018272  0.99632420  0.75018636  1
  Mn  Mn4  1  0.84993957  0.49642319  0.75038531  1
  Mn  Mn5  1  0.34993957  0.00357681  0.24961469  1
  Mn  Mn6  1  0.15006043  0.50357681  0.24961469  1
  Mn  Mn7  1  0.65006043  0.99642319  0.75038531  1
  Si  Si8  1  0.66387287  0.22063535  0.04804549  1
  Si  Si9  1  0.16387287  0.27936465  0.95195451  1
  Si  Si10  1  0.33612713  0.77936465  0.95195451  1
  Si  Si11  1  0.83612713  0.72063535  0.04804549  1
  Si  Si12  1  0.16340872  0.72742254  0.54727501  1
  Si  Si13  1  0.66340872  0.77257746  0.45272499  1
  Si  Si14  1  0.83659128  0.27257746  0.45272499  1
  Si  Si15  1  0.33659128  0.22742254  0.54727501  1
  O  O16  1  0.76796825  0.43320672  0.10171172  1
  O  O17  1  0.26796825  0.06679328  0.89828828  1
  O  O18  1  0.23203175  0.56679328  0.89828828  1
  O  O19  1  0.73203175  0.93320672  0.10171172  1
  O  O20  1  0.51060601  0.23862405  0.12611693  1
  O  O21  1  0.01060601  0.26137595  0.87388307  1
  O  O22  1  0.48939399  0.76137595  0.87388307  1
  O  O23  1  0.98939399  0.73862405  0.12611693  1
  O  O24  1  0.65926106  0.28378696  0.87412172  1
  O  O25  1  0.15926106  0.21621304  0.12587828  1
  O  O26  1  0.34073894  0.71621304  0.12587828  1
  O  O27  1  0.84073894  0.78378696  0.87412172  1
  O  O28  1  0.25926122  0.94819898  0.60256380  1
  O  O29  1  0.75926122  0.55180102  0.39743620  1
  O  O30  1  0.74073878  0.05180102  0.39743620  1
  O  O31  1  0.24073878  0.44819898  0.60256380  1
  O  O32  1  0.34023281  0.28986918  0.37343158  1
  O  O33  1  0.84023281  0.21013082  0.62656842  1
  O  O34  1  0.65976719  0.71013082  0.62656842  1
  O  O35  1  0.15976719  0.78986918  0.37343158  1
  O  O36  1  0.00853695  0.73312467  0.62447852  1
  O  O37  1  0.99146305  0.26687533  0.37552148  1
  O  O38  1  0.50853695  0.76687533  0.37552148  1
  O  O39  1  0.49146305  0.23312467  0.62447852  1
