# generated using pymatgen
data_Rb2SmCl5
_symmetry_space_group_name_H-M   'P 1'
_cell_length_a   8.21487040
_cell_length_b   8.84321833
_cell_length_c   13.15173868
_cell_angle_alpha   90.00000000
_cell_angle_beta   90.00000000
_cell_angle_gamma   90.00000000
_symmetry_Int_Tables_number   1
_chemical_formula_structural   Rb2SmCl5
_chemical_formula_sum   'Rb8 Sm4 Cl20'
_cell_volume   955.41979433
_cell_formula_units_Z   4
loop_
 _symmetry_equiv_pos_site_id
 _symmetry_equiv_pos_as_xyz
  1  'x, y, z'
loop_
 _atom_site_type_symbol
 _atom_site_label
 _atom_site_symmetry_multiplicity
 _atom_site_fract_x
 _atom_site_fract_y
 _atom_site_fract_z
 _atom_site_occupancy
  Rb  Rb0  1  0.55903973  0.49402095  0.82915735  1
  Rb  Rb1  1  0.44096027  0.50597905  0.17084265  1
  Rb  Rb2  1  0.05903973  0.50597905  0.67084265  1
  Rb  Rb3  1  0.44096027  -0.00597905  0.17084265  1
  Rb  Rb4  1  0.94096027  0.49402095  0.32915735  1
  Rb  Rb5  1  0.55903973  0.00597905  0.82915735  1
  Rb  Rb6  1  0.94096027  0.00597905  0.32915735  1
  Rb  Rb7  1  0.05903973  -0.00597905  0.67084265  1
  Sm  Sm8  1  0.57176302  0.75000000  0.50485088  1
  Sm  Sm9  1  0.42823698  0.25000000  0.49514912  1
  Sm  Sm10  1  0.07176302  0.25000000  0.99514912  1
  Sm  Sm11  1  0.92823698  0.75000000  0.00485088  1
  Cl  Cl12  1  0.84813580  0.75000000  0.80306621  1
  Cl  Cl13  1  0.15186420  0.25000000  0.19693379  1
  Cl  Cl14  1  0.34813580  0.25000000  0.69693379  1
  Cl  Cl15  1  0.65186420  0.75000000  0.30306621  1
  Cl  Cl16  1  0.38510460  0.75000000  0.67620721  1
  Cl  Cl17  1  0.61489540  0.25000000  0.32379279  1
  Cl  Cl18  1  0.88510460  0.25000000  0.82379279  1
  Cl  Cl19  1  0.11489540  0.75000000  0.17620721  1
  Cl  Cl20  1  0.90665631  0.75000000  0.51119313  1
  Cl  Cl21  1  0.09334369  0.25000000  0.48880687  1
  Cl  Cl22  1  0.40665631  0.25000000  0.98880687  1
  Cl  Cl23  1  0.59334369  0.75000000  0.01119313  1
  Cl  Cl24  1  0.66257407  0.04293368  0.57017983  1
  Cl  Cl25  1  0.33742593  0.95706632  0.42982017  1
  Cl  Cl26  1  0.16257407  0.95706632  0.92982017  1
  Cl  Cl27  1  0.33742593  0.54293368  0.42982017  1
  Cl  Cl28  1  0.83742593  0.04293368  0.07017983  1
  Cl  Cl29  1  0.66257407  0.45706632  0.57017983  1
  Cl  Cl30  1  0.83742593  0.45706632  0.07017983  1
  Cl  Cl31  1  0.16257407  0.54293368  0.92982017  1
