# generated using pymatgen
data_MgFe3Ni2Sb(PO4)6
_symmetry_space_group_name_H-M   'P 1'
_cell_length_a   8.90467205
_cell_length_b   8.90467523
_cell_length_c   8.90467211
_cell_angle_alpha   58.29144343
_cell_angle_beta   58.29145882
_cell_angle_gamma   58.29145144
_symmetry_Int_Tables_number   1
_chemical_formula_structural   MgFe3Ni2Sb(PO4)6
_chemical_formula_sum   'Mg1 Fe3 Ni2 Sb1 P6 O24'
_cell_volume   479.73745093
_cell_formula_units_Z   1
loop_
 _symmetry_equiv_pos_site_id
 _symmetry_equiv_pos_as_xyz
  1  'x, y, z'
loop_
 _atom_site_type_symbol
 _atom_site_label
 _atom_site_symmetry_multiplicity
 _atom_site_fract_x
 _atom_site_fract_y
 _atom_site_fract_z
 _atom_site_occupancy
  Mg  Mg0  1  0.61932900  0.61932900  0.61932900  1
  Fe  Fe1  1  0.14730000  0.14730000  0.14729900  1
  Fe  Fe2  1  0.34444500  0.34444500  0.34444500  1
  Fe  Fe3  1  0.74560300  0.74560400  0.74560300  1
  Ni  Ni4  1  0.01306900  0.01307300  0.01307300  1
  Ni  Ni5  1  0.48529800  0.48529600  0.48529700  1
  Sb  Sb6  1  0.87887100  0.87887100  0.87887100  1
  P  P7  1  0.04729900  0.74085800  0.43563100  1
  P  P8  1  0.43563200  0.04729900  0.74085800  1
  P  P9  1  0.74085800  0.43563200  0.04729900  1
  P  P10  1  0.25421100  0.52829400  0.95495600  1
  P  P11  1  0.52829400  0.95495600  0.25421100  1
  P  P12  1  0.95495700  0.25421100  0.52829400  1
  O  O13  1  0.08385200  0.35967300  0.45395900  1
  O  O14  1  0.35967300  0.45395800  0.08385200  1
  O  O15  1  0.06212700  0.91222700  0.25188800  1
  O  O16  1  0.45395900  0.08385200  0.35967300  1
  O  O17  1  0.99759900  0.78197400  0.60909700  1
  O  O18  1  0.23978900  0.58056500  0.41378100  1
  O  O19  1  0.25188800  0.06212700  0.91222700  1
  O  O20  1  0.41378100  0.23978900  0.58056600  1
  O  O21  1  0.14144100  0.40695900  0.02238900  1
  O  O22  1  0.58056600  0.41378000  0.23979000  1
  O  O23  1  0.11034200  0.73619000  0.96564200  1
  O  O24  1  0.40695900  0.02238800  0.14144100  1
  O  O25  1  0.60909800  0.99759900  0.78197400  1
  O  O26  1  0.91222700  0.25188900  0.06212700  1
  O  O27  1  0.38460800  0.54959000  0.74781200  1
  O  O28  1  0.78197300  0.60909800  0.99759900  1
  O  O29  1  0.54959000  0.74781200  0.38460800  1
  O  O30  1  0.73619000  0.96564200  0.11034200  1
  O  O31  1  0.74781200  0.38460800  0.54958900  1
  O  O32  1  0.02238900  0.14144100  0.40695900  1
  O  O33  1  0.49511600  0.86921000  0.69931600  1
  O  O34  1  0.96564200  0.11034200  0.73619000  1
  O  O35  1  0.69931600  0.49511700  0.86921000  1
  O  O36  1  0.86921000  0.69931700  0.49511700  1
