# generated using pymatgen
data_Na2GdCl5
_symmetry_space_group_name_H-M   'P 1'
_cell_length_a   7.64597207
_cell_length_b   8.25049370
_cell_length_c   11.98345806
_cell_angle_alpha   90.00000000
_cell_angle_beta   90.00000000
_cell_angle_gamma   90.00000000
_symmetry_Int_Tables_number   1
_chemical_formula_structural   Na2GdCl5
_chemical_formula_sum   'Na8 Gd4 Cl20'
_cell_volume   755.95301679
_cell_formula_units_Z   4
loop_
 _symmetry_equiv_pos_site_id
 _symmetry_equiv_pos_as_xyz
  1  'x, y, z'
loop_
 _atom_site_type_symbol
 _atom_site_label
 _atom_site_symmetry_multiplicity
 _atom_site_fract_x
 _atom_site_fract_y
 _atom_site_fract_z
 _atom_site_occupancy
  Na  Na0  1  0.97407277  -0.00030234  0.82350488  1
  Na  Na1  1  0.02592723  0.00030234  0.17649512  1
  Na  Na2  1  0.47407277  0.00030234  0.67649512  1
  Na  Na3  1  0.02592723  0.49969766  0.17649512  1
  Na  Na4  1  0.52592723  -0.00030234  0.32350488  1
  Na  Na5  1  0.97407277  0.50030234  0.82350488  1
  Na  Na6  1  0.52592723  0.50030234  0.32350488  1
  Na  Na7  1  0.47407277  0.49969766  0.67649512  1
  Gd  Gd8  1  0.91651342  0.75000000  0.50548998  1
  Gd  Gd9  1  0.08348658  0.25000000  0.49451002  1
  Gd  Gd10  1  0.41651342  0.25000000  0.99451002  1
  Gd  Gd11  1  0.58348658  0.75000000  0.00548998  1
  Cl  Cl12  1  0.14381630  0.75000000  0.67981252  1
  Cl  Cl13  1  0.85618370  0.25000000  0.32018748  1
  Cl  Cl14  1  0.64381630  0.25000000  0.82018748  1
  Cl  Cl15  1  0.35618370  0.75000000  0.17981252  1
  Cl  Cl16  1  0.83622202  0.04442506  0.58991421  1
  Cl  Cl17  1  0.16377798  0.95557494  0.41008579  1
  Cl  Cl18  1  0.33622202  0.95557494  0.91008579  1
  Cl  Cl19  1  0.16377798  0.54442506  0.41008579  1
  Cl  Cl20  1  0.66377798  0.04442506  0.08991421  1
  Cl  Cl21  1  0.83622202  0.45557494  0.58991421  1
  Cl  Cl22  1  0.66377798  0.45557494  0.08991421  1
  Cl  Cl23  1  0.33622202  0.54442506  0.91008579  1
  Cl  Cl24  1  0.55715538  0.75000000  0.50370626  1
  Cl  Cl25  1  0.44284462  0.25000000  0.49629374  1
  Cl  Cl26  1  0.05715538  0.25000000  0.99629374  1
  Cl  Cl27  1  0.94284462  0.75000000  0.00370626  1
  Cl  Cl28  1  0.67862073  0.75000000  0.78598819  1
  Cl  Cl29  1  0.32137927  0.25000000  0.21401181  1
  Cl  Cl30  1  0.17862073  0.25000000  0.71401181  1
  Cl  Cl31  1  0.82137927  0.75000000  0.28598819  1
