# generated using pymatgen
data_CsGaTe2
_symmetry_space_group_name_H-M   'P 1'
_cell_length_a   8.49364156
_cell_length_b   8.49387601
_cell_length_c   18.13100325
_cell_angle_alpha   83.27919171
_cell_angle_beta   83.27976468
_cell_angle_gamma   89.89943964
_symmetry_Int_Tables_number   1
_chemical_formula_structural   CsGaTe2
_chemical_formula_sum   'Cs8 Ga8 Te16'
_cell_volume   1290.03355570
_cell_formula_units_Z   8
loop_
 _symmetry_equiv_pos_site_id
 _symmetry_equiv_pos_as_xyz
  1  'x, y, z'
loop_
 _atom_site_type_symbol
 _atom_site_label
 _atom_site_symmetry_multiplicity
 _atom_site_fract_x
 _atom_site_fract_y
 _atom_site_fract_z
 _atom_site_occupancy
  Cs  Cs0  1  0.77528341  0.14983116  0.40057400  1
  Cs  Cs1  1  0.85016869  0.22471853  0.09942497  1
  Cs  Cs2  1  0.22471570  0.85015566  0.59944053  1
  Cs  Cs3  1  0.14984179  0.77527069  0.90056475  1
  Cs  Cs4  1  0.34850341  0.22300249  0.10729435  1
  Cs  Cs5  1  0.77700003  0.65149478  0.39270933  1
  Cs  Cs6  1  0.65151020  0.77698224  0.89268844  1
  Cs  Cs7  1  0.22301073  0.34847803  0.60731356  1
  Ga  Ga8  1  0.29253073  0.91452986  0.32896928  1
  Ga  Ga9  1  0.57947489  0.70725416  0.17170469  1
  Ga  Ga10  1  0.29273284  0.42051231  0.32830135  1
  Ga  Ga11  1  0.42054722  0.29275461  0.82826591  1
  Ga  Ga12  1  0.70725724  0.57945588  0.67172245  1
  Ga  Ga13  1  0.08546452  0.70751891  0.17103557  1
  Ga  Ga14  1  0.70750995  0.08544246  0.67103780  1
  Ga  Ga15  1  0.91455572  0.29247961  0.82896706  1
  Te  Te16  1  0.94661695  0.57157716  0.75051904  1
  Te  Te17  1  0.42840334  0.05338557  0.74948394  1
  Te  Te18  1  0.05339205  0.42844162  0.24947139  1
  Te  Te19  1  0.57189653  0.42808744  0.25001059  1
  Te  Te20  1  0.57162667  0.94657724  0.25052585  1
  Te  Te21  1  0.94660383  0.05337774  0.74999795  1
  Te  Te22  1  0.05338977  0.94668566  0.24998090  1
  Te  Te23  1  0.42812484  0.57186950  0.74999812  1
  Te  Te24  1  0.73008059  0.35555588  0.58055293  1
  Te  Te25  1  0.64443610  0.26994303  0.91944119  1
  Te  Te26  1  0.26985903  0.64445447  0.41944069  1
  Te  Te27  1  0.35555226  0.73010630  0.08055426  1
  Te  Te28  1  0.14629274  0.27050469  0.91748398  1
  Te  Te29  1  0.72947299  0.85373757  0.58251618  1
  Te  Te30  1  0.85370983  0.72955156  0.08250344  1
  Te  Te31  1  0.27043441  0.14626316  0.41750454  1
