# generated using pymatgen
data_K2Hg3(GeS4)2
_symmetry_space_group_name_H-M   'P 1'
_cell_length_a   6.43117039
_cell_length_b   6.43117014
_cell_length_c   9.73168597
_cell_angle_alpha   86.68676507
_cell_angle_beta   86.68676630
_cell_angle_gamma   80.67123891
_symmetry_Int_Tables_number   1
_chemical_formula_structural   K2Hg3(GeS4)2
_chemical_formula_sum   'K2 Hg3 Ge2 S8'
_cell_volume   396.03549712
_cell_formula_units_Z   1
loop_
 _symmetry_equiv_pos_site_id
 _symmetry_equiv_pos_as_xyz
  1  'x, y, z'
loop_
 _atom_site_type_symbol
 _atom_site_label
 _atom_site_symmetry_multiplicity
 _atom_site_fract_x
 _atom_site_fract_y
 _atom_site_fract_z
 _atom_site_occupancy
  K  K0  1  0.61865926  0.93752907  0.23797766  1
  K  K1  1  0.06247093  0.38134074  0.76202234  1
  Hg  Hg2  1  0.47364579  0.52635421  -0.00000000  1
  Hg  Hg3  1  0.16505213  0.83494787  0.50000000  1
  Hg  Hg4  1  0.65172549  0.34827451  0.50000000  1
  Ge  Ge5  1  0.57154752  0.89578984  0.72986709  1
  Ge  Ge6  1  0.10421016  0.42845248  0.27013291  1
  S  S7  1  0.24450670  0.28770466  0.07223012  1
  S  S8  1  0.71229534  0.75549330  0.92776988  1
  S  S9  1  0.23404648  0.84809326  0.74127141  1
  S  S10  1  0.15190674  0.76595352  0.25872859  1
  S  S11  1  0.76441097  0.39463764  0.26075139  1
  S  S12  1  0.23923292  0.26306581  0.45239431  1
  S  S13  1  0.73693419  0.76076708  0.54760569  1
  S  S14  1  0.60536236  0.23558903  0.73924861  1
