# generated using pymatgen
data_K4MnO4
_symmetry_space_group_name_H-M   'P 1'
_cell_length_a   7.00802909
_cell_length_b   9.38052345
_cell_length_c   10.54225112
_cell_angle_alpha   71.86175580
_cell_angle_beta   91.75984882
_cell_angle_gamma   84.24029727
_symmetry_Int_Tables_number   1
_chemical_formula_structural   K4MnO4
_chemical_formula_sum   'K16 Mn4 O16'
_cell_volume   653.86552162
_cell_formula_units_Z   4
loop_
 _symmetry_equiv_pos_site_id
 _symmetry_equiv_pos_as_xyz
  1  'x, y, z'
loop_
 _atom_site_type_symbol
 _atom_site_label
 _atom_site_symmetry_multiplicity
 _atom_site_fract_x
 _atom_site_fract_y
 _atom_site_fract_z
 _atom_site_occupancy
  K  K0  1  0.62887527  0.37645047  0.40629446  1
  K  K1  1  0.12894190  0.37645902  0.90629954  1
  K  K2  1  0.37109134  0.62354418  0.59369620  1
  K  K3  1  0.87113518  0.62355797  0.09371355  1
  K  K4  1  0.91428027  0.15553787  0.67023316  1
  K  K5  1  0.41430657  0.15553368  0.17024495  1
  K  K6  1  0.08568573  0.84449602  0.32974420  1
  K  K7  1  0.58571057  0.84444771  0.82977371  1
  K  K8  1  0.26062014  0.03358007  0.50943850  1
  K  K9  1  0.76066294  0.03357251  0.00941863  1
  K  K10  1  0.73933903  0.96641417  0.49058115  1
  K  K11  1  0.23936983  0.96644582  0.99054047  1
  K  K12  1  0.11608204  0.43773165  0.39471473  1
  K  K13  1  0.61610589  0.43771707  0.89472657  1
  K  K14  1  0.88390026  0.56227098  0.60527788  1
  K  K15  1  0.38391226  0.56227026  0.10528599  1
  Mn  Mn16  1  0.44562561  0.24877914  0.71172562  1
  Mn  Mn17  1  0.05438409  0.75122044  0.78827153  1
  Mn  Mn18  1  0.94563398  0.24879036  0.21171624  1
  Mn  Mn19  1  0.55434393  0.75122380  0.28828205  1
  O  O20  1  0.12931955  0.37067144  0.16924431  1
  O  O21  1  0.62930441  0.37065251  0.66923961  1
  O  O22  1  0.87072697  0.62935793  0.83075350  1
  O  O23  1  0.37066979  0.62933115  0.33076365  1
  O  O24  1  0.79386251  0.65775546  0.33763649  1
  O  O25  1  0.29382327  0.65776644  0.83761734  1
  O  O26  1  0.20612825  0.34222893  0.66238404  1
  O  O27  1  0.70611081  0.34225787  0.16237980  1
  O  O28  1  0.93674834  0.19311640  0.39040349  1
  O  O29  1  0.43676511  0.19314644  0.89040878  1
  O  O30  1  0.06325577  0.80683629  0.60961548  1
  O  O31  1  0.56325915  0.80685985  0.10957974  1
  O  O32  1  0.03817005  0.11240455  0.13358341  1
  O  O33  1  0.53816500  0.11237548  0.63362877  1
  O  O34  1  0.96186136  0.88757810  0.86637734  1
  O  O35  1  0.46182284  0.88761900  0.36640610  1
