# generated using pymatgen
data_MgH18I2O9
_symmetry_space_group_name_H-M   'P 1'
_cell_length_a   6.76562902
_cell_length_b   14.79935413
_cell_length_c   15.26785396
_cell_angle_alpha   112.46466554
_cell_angle_beta   90.00000000
_cell_angle_gamma   90.00000000
_symmetry_Int_Tables_number   1
_chemical_formula_structural   MgH18I2O9
_chemical_formula_sum   'Mg4 H72 I8 O36'
_cell_volume   1412.71686086
_cell_formula_units_Z   4
loop_
 _symmetry_equiv_pos_site_id
 _symmetry_equiv_pos_as_xyz
  1  'x, y, z'
loop_
 _atom_site_type_symbol
 _atom_site_label
 _atom_site_symmetry_multiplicity
 _atom_site_fract_x
 _atom_site_fract_y
 _atom_site_fract_z
 _atom_site_occupancy
  Mg  Mg0  1  0.76314052  0.12437088  0.37499715  1
  Mg  Mg1  1  0.26314052  0.37562912  0.12500285  1
  Mg  Mg2  1  0.23685948  0.87562912  0.62500285  1
  Mg  Mg3  1  0.73685948  0.62437088  0.87499715  1
  H  H4  1  0.76279687  0.96784605  0.42593706  1
  H  H5  1  0.26279687  0.53215395  0.07406294  1
  H  H6  1  0.23720313  0.03215395  0.57406294  1
  H  H7  1  0.73720313  0.46784605  0.92593706  1
  H  H8  1  0.75211143  0.28012247  0.32341551  1
  H  H9  1  0.25211143  0.21987753  0.17658449  1
  H  H10  1  0.24788857  0.71987753  0.67658449  1
  H  H11  1  0.74788857  0.78012247  0.82341551  1
  H  H12  1  0.11473836  0.23031810  0.40792652  1
  H  H13  1  0.61473836  0.26968190  0.09207348  1
  H  H14  1  0.88526164  0.76968190  0.59207348  1
  H  H15  1  0.38526164  0.73031810  0.90792652  1
  H  H16  1  0.76364605  0.19213823  0.22318335  1
  H  H17  1  0.26364605  0.30786177  0.27681665  1
  H  H18  1  0.23635395  0.80786177  0.77681665  1
  H  H19  1  0.73635395  0.69213823  0.72318335  1
  H  H20  1  0.76852668  0.05607626  0.52620828  1
  H  H21  1  0.26852668  0.44392374  0.97379172  1
  H  H22  1  0.23147332  0.94392374  0.47379172  1
  H  H23  1  0.73147332  0.55607626  0.02620828  1
  H  H24  1  0.40783438  0.02005873  0.34437716  1
  H  H25  1  0.90783438  0.47994127  0.15562284  1
  H  H26  1  0.59216562  0.97994127  0.65562284  1
  H  H27  1  0.09216562  0.52005873  0.84437716  1
  H  H28  1  0.80543563  0.95220323  0.21820454  1
  H  H29  1  0.30543563  0.54779677  0.28179546  1
  H  H30  1  0.19456437  0.04779677  0.78179546  1
  H  H31  1  0.69456437  0.45220323  0.71820454  1
  H  H32  1  0.52405476  0.22864382  0.52398381  1
  H  H33  1  0.02405476  0.27135618  0.97601619  1
  H  H34  1  0.47594524  0.77135618  0.47601619  1
  H  H35  1  0.97594524  0.72864382  0.02398381  1
  H  H36  1  0.10107433  0.17688890  0.47958867  1
  H  H37  1  0.60107433  0.32311110  0.02041133  1
  H  H38  1  0.89892567  0.82311110  0.52041133  1
  H  H39  1  0.39892567  0.67688890  0.97958867  1
  H  H40  1  0.42546421  0.07142390  0.27105046  1
  H  H41  1  0.92546421  0.42857610  0.22894954  1
  H  H42  1  0.57453579  0.92857610  0.72894954  1
  H  H43  1  0.07453579  0.57142390  0.77105046  1
  H  H44  1  0.99489778  0.01630991  0.22054490  1
  H  H45  1  0.49489778  0.48369009  0.27945510  1
  H  H46  1  0.00510222  0.98369009  0.77945510  1
  H  H47  1  0.50510222  0.51630991  0.72054490  1
  H  H48  1  0.71393106  0.29391222  0.53339275  1
  H  H49  1  0.21393106  0.20608778  0.96660725  1
  H  H50  1  0.28606894  0.70608778  0.46660725  1
  H  H51  1  0.78606894  0.79391222  0.03339275  1
  H  H52  1  0.72019379  0.13355174  0.68907605  1
  H  H53  1  0.22019379  0.36644826  0.81092395  1
  H  H54  1  0.27980621  0.86644826  0.31092395  1
  H  H55  1  0.77980621  0.63355174  0.18907605  1
  H  H56  1  0.95022492  0.41541384  0.61434876  1
  H  H57  1  0.45022492  0.08458616  0.88565124  1
  H  H58  1  0.04977508  0.58458616  0.38565124  1
  H  H59  1  0.54977508  0.91541384  0.11434876  1
  H  H60  1  0.23059975  0.38653488  0.44137903  1
  H  H61  1  0.73059975  0.11346512  0.05862097  1
  H  H62  1  0.76940025  0.61346512  0.55862097  1
  H  H63  1  0.26940025  0.88653488  0.94137903  1
  H  H64  1  0.40084808  0.30918148  0.41749629  1
  H  H65  1  0.90084808  0.19081852  0.08250371  1
  H  H66  1  0.59915192  0.69081852  0.58250371  1
  H  H67  1  0.09915192  0.80918148  0.91749629  1
  H  H68  1  0.94218084  0.32894224  0.64886880  1
  H  H69  1  0.44218084  0.17105776  0.85113120  1
  H  H70  1  0.05781916  0.67105776  0.35113120  1
  H  H71  1  0.55781916  0.82894224  0.14886880  1
  H  H72  1  0.88486831  0.05370558  0.66769119  1
  H  H73  1  0.38486831  0.44629442  0.83230881  1
  H  H74  1  0.11513169  0.94629442  0.33230881  1
  H  H75  1  0.61513169  0.55370558  0.16769119  1
  I  I76  1  0.26594793  0.21310599  0.63891342  1
  I  I77  1  0.76594793  0.28689401  0.86108658  1
  I  I78  1  0.73405207  0.78689401  0.36108658  1
  I  I79  1  0.23405207  0.71310599  0.13891342  1
  I  I80  1  0.26546633  0.03593848  0.11196709  1
  I  I81  1  0.76546633  0.46406152  0.38803291  1
  I  I82  1  0.73453367  0.96406152  0.88803291  1
  I  I83  1  0.23453367  0.53593848  0.61196709  1
  O  O84  1  0.48551244  0.06938258  0.32928890  1
  O  O85  1  0.98551244  0.43061742  0.17071110  1
  O  O86  1  0.51448756  0.93061742  0.67071110  1
  O  O87  1  0.01448756  0.56938258  0.82928890  1
  O  O88  1  0.89608481  0.00233638  0.26182188  1
  O  O89  1  0.39608481  0.49766362  0.23817812  1
  O  O90  1  0.10391519  0.99766362  0.73817812  1
  O  O91  1  0.60391519  0.50233638  0.76182188  1
  O  O92  1  0.62695735  0.24486272  0.48602113  1
  O  O93  1  0.12695735  0.25513728  0.01397887  1
  O  O94  1  0.37304265  0.75513728  0.51397887  1
  O  O95  1  0.87304265  0.74486272  0.98602113  1
  O  O96  1  0.77497006  0.03977631  0.45655430  1
  O  O97  1  0.27497006  0.46022369  0.04344570  1
  O  O98  1  0.22502994  0.96022369  0.54344570  1
  O  O99  1  0.72502994  0.53977631  0.95655430  1
  O  O100  1  0.26952815  0.32117581  0.39589629  1
  O  O101  1  0.76952815  0.17882419  0.10410371  1
  O  O102  1  0.73047185  0.67882419  0.60410371  1
  O  O103  1  0.23047185  0.82117581  0.89589629  1
  O  O104  1  0.75128332  0.20801483  0.29249737  1
  O  O105  1  0.25128332  0.29198517  0.20750263  1
  O  O106  1  0.24871668  0.79198517  0.70750263  1
  O  O107  1  0.74871668  0.70801483  0.79249737  1
  O  O108  1  0.75656431  0.06750989  0.64455246  1
  O  O109  1  0.25656431  0.43249011  0.85544754  1
  O  O110  1  0.24343569  0.93249011  0.35544754  1
  O  O111  1  0.74343569  0.56750989  0.14455246  1
  O  O112  1  0.85627036  0.37221558  0.62980485  1
  O  O113  1  0.35627036  0.12778442  0.87019515  1
  O  O114  1  0.14372964  0.62778442  0.37019515  1
  O  O115  1  0.64372964  0.87221558  0.12980485  1
  O  O116  1  0.04066152  0.17904885  0.42144576  1
  O  O117  1  0.54066152  0.32095115  0.07855424  1
  O  O118  1  0.95933848  0.82095115  0.57855424  1
  O  O119  1  0.45933848  0.67904885  0.92144576  1
