# generated using pymatgen
data_MgMn9CdO10
_symmetry_space_group_name_H-M   'P 1'
_cell_length_a   6.13350015
_cell_length_b   8.98788024
_cell_length_c   5.93895881
_cell_angle_alpha   70.59784121
_cell_angle_beta   113.11001473
_cell_angle_gamma   97.45154741
_symmetry_Int_Tables_number   1
_chemical_formula_structural   MgMn9CdO10
_chemical_formula_sum   'Mg1 Mn9 Cd1 O10'
_cell_volume   284.02427536
_cell_formula_units_Z   1
loop_
 _symmetry_equiv_pos_site_id
 _symmetry_equiv_pos_as_xyz
  1  'x, y, z'
loop_
 _atom_site_type_symbol
 _atom_site_label
 _atom_site_symmetry_multiplicity
 _atom_site_fract_x
 _atom_site_fract_y
 _atom_site_fract_z
 _atom_site_occupancy
  Mg  Mg0  1  0.36653500  0.79940000  0.67613600  1
  Mn  Mn1  1  0.43730400  0.44297800  0.27464300  1
  Mn  Mn2  1  0.91771600  0.98860200  0.02170100  1
  Mn  Mn3  1  0.57125900  0.09427200  0.47768400  1
  Mn  Mn4  1  0.91358400  0.61416500  0.20572200  1
  Mn  Mn5  1  0.04136200  0.20803200  0.39814200  1
  Mn  Mn6  1  0.43611000  0.15441200  0.91913000  1
  Mn  Mn7  1  0.57213500  0.50321700  0.77140600  1
  Mn  Mn8  1  0.04311400  0.39259900  0.80516200  1
  Mn  Mn9  1  0.83817000  0.80037200  0.52657800  1
  Cd  Cd10  1  0.36936200  0.79891100  0.15604500  1
  O  O11  1  0.75232600  0.05063100  0.24421300  1
  O  O12  1  0.88545700  0.42255200  0.08018800  1
  O  O13  1  0.88298200  0.17929500  0.70101800  1
  O  O14  1  0.75216000  0.54953600  0.49404300  1
  O  O15  1  0.31497700  0.23713700  0.15168300  1
  O  O16  1  0.07313200  0.80007200  0.35505500  1
  O  O17  1  0.73587600  0.80208600  0.81453900  1
  O  O18  1  0.32870500  0.01665600  0.67273100  1
  O  O19  1  0.31643300  0.36052100  0.59034200  1
  O  O20  1  0.33225200  0.58142900  0.89003000  1
