# generated using pymatgen
data_Cs2Ge(TeO4)3
_symmetry_space_group_name_H-M   'P 1'
_cell_length_a   7.03082172
_cell_length_b   7.03082172
_cell_length_c   7.03082202
_cell_angle_alpha   61.50314131
_cell_angle_beta   61.50314131
_cell_angle_gamma   61.50313959
_symmetry_Int_Tables_number   1
_chemical_formula_structural   Cs2Ge(TeO4)3
_chemical_formula_sum   'Cs2 Ge1 Te3 O12'
_cell_volume   254.04753300
_cell_formula_units_Z   1
loop_
 _symmetry_equiv_pos_site_id
 _symmetry_equiv_pos_as_xyz
  1  'x, y, z'
loop_
 _atom_site_type_symbol
 _atom_site_label
 _atom_site_symmetry_multiplicity
 _atom_site_fract_x
 _atom_site_fract_y
 _atom_site_fract_z
 _atom_site_occupancy
  Cs  Cs0  1  0.37175004  0.37175004  0.37175004  1
  Cs  Cs1  1  0.62824996  0.62824996  0.62824996  1
  Ge  Ge2  1  -0.00000000  -0.00000000  0.00000000  1
  Te  Te3  1  0.50000000  -0.00000000  0.00000000  1
  Te  Te4  1  -0.00000000  -0.00000000  0.50000000  1
  Te  Te5  1  -0.00000000  0.50000000  0.00000000  1
  O  O6  1  0.93387499  0.32350061  0.32350061  1
  O  O7  1  0.31566946  0.93254046  0.93254046  1
  O  O8  1  0.32350061  0.32350061  0.93387499  1
  O  O9  1  0.93254046  0.93254046  0.31566946  1
  O  O10  1  0.93254046  0.31566946  0.93254046  1
  O  O11  1  0.32350061  0.93387499  0.32350061  1
  O  O12  1  0.06612501  0.67649939  0.67649939  1
  O  O13  1  0.68433054  0.06745954  0.06745954  1
  O  O14  1  0.67649939  0.67649939  0.06612501  1
  O  O15  1  0.06745954  0.06745954  0.68433054  1
  O  O16  1  0.06745954  0.68433054  0.06745954  1
  O  O17  1  0.67649939  0.06612501  0.67649939  1
