# generated using pymatgen
data_La6UO12
_symmetry_space_group_name_H-M   'P 1'
_cell_length_a   6.89807545
_cell_length_b   6.89807606
_cell_length_c   6.89807604
_cell_angle_alpha   98.69919577
_cell_angle_beta   98.69919372
_cell_angle_gamma   98.69919278
_symmetry_Int_Tables_number   1
_chemical_formula_structural   La6UO12
_chemical_formula_sum   'La6 U1 O12'
_cell_volume   315.59230278
_cell_formula_units_Z   1
loop_
 _symmetry_equiv_pos_site_id
 _symmetry_equiv_pos_as_xyz
  1  'x, y, z'
loop_
 _atom_site_type_symbol
 _atom_site_label
 _atom_site_symmetry_multiplicity
 _atom_site_fract_x
 _atom_site_fract_y
 _atom_site_fract_z
 _atom_site_occupancy
  La  La0  1  0.69022511  0.39349890  0.85593348  1
  La  La1  1  0.39349890  0.85593348  0.69022511  1
  La  La2  1  0.85593348  0.69022511  0.39349890  1
  La  La3  1  0.30977489  0.60650110  0.14406652  1
  La  La4  1  0.60650110  0.14406652  0.30977489  1
  La  La5  1  0.14406652  0.30977489  0.60650110  1
  U  U6  1  -0.00000000  0.00000000  -0.00000000  1
  O  O7  1  0.43750053  0.17708287  0.59268134  1
  O  O8  1  0.17708287  0.59268134  0.43750053  1
  O  O9  1  0.59268134  0.43750053  0.17708287  1
  O  O10  1  0.56249947  0.82291713  0.40731866  1
  O  O11  1  0.82291713  0.40731866  0.56249947  1
  O  O12  1  0.40731866  0.56249947  0.82291713  1
  O  O13  1  0.04264164  0.93329898  0.70419633  1
  O  O14  1  0.29580367  0.95735836  0.06670102  1
  O  O15  1  0.06670102  0.29580367  0.95735836  1
  O  O16  1  0.95735836  0.06670102  0.29580367  1
  O  O17  1  0.70419633  0.04264164  0.93329898  1
  O  O18  1  0.93329898  0.70419633  0.04264164  1
