# generated using pymatgen
data_K3In(IO3)6
_symmetry_space_group_name_H-M   'P 1'
_cell_length_a   6.89855512
_cell_length_b   7.03442304
_cell_length_c   10.60738314
_cell_angle_alpha   98.13765143
_cell_angle_beta   108.64698220
_cell_angle_gamma   102.58233535
_symmetry_Int_Tables_number   1
_chemical_formula_structural   K3In(IO3)6
_chemical_formula_sum   'K3 In1 I6 O18'
_cell_volume   463.43288061
_cell_formula_units_Z   1
loop_
 _symmetry_equiv_pos_site_id
 _symmetry_equiv_pos_as_xyz
  1  'x, y, z'
loop_
 _atom_site_type_symbol
 _atom_site_label
 _atom_site_symmetry_multiplicity
 _atom_site_fract_x
 _atom_site_fract_y
 _atom_site_fract_z
 _atom_site_occupancy
  K  K0  1  0.37150418  0.53638298  0.29308838  1
  K  K1  1  0.62849582  0.46361702  0.70691162  1
  K  K2  1  0.00000000  0.50000000  0.50000000  1
  In  In3  1  0.00000000  -0.00000000  -0.00000000  1
  I  I4  1  0.56343589  0.03363074  0.19437425  1
  I  I5  1  0.43656411  0.96636926  0.80562575  1
  I  I6  1  0.78176488  0.52991145  0.10095652  1
  I  I7  1  0.21823512  0.47008855  0.89904348  1
  I  I8  1  0.13795710  0.05600360  0.38007863  1
  I  I9  1  0.86204290  0.94399640  0.61992137  1
  O  O10  1  0.58466119  0.65112626  0.12268147  1
  O  O11  1  0.41533881  0.34887374  0.87731853  1
  O  O12  1  0.00595226  0.35597625  0.73603159  1
  O  O13  1  0.99404774  0.64402375  0.26396841  1
  O  O14  1  0.61293396  0.30320017  0.23560620  1
  O  O15  1  0.38706604  0.69679983  0.76439380  1
  O  O16  1  0.05308867  0.11447267  0.21035743  1
  O  O17  1  0.94691133  0.88552733  0.78964257  1
  O  O18  1  0.31371828  0.96329923  0.04096330  1
  O  O19  1  0.68628172  0.03670077  0.95903670  1
  O  O20  1  0.29655517  0.30493080  0.47135963  1
  O  O21  1  0.70344483  0.69506920  0.52864037  1
  O  O22  1  0.88673698  0.07605184  0.40051545  1
  O  O23  1  0.11326302  0.92394816  0.59948455  1
  O  O24  1  0.55949019  0.03615932  0.68581092  1
  O  O25  1  0.44050981  0.96384068  0.31418908  1
  O  O26  1  0.11672773  0.32073237  0.00590964  1
  O  O27  1  0.88327227  0.67926763  0.99409036  1
