# generated using pymatgen
data_Cs2ErCl5
_symmetry_space_group_name_H-M   'P 1'
_cell_length_a   7.44435580
_cell_length_b   9.52657587
_cell_length_c   15.28989192
_cell_angle_alpha   90.00000000
_cell_angle_beta   90.00000000
_cell_angle_gamma   90.00000000
_symmetry_Int_Tables_number   1
_chemical_formula_structural   Cs2ErCl5
_chemical_formula_sum   'Cs8 Er4 Cl20'
_cell_volume   1084.34721393
_cell_formula_units_Z   4
loop_
 _symmetry_equiv_pos_site_id
 _symmetry_equiv_pos_as_xyz
  1  'x, y, z'
loop_
 _atom_site_type_symbol
 _atom_site_label
 _atom_site_symmetry_multiplicity
 _atom_site_fract_x
 _atom_site_fract_y
 _atom_site_fract_z
 _atom_site_occupancy
  Cs  Cs0  1  0.25000000  0.66510272  0.91612098  1
  Cs  Cs1  1  0.75000000  0.33489728  0.08387902  1
  Cs  Cs2  1  0.75000000  0.83489728  0.41612098  1
  Cs  Cs3  1  0.25000000  0.16510272  0.58387902  1
  Cs  Cs4  1  0.25000000  0.97321375  0.21122994  1
  Cs  Cs5  1  0.75000000  0.02678625  0.78877006  1
  Cs  Cs6  1  0.75000000  0.52678625  0.71122994  1
  Cs  Cs7  1  0.25000000  0.47321375  0.28877006  1
  Er  Er8  1  0.25000000  0.67832238  0.56521388  1
  Er  Er9  1  0.75000000  0.32167762  0.43478612  1
  Er  Er10  1  0.75000000  0.82167762  0.06521388  1
  Er  Er11  1  0.25000000  0.17832238  0.93478612  1
  Cl  Cl12  1  0.25000000  0.51915049  0.70065142  1
  Cl  Cl13  1  0.75000000  0.48084951  0.29934858  1
  Cl  Cl14  1  0.75000000  0.98084951  0.20065142  1
  Cl  Cl15  1  0.25000000  0.01915049  0.79934858  1
  Cl  Cl16  1  0.50341388  0.83460514  0.61850967  1
  Cl  Cl17  1  0.49658612  0.16539486  0.38149033  1
  Cl  Cl18  1  0.49658612  0.66539486  0.11850967  1
  Cl  Cl19  1  0.00341388  0.16539486  0.38149033  1
  Cl  Cl20  1  0.50341388  0.33460514  0.88149033  1
  Cl  Cl21  1  0.99658612  0.83460514  0.61850967  1
  Cl  Cl22  1  0.99658612  0.33460514  0.88149033  1
  Cl  Cl23  1  0.00341388  0.66539486  0.11850967  1
  Cl  Cl24  1  0.25000000  0.78982437  0.40904007  1
  Cl  Cl25  1  0.75000000  0.21017563  0.59095993  1
  Cl  Cl26  1  0.75000000  0.71017563  0.90904007  1
  Cl  Cl27  1  0.25000000  0.28982437  0.09095993  1
  Cl  Cl28  1  0.00000000  0.50000000  0.50000000  1
  Cl  Cl29  1  0.00000000  0.00000000  -0.00000000  1
  Cl  Cl30  1  0.50000000  0.50000000  0.50000000  1
  Cl  Cl31  1  0.50000000  0.00000000  -0.00000000  1
