# generated using pymatgen
data_NaMg2H3(SO4)2
_symmetry_space_group_name_H-M   'P 1'
_cell_length_a   7.93841661
_cell_length_b   7.93841661
_cell_length_c   9.21360997
_cell_angle_alpha   62.95351814
_cell_angle_beta   62.95351814
_cell_angle_gamma   47.50608734
_symmetry_Int_Tables_number   1
_chemical_formula_structural   NaMg2H3(SO4)2
_chemical_formula_sum   'Na2 Mg4 H6 S4 O16'
_cell_volume   371.55565603
_cell_formula_units_Z   2
loop_
 _symmetry_equiv_pos_site_id
 _symmetry_equiv_pos_as_xyz
  1  'x, y, z'
loop_
 _atom_site_type_symbol
 _atom_site_label
 _atom_site_symmetry_multiplicity
 _atom_site_fract_x
 _atom_site_fract_y
 _atom_site_fract_z
 _atom_site_occupancy
  Na  Na0  1  0.62892200  0.62892200  0.90601400  1
  Na  Na1  1  0.37107800  0.37107800  0.09398600  1
  Mg  Mg2  1  0.50000000  0.00000000  0.50000000  1
  Mg  Mg3  1  0.00000000  0.50000000  0.50000000  1
  Mg  Mg4  1  0.99006600  0.99006600  0.18727300  1
  Mg  Mg5  1  0.00993400  0.00993400  0.81272700  1
  H  H6  1  0.89009000  0.89009000  0.49567900  1
  H  H7  1  0.10991000  0.10991000  0.50432100  1
  H  H8  1  0.01747700  0.26289000  0.27360300  1
  H  H9  1  0.98252300  0.73711000  0.72639700  1
  H  H10  1  0.26289000  0.01747700  0.27360300  1
  H  H11  1  0.73711000  0.98252300  0.72639700  1
  S  S12  1  0.22629200  0.22629200  0.83735900  1
  S  S13  1  0.77370800  0.77370800  0.16264100  1
  S  S14  1  0.51666900  0.51666900  0.70765800  1
  S  S15  1  0.48333100  0.48333100  0.29234200  1
  O  O16  1  0.45800300  0.06140400  0.72227300  1
  O  O17  1  0.54199700  0.93859600  0.27772700  1
  O  O18  1  0.93859600  0.54199700  0.27772700  1
  O  O19  1  0.06140400  0.45800300  0.72227300  1
  O  O20  1  0.10352000  0.10352000  0.92323900  1
  O  O21  1  0.89648000  0.89648000  0.07676100  1
  O  O22  1  0.64108400  0.64108400  0.62768500  1
  O  O23  1  0.35891600  0.35891600  0.37231500  1
  O  O24  1  0.33038900  0.69370800  0.16757700  1
  O  O25  1  0.66961100  0.30629200  0.83242300  1
  O  O26  1  0.69370800  0.33038900  0.16757700  1
  O  O27  1  0.29989500  0.66203600  0.82888400  1
  O  O28  1  0.85640900  0.85640900  0.42642400  1
  O  O29  1  0.14359100  0.14359100  0.57357600  1
  O  O30  1  0.09644300  0.09644300  0.28539000  1
  O  O31  1  0.90355700  0.90355700  0.71461000  1
