# generated using pymatgen
data_MgV6(HO3)6
_symmetry_space_group_name_H-M   'P 1'
_cell_length_a   5.61447989
_cell_length_b   8.96981250
_cell_length_c   7.82262668
_cell_angle_alpha   84.42812354
_cell_angle_beta   102.44598148
_cell_angle_gamma   92.07282434
_symmetry_Int_Tables_number   1
_chemical_formula_structural   MgV6(HO3)6
_chemical_formula_sum   'Mg1 V6 H6 O18'
_cell_volume   382.83120359
_cell_formula_units_Z   1
loop_
 _symmetry_equiv_pos_site_id
 _symmetry_equiv_pos_as_xyz
  1  'x, y, z'
loop_
 _atom_site_type_symbol
 _atom_site_label
 _atom_site_symmetry_multiplicity
 _atom_site_fract_x
 _atom_site_fract_y
 _atom_site_fract_z
 _atom_site_occupancy
  Mg  Mg0  1  0.32206134  0.69341703  0.42854751  1
  V  V1  1  0.43362252  0.42679529  0.15371894  1
  V  V2  1  0.57727376  0.94459130  0.82241662  1
  V  V3  1  0.56451865  0.57556845  0.81498361  1
  V  V4  1  0.42833828  0.05192434  0.15613245  1
  V  V5  1  0.89456546  0.25448950  0.99667804  1
  V  V6  1  0.10762599  0.74564502  0.97247930  1
  H  H7  1  0.95402850  0.63762623  0.61544259  1
  H  H8  1  0.29592205  0.17631308  0.59046513  1
  H  H9  1  0.06585954  0.26291034  0.65064942  1
  H  H10  1  0.28325398  0.36129032  0.58013192  1
  H  H11  1  0.84921170  0.62188779  0.41225439  1
  H  H12  1  0.50727068  0.96903106  0.46314082  1
  O  O13  1  0.64220676  0.40602666  0.99194854  1
  O  O14  1  0.37812009  0.89145477  0.99198097  1
  O  O15  1  0.34935132  0.59027047  0.96938438  1
  O  O16  1  0.63542609  0.09897654  0.99190900  1
  O  O17  1  0.13050958  0.37885468  0.14446973  1
  O  O18  1  0.88126958  0.90305630  0.84932656  1
  O  O19  1  0.87390937  0.62026518  0.82061457  1
  O  O20  1  0.12803089  0.09386529  0.10753347  1
  O  O21  1  0.53982898  0.22307764  0.24338837  1
  O  O22  1  0.45334342  0.76746206  0.71860922  1
  O  O23  1  0.93419208  0.27685016  0.79293306  1
  O  O24  1  0.08426884  0.71874179  0.18128224  1
  O  O25  1  0.53084878  0.53933161  0.31652070  1
  O  O26  1  0.48294748  0.05951801  0.63698837  1
  O  O27  1  0.43893977  0.49766759  0.62794836  1
  O  O28  1  0.48035349  0.91187981  0.35535771  1
  O  O29  1  0.17606860  0.26616453  0.55939237  1
  O  O30  1  0.98933242  0.66002614  0.49649562  1
