# generated using pymatgen
data_Na3Dy(PO4)2
_symmetry_space_group_name_H-M   'P 1'
_cell_length_a   5.32622258
_cell_length_b   13.94879042
_cell_length_c   18.58534962
_cell_angle_alpha   90.00000000
_cell_angle_beta   90.00000000
_cell_angle_gamma   90.00000000
_symmetry_Int_Tables_number   1
_chemical_formula_structural   Na3Dy(PO4)2
_chemical_formula_sum   'Na24 Dy8 P16 O64'
_cell_volume   1380.78670183
_cell_formula_units_Z   8
loop_
 _symmetry_equiv_pos_site_id
 _symmetry_equiv_pos_as_xyz
  1  'x, y, z'
loop_
 _atom_site_type_symbol
 _atom_site_label
 _atom_site_symmetry_multiplicity
 _atom_site_fract_x
 _atom_site_fract_y
 _atom_site_fract_z
 _atom_site_occupancy
  Na  Na0  1  0.99182815  0.21686058  0.99239473  1
  Na  Na1  1  0.00817185  0.78313942  0.49239473  1
  Na  Na2  1  0.00817185  0.71686058  0.99239473  1
  Na  Na3  1  0.99182815  0.28313942  0.49239473  1
  Na  Na4  1  0.99383124  0.95187169  0.64905344  1
  Na  Na5  1  0.00616876  0.04812831  0.14905344  1
  Na  Na6  1  0.00616876  0.45187169  0.64905344  1
  Na  Na7  1  0.99383124  0.54812831  0.14905344  1
  Na  Na8  1  0.99774742  0.86155052  0.82778246  1
  Na  Na9  1  0.00225258  0.13844948  0.32778246  1
  Na  Na10  1  0.00225258  0.36155052  0.82778246  1
  Na  Na11  1  0.99774742  0.63844948  0.32778246  1
  Na  Na12  1  0.48046723  0.79732777  0.72889887  1
  Na  Na13  1  0.51953277  0.20267223  0.22889887  1
  Na  Na14  1  0.51953277  0.29732777  0.72889887  1
  Na  Na15  1  0.48046723  0.70267223  0.22889887  1
  Na  Na16  1  0.53834586  0.96862761  0.88783190  1
  Na  Na17  1  0.46165414  0.03137239  0.38783190  1
  Na  Na18  1  0.46165414  0.46862761  0.88783190  1
  Na  Na19  1  0.53834586  0.53137239  0.38783190  1
  Na  Na20  1  0.50079588  0.88794212  0.54943704  1
  Na  Na21  1  0.49920412  0.11205788  0.04943704  1
  Na  Na22  1  0.49920412  0.38794212  0.54943704  1
  Na  Na23  1  0.50079588  0.61205788  0.04943704  1
  Dy  Dy24  1  0.92794889  0.61116334  0.80422770  1
  Dy  Dy25  1  0.07205111  0.38883666  0.30422770  1
  Dy  Dy26  1  0.07205111  0.11116334  0.80422770  1
  Dy  Dy27  1  0.92794889  0.88883666  0.30422770  1
  Dy  Dy28  1  0.55714908  0.63844522  0.57301157  1
  Dy  Dy29  1  0.44285092  0.36155478  0.07301157  1
  Dy  Dy30  1  0.44285092  0.13844522  0.57301157  1
  Dy  Dy31  1  0.55714908  0.86155478  0.07301157  1
  P  P32  1  0.96906853  0.47540422  0.98122110  1
  P  P33  1  0.03093147  0.52459578  0.48122110  1
  P  P34  1  0.03093147  0.97540422  0.98122110  1
  P  P35  1  0.96906853  0.02459578  0.48122110  1
  P  P36  1  0.99201927  0.22241028  0.65277382  1
  P  P37  1  0.00798073  0.77758972  0.15277382  1
  P  P38  1  0.00798073  0.72241028  0.65277382  1
  P  P39  1  0.99201927  0.27758972  0.15277382  1
  P  P40  1  0.47992561  0.52678234  0.72481560  1
  P  P41  1  0.52007439  0.47321766  0.22481560  1
  P  P42  1  0.52007439  0.02678234  0.72481560  1
  P  P43  1  0.47992561  0.97321766  0.22481560  1
  P  P44  1  0.46173207  0.72641506  0.89607001  1
  P  P45  1  0.53826793  0.27358494  0.39607001  1
  P  P46  1  0.53826793  0.22641506  0.89607001  1
  P  P47  1  0.46173207  0.77358494  0.39607001  1
  O  O48  1  0.57358293  0.80834709  0.85035344  1
  O  O49  1  0.42641707  0.19165291  0.35035344  1
  O  O50  1  0.42641707  0.30834709  0.85035344  1
  O  O51  1  0.57358293  0.69165291  0.35035344  1
  O  O52  1  0.69777252  0.47268744  0.76383957  1
  O  O53  1  0.30222748  0.52731256  0.26383957  1
  O  O54  1  0.30222748  0.97268744  0.76383957  1
  O  O55  1  0.69777252  0.02731256  0.26383957  1
  O  O56  1  0.87846514  0.88128382  0.99405166  1
  O  O57  1  0.12153486  0.11871618  0.49405166  1
  O  O58  1  0.12153486  0.38128382  0.99405166  1
  O  O59  1  0.87846514  0.61871618  0.49405166  1
  O  O60  1  0.79246385  0.77561093  0.61176147  1
  O  O61  1  0.20753615  0.22438907  0.11176147  1
  O  O62  1  0.20753615  0.27561093  0.61176147  1
  O  O63  1  0.79246385  0.72438907  0.11176147  1
  O  O64  1  0.68604165  0.45883915  0.00091054  1
  O  O65  1  0.31395835  0.54116085  0.50091054  1
  O  O66  1  0.31395835  0.95883915  0.00091054  1
  O  O67  1  0.68604165  0.04116085  0.50091054  1
  O  O68  1  0.91950026  0.44293525  0.52724136  1
  O  O69  1  0.08049974  0.55706475  0.02724136  1
  O  O70  1  0.08049974  0.94293525  0.52724136  1
  O  O71  1  0.91950026  0.05706475  0.02724136  1
  O  O72  1  0.77314065  0.00004452  0.76147083  1
  O  O73  1  0.22685935  0.99995548  0.26147083  1
  O  O74  1  0.22685935  0.50004452  0.76147083  1
  O  O75  1  0.77314065  0.49995548  0.26147083  1
  O  O76  1  0.61504786  0.63245914  0.88458267  1
  O  O77  1  0.38495214  0.36754086  0.38458267  1
  O  O78  1  0.38495214  0.13245914  0.88458267  1
  O  O79  1  0.61504786  0.86754086  0.38458267  1
  O  O80  1  0.53562820  0.63495386  0.73063763  1
  O  O81  1  0.46437180  0.36504614  0.23063763  1
  O  O82  1  0.46437180  0.13495386  0.73063763  1
  O  O83  1  0.53562820  0.86504614  0.23063763  1
  O  O84  1  0.95372436  0.61410086  0.64776418  1
  O  O85  1  0.04627564  0.38589914  0.14776418  1
  O  O86  1  0.04627564  0.11410086  0.64776418  1
  O  O87  1  0.95372436  0.88589914  0.14776418  1
  O  O88  1  0.81925710  0.20835894  0.87415218  1
  O  O89  1  0.18074290  0.79164106  0.37415218  1
  O  O90  1  0.18074290  0.70835894  0.87415218  1
  O  O91  1  0.81925710  0.29164106  0.37415218  1
  O  O92  1  0.99199767  0.25359563  0.73329147  1
  O  O93  1  0.00800233  0.74640437  0.23329147  1
  O  O94  1  0.00800233  0.75359563  0.73329147  1
  O  O95  1  0.99199767  0.24640437  0.23329147  1
  O  O96  1  0.52633402  0.99752030  0.64388701  1
  O  O97  1  0.47366598  0.00247970  0.14388701  1
  O  O98  1  0.47366598  0.49752030  0.64388701  1
  O  O99  1  0.52633402  0.50247970  0.14388701  1
  O  O100  1  0.00804915  0.99840965  0.89928353  1
  O  O101  1  0.99195085  0.00159035  0.39928353  1
  O  O102  1  0.99195085  0.49840965  0.89928353  1
  O  O103  1  0.00804915  0.50159035  0.39928353  1
  O  O104  1  0.26316335  0.74910730  0.61774891  1
  O  O105  1  0.73683665  0.25089270  0.11774891  1
  O  O106  1  0.73683665  0.24910730  0.61774891  1
  O  O107  1  0.26316335  0.75089270  0.11774891  1
  O  O108  1  0.46909233  0.74952338  0.97810531  1
  O  O109  1  0.53090767  0.25047662  0.47810531  1
  O  O110  1  0.53090767  0.24952338  0.97810531  1
  O  O111  1  0.46909233  0.75047662  0.47810531  1
