# generated using pymatgen
data_PPb2IO4
_symmetry_space_group_name_H-M   'P 1'
_cell_length_a   8.79169638
_cell_length_b   8.61194696
_cell_length_c   9.14277608
_cell_angle_alpha   68.60194242
_cell_angle_beta   90.00000000
_cell_angle_gamma   90.00000000
_symmetry_Int_Tables_number   1
_chemical_formula_structural   PPb2IO4
_chemical_formula_sum   'P4 Pb8 I4 O16'
_cell_volume   644.51584427
_cell_formula_units_Z   4
loop_
 _symmetry_equiv_pos_site_id
 _symmetry_equiv_pos_as_xyz
  1  'x, y, z'
loop_
 _atom_site_type_symbol
 _atom_site_label
 _atom_site_symmetry_multiplicity
 _atom_site_fract_x
 _atom_site_fract_y
 _atom_site_fract_z
 _atom_site_occupancy
  P  P0  1  0.04974074  0.73156947  0.96005286  1
  P  P1  1  0.54974074  0.76843053  0.03994714  1
  P  P2  1  0.95025926  0.26843053  0.03994714  1
  P  P3  1  0.45025926  0.23156947  0.96005286  1
  Pb  Pb4  1  0.29802913  0.45424546  0.15387964  1
  Pb  Pb5  1  0.79802913  0.04575454  0.84612036  1
  Pb  Pb6  1  0.70197087  0.54575454  0.84612036  1
  Pb  Pb7  1  0.20197087  0.95424546  0.15387964  1
  Pb  Pb8  1  0.32491285  0.97425011  0.73087743  1
  Pb  Pb9  1  0.82491285  0.52574989  0.26912257  1
  Pb  Pb10  1  0.67508715  0.02574989  0.26912257  1
  Pb  Pb11  1  0.17508715  0.47425011  0.73087743  1
  I  I12  1  0.93705713  0.75268929  0.50104205  1
  I  I13  1  0.43705713  0.74731071  0.49895795  1
  I  I14  1  0.06294287  0.24731071  0.49895795  1
  I  I15  1  0.56294287  0.25268929  0.50104205  1
  O  O16  1  0.06398974  0.64119573  0.14068649  1
  O  O17  1  0.56398974  0.85880427  0.85931351  1
  O  O18  1  0.93601026  0.35880427  0.85931351  1
  O  O19  1  0.43601026  0.14119573  0.14068649  1
  O  O20  1  0.11540462  0.27326322  0.08979483  1
  O  O21  1  0.61540462  0.22673678  0.91020517  1
  O  O22  1  0.88459538  0.72673678  0.91020517  1
  O  O23  1  0.38459538  0.77326322  0.08979483  1
  O  O24  1  0.66503101  0.85182513  0.11552989  1
  O  O25  1  0.16503101  0.64817487  0.88447011  1
  O  O26  1  0.33496899  0.14817487  0.88447011  1
  O  O27  1  0.83496899  0.35182513  0.11552989  1
  O  O28  1  0.40372022  0.41637361  0.91638005  1
  O  O29  1  0.90372022  0.08362639  0.08361995  1
  O  O30  1  0.59627978  0.58362639  0.08361995  1
  O  O31  1  0.09627978  0.91637361  0.91638005  1
