# generated using pymatgen
data_Nd6Ge3S14
_symmetry_space_group_name_H-M   'P 1'
_cell_length_a   10.25228002
_cell_length_b   10.25228203
_cell_length_c   5.79494390
_cell_angle_alpha   90.00010186
_cell_angle_beta   90.00005076
_cell_angle_gamma   119.99985528
_symmetry_Int_Tables_number   1
_chemical_formula_structural   Nd6Ge3S14
_chemical_formula_sum   'Nd6 Ge3 S14'
_cell_volume   527.49883540
_cell_formula_units_Z   1
loop_
 _symmetry_equiv_pos_site_id
 _symmetry_equiv_pos_as_xyz
  1  'x, y, z'
loop_
 _atom_site_type_symbol
 _atom_site_label
 _atom_site_symmetry_multiplicity
 _atom_site_fract_x
 _atom_site_fract_y
 _atom_site_fract_z
 _atom_site_occupancy
  Nd  Nd0  1  0.56565150  0.02421190  0.24361439  1
  Nd  Nd1  1  0.97578761  0.54143999  0.24361312  1
  Nd  Nd2  1  0.45856032  0.43434902  0.24361449  1
  Nd  Nd3  1  0.10067711  0.30766428  0.75219624  1
  Nd  Nd4  1  0.69233455  0.79301138  0.75219573  1
  Nd  Nd5  1  0.20698876  0.89932214  0.75219615  1
  Ge  Ge6  1  0.66666577  0.33333196  0.82762617  1
  Ge  Ge7  1  0.00000077  0.00000084  0.33614962  1
  Ge  Ge8  1  0.33333421  0.66666696  0.48594653  1
  S  S9  1  0.44033806  0.18619696  0.98256532  1
  S  S10  1  0.81380470  0.25414405  0.98256431  1
  S  S11  1  0.74585591  0.55966046  0.98256376  1
  S  S12  1  0.22673277  0.14740808  0.48888540  1
  S  S13  1  0.85258624  0.07932034  0.48888265  1
  S  S14  1  0.92067776  0.77326871  0.48888568  1
  S  S15  1  0.66666664  0.33333408  0.45243431  1
  S  S16  1  0.00000101  0.00000032  0.96022648  1
  S  S17  1  0.49607053  0.92001104  0.72439725  1
  S  S18  1  0.07999100  0.57606037  0.72439626  1
  S  S19  1  0.42394000  0.50393007  0.72439728  1
  S  S20  1  0.16630892  0.41053515  0.23521231  1
  S  S21  1  0.58946608  0.75577271  0.23521133  1
  S  S22  1  0.24422678  0.83369119  0.23521023  1
