# generated using pymatgen
data_KHg5Cl11
_symmetry_space_group_name_H-M   'P 1'
_cell_length_a   9.23896119
_cell_length_b   9.23896119
_cell_length_c   6.54110829
_cell_angle_alpha   72.59098628
_cell_angle_beta   72.59098628
_cell_angle_gamma   100.88942661
_symmetry_Int_Tables_number   1
_chemical_formula_structural   KHg5Cl11
_chemical_formula_sum   'K1 Hg5 Cl11'
_cell_volume   484.00567167
_cell_formula_units_Z   1
loop_
 _symmetry_equiv_pos_site_id
 _symmetry_equiv_pos_as_xyz
  1  'x, y, z'
loop_
 _atom_site_type_symbol
 _atom_site_label
 _atom_site_symmetry_multiplicity
 _atom_site_fract_x
 _atom_site_fract_y
 _atom_site_fract_z
 _atom_site_occupancy
  K  K0  1  -0.00000000  -0.00000000  0.00000000  1
  Hg  Hg1  1  0.35218754  0.01628454  0.31479758  1
  Hg  Hg2  1  0.64781246  0.98371546  0.68520242  1
  Hg  Hg3  1  0.98371546  0.64781246  0.68520242  1
  Hg  Hg4  1  0.01628454  0.35218754  0.31479758  1
  Hg  Hg5  1  0.50000000  0.50000000  0.00000000  1
  Cl  Cl6  1  0.65004730  0.65004730  0.60971299  1
  Cl  Cl7  1  0.34995270  0.34995270  0.39028701  1
  Cl  Cl8  1  0.70353770  0.14005058  0.29879207  1
  Cl  Cl9  1  0.29646230  0.85994942  0.70120793  1
  Cl  Cl10  1  0.85994942  0.29646230  0.70120793  1
  Cl  Cl11  1  0.14005058  0.70353770  0.29879207  1
  Cl  Cl12  1  -0.00000000  -0.00000000  0.50000000  1
  Cl  Cl13  1  0.58309764  0.83114002  0.07429560  1
  Cl  Cl14  1  0.41690236  0.16885998  0.92570440  1
  Cl  Cl15  1  0.16885998  0.41690236  0.92570440  1
  Cl  Cl16  1  0.83114002  0.58309764  0.07429560  1
