# generated using pymatgen
data_K2MgZn4P4(HO8)2
_symmetry_space_group_name_H-M   'P 1'
_cell_length_a   5.27663404
_cell_length_b   9.10567802
_cell_length_c   9.62972996
_cell_angle_alpha   99.13356200
_cell_angle_beta   99.77013747
_cell_angle_gamma   106.99544391
_symmetry_Int_Tables_number   1
_chemical_formula_structural   K2MgZn4P4(HO8)2
_chemical_formula_sum   'K2 Mg1 Zn4 P4 H2 O16'
_cell_volume   425.27126065
_cell_formula_units_Z   1
loop_
 _symmetry_equiv_pos_site_id
 _symmetry_equiv_pos_as_xyz
  1  'x, y, z'
loop_
 _atom_site_type_symbol
 _atom_site_label
 _atom_site_symmetry_multiplicity
 _atom_site_fract_x
 _atom_site_fract_y
 _atom_site_fract_z
 _atom_site_occupancy
  K  K0  1  0.39341018  0.69416543  0.65656319  1
  K  K1  1  0.60658982  0.30583457  0.34343681  1
  Mg  Mg2  1  0.50000000  0.50000000  0.00000000  1
  Zn  Zn3  1  0.22392938  0.61280887  0.22086638  1
  Zn  Zn4  1  0.77607062  0.38719113  0.77913362  1
  Zn  Zn5  1  0.68149209  0.88556387  0.11143963  1
  Zn  Zn6  1  0.31850791  0.11443613  0.88856037  1
  P  P7  1  0.08861110  0.76134091  0.94216492  1
  P  P8  1  0.91138890  0.23865909  0.05783508  1
  P  P9  1  0.84238940  0.75184785  0.39382840  1
  P  P10  1  0.15761060  0.24815215  0.60617160  1
  H  H11  1  0.97872226  0.93200737  0.60435905  1
  H  H12  1  0.02127774  0.06799263  0.39564095  1
  O  O13  1  0.94409870  0.39966457  0.15375599  1
  O  O14  1  0.05590130  0.60033543  0.84624401  1
  O  O15  1  0.27290271  0.78165036  0.09784035  1
  O  O16  1  0.72709729  0.21834964  0.90215965  1
  O  O17  1  0.75186419  0.10997436  0.12647659  1
  O  O18  1  0.24813581  0.89002564  0.87352341  1
  O  O19  1  0.80479229  0.77150873  0.95727211  1
  O  O20  1  0.19520671  0.22849127  0.04272789  1
  O  O21  1  0.57438978  0.61195151  0.34263383  1
  O  O22  1  0.42561022  0.38804849  0.65736617  1
  O  O23  1  0.84358898  0.88856041  0.31524648  1
  O  O24  1  0.15641102  0.11143959  0.68475352  1
  O  O25  1  0.09077670  0.69780789  0.38820579  1
  O  O26  1  0.90922330  0.30219211  0.61179421  1
  O  O27  1  0.85844532  0.81888570  0.56034486  1
  O  O28  1  0.14155468  0.18111430  0.43965514  1
