# generated using pymatgen
data_NaZnPO4
_symmetry_space_group_name_H-M   'P 1'
_cell_length_a   8.06322019
_cell_length_b   8.61145832
_cell_length_c   15.20521528
_cell_angle_alpha   90.22984307
_cell_angle_beta   90.00000000
_cell_angle_gamma   90.00000000
_symmetry_Int_Tables_number   1
_chemical_formula_structural   NaZnPO4
_chemical_formula_sum   'Na12 Zn12 P12 O48'
_cell_volume   1055.78211996
_cell_formula_units_Z   12
loop_
 _symmetry_equiv_pos_site_id
 _symmetry_equiv_pos_as_xyz
  1  'x, y, z'
loop_
 _atom_site_type_symbol
 _atom_site_label
 _atom_site_symmetry_multiplicity
 _atom_site_fract_x
 _atom_site_fract_y
 _atom_site_fract_z
 _atom_site_occupancy
  Na  Na0  1  0.03005697  0.77218044  0.56532637  1
  Na  Na1  1  0.53005697  0.72781956  0.93467363  1
  Na  Na2  1  0.96994303  0.22781956  0.43467363  1
  Na  Na3  1  0.46994303  0.27218044  0.06532637  1
  Na  Na4  1  0.96672705  0.76326735  0.90775183  1
  Na  Na5  1  0.46672705  0.73673265  0.59224817  1
  Na  Na6  1  0.03327295  0.23673265  0.09224817  1
  Na  Na7  1  0.53327295  0.26326735  0.40775183  1
  Na  Na8  1  0.96178873  0.24177280  0.74764363  1
  Na  Na9  1  0.46178873  0.25822720  0.75235637  1
  Na  Na10  1  0.03821127  0.75822720  0.25235637  1
  Na  Na11  1  0.53821127  0.74177280  0.24764363  1
  Zn  Zn12  1  0.27927136  0.58424293  0.76584025  1
  Zn  Zn13  1  0.77927136  0.91575707  0.73415975  1
  Zn  Zn14  1  0.72072864  0.41575707  0.23415975  1
  Zn  Zn15  1  0.22072864  0.08424293  0.26584025  1
  Zn  Zn16  1  0.78498554  0.38997470  0.92123058  1
  Zn  Zn17  1  0.28498554  0.11002530  0.57876942  1
  Zn  Zn18  1  0.21501446  0.61002530  0.07876942  1
  Zn  Zn19  1  0.71501446  0.88997470  0.42123058  1
  Zn  Zn20  1  0.28039280  0.06209691  0.90659133  1
  Zn  Zn21  1  0.78039280  0.43790309  0.59340867  1
  Zn  Zn22  1  0.71960720  0.93790309  0.09340867  1
  Zn  Zn23  1  0.21960720  0.56209691  0.40659133  1
  P  P24  1  0.67306577  0.57601778  0.76723646  1
  P  P25  1  0.17306577  0.92398222  0.73276354  1
  P  P26  1  0.32693423  0.42398222  0.23276354  1
  P  P27  1  0.82693423  0.07601778  0.26723646  1
  P  P28  1  0.17445276  0.39729487  0.92170483  1
  P  P29  1  0.67445276  0.10270513  0.57829517  1
  P  P30  1  0.82554724  0.60270513  0.07829517  1
  P  P31  1  0.32554724  0.89729487  0.42170483  1
  P  P32  1  0.67348521  0.05673041  0.90801561  1
  P  P33  1  0.17348521  0.44326959  0.59198439  1
  P  P34  1  0.32651479  0.94326959  0.09198439  1
  P  P35  1  0.82651479  0.55673041  0.40801561  1
  O  O36  1  0.14952146  0.92416445  0.83297989  1
  O  O37  1  0.64952146  0.57583555  0.66702011  1
  O  O38  1  0.85047854  0.07583555  0.16702011  1
  O  O39  1  0.35047854  0.42416445  0.33297989  1
  O  O40  1  0.26187640  0.77578000  0.70149685  1
  O  O41  1  0.76187640  0.72422000  0.79850315  1
  O  O42  1  0.73812360  0.22422000  0.29850315  1
  O  O43  1  0.23812360  0.27578000  0.20149685  1
  O  O44  1  0.27302339  0.06745726  0.70458899  1
  O  O45  1  0.77302339  0.43254274  0.79541101  1
  O  O46  1  0.72697661  0.93254274  0.29541101  1
  O  O47  1  0.22697661  0.56745726  0.20458899  1
  O  O48  1  0.00347700  0.93271659  0.68691478  1
  O  O49  1  0.50347700  0.56728341  0.81308522  1
  O  O50  1  0.99652300  0.06728341  0.31308522  1
  O  O51  1  0.49652300  0.43271659  0.18691478  1
  O  O52  1  0.26870718  0.27706446  0.86585217  1
  O  O53  1  0.76870718  0.22293554  0.63414783  1
  O  O54  1  0.73129282  0.72293554  0.13414783  1
  O  O55  1  0.23129282  0.77706446  0.36585217  1
  O  O56  1  0.27089791  0.41866427  0.67752592  1
  O  O57  1  0.27519016  0.43418079  0.00535526  1
  O  O58  1  0.72480984  0.56581921  0.99464474  1
  O  O59  1  0.22480984  0.93418079  0.50535526  1
  O  O60  1  0.14409214  0.54552583  0.86796648  1
  O  O61  1  0.64409214  0.95447417  0.63203352  1
  O  O62  1  0.85590786  0.45447417  0.13203352  1
  O  O63  1  0.35590786  0.04552583  0.36796648  1
  O  O64  1  0.00823606  0.32585802  0.94919267  1
  O  O65  1  0.50823606  0.17414198  0.55080733  1
  O  O66  1  0.99176394  0.67414198  0.05080733  1
  O  O67  1  0.49176394  0.82585802  0.44919267  1
  O  O68  1  0.14926097  0.28601052  0.54565235  1
  O  O69  1  0.64926097  0.21398948  0.95434765  1
  O  O70  1  0.85073903  0.71398948  0.45434765  1
  O  O71  1  0.35073903  0.78601052  0.04565235  1
  O  O72  1  0.50393056  0.98553603  0.88578450  1
  O  O73  1  0.00393056  0.51446397  0.61421550  1
  O  O74  1  0.49606944  0.01446397  0.11421550  1
  O  O75  1  0.99606944  0.48553603  0.38578450  1
  O  O76  1  0.23279684  0.05750955  0.03184021  1
  O  O77  1  0.73279684  0.44249045  0.46815979  1
  O  O78  1  0.76720316  0.94249045  0.96815979  1
  O  O79  1  0.26720316  0.55750955  0.53184021  1
  O  O80  1  0.22910309  0.91866427  0.17752592  1
  O  O81  1  0.72910209  0.58133573  0.32247408  1
  O  O82  1  0.77089791  0.08133573  0.82247408  1
  O  O83  1  0.77519016  0.06581921  0.49464474  1
