# generated using pymatgen
data_BaCaMg30O32
_symmetry_space_group_name_H-M   'P 1'
_cell_length_a   8.68369559
_cell_length_b   8.69851797
_cell_length_c   8.69851797
_cell_angle_alpha   90.00000000
_cell_angle_beta   90.00000000
_cell_angle_gamma   90.00000000
_symmetry_Int_Tables_number   1
_chemical_formula_structural   BaCaMg30O32
_chemical_formula_sum   'Ba1 Ca1 Mg30 O32'
_cell_volume   657.04500903
_cell_formula_units_Z   1
loop_
 _symmetry_equiv_pos_site_id
 _symmetry_equiv_pos_as_xyz
  1  'x, y, z'
loop_
 _atom_site_type_symbol
 _atom_site_label
 _atom_site_symmetry_multiplicity
 _atom_site_fract_x
 _atom_site_fract_y
 _atom_site_fract_z
 _atom_site_occupancy
  Ba  Ba0  1  -0.00000000  0.50000000  0.50000000  1
  Ca  Ca1  1  -0.00000000  0.00000000  0.00000000  1
  Mg  Mg2  1  -0.00000000  0.00000000  0.50000000  1
  Mg  Mg3  1  -0.00000000  0.50000000  0.00000000  1
  Mg  Mg4  1  0.50000000  0.00000000  0.00000000  1
  Mg  Mg5  1  0.50000000  0.00000000  0.50000000  1
  Mg  Mg6  1  0.50000000  0.50000000  0.00000000  1
  Mg  Mg7  1  0.50000000  0.50000000  0.50000000  1
  Mg  Mg8  1  -0.00000000  0.24569274  0.24569274  1
  Mg  Mg9  1  -0.00000000  0.24569274  0.75430726  1
  Mg  Mg10  1  -0.00000000  0.75430726  0.24569274  1
  Mg  Mg11  1  -0.00000000  0.75430726  0.75430726  1
  Mg  Mg12  1  0.50000000  0.24971181  0.24971181  1
  Mg  Mg13  1  0.50000000  0.24971181  0.75028819  1
  Mg  Mg14  1  0.50000000  0.75028819  0.24971181  1
  Mg  Mg15  1  0.50000000  0.75028819  0.75028819  1
  Mg  Mg16  1  0.25338436  0.00000000  0.25263941  1
  Mg  Mg17  1  0.25338436  0.00000000  0.74736059  1
  Mg  Mg18  1  0.25742987  0.50000000  0.24272885  1
  Mg  Mg19  1  0.25742987  0.50000000  0.75727115  1
  Mg  Mg20  1  0.74661564  0.00000000  0.25263941  1
  Mg  Mg21  1  0.74661564  0.00000000  0.74736059  1
  Mg  Mg22  1  0.74257013  0.50000000  0.24272885  1
  Mg  Mg23  1  0.74257013  0.50000000  0.75727115  1
  Mg  Mg24  1  0.25338436  0.25263941  0.00000000  1
  Mg  Mg25  1  0.25742987  0.24272885  0.50000000  1
  Mg  Mg26  1  0.25338436  0.74736059  0.00000000  1
  Mg  Mg27  1  0.25742987  0.75727115  0.50000000  1
  Mg  Mg28  1  0.74661564  0.25263941  0.00000000  1
  Mg  Mg29  1  0.74257013  0.24272885  0.50000000  1
  Mg  Mg30  1  0.74661564  0.74736059  0.00000000  1
  Mg  Mg31  1  0.74257013  0.75727115  0.50000000  1
  O  O32  1  0.26259531  0.00000000  0.00000000  1
  O  O33  1  0.25809259  0.00000000  0.50000000  1
  O  O34  1  0.25809259  0.50000000  0.00000000  1
  O  O35  1  0.27904173  0.50000000  0.50000000  1
  O  O36  1  0.73740469  0.00000000  0.00000000  1
  O  O37  1  0.74190741  0.00000000  0.50000000  1
  O  O38  1  0.74190741  0.50000000  0.00000000  1
  O  O39  1  0.72095827  0.50000000  0.50000000  1
  O  O40  1  0.24966292  0.25034470  0.25034470  1
  O  O41  1  0.24966292  0.25034470  0.74965530  1
  O  O42  1  0.24966292  0.74965530  0.25034470  1
  O  O43  1  0.24966292  0.74965530  0.74965530  1
  O  O44  1  0.75033708  0.25034470  0.25034470  1
  O  O45  1  0.75033708  0.25034470  0.74965530  1
  O  O46  1  0.75033708  0.74965530  0.25034470  1
  O  O47  1  0.75033708  0.74965530  0.74965530  1
  O  O48  1  -0.00000000  0.00000000  0.25762139  1
  O  O49  1  -0.00000000  0.00000000  0.74237861  1
  O  O50  1  -0.00000000  0.50000000  0.22220266  1
  O  O51  1  -0.00000000  0.50000000  0.77779734  1
  O  O52  1  0.50000000  0.00000000  0.25094040  1
  O  O53  1  0.50000000  0.00000000  0.74905960  1
  O  O54  1  0.50000000  0.50000000  0.24435666  1
  O  O55  1  0.50000000  0.50000000  0.75564334  1
  O  O56  1  -0.00000000  0.25762139  0.00000000  1
  O  O57  1  -0.00000000  0.22220266  0.50000000  1
  O  O58  1  -0.00000000  0.74237861  0.00000000  1
  O  O59  1  -0.00000000  0.77779734  0.50000000  1
  O  O60  1  0.50000000  0.25094040  0.00000000  1
  O  O61  1  0.50000000  0.24435666  0.50000000  1
  O  O62  1  0.50000000  0.74905960  0.00000000  1
  O  O63  1  0.50000000  0.75564334  0.50000000  1
