# generated using pymatgen
data_Ag8SnS6
_symmetry_space_group_name_H-M   'P 1'
_cell_length_a   7.58668671
_cell_length_b   10.75847451
_cell_length_c   15.32886222
_cell_angle_alpha   90.00000000
_cell_angle_beta   90.00000000
_cell_angle_gamma   90.00000000
_symmetry_Int_Tables_number   1
_chemical_formula_structural   Ag8SnS6
_chemical_formula_sum   'Ag32 Sn4 S24'
_cell_volume   1251.15975478
_cell_formula_units_Z   4
loop_
 _symmetry_equiv_pos_site_id
 _symmetry_equiv_pos_as_xyz
  1  'x, y, z'
loop_
 _atom_site_type_symbol
 _atom_site_label
 _atom_site_symmetry_multiplicity
 _atom_site_fract_x
 _atom_site_fract_y
 _atom_site_fract_z
 _atom_site_occupancy
  Ag  Ag0  1  0.52192292  0.11125442  0.48057209  1
  Ag  Ag1  1  0.97807708  0.11125442  0.98057209  1
  Ag  Ag2  1  0.47807708  0.61125442  0.51942791  1
  Ag  Ag3  1  0.35319801  0.91562084  0.75946276  1
  Ag  Ag4  1  0.14680199  0.91562084  0.25946276  1
  Ag  Ag5  1  0.85319801  0.41562084  0.74053724  1
  Ag  Ag6  1  0.02192292  0.61125442  0.01942791  1
  Ag  Ag7  1  0.64680199  0.41562084  0.24053724  1
  Ag  Ag8  1  0.27017483  0.37447835  0.13075827  1
  Ag  Ag9  1  0.72982517  0.87447835  0.86924173  1
  Ag  Ag10  1  0.22982517  0.37447835  0.63075827  1
  Ag  Ag11  1  0.77017483  0.87447835  0.36924173  1
  Ag  Ag12  1  0.87445379  0.18989358  0.22738258  1
  Ag  Ag13  1  0.12554621  0.68989358  0.77261742  1
  Ag  Ag14  1  0.62554621  0.18989358  0.72738258  1
  Ag  Ag15  1  0.37445379  0.68989358  0.27261742  1
  Ag  Ag16  1  0.60138149  0.19820460  0.09184567  1
  Ag  Ag17  1  0.39861851  0.69820460  0.90815433  1
  Ag  Ag18  1  0.23456837  0.83233221  0.05920980  1
  Ag  Ag19  1  0.10138149  0.69820460  0.40815433  1
  Ag  Ag20  1  0.01340507  0.59367564  0.22456287  1
  Ag  Ag21  1  0.89861851  0.19820460  0.59184567  1
  Ag  Ag22  1  0.48659493  0.59367564  0.72456287  1
  Ag  Ag23  1  0.51340507  0.09367564  0.27543713  1
  Ag  Ag24  1  0.57140930  0.51423867  0.06629712  1
  Ag  Ag25  1  0.42859070  0.01423867  0.93370288  1
  Ag  Ag26  1  0.92859070  0.51423867  0.56629712  1
  Ag  Ag27  1  0.07140930  0.01423867  0.43370288  1
  Ag  Ag28  1  0.73456837  0.33233221  0.44079020  1
  Ag  Ag29  1  0.26543163  0.83233221  0.55920980  1
  Ag  Ag30  1  0.76543163  0.33233221  0.94079020  1
  Ag  Ag31  1  0.98659493  0.09367564  0.77543713  1
  Sn  Sn32  1  0.73387826  0.84845392  0.12441808  1
  Sn  Sn33  1  0.26612174  0.34845392  0.87558192  1
  Sn  Sn34  1  0.76612174  0.84845392  0.62441808  1
  Sn  Sn35  1  0.23387826  0.34845392  0.37558192  1
  S  S36  1  0.77494248  0.10668752  0.37710311  1
  S  S37  1  0.22505752  0.60668752  0.62289689  1
  S  S38  1  0.72505752  0.10668752  0.87710311  1
  S  S39  1  0.27494248  0.60668752  0.12289689  1
  S  S40  1  0.82059130  0.36530905  0.11223038  1
  S  S41  1  0.17940870  0.86530905  0.88776962  1
  S  S42  1  0.67940870  0.36530905  0.61223038  1
  S  S43  1  0.32059130  0.86530905  0.38776962  1
  S  S44  1  0.72832697  0.71745839  0.24973157  1
  S  S45  1  0.27167303  0.21745839  0.75026843  1
  S  S46  1  0.77167303  0.71745839  0.74973157  1
  S  S47  1  0.22832697  0.21745839  0.25026843  1
  S  S48  1  0.98907504  0.98051531  0.12769367  1
  S  S49  1  0.01092496  0.48051531  0.87230633  1
  S  S50  1  0.51092496  0.98051531  0.62769367  1
  S  S51  1  0.48907504  0.48051531  0.37230633  1
  S  S52  1  0.76874181  0.71874259  0.49795287  1
  S  S53  1  0.23125819  0.21874259  0.50204713  1
  S  S54  1  0.73125819  0.71874259  0.99795287  1
  S  S55  1  0.26874181  0.21874259  0.00204713  1
  S  S56  1  0.98289609  0.48303291  0.37870545  1
  S  S57  1  0.01710391  0.98303291  0.62129455  1
  S  S58  1  0.51710391  0.48303291  0.87870545  1
  S  S59  1  0.48289609  0.98303291  0.12129455  1
