# generated using pymatgen
data_Li9Mn2Co5O16
_symmetry_space_group_name_H-M   'P 1'
_cell_length_a   6.33767930
_cell_length_b   6.34051089
_cell_length_c   7.44423242
_cell_angle_alpha   75.55967763
_cell_angle_beta   65.40090269
_cell_angle_gamma   71.83074051
_symmetry_Int_Tables_number   1
_chemical_formula_structural   Li9Mn2Co5O16
_chemical_formula_sum   'Li9 Mn2 Co5 O16'
_cell_volume   255.94202043
_cell_formula_units_Z   1
loop_
 _symmetry_equiv_pos_site_id
 _symmetry_equiv_pos_as_xyz
  1  'x, y, z'
loop_
 _atom_site_type_symbol
 _atom_site_label
 _atom_site_symmetry_multiplicity
 _atom_site_fract_x
 _atom_site_fract_y
 _atom_site_fract_z
 _atom_site_occupancy
  Li  Li0  1  0.06839488  0.44604604  0.81185277  1
  Li  Li1  1  0.68533207  0.80353498  0.92833752  1
  Li  Li2  1  0.31775253  0.20395194  0.05077514  1
  Li  Li3  1  0.94441277  0.55596476  0.18243613  1
  Li  Li4  1  0.18719864  0.31068866  0.44086526  1
  Li  Li5  1  0.78910455  0.68480908  0.58095065  1
  Li  Li6  1  0.44439597  0.05866146  0.68458188  1
  Li  Li7  1  0.55598276  0.93990496  0.32110152  1
  Li  Li8  1  0.38320926  0.62004693  0.86788368  1
  Mn  Mn9  1  0.00252918  0.99762979  0.99543738  1
  Mn  Mn10  1  0.25344539  0.74557572  0.24849957  1
  Co  Co11  1  0.74708651  0.25230450  0.75062402  1
  Co  Co12  1  0.12645047  0.87348406  0.62679657  1
  Co  Co13  1  0.49952047  0.50026272  0.50295119  1
  Co  Co14  1  0.87420361  0.12484787  0.37589717  1
  Co  Co15  1  0.62481838  0.37753922  0.12307463  1
  O  O16  1  0.08118501  0.14045977  0.72887183  1
  O  O17  1  0.72001768  0.50955998  0.85229849  1
  O  O18  1  0.31999227  0.90709241  0.98826245  1
  O  O19  1  0.95295268  0.26823936  0.10200870  1
  O  O20  1  0.20284404  0.01540924  0.35428270  1
  O  O21  1  0.82562147  0.38940725  0.47889099  1
  O  O22  1  0.45457723  0.77401612  0.58965963  1
  O  O23  1  0.57600484  0.64645304  0.22505129  1
  O  O24  1  0.02777233  0.74359121  0.90245650  1
  O  O25  1  0.67261364  0.10896947  0.02433660  1
  O  O26  1  0.29060127  0.47945861  0.16511387  1
  O  O27  1  0.92379545  0.85415906  0.26974448  1
  O  O28  1  0.17068488  0.60902829  0.52253530  1
  O  O29  1  0.79887887  0.98208640  0.64497917  1
  O  O30  1  0.42783929  0.34407333  0.76426993  1
  O  O31  1  0.55078164  0.23274078  0.39517300  1
