# generated using pymatgen
data_CsSnBr3
_symmetry_space_group_name_H-M   'P 1'
_cell_length_a   8.12249560
_cell_length_b   8.22973192
_cell_length_c   11.71381062
_cell_angle_alpha   90.00000000
_cell_angle_beta   90.00000000
_cell_angle_gamma   90.00000000
_symmetry_Int_Tables_number   1
_chemical_formula_structural   CsSnBr3
_chemical_formula_sum   'Cs4 Sn4 Br12'
_cell_volume   783.02093149
_cell_formula_units_Z   4
loop_
 _symmetry_equiv_pos_site_id
 _symmetry_equiv_pos_as_xyz
  1  'x, y, z'
loop_
 _atom_site_type_symbol
 _atom_site_label
 _atom_site_symmetry_multiplicity
 _atom_site_fract_x
 _atom_site_fract_y
 _atom_site_fract_z
 _atom_site_occupancy
  Cs  Cs0  1  0.50757479  0.46158203  0.25000000  1
  Cs  Cs1  1  0.00757479  0.03841797  0.75000000  1
  Cs  Cs2  1  0.99242521  0.96158203  0.25000000  1
  Cs  Cs3  1  0.49242521  0.53841797  0.75000000  1
  Sn  Sn4  1  0.50000000  0.00000000  0.50000000  1
  Sn  Sn5  1  -0.00000000  0.50000000  0.00000000  1
  Sn  Sn6  1  -0.00000000  0.50000000  0.50000000  1
  Sn  Sn7  1  0.50000000  0.00000000  0.00000000  1
  Br  Br8  1  0.54713563  0.99390572  0.75000000  1
  Br  Br9  1  0.04713563  0.50609428  0.25000000  1
  Br  Br10  1  0.79212992  0.20872146  0.02411006  1
  Br  Br11  1  0.20787008  0.79127854  0.97588994  1
  Br  Br12  1  0.29212992  0.29127854  0.97588994  1
  Br  Br13  1  0.70787008  0.70872146  0.02411006  1
  Br  Br14  1  0.29212992  0.29127854  0.52411006  1
  Br  Br15  1  0.70787008  0.70872146  0.47588994  1
  Br  Br16  1  0.20787008  0.79127854  0.52411006  1
  Br  Br17  1  0.79212992  0.20872146  0.47588994  1
  Br  Br18  1  0.95286437  0.49390572  0.75000000  1
  Br  Br19  1  0.45286437  0.00609428  0.25000000  1
