# generated using pymatgen
data_B8O
_symmetry_space_group_name_H-M   'P 1'
_cell_length_a   5.12474424
_cell_length_b   5.12474424
_cell_length_c   9.12262817
_cell_angle_alpha   72.80102427
_cell_angle_beta   72.80102427
_cell_angle_gamma   62.35500415
_symmetry_Int_Tables_number   1
_chemical_formula_structural   B8O
_chemical_formula_sum   'B24 O3'
_cell_volume   199.15796018
_cell_formula_units_Z   3
loop_
 _symmetry_equiv_pos_site_id
 _symmetry_equiv_pos_as_xyz
  1  'x, y, z'
loop_
 _atom_site_type_symbol
 _atom_site_label
 _atom_site_symmetry_multiplicity
 _atom_site_fract_x
 _atom_site_fract_y
 _atom_site_fract_z
 _atom_site_occupancy
  B  B0  1  0.16922916  0.50080907  0.50197692  1
  B  B1  1  0.66096596  -0.00028176  0.99710513  1
  B  B2  1  0.33413371  0.33413371  0.66966075  1
  B  B3  1  0.83185152  0.83185152  0.16614950  1
  B  B4  1  0.50080907  0.16922916  0.50197692  1
  B  B5  1  -0.00028176  0.66096596  0.99710513  1
  B  B6  1  0.33564361  0.99632640  0.99249915  1
  B  B7  1  0.83566231  0.50469773  0.50791143  1
  B  B8  1  0.16482285  0.16482285  0.82698323  1
  B  B9  1  0.67107824  0.67107824  0.33678892  1
  B  B10  1  0.99632640  0.33564361  0.99249915  1
  B  B11  1  0.50469773  0.83566231  0.50791143  1
  B  B12  1  0.75556501  0.31450000  0.88967926  1
  B  B13  1  0.28008356  0.80502053  0.40122607  1
  B  B14  1  0.53729397  0.53729397  0.68341929  1
  B  B15  1  0.04015387  0.04015387  0.15888699  1
  B  B16  1  0.31450000  0.75556501  0.88967926  1
  B  B17  1  0.80502053  0.28008356  0.40122607  1
  B  B18  1  0.72274527  0.20152153  0.60488225  1
  B  B19  1  0.22537812  0.69554783  0.09652380  1
  B  B20  1  0.95797319  0.95797319  0.83612388  1
  B  B21  1  0.46344287  0.46344287  0.33840871  1
  B  B22  1  0.20152153  0.72274527  0.60488225  1
  B  B23  1  0.69554783  0.22537812  0.09652380  1
  O  O24  1  0.07165240  0.07165240  0.30978366  1
  O  O25  1  0.92684240  0.92684240  0.68987131  1
  O  O26  1  0.43483866  0.43483866  0.18781574  1
