# generated using pymatgen
data_Ca2B2O5
_symmetry_space_group_name_H-M   'P 1'
_cell_length_a   3.54803844
_cell_length_b   6.35296196
_cell_length_c   19.25918878
_cell_angle_alpha   90.00000000
_cell_angle_beta   90.00000000
_cell_angle_gamma   90.00000000
_symmetry_Int_Tables_number   1
_chemical_formula_structural   Ca2B2O5
_chemical_formula_sum   'Ca8 B8 O20'
_cell_volume   434.11277009
_cell_formula_units_Z   4
loop_
 _symmetry_equiv_pos_site_id
 _symmetry_equiv_pos_as_xyz
  1  'x, y, z'
loop_
 _atom_site_type_symbol
 _atom_site_label
 _atom_site_symmetry_multiplicity
 _atom_site_fract_x
 _atom_site_fract_y
 _atom_site_fract_z
 _atom_site_occupancy
  Ca  Ca0  1  0.70350619  0.70093021  0.28941741  1
  Ca  Ca1  1  0.79649381  0.29906979  0.78941741  1
  Ca  Ca2  1  0.20350619  0.79906979  0.71058259  1
  Ca  Ca3  1  0.29649381  0.20093021  0.21058259  1
  Ca  Ca4  1  0.20242713  0.94464137  0.43812101  1
  Ca  Ca5  1  0.29757287  0.05535863  0.93812101  1
  Ca  Ca6  1  0.70242713  0.55535863  0.56187899  1
  Ca  Ca7  1  0.79757287  0.44464137  0.06187899  1
  B  B8  1  0.81472758  0.21806812  0.34352609  1
  B  B9  1  0.68527242  0.78193188  0.84352609  1
  B  B10  1  0.31472758  0.28193188  0.65647391  1
  B  B11  1  0.18527242  0.71806812  0.15647391  1
  B  B12  1  0.85638829  0.00287613  0.08236824  1
  B  B13  1  0.64361171  0.99712387  0.58236824  1
  B  B14  1  0.35638829  0.49712387  0.91763176  1
  B  B15  1  0.14361171  0.50287613  0.41763176  1
  O  O16  1  0.20130907  0.55722992  0.48484470  1
  O  O17  1  0.29869093  0.44277008  0.98484470  1
  O  O18  1  0.70130907  0.94277008  0.51515530  1
  O  O19  1  0.79869093  0.05722992  0.01515530  1
  O  O20  1  0.20602574  0.64253103  0.36537486  1
  O  O21  1  0.29397426  0.35746897  0.86537486  1
  O  O22  1  0.70602574  0.85746897  0.63462514  1
  O  O23  1  0.79397426  0.14253103  0.13462514  1
  O  O24  1  0.68594002  0.01801890  0.35217887  1
  O  O25  1  0.81405998  0.98198110  0.85217887  1
  O  O26  1  0.18594002  0.48198110  0.64782113  1
  O  O27  1  0.31405998  0.51801890  0.14782113  1
  O  O28  1  0.99741999  0.30004895  0.40360644  1
  O  O29  1  0.50258001  0.69995105  0.90360644  1
  O  O30  1  0.49741999  0.19995105  0.59639356  1
  O  O31  1  0.00258001  0.80004895  0.09639356  1
  O  O32  1  0.79125954  0.32778648  0.28303230  1
  O  O33  1  0.70874046  0.67221352  0.78303230  1
  O  O34  1  0.29125954  0.17221352  0.71696770  1
  O  O35  1  0.20874046  0.82778648  0.21696770  1
