# generated using pymatgen
data_KLiMoO4
_symmetry_space_group_name_H-M   'P 1'
_cell_length_a   9.18056912
_cell_length_b   9.63325200
_cell_length_c   16.81115967
_cell_angle_alpha   89.75394821
_cell_angle_beta   90.00000000
_cell_angle_gamma   90.00000000
_symmetry_Int_Tables_number   1
_chemical_formula_structural   KLiMoO4
_chemical_formula_sum   'K12 Li12 Mo12 O48'
_cell_volume   1486.74399954
_cell_formula_units_Z   12
loop_
 _symmetry_equiv_pos_site_id
 _symmetry_equiv_pos_as_xyz
  1  'x, y, z'
loop_
 _atom_site_type_symbol
 _atom_site_label
 _atom_site_symmetry_multiplicity
 _atom_site_fract_x
 _atom_site_fract_y
 _atom_site_fract_z
 _atom_site_occupancy
  K  K0  1  0.97056053  0.26143815  0.58836507  1
  K  K1  1  0.02943947  0.73856185  0.41163493  1
  K  K2  1  0.47056053  0.23856185  0.91163493  1
  K  K3  1  0.52943947  0.76143815  0.08836507  1
  K  K4  1  0.50865577  0.75314287  0.74833408  1
  K  K5  1  0.49134423  0.24685713  0.25166592  1
  K  K6  1  0.00865577  0.74685713  0.75166592  1
  K  K7  1  0.99134423  0.25314287  0.24833408  1
  K  K8  1  0.53681494  0.23369823  0.56987679  1
  K  K9  1  0.46318506  0.76630177  0.43012321  1
  K  K10  1  0.03681494  0.26630177  0.93012321  1
  K  K11  1  0.96318506  0.73369823  0.06987679  1
  Li  Li12  1  0.17025010  0.93169612  0.90917458  1
  Li  Li13  1  0.82974990  0.06830388  0.09082542  1
  Li  Li14  1  0.67025010  0.56830388  0.59082542  1
  Li  Li15  1  0.32974990  0.43169612  0.40917458  1
  Li  Li16  1  0.67104249  0.59834306  0.92013547  1
  Li  Li17  1  0.32895751  0.40165694  0.07986453  1
  Li  Li18  1  0.17104249  0.90165694  0.57986453  1
  Li  Li19  1  0.82895751  0.09834306  0.42013547  1
  Li  Li20  1  0.66909643  0.08317930  0.73954657  1
  Li  Li21  1  0.33090357  0.91682070  0.26045343  1
  Li  Li22  1  0.16909643  0.41682070  0.76045343  1
  Li  Li23  1  0.83090357  0.58317930  0.23954657  1
  Mo  Mo24  1  0.78662456  0.89405139  0.58193639  1
  Mo  Mo25  1  0.21337544  0.10594861  0.41806361  1
  Mo  Mo26  1  0.28662456  0.60594861  0.91806361  1
  Mo  Mo27  1  0.71337544  0.39405139  0.08193639  1
  Mo  Mo28  1  0.78460264  0.93324516  0.90732411  1
  Mo  Mo29  1  0.21539736  0.06675484  0.09267589  1
  Mo  Mo30  1  0.28460264  0.56675484  0.59267589  1
  Mo  Mo31  1  0.71539736  0.43324516  0.40732411  1
  Mo  Mo32  1  0.28286429  0.07662087  0.73673010  1
  Mo  Mo33  1  0.71713571  0.92337913  0.26326990  1
  Mo  Mo34  1  0.78286429  0.42337913  0.76326990  1
  Mo  Mo35  1  0.21713571  0.57662087  0.23673010  1
  O  O36  1  0.76678134  0.92602836  0.68647087  1
  O  O37  1  0.23321866  0.07397164  0.31352913  1
  O  O38  1  0.26678134  0.57397164  0.81352913  1
  O  O39  1  0.73321866  0.42602836  0.18647087  1
  O  O40  1  0.75439554  0.05250092  0.52711929  1
  O  O41  1  0.24560446  0.94749908  0.47288071  1
  O  O42  1  0.25439554  0.44749908  0.97288071  1
  O  O43  1  0.74560446  0.55250092  0.02711929  1
  O  O44  1  0.65741164  0.04203068  0.85433449  1
  O  O45  1  0.34258836  0.95796932  0.14566551  1
  O  O46  1  0.15741164  0.45796932  0.64566551  1
  O  O47  1  0.84258836  0.54203068  0.35433449  1
  O  O48  1  0.75236765  0.43543053  0.51260687  1
  O  O49  1  0.24763235  0.56456947  0.48739313  1
  O  O50  1  0.25236765  0.06456947  0.98739313  1
  O  O51  1  0.74763235  0.93543053  0.01260687  1
  O  O52  1  0.66061000  0.76185813  0.55080272  1
  O  O53  1  0.33939000  0.23814187  0.44919728  1
  O  O54  1  0.16061000  0.73814187  0.94919728  1
  O  O55  1  0.83939000  0.26185813  0.05080272  1
  O  O56  1  0.75037928  0.26478011  0.70979303  1
  O  O57  1  0.24962072  0.73521989  0.29020697  1
  O  O58  1  0.25037928  0.23521989  0.79020697  1
  O  O59  1  0.74962072  0.76478011  0.20979303  1
  O  O60  1  0.26522837  0.93180170  0.80398292  1
  O  O61  1  0.73477163  0.06819830  0.19601708  1
  O  O62  1  0.76522837  0.56819830  0.69601708  1
  O  O63  1  0.23477163  0.43180170  0.30398292  1
  O  O64  1  0.65793058  0.44054561  0.84509375  1
  O  O65  1  0.34206942  0.55945439  0.15490625  1
  O  O66  1  0.15793058  0.05945439  0.65490625  1
  O  O67  1  0.84206942  0.94054561  0.34509375  1
  O  O68  1  0.96641724  0.99418179  0.89004517  1
  O  O69  1  0.03358276  0.00581821  0.10995483  1
  O  O70  1  0.46641724  0.50581821  0.60995483  1
  O  O71  1  0.53358276  0.49418179  0.39004517  1
  O  O72  1  0.46599944  0.07522046  0.69871043  1
  O  O73  1  0.53400056  0.92477954  0.30128957  1
  O  O74  1  0.96599944  0.42477954  0.80128957  1
  O  O75  1  0.03400056  0.57522046  0.19871043  1
  O  O76  1  0.77500496  0.75714021  0.87252312  1
  O  O77  1  0.22499504  0.24285979  0.12747688  1
  O  O78  1  0.27500496  0.74285979  0.62747688  1
  O  O79  1  0.72499504  0.25714021  0.37252312  1
  O  O80  1  0.46917543  0.66449971  0.93590812  1
  O  O81  1  0.53082457  0.33550029  0.06409188  1
  O  O82  1  0.96917543  0.83550029  0.56409188  1
  O  O83  1  0.03082457  0.16449971  0.43590812  1
