# generated using pymatgen
data_K2MgFe4P6(O4F3)4
_symmetry_space_group_name_H-M   'P 1'
_cell_length_a   7.66650680
_cell_length_b   7.75972812
_cell_length_c   10.90360944
_cell_angle_alpha   101.57448341
_cell_angle_beta   109.86874420
_cell_angle_gamma   89.93581658
_symmetry_Int_Tables_number   1
_chemical_formula_structural   K2MgFe4P6(O4F3)4
_chemical_formula_sum   'K2 Mg1 Fe4 P6 O16 F12'
_cell_volume   596.05264137
_cell_formula_units_Z   1
loop_
 _symmetry_equiv_pos_site_id
 _symmetry_equiv_pos_as_xyz
  1  'x, y, z'
loop_
 _atom_site_type_symbol
 _atom_site_label
 _atom_site_symmetry_multiplicity
 _atom_site_fract_x
 _atom_site_fract_y
 _atom_site_fract_z
 _atom_site_occupancy
  K  K0  1  0.82747365  0.07837474  0.81261678  1
  K  K1  1  0.23344481  0.92933713  0.17902143  1
  Mg  Mg2  1  0.38338174  0.92228960  0.55857843  1
  Fe  Fe3  1  0.65395614  0.31423285  0.32425905  1
  Fe  Fe4  1  0.32988541  0.65209087  0.67905344  1
  Fe  Fe5  1  0.49918136  0.50907640  0.00817814  1
  Fe  Fe6  1  0.98283663  0.00644917  0.49441602  1
  P  P7  1  0.66441600  0.72959396  0.50942889  1
  P  P8  1  0.35692386  0.25552733  0.48405909  1
  P  P9  1  0.30586556  0.10877879  0.81104408  1
  P  P10  1  0.69354387  0.91326560  0.17786750  1
  P  P11  1  0.06628144  0.59048861  0.85429463  1
  P  P12  1  0.92584188  0.41276944  0.16246291  1
  O  O13  1  0.70150446  0.55765980  0.43618322  1
  O  O14  1  0.29728332  0.41368654  0.55688706  1
  O  O15  1  0.81549672  0.87718805  0.56254407  1
  O  O16  1  0.22872696  0.08559383  0.44798902  1
  O  O17  1  0.58743433  0.07489527  0.20767072  1
  O  O18  1  0.41304977  0.96384634  0.75463527  1
  O  O19  1  0.43781327  0.26893511  0.89329470  1
  O  O20  1  0.55394798  0.75188565  0.11963628  1
  O  O21  1  0.87242488  0.89353736  0.28662637  1
  O  O22  1  0.12380836  0.13991310  0.70936885  1
  O  O23  1  0.88444827  0.35000012  0.27061767  1
  O  O24  1  0.09872196  0.63854733  0.73875109  1
  O  O25  1  0.77840737  0.47159457  0.05164814  1
  O  O26  1  0.21927670  0.54559562  0.96979724  1
  O  O27  1  0.42365863  0.27255834  0.37130812  1
  O  O28  1  0.56229793  0.72941403  0.60815441  1
  F  F29  1  0.82263760  0.22311565  0.46847679  1
  F  F30  1  0.16455153  0.77614759  0.52033630  1
  F  F31  1  0.50508346  0.41404262  0.16670580  1
  F  F32  1  0.50099177  0.60552374  0.85635995  1
  F  F33  1  0.75705774  0.94522323  0.05728494  1
  F  F34  1  0.24677052  0.02900296  0.91877063  1
  F  F35  1  0.90139767  0.44492818  0.80563535  1
  F  F36  1  0.09383289  0.55445060  0.22377683  1
  F  F37  1  0.53836556  0.18775491  0.59634122  1
  F  F38  1  0.49344834  0.81290148  0.39671082  1
  F  F39  1  0.02373572  0.26076528  0.09406316  1
  F  F40  1  0.96829396  0.74735123  0.91764558  1
