# generated using pymatgen
data_BaMnO3
_symmetry_space_group_name_H-M   'P 1'
_cell_length_a   4.88190519
_cell_length_b   5.72208317
_cell_length_c   9.90914985
_cell_angle_alpha   90.00017607
_cell_angle_beta   90.00024693
_cell_angle_gamma   90.00000629
_symmetry_Int_Tables_number   1
_chemical_formula_structural   BaMnO3
_chemical_formula_sum   'Ba4 Mn4 O12'
_cell_volume   276.80880654
_cell_formula_units_Z   4
loop_
 _symmetry_equiv_pos_site_id
 _symmetry_equiv_pos_as_xyz
  1  'x, y, z'
loop_
 _atom_site_type_symbol
 _atom_site_label
 _atom_site_symmetry_multiplicity
 _atom_site_fract_x
 _atom_site_fract_y
 _atom_site_fract_z
 _atom_site_occupancy
  Ba  Ba0  1  0.26817135  0.00000100  0.33333166  1
  Ba  Ba1  1  0.26817314  0.50000200  0.83333232  1
  Ba  Ba2  1  0.76817025  0.49999900  0.16666882  1
  Ba  Ba3  1  0.76816964  0.99999900  0.66666824  1
  Mn  Mn4  1  0.53377229  0.50000000  0.50001237  1
  Mn  Mn5  1  0.03378581  0.00000000  0.99998787  1
  Mn  Mn6  1  0.53375984  -0.00000000  0.00000654  1
  Mn  Mn7  1  0.03375502  0.50000000  0.49998795  1
  O  O8  1  0.28398149  0.49999800  0.35226200  1
  O  O9  1  0.28398227  0.99999800  0.85226291  1
  O  O10  1  0.28403990  0.77845743  0.07384299  1
  O  O11  1  0.28404038  0.27845543  0.57384329  1
  O  O12  1  0.28404090  0.22154257  0.07384299  1
  O  O13  1  0.28404138  0.72154457  0.57384429  1
  O  O14  1  0.78398133  0.00000200  0.14773898  1
  O  O15  1  0.78398105  0.50000200  0.64773814  1
  O  O16  1  0.78404055  0.72154372  0.42615757  1
  O  O17  1  0.78404042  0.22154620  0.92615724  1
  O  O18  1  0.78404155  0.27845628  0.42615657  1
  O  O19  1  0.78404142  0.77845480  0.92615524  1
