# generated using pymatgen
data_Ca(ErS2)2
_symmetry_space_group_name_H-M   'P 1'
_cell_length_a   3.86131540
_cell_length_b   12.86649461
_cell_length_c   13.04036430
_cell_angle_alpha   90.00000000
_cell_angle_beta   90.00000000
_cell_angle_gamma   90.00000000
_symmetry_Int_Tables_number   1
_chemical_formula_structural   Ca(ErS2)2
_chemical_formula_sum   'Ca4 Er8 S16'
_cell_volume   647.86608192
_cell_formula_units_Z   4
loop_
 _symmetry_equiv_pos_site_id
 _symmetry_equiv_pos_as_xyz
  1  'x, y, z'
loop_
 _atom_site_type_symbol
 _atom_site_label
 _atom_site_symmetry_multiplicity
 _atom_site_fract_x
 _atom_site_fract_y
 _atom_site_fract_z
 _atom_site_occupancy
  Ca  Ca0  1  0.25000000  0.36908356  0.58229492  1
  Ca  Ca1  1  0.25000000  0.86908356  0.91770508  1
  Ca  Ca2  1  0.75000000  0.63091644  0.41770508  1
  Ca  Ca3  1  0.75000000  0.13091644  0.08229492  1
  Er  Er4  1  0.25000000  0.10704663  0.41635009  1
  Er  Er5  1  0.25000000  0.60704663  0.08364991  1
  Er  Er6  1  0.75000000  0.89295337  0.58364991  1
  Er  Er7  1  0.75000000  0.39295337  0.91635009  1
  Er  Er8  1  0.25000000  0.14677956  0.79698355  1
  Er  Er9  1  0.25000000  0.64677956  0.70301645  1
  Er  Er10  1  0.75000000  0.85322044  0.20301645  1
  Er  Er11  1  0.75000000  0.35322044  0.29698355  1
  S  S12  1  0.25000000  0.21731315  0.23761113  1
  S  S13  1  0.25000000  0.71731315  0.26238887  1
  S  S14  1  0.75000000  0.78268685  0.76238887  1
  S  S15  1  0.75000000  0.28268685  0.73761113  1
  S  S16  1  0.25000000  0.25787580  0.97311556  1
  S  S17  1  0.25000000  0.75787580  0.52688444  1
  S  S18  1  0.75000000  0.74212420  0.02688444  1
  S  S19  1  0.75000000  0.24212420  0.47311556  1
  S  S20  1  0.25000000  0.46959314  0.38152280  1
  S  S21  1  0.25000000  0.96959314  0.11847720  1
  S  S22  1  0.75000000  0.53040686  0.61847720  1
  S  S23  1  0.75000000  0.03040686  0.88152280  1
  S  S24  1  0.25000000  0.03402598  0.61749061  1
  S  S25  1  0.25000000  0.53402598  0.88250939  1
  S  S26  1  0.75000000  0.96597402  0.38250939  1
  S  S27  1  0.75000000  0.46597402  0.11749061  1
