# generated using pymatgen
data_Ca3In2(GeO4)3
_symmetry_space_group_name_H-M   'P 1'
_cell_length_a   11.04701712
_cell_length_b   11.04701712
_cell_length_c   11.04701712
_cell_angle_alpha   109.47122063
_cell_angle_beta   109.47122063
_cell_angle_gamma   109.47122063
_symmetry_Int_Tables_number   1
_chemical_formula_structural   Ca3In2(GeO4)3
_chemical_formula_sum   'Ca12 In8 Ge12 O48'
_cell_volume   1037.79886364
_cell_formula_units_Z   4
loop_
 _symmetry_equiv_pos_site_id
 _symmetry_equiv_pos_as_xyz
  1  'x, y, z'
loop_
 _atom_site_type_symbol
 _atom_site_label
 _atom_site_symmetry_multiplicity
 _atom_site_fract_x
 _atom_site_fract_y
 _atom_site_fract_z
 _atom_site_occupancy
  Ca  Ca0  1  0.87500000  0.62500000  0.75000000  1
  Ca  Ca1  1  0.12500000  0.37500000  0.25000000  1
  Ca  Ca2  1  0.62500000  0.87500000  0.25000000  1
  Ca  Ca3  1  0.62500000  0.75000000  0.87500000  1
  Ca  Ca4  1  0.87500000  0.25000000  0.62500000  1
  Ca  Ca5  1  0.37500000  0.12500000  0.75000000  1
  Ca  Ca6  1  0.37500000  0.25000000  0.12500000  1
  Ca  Ca7  1  0.12500000  0.75000000  0.37500000  1
  Ca  Ca8  1  0.75000000  0.87500000  0.62500000  1
  Ca  Ca9  1  0.25000000  0.12500000  0.37500000  1
  Ca  Ca10  1  0.25000000  0.62500000  0.87500000  1
  Ca  Ca11  1  0.75000000  0.37500000  0.12500000  1
  In  In12  1  0.00000000  -0.00000000  0.00000000  1
  In  In13  1  0.50000000  -0.00000000  0.50000000  1
  In  In14  1  0.50000000  0.50000000  0.00000000  1
  In  In15  1  0.00000000  -0.00000000  0.50000000  1
  In  In16  1  0.00000000  0.50000000  0.50000000  1
  In  In17  1  0.50000000  0.50000000  0.50000000  1
  In  In18  1  0.50000000  -0.00000000  0.00000000  1
  In  In19  1  0.00000000  0.50000000  0.00000000  1
  Ge  Ge20  1  0.62500000  0.37500000  0.75000000  1
  Ge  Ge21  1  0.37500000  0.62500000  0.25000000  1
  Ge  Ge22  1  0.87500000  0.12500000  0.25000000  1
  Ge  Ge23  1  0.37500000  0.75000000  0.62500000  1
  Ge  Ge24  1  0.62500000  0.25000000  0.37500000  1
  Ge  Ge25  1  0.12500000  0.87500000  0.75000000  1
  Ge  Ge26  1  0.12500000  0.25000000  0.87500000  1
  Ge  Ge27  1  0.87500000  0.75000000  0.12500000  1
  Ge  Ge28  1  0.75000000  0.62500000  0.37500000  1
  Ge  Ge29  1  0.25000000  0.37500000  0.62500000  1
  Ge  Ge30  1  0.25000000  0.87500000  0.12500000  1
  Ge  Ge31  1  0.75000000  0.12500000  0.87500000  1
  O  O32  1  0.71247809  0.62412814  0.52041767  1
  O  O33  1  0.28752191  0.37587186  0.47958233  1
  O  O34  1  0.78752191  0.80793957  0.41165005  1
  O  O35  1  0.39628952  0.87587186  0.08834995  1
  O  O36  1  0.62412814  0.52041767  0.71247809  1
  O  O37  1  0.71247809  0.08834995  0.69206043  1
  O  O38  1  0.21247809  0.19206043  0.58834995  1
  O  O39  1  0.60371048  0.12412814  0.91165005  1
  O  O40  1  0.37587186  0.47958233  0.28752191  1
  O  O41  1  0.28752191  0.91165005  0.30793957  1
  O  O42  1  0.10371048  0.69206043  0.97958233  1
  O  O43  1  0.80793957  0.41165005  0.78752191  1
  O  O44  1  0.78752191  0.97958233  0.87587186  1
  O  O45  1  0.89628952  0.30793957  0.02041767  1
  O  O46  1  0.19206043  0.58834995  0.21247809  1
  O  O47  1  0.21247809  0.02041767  0.12412814  1
  O  O48  1  0.87587186  0.08834995  0.39628952  1
  O  O49  1  0.39628952  0.52041767  0.80793957  1
  O  O50  1  0.12412814  0.91165005  0.60371048  1
  O  O51  1  0.60371048  0.47958233  0.19206043  1
  O  O52  1  0.69206043  0.97958233  0.10371048  1
  O  O53  1  0.10371048  0.41165005  0.62412814  1
  O  O54  1  0.30793957  0.02041767  0.89628952  1
  O  O55  1  0.89628952  0.58834995  0.37587186  1
  O  O56  1  0.52041767  0.71247809  0.62412814  1
  O  O57  1  0.62412814  0.10371048  0.41165005  1
  O  O58  1  0.47958233  0.28752191  0.37587186  1
  O  O59  1  0.37587186  0.89628952  0.58834995  1
  O  O60  1  0.08834995  0.39628952  0.87587186  1
  O  O61  1  0.87587186  0.78752191  0.97958233  1
  O  O62  1  0.91165005  0.60371048  0.12412814  1
  O  O63  1  0.12412814  0.21247809  0.02041767  1
  O  O64  1  0.97958233  0.10371048  0.69206043  1
  O  O65  1  0.69206043  0.71247809  0.08834995  1
  O  O66  1  0.02041767  0.89628952  0.30793957  1
  O  O67  1  0.30793957  0.28752191  0.91165005  1
  O  O68  1  0.41165005  0.78752191  0.80793957  1
  O  O69  1  0.80793957  0.39628952  0.52041767  1
  O  O70  1  0.58834995  0.21247809  0.19206043  1
  O  O71  1  0.19206043  0.60371048  0.47958233  1
  O  O72  1  0.08834995  0.69206043  0.71247809  1
  O  O73  1  0.91165005  0.30793957  0.28752191  1
  O  O74  1  0.97958233  0.87587186  0.78752191  1
  O  O75  1  0.02041767  0.12412814  0.21247809  1
  O  O76  1  0.41165005  0.62412814  0.10371048  1
  O  O77  1  0.58834995  0.37587186  0.89628952  1
  O  O78  1  0.52041767  0.80793957  0.39628952  1
  O  O79  1  0.47958233  0.19206043  0.60371048  1
