# generated using pymatgen
data_K7TaAs4
_symmetry_space_group_name_H-M   'P 1'
_cell_length_a   8.33944252
_cell_length_b   9.13630318
_cell_length_c   10.25743429
_cell_angle_alpha   90.00000000
_cell_angle_beta   90.00000000
_cell_angle_gamma   90.00000000
_symmetry_Int_Tables_number   1
_chemical_formula_structural   K7TaAs4
_chemical_formula_sum   'K14 Ta2 As8'
_cell_volume   781.53110196
_cell_formula_units_Z   2
loop_
 _symmetry_equiv_pos_site_id
 _symmetry_equiv_pos_as_xyz
  1  'x, y, z'
loop_
 _atom_site_type_symbol
 _atom_site_label
 _atom_site_symmetry_multiplicity
 _atom_site_fract_x
 _atom_site_fract_y
 _atom_site_fract_z
 _atom_site_occupancy
  K  K0  1  0.70850227  0.83537872  0.71658144  1
  K  K1  1  0.20850227  0.16462128  0.78341856  1
  K  K2  1  0.20850227  0.16462128  0.21658144  1
  K  K3  1  0.70850227  0.83537872  0.28341856  1
  K  K4  1  0.87288427  0.46720915  0.71076648  1
  K  K5  1  0.37288427  0.53279085  0.78923352  1
  K  K6  1  0.37288427  0.53279085  0.21076648  1
  K  K7  1  0.87288427  0.46720915  0.28923352  1
  K  K8  1  0.16309853  0.66109075  0.50000000  1
  K  K9  1  0.66309853  0.33890925  0.00000000  1
  K  K10  1  0.87508507  0.03931885  0.00000000  1
  K  K11  1  0.37508507  0.96068115  0.50000000  1
  K  K12  1  0.39208468  0.89763558  0.00000000  1
  K  K13  1  0.89208468  0.10236442  0.50000000  1
  Ta  Ta14  1  0.99865351  0.67439804  0.00000000  1
  Ta  Ta15  1  0.49865351  0.32560196  0.50000000  1
  As  As16  1  0.70116201  0.68375345  0.00000000  1
  As  As17  1  0.20116201  0.31624655  0.50000000  1
  As  As18  1  0.09381718  0.80671502  0.79776344  1
  As  As19  1  0.59381718  0.19328498  0.70223656  1
  As  As20  1  0.59381718  0.19328498  0.29776344  1
  As  As21  1  0.09381718  0.80671502  0.20223656  1
  As  As22  1  0.57785975  0.58975404  0.50000000  1
  As  As23  1  0.07785975  0.41024596  0.00000000  1
