# generated using pymatgen
data_BaCaEuWO6
_symmetry_space_group_name_H-M   'P 1'
_cell_length_a   5.90509192
_cell_length_b   5.90510212
_cell_length_c   5.90509418
_cell_angle_alpha   60.00004448
_cell_angle_beta   59.99998732
_cell_angle_gamma   60.00014977
_symmetry_Int_Tables_number   1
_chemical_formula_structural   BaCaEuWO6
_chemical_formula_sum   'Ba1 Ca1 Eu1 W1 O6'
_cell_volume   145.60171885
_cell_formula_units_Z   1
loop_
 _symmetry_equiv_pos_site_id
 _symmetry_equiv_pos_as_xyz
  1  'x, y, z'
loop_
 _atom_site_type_symbol
 _atom_site_label
 _atom_site_symmetry_multiplicity
 _atom_site_fract_x
 _atom_site_fract_y
 _atom_site_fract_z
 _atom_site_occupancy
  Ba  Ba0  1  0.75000065  0.75000067  0.74999934  1
  Ca  Ca1  1  0.99999868  0.00000070  0.00000031  1
  Eu  Eu2  1  0.25000127  0.24999880  0.24999997  1
  W  W3  1  0.50000009  0.50000080  0.49999955  1
  O  O4  1  0.73048027  0.26952003  0.26951979  1
  O  O5  1  0.26951955  0.73047987  0.73047963  1
  O  O6  1  0.73048027  0.26952003  0.73047991  1
  O  O7  1  0.26951955  0.73047987  0.26952095  1
  O  O8  1  0.73048085  0.73047882  0.26952016  1
  O  O9  1  0.26951882  0.26952040  0.73048039  1
