# generated using pymatgen
data_Cs3Bi2Cl9
_symmetry_space_group_name_H-M   'P 1'
_cell_length_a   7.62906418
_cell_length_b   13.21917112
_cell_length_c   18.64034407
_cell_angle_alpha   90.00000000
_cell_angle_beta   90.00000000
_cell_angle_gamma   90.00000000
_symmetry_Int_Tables_number   1
_chemical_formula_structural   Cs3Bi2Cl9
_chemical_formula_sum   'Cs12 Bi8 Cl36'
_cell_volume   1879.87692641
_cell_formula_units_Z   4
loop_
 _symmetry_equiv_pos_site_id
 _symmetry_equiv_pos_as_xyz
  1  'x, y, z'
loop_
 _atom_site_type_symbol
 _atom_site_label
 _atom_site_symmetry_multiplicity
 _atom_site_fract_x
 _atom_site_fract_y
 _atom_site_fract_z
 _atom_site_occupancy
  Cs  Cs0  1  0.25000000  0.09151195  0.58646637  1
  Cs  Cs1  1  0.25000000  0.40848805  0.08646637  1
  Cs  Cs2  1  0.75000000  0.90848805  0.41353363  1
  Cs  Cs3  1  0.75000000  0.59151195  0.91353363  1
  Cs  Cs4  1  0.25000000  0.74593479  0.25246997  1
  Cs  Cs5  1  0.25000000  0.75406521  0.75246997  1
  Cs  Cs6  1  0.75000000  0.25406521  0.74753003  1
  Cs  Cs7  1  0.75000000  0.24593479  0.24753003  1
  Cs  Cs8  1  0.25000000  0.08077293  0.91351854  1
  Cs  Cs9  1  0.25000000  0.41922707  0.41351854  1
  Cs  Cs10  1  0.75000000  0.91922707  0.08648146  1
  Cs  Cs11  1  0.75000000  0.58077293  0.58648146  1
  Bi  Bi12  1  0.25000000  0.73689469  0.49969865  1
  Bi  Bi13  1  0.25000000  0.76310531  -0.00030135  1
  Bi  Bi14  1  0.75000000  0.26310531  0.50030135  1
  Bi  Bi15  1  0.75000000  0.23689469  0.00030135  1
  Bi  Bi16  1  0.25000000  0.41970482  0.81655948  1
  Bi  Bi17  1  0.25000000  0.08029518  0.31655948  1
  Bi  Bi18  1  0.75000000  0.58029518  0.18344052  1
  Bi  Bi19  1  0.75000000  0.91970482  0.68344052  1
  Cl  Cl20  1  0.25000000  0.91669766  0.41464396  1
  Cl  Cl21  1  0.25000000  0.58330234  0.91464396  1
  Cl  Cl22  1  0.75000000  0.08330234  0.58535604  1
  Cl  Cl23  1  0.75000000  0.41669766  0.08535604  1
  Cl  Cl24  1  0.25000000  0.24924363  0.74694373  1
  Cl  Cl25  1  0.25000000  0.25075637  0.24694373  1
  Cl  Cl26  1  0.75000000  0.75075637  0.25305627  1
  Cl  Cl27  1  0.75000000  0.74924363  0.75305627  1
  Cl  Cl28  1  0.25000000  0.91762622  0.08318188  1
  Cl  Cl29  1  0.25000000  0.58237378  0.58318188  1
  Cl  Cl30  1  0.75000000  0.08237378  0.91681812  1
  Cl  Cl31  1  0.75000000  0.41762622  0.41681812  1
  Cl  Cl32  1  0.99502423  0.33688372  0.58034211  1
  Cl  Cl33  1  0.50497577  0.16311628  0.08034211  1
  Cl  Cl34  1  0.49502423  0.66311628  0.41965789  1
  Cl  Cl35  1  0.00497577  0.83688372  0.91965789  1
  Cl  Cl36  1  0.00497577  0.66311628  0.41965789  1
  Cl  Cl37  1  0.49502423  0.83688372  0.91965789  1
  Cl  Cl38  1  0.50497577  0.33688372  0.58034211  1
  Cl  Cl39  1  0.99502423  0.16311628  0.08034211  1
  Cl  Cl40  1  -0.00791525  0.50691201  0.74946892  1
  Cl  Cl41  1  0.50791525  0.99308799  0.24946892  1
  Cl  Cl42  1  0.49208475  0.49308799  0.25053108  1
  Cl  Cl43  1  0.00791525  0.00691201  0.75053108  1
  Cl  Cl44  1  0.00791525  0.49308799  0.25053108  1
  Cl  Cl45  1  0.49208475  0.00691201  0.75053108  1
  Cl  Cl46  1  0.50791525  0.50691201  0.74946892  1
  Cl  Cl47  1  -0.00791525  0.99308799  0.24946892  1
  Cl  Cl48  1  0.00296307  0.33490398  0.91248869  1
  Cl  Cl49  1  0.49703693  0.16509602  0.41248869  1
  Cl  Cl50  1  0.50296307  0.66509602  0.08751131  1
  Cl  Cl51  1  0.99703693  0.83490398  0.58751131  1
  Cl  Cl52  1  0.99703693  0.66509602  0.08751131  1
  Cl  Cl53  1  0.50296307  0.83490398  0.58751131  1
  Cl  Cl54  1  0.49703693  0.33490398  0.91248869  1
  Cl  Cl55  1  0.00296307  0.16509602  0.41248869  1
