# generated using pymatgen
data_Dy2MgS4
_symmetry_space_group_name_H-M   'P 1'
_cell_length_a   7.86888299
_cell_length_b   7.86888295
_cell_length_c   7.86888359
_cell_angle_alpha   59.99993193
_cell_angle_beta   59.99991882
_cell_angle_gamma   59.99993416
_symmetry_Int_Tables_number   1
_chemical_formula_structural   Dy2MgS4
_chemical_formula_sum   'Dy4 Mg2 S8'
_cell_volume   344.52725904
_cell_formula_units_Z   2
loop_
 _symmetry_equiv_pos_site_id
 _symmetry_equiv_pos_as_xyz
  1  'x, y, z'
loop_
 _atom_site_type_symbol
 _atom_site_label
 _atom_site_symmetry_multiplicity
 _atom_site_fract_x
 _atom_site_fract_y
 _atom_site_fract_z
 _atom_site_occupancy
  Dy  Dy0  1  0.12500030  0.62499922  0.12500016  1
  Dy  Dy1  1  0.12500028  0.12500014  0.62499928  1
  Dy  Dy2  1  0.62499938  0.12500030  0.12500015  1
  Dy  Dy3  1  0.12500019  0.12500001  0.12500033  1
  Mg  Mg4  1  0.50000234  0.50000239  0.50000218  1
  Mg  Mg5  1  0.74999778  0.74999801  0.74999804  1
  S  S6  1  0.87964196  0.87964197  0.87964195  1
  S  S7  1  0.36107956  0.87964050  0.87964061  1
  S  S8  1  0.87964057  0.36107968  0.87964055  1
  S  S9  1  0.87964052  0.87964061  0.36107958  1
  S  S10  1  0.37036464  0.37036452  0.88890459  1
  S  S11  1  0.37036471  0.88890462  0.37036461  1
  S  S12  1  0.88890458  0.37036467  0.37036467  1
  S  S13  1  0.37036318  0.37036336  0.37036331  1
