# generated using pymatgen
data_Na6Al3Fe3(TeO6)4
_symmetry_space_group_name_H-M   'P 1'
_cell_length_a   10.67945305
_cell_length_b   10.67945806
_cell_length_c   10.67945806
_cell_angle_alpha   109.47122861
_cell_angle_beta   109.47122615
_cell_angle_gamma   109.47122615
_symmetry_Int_Tables_number   1
_chemical_formula_structural   Na6Al3Fe3(TeO6)4
_chemical_formula_sum   'Na12 Al6 Fe6 Te8 O48'
_cell_volume   937.61694470
_cell_formula_units_Z   2
loop_
 _symmetry_equiv_pos_site_id
 _symmetry_equiv_pos_as_xyz
  1  'x, y, z'
loop_
 _atom_site_type_symbol
 _atom_site_label
 _atom_site_symmetry_multiplicity
 _atom_site_fract_x
 _atom_site_fract_y
 _atom_site_fract_z
 _atom_site_occupancy
  Na  Na0  1  0.12581509  0.37581510  0.75000006  1
  Na  Na1  1  0.37418491  0.12418497  0.25000000  1
  Na  Na2  1  0.25000000  0.37418487  0.12418487  1
  Na  Na3  1  0.75000000  0.12581505  0.37581505  1
  Na  Na4  1  0.12418491  0.24999992  0.37418483  1
  Na  Na5  1  0.37581509  0.74999991  0.12581501  1
  Na  Na6  1  0.87581509  0.62581501  0.24999991  1
  Na  Na7  1  0.62418491  0.87418483  0.74999992  1
  Na  Na8  1  0.75000000  0.62418487  0.87418487  1
  Na  Na9  1  0.25000000  0.87581505  0.62581505  1
  Na  Na10  1  0.87418491  0.75000000  0.62418497  1
  Na  Na11  1  0.62581509  0.25000006  0.87581510  1
  Al  Al12  1  0.12499999  0.87500002  0.25000006  1
  Al  Al13  1  0.37500001  0.62500007  0.75000004  1
  Al  Al14  1  0.75000000  0.37499992  0.62499992  1
  Al  Al15  1  0.25000000  0.12499992  0.87499992  1
  Al  Al16  1  0.62499999  0.75000006  0.37500002  1
  Al  Al17  1  0.87500001  0.25000004  0.12500007  1
  Fe  Fe18  1  0.87500026  0.12500010  0.75000022  1
  Fe  Fe19  1  0.62499974  0.37499995  0.24999984  1
  Fe  Fe20  1  0.25000000  0.62499992  0.37499992  1
  Fe  Fe21  1  0.75000000  0.87499992  0.12499992  1
  Fe  Fe22  1  0.37500026  0.25000022  0.62500010  1
  Fe  Fe23  1  0.12499974  0.74999984  0.87499995  1
  Te  Te24  1  0.50219641  0.49999999  0.99999993  1
  Te  Te25  1  0.99999999  0.50219639  0.50000000  1
  Te  Te26  1  -0.00219641  -0.00219647  -0.00219641  1
  Te  Te27  1  0.50000001  0.00000001  0.50219641  1
  Te  Te28  1  0.00219641  0.49999993  0.99999999  1
  Te  Te29  1  0.49780359  0.49780359  0.49780353  1
  Te  Te30  1  0.00000001  0.00219641  0.50000001  1
  Te  Te31  1  0.49999999  1.00000000  0.00219639  1
  O  O32  1  0.38923870  0.57478806  0.89498135  1
  O  O33  1  0.17980675  0.49425747  0.60501893  1
  O  O34  1  0.11076130  0.00574265  0.18554936  1
  O  O35  1  0.32019325  0.92521218  0.31445072  1
  O  O36  1  0.18554933  0.11076131  0.00574269  1
  O  O37  1  0.31445067  0.32019336  0.92521198  1
  O  O38  1  0.89498107  0.38923860  0.57478771  1
  O  O39  1  0.60501893  0.17980664  0.49425753  1
  O  O40  1  0.92521210  0.31445071  0.32019324  1
  O  O41  1  0.00574262  0.18554929  0.11076144  1
  O  O42  1  0.49425738  0.60501882  0.17980667  1
  O  O43  1  0.57478790  0.89498115  0.38923862  1
  O  O44  1  0.61690873  0.42191223  0.09613278  1
  O  O45  1  0.82577881  0.52077514  0.40386627  1
  O  O46  1  0.88309127  0.97922405  0.80500251  1
  O  O47  1  0.67422119  0.07808745  0.69499733  1
  O  O48  1  0.80500289  0.88309162  0.97922454  1
  O  O49  1  0.69499711  0.67422066  0.07808773  1
  O  O50  1  0.09613366  0.61690923  0.42191248  1
  O  O51  1  0.40386634  0.82577882  0.52077557  1
  O  O52  1  0.07808745  0.69499729  0.67422111  1
  O  O53  1  0.97922403  0.80500232  0.88309158  1
  O  O54  1  0.52077597  0.40386754  0.82577928  1
  O  O55  1  0.42191255  0.09613365  0.61690884  1
  O  O56  1  0.81445067  0.42521198  0.82019336  1
  O  O57  1  0.68554933  0.50574269  0.61076131  1
  O  O58  1  0.10501893  0.99425753  0.67980664  1
  O  O59  1  0.39498107  0.07478771  0.88923860  1
  O  O60  1  0.07478790  0.88923862  0.39498115  1
  O  O61  1  0.99425738  0.67980667  0.10501882  1
  O  O62  1  0.50574262  0.61076144  0.68554929  1
  O  O63  1  0.42521210  0.82019324  0.81445071  1
  O  O64  1  0.61076130  0.68554936  0.50574265  1
  O  O65  1  0.82019325  0.81445072  0.42521218  1
  O  O66  1  0.88923870  0.39498135  0.07478806  1
  O  O67  1  0.67980675  0.10501893  0.99425747  1
  O  O68  1  0.19499711  0.57808773  0.17422066  1
  O  O69  1  0.30500289  0.47922454  0.38309162  1
  O  O70  1  0.90386634  0.02077557  0.32577882  1
  O  O71  1  0.59613366  0.92191248  0.11690923  1
  O  O72  1  0.92191255  0.11690884  0.59613365  1
  O  O73  1  0.02077597  0.32577928  0.90386754  1
  O  O74  1  0.47922403  0.38309158  0.30500232  1
  O  O75  1  0.57808745  0.17422111  0.19499729  1
  O  O76  1  0.38309127  0.30500251  0.47922405  1
  O  O77  1  0.17422119  0.19499733  0.57808745  1
  O  O78  1  0.11690873  0.59613278  0.92191223  1
  O  O79  1  0.32577881  0.90386627  0.02077514  1
