# generated using pymatgen
data_Ca2Tl2O5
_symmetry_space_group_name_H-M   'P 1'
_cell_length_a   5.87578009
_cell_length_b   5.87578009
_cell_length_c   13.46200359
_cell_angle_alpha   90.00000000
_cell_angle_beta   90.00000000
_cell_angle_gamma   146.66886595
_symmetry_Int_Tables_number   1
_chemical_formula_structural   Ca2Tl2O5
_chemical_formula_sum   'Ca4 Tl4 O10'
_cell_volume   255.38195857
_cell_formula_units_Z   2
loop_
 _symmetry_equiv_pos_site_id
 _symmetry_equiv_pos_as_xyz
  1  'x, y, z'
loop_
 _atom_site_type_symbol
 _atom_site_label
 _atom_site_symmetry_multiplicity
 _atom_site_fract_x
 _atom_site_fract_y
 _atom_site_fract_z
 _atom_site_occupancy
  Ca  Ca0  1  0.97075659  0.02924341  0.26066036  1
  Ca  Ca1  1  0.02924341  0.97075659  0.76066036  1
  Ca  Ca2  1  0.21690223  0.78309777  0.11205095  1
  Ca  Ca3  1  0.78309777  0.21690223  0.61205095  1
  Tl  Tl4  1  0.48905309  0.51094691  0.00371494  1
  Tl  Tl5  1  0.51094691  0.48905309  0.50371494  1
  Tl  Tl6  1  0.76160761  0.23839239  0.88646935  1
  Tl  Tl7  1  0.23839239  0.76160761  0.38646935  1
  O  O8  1  0.32916205  0.67083795  0.25067749  1
  O  O9  1  0.67083795  0.32916205  0.75067749  1
  O  O10  1  0.59040526  0.40959474  0.35776484  1
  O  O11  1  0.42837481  0.57162519  0.64555393  1
  O  O12  1  0.57162519  0.42837481  0.14555393  1
  O  O13  1  0.40959474  0.59040526  0.85776484  1
  O  O14  1  0.87468933  0.12531067  0.44528321  1
  O  O15  1  0.16076418  0.83923582  0.53782492  1
  O  O16  1  0.83923582  0.16076418  0.03782492  1
  O  O17  1  0.12531067  0.87468933  0.94528321  1
