# generated using pymatgen
data_Ba2Br2O
_symmetry_space_group_name_H-M   'P 1'
_cell_length_a   6.67570097
_cell_length_b   7.39378419
_cell_length_c   8.23545763
_cell_angle_alpha   116.67310144
_cell_angle_beta   113.91007251
_cell_angle_gamma   90.00000000
_symmetry_Int_Tables_number   1
_chemical_formula_structural   Ba2Br2O
_chemical_formula_sum   'Ba4 Br4 O2'
_cell_volume   323.72116182
_cell_formula_units_Z   2
loop_
 _symmetry_equiv_pos_site_id
 _symmetry_equiv_pos_as_xyz
  1  'x, y, z'
loop_
 _atom_site_type_symbol
 _atom_site_label
 _atom_site_symmetry_multiplicity
 _atom_site_fract_x
 _atom_site_fract_y
 _atom_site_fract_z
 _atom_site_occupancy
  Ba  Ba0  1  0.59784207  0.90922505  0.19568314  1
  Ba  Ba1  1  0.40215793  0.09077495  0.80431686  1
  Ba  Ba2  1  0.09784207  0.28645709  0.19568314  1
  Ba  Ba3  1  0.90215793  0.71354291  0.80431686  1
  Br  Br4  1  0.85331234  0.20455518  0.70662367  1
  Br  Br5  1  0.14668766  0.79544482  0.29337633  1
  Br  Br6  1  0.35331234  0.50206950  0.70662367  1
  Br  Br7  1  0.64668766  0.49793050  0.29337633  1
  O  O8  1  0.75000000  -0.00000000  -0.00000000  1
  O  O9  1  0.25000000  -0.00000000  -0.00000000  1
