# generated using pymatgen
data_In2Se2O7
_symmetry_space_group_name_H-M   'P 1'
_cell_length_a   6.90521216
_cell_length_b   12.77721833
_cell_length_c   13.85612009
_cell_angle_alpha   90.00000000
_cell_angle_beta   90.00000000
_cell_angle_gamma   90.00000000
_symmetry_Int_Tables_number   1
_chemical_formula_structural   In2Se2O7
_chemical_formula_sum   'In16 Se16 O56'
_cell_volume   1222.51720875
_cell_formula_units_Z   8
loop_
 _symmetry_equiv_pos_site_id
 _symmetry_equiv_pos_as_xyz
  1  'x, y, z'
loop_
 _atom_site_type_symbol
 _atom_site_label
 _atom_site_symmetry_multiplicity
 _atom_site_fract_x
 _atom_site_fract_y
 _atom_site_fract_z
 _atom_site_occupancy
  In  In0  1  0.45127492  0.98733973  0.37220704  1
  In  In1  1  0.04872508  0.98733973  0.12779296  1
  In  In2  1  0.54872508  0.51266027  0.87220704  1
  In  In3  1  0.95127492  0.51266027  0.62779296  1
  In  In4  1  0.54872508  0.01266027  0.62779296  1
  In  In5  1  0.95127492  0.01266027  0.87220704  1
  In  In6  1  0.45127492  0.48733973  0.12779296  1
  In  In7  1  0.04872508  0.48733973  0.37220704  1
  In  In8  1  0.25000000  0.24600394  0.25000000  1
  In  In9  1  0.75000000  0.25399606  0.75000000  1
  In  In10  1  0.75000000  0.75399606  0.75000000  1
  In  In11  1  0.25000000  0.74600394  0.25000000  1
  In  In12  1  0.75000000  0.83352901  0.25000000  1
  In  In13  1  0.25000000  0.66647099  0.75000000  1
  In  In14  1  0.25000000  0.16647099  0.75000000  1
  In  In15  1  0.75000000  0.33352901  0.25000000  1
  Se  Se16  1  0.96765812  0.05831977  0.37145266  1
  Se  Se17  1  0.53234188  0.05831977  0.12854734  1
  Se  Se18  1  0.03234188  0.44168023  0.87145266  1
  Se  Se19  1  0.46765812  0.44168023  0.62854734  1
  Se  Se20  1  0.03234188  0.94168023  0.62854734  1
  Se  Se21  1  0.46765812  0.94168023  0.87145266  1
  Se  Se22  1  0.96765812  0.55831977  0.12854734  1
  Se  Se23  1  0.53234188  0.55831977  0.37145266  1
  Se  Se24  1  0.50993783  0.22991098  0.46044504  1
  Se  Se25  1  0.99006217  0.22991098  0.03955496  1
  Se  Se26  1  0.49006217  0.27008902  0.96044504  1
  Se  Se27  1  0.00993783  0.27008902  0.53955496  1
  Se  Se28  1  0.49006217  0.77008902  0.53955496  1
  Se  Se29  1  0.00993783  0.77008902  0.96044504  1
  Se  Se30  1  0.50993783  0.72991098  0.03955496  1
  Se  Se31  1  0.99006217  0.72991098  0.46044504  1
  O  O32  1  0.04071451  0.09576216  0.25533474  1
  O  O33  1  0.45928549  0.09576216  0.24466526  1
  O  O34  1  0.95928549  0.40423784  0.75533474  1
  O  O35  1  0.54071451  0.40423784  0.74466526  1
  O  O36  1  0.95928549  0.90423784  0.74466526  1
  O  O37  1  0.54071451  0.90423784  0.75533474  1
  O  O38  1  0.04071451  0.59576216  0.24466526  1
  O  O39  1  0.45928549  0.59576216  0.25533474  1
  O  O40  1  0.14567832  0.97203662  0.40069395  1
  O  O41  1  0.35432168  0.97203662  0.09930605  1
  O  O42  1  0.85432168  0.52796338  0.90069395  1
  O  O43  1  0.64567832  0.52796338  0.59930605  1
  O  O44  1  0.85432168  0.02796338  0.59930605  1
  O  O45  1  0.64567832  0.02796338  0.90069395  1
  O  O46  1  0.14567832  0.47203662  0.09930605  1
  O  O47  1  0.35432168  0.47203662  0.40069395  1
  O  O48  1  0.77934341  0.97336922  0.35198981  1
  O  O49  1  0.72065659  0.97336922  0.14801019  1
  O  O50  1  0.22065659  0.52663078  0.85198981  1
  O  O51  1  0.27934341  0.52663078  0.64801019  1
  O  O52  1  0.22065659  0.02663078  0.64801019  1
  O  O53  1  0.27934341  0.02663078  0.85198981  1
  O  O54  1  0.77934341  0.47336922  0.14801019  1
  O  O55  1  0.72065659  0.47336922  0.35198981  1
  O  O56  1  0.52868882  0.09712866  0.48638688  1
  O  O57  1  0.97131118  0.09712866  0.01361312  1
  O  O58  1  0.47131118  0.40287134  0.98638688  1
  O  O59  1  0.02868882  0.40287134  0.51361312  1
  O  O60  1  0.47131118  0.90287134  0.51361312  1
  O  O61  1  0.02868882  0.90287134  0.98638688  1
  O  O62  1  0.52868882  0.59712866  0.01361312  1
  O  O63  1  0.97131118  0.59712866  0.48638688  1
  O  O64  1  0.29814004  0.21824278  0.39781040  1
  O  O65  1  0.20185996  0.21824278  0.10218960  1
  O  O66  1  0.70185996  0.28175722  0.89781040  1
  O  O67  1  0.79814004  0.28175722  0.60218960  1
  O  O68  1  0.70185996  0.78175722  0.60218960  1
  O  O69  1  0.79814004  0.78175722  0.89781040  1
  O  O70  1  0.29814004  0.71824278  0.10218960  1
  O  O71  1  0.20185996  0.71824278  0.39781040  1
  O  O72  1  0.68442202  0.23616573  0.37507386  1
  O  O73  1  0.81557798  0.23616573  0.12492614  1
  O  O74  1  0.31557798  0.26383427  0.87507386  1
  O  O75  1  0.18442202  0.26383427  0.62492614  1
  O  O76  1  0.31557798  0.76383427  0.62492614  1
  O  O77  1  0.18442202  0.76383427  0.87507386  1
  O  O78  1  0.68442202  0.73616573  0.12492614  1
  O  O79  1  0.81557798  0.73616573  0.37507386  1
  O  O80  1  0.46792035  0.84965391  0.29245408  1
  O  O81  1  0.03207965  0.84965391  0.20754592  1
  O  O82  1  0.53207965  0.65034609  0.79245408  1
  O  O83  1  0.96792035  0.65034609  0.70754592  1
  O  O84  1  0.53207965  0.15034609  0.70754592  1
  O  O85  1  0.96792035  0.15034609  0.79245408  1
  O  O86  1  0.46792035  0.34965391  0.20754592  1
  O  O87  1  0.03207965  0.34965391  0.29245408  1
