# generated using pymatgen
data_Lu2S3
_symmetry_space_group_name_H-M   'P 1'
_cell_length_a   6.70782039
_cell_length_b   6.70782039
_cell_length_c   18.35412128
_cell_angle_alpha   90.00000000
_cell_angle_beta   90.00000000
_cell_angle_gamma   119.99999891
_symmetry_Int_Tables_number   1
_chemical_formula_structural   Lu2S3
_chemical_formula_sum   'Lu12 S18'
_cell_volume   715.19930573
_cell_formula_units_Z   6
loop_
 _symmetry_equiv_pos_site_id
 _symmetry_equiv_pos_as_xyz
  1  'x, y, z'
loop_
 _atom_site_type_symbol
 _atom_site_label
 _atom_site_symmetry_multiplicity
 _atom_site_fract_x
 _atom_site_fract_y
 _atom_site_fract_z
 _atom_site_occupancy
  Lu  Lu0  1  -0.00000000  -0.00000000  0.45547374  1
  Lu  Lu1  1  -0.00000000  -0.00000000  0.95547374  1
  Lu  Lu2  1  -0.00000000  -0.00000000  0.15665026  1
  Lu  Lu3  1  -0.00000000  -0.00000000  0.65665026  1
  Lu  Lu4  1  0.66666700  0.33333300  0.49012714  1
  Lu  Lu5  1  0.33333300  0.66666700  0.49012714  1
  Lu  Lu6  1  0.33333300  0.66666700  0.99012714  1
  Lu  Lu7  1  0.66666700  0.33333300  0.99012714  1
  Lu  Lu8  1  0.66666700  0.33333300  0.29202134  1
  Lu  Lu9  1  0.33333300  0.66666700  0.29202134  1
  Lu  Lu10  1  0.33333300  0.66666700  0.79202134  1
  Lu  Lu11  1  0.66666700  0.33333300  0.79202134  1
  S  S12  1  0.63371778  0.00000000  0.39460392  1
  S  S13  1  0.36628222  0.36628222  0.39460392  1
  S  S14  1  0.00000000  0.63371778  0.39460392  1
  S  S15  1  0.36628222  -0.00000000  0.89460392  1
  S  S16  1  0.63371778  0.63371778  0.89460392  1
  S  S17  1  -0.00000000  0.36628222  0.89460392  1
  S  S18  1  0.69696002  -0.00000000  0.05217740  1
  S  S19  1  0.30303998  0.30303998  0.05217740  1
  S  S20  1  -0.00000000  0.69696002  0.05217740  1
  S  S21  1  0.30303998  0.00000000  0.55217740  1
  S  S22  1  0.69696002  0.69696002  0.55217740  1
  S  S23  1  0.00000000  0.30303998  0.55217740  1
  S  S24  1  0.33522600  0.00000000  0.22541403  1
  S  S25  1  0.66477400  0.66477400  0.22541403  1
  S  S26  1  0.00000000  0.33522600  0.22541403  1
  S  S27  1  0.66477400  -0.00000000  0.72541403  1
  S  S28  1  0.33522600  0.33522600  0.72541403  1
  S  S29  1  -0.00000000  0.66477400  0.72541403  1
