# generated using pymatgen
data_HoSbO4
_symmetry_space_group_name_H-M   'P 1'
_cell_length_a   5.31466721
_cell_length_b   7.45557207
_cell_length_c   7.56190050
_cell_angle_alpha   81.26763429
_cell_angle_beta   90.00000000
_cell_angle_gamma   90.00000000
_symmetry_Int_Tables_number   1
_chemical_formula_structural   HoSbO4
_chemical_formula_sum   'Ho4 Sb4 O16'
_cell_volume   296.15862366
_cell_formula_units_Z   4
loop_
 _symmetry_equiv_pos_site_id
 _symmetry_equiv_pos_as_xyz
  1  'x, y, z'
loop_
 _atom_site_type_symbol
 _atom_site_label
 _atom_site_symmetry_multiplicity
 _atom_site_fract_x
 _atom_site_fract_y
 _atom_site_fract_z
 _atom_site_occupancy
  Ho  Ho0  1  0.72560253  0.88890474  0.35562347  1
  Ho  Ho1  1  0.27439747  0.11109526  0.64437653  1
  Ho  Ho2  1  0.77439747  0.38890474  0.35562347  1
  Ho  Ho3  1  0.22560253  0.61109526  0.64437653  1
  Sb  Sb4  1  0.76887604  0.30718682  0.83646756  1
  Sb  Sb5  1  0.23112396  0.69281318  0.16353244  1
  Sb  Sb6  1  0.26887604  0.19281318  0.16353244  1
  Sb  Sb7  1  0.73112396  0.80718682  0.83646756  1
  O  O8  1  0.90612718  0.80791683  0.06730229  1
  O  O9  1  0.09387282  0.19208317  0.93269771  1
  O  O10  1  0.38198330  0.93851135  0.17072497  1
  O  O11  1  0.61801670  0.06148865  0.82927503  1
  O  O12  1  0.11801670  0.43851135  0.17072497  1
  O  O13  1  0.88198330  0.56148865  0.82927503  1
  O  O14  1  0.59387282  0.30791683  0.06730229  1
  O  O15  1  0.40612718  0.69208317  0.93269771  1
  O  O16  1  0.97649935  0.32521035  0.61306683  1
  O  O17  1  0.02350065  0.67478965  0.38693317  1
  O  O18  1  0.47649935  0.17478965  0.38693317  1
  O  O19  1  0.52350065  0.82521035  0.61306683  1
  O  O20  1  0.51105620  0.61866404  0.32289365  1
  O  O21  1  0.48894380  0.38133596  0.67710635  1
  O  O22  1  0.98894380  0.11866404  0.32289365  1
  O  O23  1  0.01105620  0.88133596  0.67710635  1
