# generated using pymatgen
data_Ba2MnTe3
_symmetry_space_group_name_H-M   'P 1'
_cell_length_a   4.79100980
_cell_length_b   9.84252997
_cell_length_c   19.16222817
_cell_angle_alpha   90.00000000
_cell_angle_beta   90.00000000
_cell_angle_gamma   90.00000000
_symmetry_Int_Tables_number   1
_chemical_formula_structural   Ba2MnTe3
_chemical_formula_sum   'Ba8 Mn4 Te12'
_cell_volume   903.60746935
_cell_formula_units_Z   4
loop_
 _symmetry_equiv_pos_site_id
 _symmetry_equiv_pos_as_xyz
  1  'x, y, z'
loop_
 _atom_site_type_symbol
 _atom_site_label
 _atom_site_symmetry_multiplicity
 _atom_site_fract_x
 _atom_site_fract_y
 _atom_site_fract_z
 _atom_site_occupancy
  Ba  Ba0  1  0.75000000  0.41767148  0.78733872  1
  Ba  Ba1  1  0.25000000  0.58232852  0.21266128  1
  Ba  Ba2  1  0.75000000  0.91767148  0.71266128  1
  Ba  Ba3  1  0.25000000  0.08232852  0.28733872  1
  Ba  Ba4  1  0.25000000  0.24965236  0.54140846  1
  Ba  Ba5  1  0.75000000  0.75034764  0.45859154  1
  Ba  Ba6  1  0.25000000  0.74965236  0.95859154  1
  Ba  Ba7  1  0.75000000  0.25034764  0.04140846  1
  Mn  Mn8  1  0.25000000  0.13241106  0.86429518  1
  Mn  Mn9  1  0.75000000  0.86758894  0.13570482  1
  Mn  Mn10  1  0.75000000  0.36758894  0.36429518  1
  Mn  Mn11  1  0.25000000  0.63241106  0.63570482  1
  Te  Te12  1  0.25000000  0.99921037  0.10129211  1
  Te  Te13  1  0.25000000  0.68317642  0.77559451  1
  Te  Te14  1  0.75000000  0.81682358  0.27559451  1
  Te  Te15  1  0.75000000  0.31682358  0.22440549  1
  Te  Te16  1  0.75000000  0.12126576  0.42837464  1
  Te  Te17  1  0.25000000  0.87873424  0.57162536  1
  Te  Te18  1  0.75000000  0.62126576  0.07162536  1
  Te  Te19  1  0.25000000  0.37873424  0.92837464  1
  Te  Te20  1  0.75000000  0.50078963  0.60129211  1
  Te  Te21  1  0.25000000  0.49921037  0.39870789  1
  Te  Te22  1  0.25000000  0.18317642  0.72440549  1
  Te  Te23  1  0.75000000  0.00078963  0.89870789  1
