# generated using pymatgen
data_CsNaNbOF5
_symmetry_space_group_name_H-M   'P 1'
_cell_length_a   8.59556679
_cell_length_b   11.40861923
_cell_length_c   13.53601475
_cell_angle_alpha   90.00000000
_cell_angle_beta   90.00000000
_cell_angle_gamma   90.00000000
_symmetry_Int_Tables_number   1
_chemical_formula_structural   CsNaNbOF5
_chemical_formula_sum   'Cs8 Na8 Nb8 O8 F40'
_cell_volume   1327.38963992
_cell_formula_units_Z   8
loop_
 _symmetry_equiv_pos_site_id
 _symmetry_equiv_pos_as_xyz
  1  'x, y, z'
loop_
 _atom_site_type_symbol
 _atom_site_label
 _atom_site_symmetry_multiplicity
 _atom_site_fract_x
 _atom_site_fract_y
 _atom_site_fract_z
 _atom_site_occupancy
  Cs  Cs0  1  0.00000000  0.75000000  0.58088534  1
  Cs  Cs1  1  0.00000000  0.25000000  0.41911466  1
  Cs  Cs2  1  0.50000000  0.25000000  0.91911466  1
  Cs  Cs3  1  0.50000000  0.75000000  0.08088534  1
  Cs  Cs4  1  0.00000000  0.75000000  0.11711114  1
  Cs  Cs5  1  0.00000000  0.25000000  0.88288886  1
  Cs  Cs6  1  0.50000000  0.25000000  0.38288886  1
  Cs  Cs7  1  0.50000000  0.75000000  0.61711114  1
  Na  Na8  1  0.75382579  0.57665220  0.85271273  1
  Na  Na9  1  0.24617421  0.42334780  0.14728727  1
  Na  Na10  1  0.74617421  0.07665220  0.64728727  1
  Na  Na11  1  0.24617421  0.92334780  0.85271273  1
  Na  Na12  1  0.25382579  0.92334780  0.35271273  1
  Na  Na13  1  0.75382579  0.07665220  0.14728727  1
  Na  Na14  1  0.25382579  0.42334780  0.64728727  1
  Na  Na15  1  0.74617421  0.57665220  0.35271273  1
  Nb  Nb16  1  0.75473737  0.91462431  0.86724165  1
  Nb  Nb17  1  0.24526263  0.08537569  0.13275835  1
  Nb  Nb18  1  0.74526263  0.41462431  0.63275835  1
  Nb  Nb19  1  0.24526263  0.58537569  0.86724165  1
  Nb  Nb20  1  0.25473737  0.58537569  0.36724165  1
  Nb  Nb21  1  0.75473737  0.41462431  0.13275835  1
  Nb  Nb22  1  0.25473737  0.08537569  0.63275835  1
  Nb  Nb23  1  0.74526263  0.91462431  0.36724165  1
  O  O24  1  0.78027232  0.76865690  0.91112318  1
  O  O25  1  0.21972768  0.23134310  0.08887682  1
  O  O26  1  0.71972768  0.26865690  0.58887682  1
  O  O27  1  0.21972768  0.73134310  0.91112318  1
  O  O28  1  0.28027232  0.73134310  0.41112318  1
  O  O29  1  0.78027232  0.26865690  0.08887682  1
  O  O30  1  0.28027232  0.23134310  0.58887682  1
  O  O31  1  0.71972768  0.76865690  0.41112318  1
  F  F32  1  0.97611588  0.96274257  0.87714315  1
  F  F33  1  0.02388412  0.03725743  0.12285685  1
  F  F34  1  0.52388412  0.46274257  0.62285685  1
  F  F35  1  0.02388412  0.53725743  0.87714315  1
  F  F36  1  0.47611588  0.53725743  0.37714315  1
  F  F37  1  0.97611588  0.46274257  0.12285685  1
  F  F38  1  0.47611588  0.03725743  0.62285685  1
  F  F39  1  0.52388412  0.96274257  0.37714315  1
  F  F40  1  0.77253433  0.59095685  0.68605899  1
  F  F41  1  0.22746567  0.40904315  0.31394101  1
  F  F42  1  0.72746567  0.09095685  0.81394101  1
  F  F43  1  0.22746567  0.90904315  0.68605899  1
  F  F44  1  0.27253433  0.90904315  0.18605899  1
  F  F45  1  0.77253433  0.09095685  0.31394101  1
  F  F46  1  0.27253433  0.40904315  0.81394101  1
  F  F47  1  0.72746567  0.59095685  0.18605899  1
  F  F48  1  0.52592068  0.90226668  0.84818588  1
  F  F49  1  0.47407932  0.09773332  0.15181412  1
  F  F50  1  0.97407932  0.40226668  0.65181412  1
  F  F51  1  0.47407932  0.59773332  0.84818588  1
  F  F52  1  0.02592068  0.59773332  0.34818588  1
  F  F53  1  0.52592068  0.40226668  0.15181412  1
  F  F54  1  0.02592068  0.09773332  0.65181412  1
  F  F55  1  0.97407932  0.90226668  0.34818588  1
  F  F56  1  0.71197457  0.98707701  0.99792479  1
  F  F57  1  0.28802543  0.01292299  0.00207521  1
  F  F58  1  0.78802543  0.48707701  0.50207521  1
  F  F59  1  0.28802543  0.51292299  0.99792479  1
  F  F60  1  0.21197457  0.51292299  0.49792479  1
  F  F61  1  0.71197457  0.48707701  0.00207521  1
  F  F62  1  0.21197457  0.01292299  0.50207521  1
  F  F63  1  0.78802543  0.98707701  0.49792479  1
  F  F64  1  0.77848100  0.88335177  0.72237274  1
  F  F65  1  0.22151900  0.11664823  0.27762726  1
  F  F66  1  0.72151900  0.38335177  0.77762726  1
  F  F67  1  0.22151900  0.61664823  0.72237274  1
  F  F68  1  0.27848100  0.61664823  0.22237274  1
  F  F69  1  0.77848100  0.38335177  0.27762726  1
  F  F70  1  0.27848100  0.11664823  0.77762726  1
  F  F71  1  0.72151900  0.88335177  0.22237274  1
