# generated using pymatgen
data_K3Ge4Au
_symmetry_space_group_name_H-M   'P 1'
_cell_length_a   6.10032551
_cell_length_b   6.69389591
_cell_length_c   11.91253685
_cell_angle_alpha   90.00000000
_cell_angle_beta   90.00000000
_cell_angle_gamma   90.00000000
_symmetry_Int_Tables_number   1
_chemical_formula_structural   K3Ge4Au
_chemical_formula_sum   'K6 Ge8 Au2'
_cell_volume   486.44777494
_cell_formula_units_Z   2
loop_
 _symmetry_equiv_pos_site_id
 _symmetry_equiv_pos_as_xyz
  1  'x, y, z'
loop_
 _atom_site_type_symbol
 _atom_site_label
 _atom_site_symmetry_multiplicity
 _atom_site_fract_x
 _atom_site_fract_y
 _atom_site_fract_z
 _atom_site_occupancy
  K  K0  1  0.42287836  0.75000000  0.75000000  1
  K  K1  1  0.57712164  0.25000000  0.25000000  1
  K  K2  1  0.16582605  0.25000000  0.48582328  1
  K  K3  1  0.16582605  0.25000000  0.01417672  1
  K  K4  1  0.83417395  0.75000000  0.51417672  1
  K  K5  1  0.83417395  0.75000000  0.98582328  1
  Ge  Ge6  1  0.94321368  0.45390334  0.75000000  1
  Ge  Ge7  1  0.67371243  0.25000000  0.86561784  1
  Ge  Ge8  1  0.32628757  0.75000000  0.36561784  1
  Ge  Ge9  1  0.32628757  0.75000000  0.13438216  1
  Ge  Ge10  1  0.05678632  0.95390334  0.25000000  1
  Ge  Ge11  1  0.05678632  0.54609666  0.25000000  1
  Ge  Ge12  1  0.67371243  0.25000000  0.63438216  1
  Ge  Ge13  1  0.94321368  0.04609666  0.75000000  1
  Au  Au14  1  0.68906555  0.75000000  0.25000000  1
  Au  Au15  1  0.31093445  0.25000000  0.75000000  1
