# generated using pymatgen
data_P4S3
_symmetry_space_group_name_H-M   'P 1'
_cell_length_a   9.86439925
_cell_length_b   10.70208572
_cell_length_c   14.25791374
_cell_angle_alpha   90.00000000
_cell_angle_beta   90.00000000
_cell_angle_gamma   90.00000000
_symmetry_Int_Tables_number   1
_chemical_formula_structural   P4S3
_chemical_formula_sum   'P32 S24'
_cell_volume   1505.20291122
_cell_formula_units_Z   8
loop_
 _symmetry_equiv_pos_site_id
 _symmetry_equiv_pos_as_xyz
  1  'x, y, z'
loop_
 _atom_site_type_symbol
 _atom_site_label
 _atom_site_symmetry_multiplicity
 _atom_site_fract_x
 _atom_site_fract_y
 _atom_site_fract_z
 _atom_site_occupancy
  P  P0  1  0.86301325  0.04796320  0.24282979  1
  P  P1  1  0.36301325  0.95203680  0.75717021  1
  P  P2  1  0.63698675  0.54796320  0.25717021  1
  P  P3  1  0.13698675  0.45203680  0.74282979  1
  P  P4  1  0.13698675  0.95203680  0.75717021  1
  P  P5  1  0.63698675  0.04796320  0.24282979  1
  P  P6  1  0.36301325  0.45203680  0.74282979  1
  P  P7  1  0.86301325  0.54796320  0.25717021  1
  P  P8  1  0.25000000  0.79200730  0.82106852  1
  P  P9  1  0.75000000  0.20799270  0.17893148  1
  P  P10  1  0.25000000  0.29200730  0.67893148  1
  P  P11  1  0.75000000  0.70799270  0.32106852  1
  P  P12  1  0.86342484  0.73009449  0.83998987  1
  P  P13  1  0.36342484  0.26990551  0.16001013  1
  P  P14  1  0.63657516  0.23009449  0.66001013  1
  P  P15  1  0.13657516  0.76990551  0.33998987  1
  P  P16  1  0.13657516  0.26990551  0.16001013  1
  P  P17  1  0.63657516  0.73009449  0.83998987  1
  P  P18  1  0.36342484  0.76990551  0.33998987  1
  P  P19  1  0.86342484  0.23009449  0.66001013  1
  P  P20  1  0.25000000  0.47717484  0.00967587  1
  P  P21  1  0.75000000  0.52282516  0.99032613  1
  P  P22  1  0.25000000  0.97717484  0.49032413  1
  P  P23  1  0.75000000  0.02282516  0.50967387  1
  P  P24  1  0.75000000  0.07967924  0.73580335  1
  P  P25  1  0.25000000  0.92032076  0.26419665  1
  P  P26  1  0.75000000  0.57967924  0.76419665  1
  P  P27  1  0.25000000  0.42032076  0.23580335  1
  P  P28  1  0.75000000  0.46830445  0.46502172  1
  P  P29  1  0.25000000  0.53169555  0.53497828  1
  P  P30  1  0.75000000  0.96830445  0.03497828  1
  P  P31  1  0.25000000  0.03169555  0.96502172  1
  S  S32  1  0.91246711  0.64751107  0.96819301  1
  S  S33  1  0.41246711  0.35248893  0.03180699  1
  S  S34  1  0.58753289  0.14751107  0.53180699  1
  S  S35  1  0.08753289  0.85248893  0.46819301  1
  S  S36  1  0.08753289  0.35248893  0.03180699  1
  S  S37  1  0.58753289  0.64751107  0.96819301  1
  S  S38  1  0.41246711  0.85248893  0.46819301  1
  S  S39  1  0.91246711  0.14751107  0.53180699  1
  S  S40  1  0.91319208  0.93657954  0.12763467  1
  S  S41  1  0.41319208  0.06342046  0.87236433  1
  S  S42  1  0.58680792  0.43657954  0.37236433  1
  S  S43  1  0.08680792  0.56342046  0.62763567  1
  S  S44  1  0.08680792  0.06342046  0.87236433  1
  S  S45  1  0.58680792  0.93657954  0.12763467  1
  S  S46  1  0.41319208  0.56342046  0.62763567  1
  S  S47  1  0.91319208  0.43657954  0.37236433  1
  S  S48  1  0.25000000  0.83489249  0.96425026  1
  S  S49  1  0.75000000  0.16510751  0.03574974  1
  S  S50  1  0.25000000  0.33489249  0.53574974  1
  S  S51  1  0.75000000  0.66510751  0.46425026  1
  S  S52  1  0.25000000  0.56849451  0.14051916  1
  S  S53  1  0.75000000  0.43150549  0.85948084  1
  S  S54  1  0.25000000  0.06849451  0.35948084  1
  S  S55  1  0.75000000  0.93150549  0.64051916  1
