# generated using pymatgen
data_Ca(RhO2)2
_symmetry_space_group_name_H-M   'P 1'
_cell_length_a   3.12277276
_cell_length_b   9.03738845
_cell_length_c   10.78767953
_cell_angle_alpha   90.00000000
_cell_angle_beta   90.00000000
_cell_angle_gamma   90.00000000
_symmetry_Int_Tables_number   1
_chemical_formula_structural   Ca(RhO2)2
_chemical_formula_sum   'Ca4 Rh8 O16'
_cell_volume   304.44676837
_cell_formula_units_Z   4
loop_
 _symmetry_equiv_pos_site_id
 _symmetry_equiv_pos_as_xyz
  1  'x, y, z'
loop_
 _atom_site_type_symbol
 _atom_site_label
 _atom_site_symmetry_multiplicity
 _atom_site_fract_x
 _atom_site_fract_y
 _atom_site_fract_z
 _atom_site_occupancy
  Ca  Ca0  1  0.75000000  0.26538195  0.16124279  1
  Ca  Ca1  1  0.25000000  0.73461805  0.83875721  1
  Ca  Ca2  1  0.75000000  0.76538195  0.33875721  1
  Ca  Ca3  1  0.25000000  0.23461805  0.66124279  1
  Rh  Rh4  1  0.25000000  0.09126278  0.40188769  1
  Rh  Rh5  1  0.75000000  0.90873722  0.59811231  1
  Rh  Rh6  1  0.25000000  0.59126278  0.09811231  1
  Rh  Rh7  1  0.75000000  0.40873722  0.90188769  1
  Rh  Rh8  1  0.75000000  0.44710558  0.38387488  1
  Rh  Rh9  1  0.25000000  0.55289442  0.61612512  1
  Rh  Rh10  1  0.75000000  0.94710558  0.11612512  1
  Rh  Rh11  1  0.25000000  0.05289442  0.88387488  1
  O  O12  1  0.25000000  0.08780644  0.07323338  1
  O  O13  1  0.75000000  0.91219356  0.92676662  1
  O  O14  1  0.25000000  0.58780644  0.42676662  1
  O  O15  1  0.75000000  0.41219356  0.57323338  1
  O  O16  1  0.25000000  0.45979498  0.78891690  1
  O  O17  1  0.75000000  0.54020502  0.21108310  1
  O  O18  1  0.25000000  0.95979498  0.71108310  1
  O  O19  1  0.75000000  0.04020502  0.28891690  1
  O  O20  1  0.25000000  0.38195065  0.02739753  1
  O  O21  1  0.75000000  0.61804935  0.97260247  1
  O  O22  1  0.25000000  0.88195065  0.47260247  1
  O  O23  1  0.75000000  0.11804935  0.52739753  1
  O  O24  1  0.75000000  0.19284046  0.83261103  1
  O  O25  1  0.25000000  0.80715954  0.16738897  1
  O  O26  1  0.75000000  0.69284046  0.66738897  1
  O  O27  1  0.25000000  0.30715954  0.33261103  1
