# generated using pymatgen
data_Lu2MgSe4
_symmetry_space_group_name_H-M   'P 1'
_cell_length_a   13.05308500
_cell_length_b   7.76071377
_cell_length_c   13.33153502
_cell_angle_alpha   90.00000000
_cell_angle_beta   90.00000000
_cell_angle_gamma   90.00000000
_symmetry_Int_Tables_number   1
_chemical_formula_structural   Lu2MgSe4
_chemical_formula_sum   'Lu16 Mg8 Se32'
_cell_volume   1350.50124861
_cell_formula_units_Z   8
loop_
 _symmetry_equiv_pos_site_id
 _symmetry_equiv_pos_as_xyz
  1  'x, y, z'
loop_
 _atom_site_type_symbol
 _atom_site_label
 _atom_site_symmetry_multiplicity
 _atom_site_fract_x
 _atom_site_fract_y
 _atom_site_fract_z
 _atom_site_occupancy
  Lu  Lu0  1  0.10785918  0.88223161  0.68641747  1
  Lu  Lu1  1  0.89214082  0.11776839  0.18641747  1
  Lu  Lu2  1  0.39214082  0.88223161  0.18641747  1
  Lu  Lu3  1  0.60785918  0.11776839  0.68641747  1
  Lu  Lu4  1  0.12798085  0.38040799  0.32606001  1
  Lu  Lu5  1  0.87201915  0.61959201  0.82606001  1
  Lu  Lu6  1  0.37201915  0.38040799  0.82606001  1
  Lu  Lu7  1  0.62798085  0.61959201  0.32606001  1
  Lu  Lu8  1  0.13324858  0.62860267  0.98912759  1
  Lu  Lu9  1  0.86675142  0.37139733  0.48912759  1
  Lu  Lu10  1  0.36675142  0.62860267  0.48912759  1
  Lu  Lu11  1  0.63324858  0.37139733  0.98912759  1
  Lu  Lu12  1  0.13324273  0.12910130  0.98976877  1
  Lu  Lu13  1  0.86675727  0.87089870  0.48976877  1
  Lu  Lu14  1  0.36675727  0.12910130  0.48976877  1
  Lu  Lu15  1  0.63324273  0.87089870  0.98976877  1
  Mg  Mg16  1  0.11015859  0.38074615  0.68937341  1
  Mg  Mg17  1  0.88984141  0.61925385  0.18937341  1
  Mg  Mg18  1  0.38984141  0.38074615  0.18937341  1
  Mg  Mg19  1  0.61015859  0.61925385  0.68937341  1
  Mg  Mg20  1  0.12663213  0.87823480  0.32156708  1
  Mg  Mg21  1  0.87336787  0.12176520  0.82156708  1
  Mg  Mg22  1  0.37336787  0.87823480  0.82156708  1
  Mg  Mg23  1  0.62663213  0.12176520  0.32156708  1
  Se  Se24  1  0.01417849  0.87570229  0.87654906  1
  Se  Se25  1  0.98582151  0.12429771  0.37654906  1
  Se  Se26  1  0.48582151  0.87570229  0.37654906  1
  Se  Se27  1  0.51417849  0.12429771  0.87654906  1
  Se  Se28  1  0.03697686  0.37372949  0.13109995  1
  Se  Se29  1  0.96302314  0.62627051  0.63109995  1
  Se  Se30  1  0.46302314  0.37372949  0.63109995  1
  Se  Se31  1  0.53697686  0.62627051  0.13109995  1
  Se  Se32  1  0.01976649  0.37438253  0.87016626  1
  Se  Se33  1  0.98023351  0.62561747  0.37016626  1
  Se  Se34  1  0.48023351  0.37438253  0.37016626  1
  Se  Se35  1  0.51976649  0.62561747  0.87016626  1
  Se  Se36  1  0.04041412  0.87305298  0.13498599  1
  Se  Se37  1  0.95958588  0.12694702  0.63498599  1
  Se  Se38  1  0.45958588  0.87305298  0.63498599  1
  Se  Se39  1  0.54041412  0.12694702  0.13498599  1
  Se  Se40  1  0.21360648  0.87936724  0.50623530  1
  Se  Se41  1  0.78639352  0.12063276  0.00623530  1
  Se  Se42  1  0.28639352  0.87936724  0.00623530  1
  Se  Se43  1  0.71360648  0.12063276  0.50623530  1
  Se  Se44  1  0.21402975  0.37934339  0.51671448  1
  Se  Se45  1  0.78597025  0.62065661  0.01671448  1
  Se  Se46  1  0.28597025  0.37934339  0.01671448  1
  Se  Se47  1  0.71402975  0.62065661  0.51671448  1
  Se  Se48  1  0.23049398  0.12759557  0.77967444  1
  Se  Se49  1  0.76950602  0.87240443  0.27967444  1
  Se  Se50  1  0.26950602  0.12759557  0.27967444  1
  Se  Se51  1  0.73049398  0.87240443  0.77967444  1
  Se  Se52  1  0.23032756  0.63114686  0.77926119  1
  Se  Se53  1  0.76967244  0.36885314  0.27926119  1
  Se  Se54  1  0.26967244  0.63114686  0.27926119  1
  Se  Se55  1  0.73032756  0.36885314  0.77926119  1
