# generated using pymatgen
data_Ca4ZnFe3(SiO3)8
_symmetry_space_group_name_H-M   'P 1'
_cell_length_a   8.97943593
_cell_length_b   5.24004595
_cell_length_c   9.84047468
_cell_angle_alpha   75.32351335
_cell_angle_beta   90.00000000
_cell_angle_gamma   90.00000000
_symmetry_Int_Tables_number   1
_chemical_formula_structural   Ca4ZnFe3(SiO3)8
_chemical_formula_sum   'Ca4 Zn1 Fe3 Si8 O24'
_cell_volume   447.91295819
_cell_formula_units_Z   1
loop_
 _symmetry_equiv_pos_site_id
 _symmetry_equiv_pos_as_xyz
  1  'x, y, z'
loop_
 _atom_site_type_symbol
 _atom_site_label
 _atom_site_symmetry_multiplicity
 _atom_site_fract_x
 _atom_site_fract_y
 _atom_site_fract_z
 _atom_site_occupancy
  Ca  Ca0  1  0.20135684  0.50000000  0.50000000  1
  Ca  Ca1  1  0.69910671  0.50000000  -0.00000000  1
  Ca  Ca2  1  0.80148839  0.00000000  0.50000000  1
  Ca  Ca3  1  0.30109857  0.00000000  -0.00000000  1
  Zn  Zn4  1  0.59300489  0.50000000  0.50000000  1
  Fe  Fe5  1  0.08885402  0.50000000  -0.00000000  1
  Fe  Fe6  1  0.40774302  0.00000000  0.50000000  1
  Fe  Fe7  1  0.91114206  0.00000000  -0.00000000  1
  Si  Si8  1  0.90559889  0.51667239  0.28835125  1
  Si  Si9  1  0.40754453  0.51960023  0.78742326  1
  Si  Si10  1  0.90559889  0.48332761  0.71164875  1
  Si  Si11  1  0.40754453  0.48039977  0.21257674  1
  Si  Si12  1  0.09213079  0.98311219  0.71175892  1
  Si  Si13  1  0.59379717  0.97939168  0.21318180  1
  Si  Si14  1  0.09213079  0.01688781  0.28824108  1
  Si  Si15  1  0.59379717  0.02060832  0.78681820  1
  O  O16  1  0.97894627  0.75673612  0.35064901  1
  O  O17  1  0.48058313  0.76057215  0.84921248  1
  O  O18  1  0.97894627  0.24326388  0.64935099  1
  O  O19  1  0.48058313  0.23942785  0.15078752  1
  O  O20  1  0.01884434  0.74335573  0.64936264  1
  O  O21  1  0.52055576  0.74062479  0.14969263  1
  O  O22  1  0.01884434  0.25664427  0.35063736  1
  O  O23  1  0.52055576  0.25937521  0.85030737  1
  O  O24  1  0.90852103  0.59606192  0.11985374  1
  O  O25  1  0.41117050  0.59829707  0.61895637  1
  O  O26  1  0.90852103  0.40393808  0.88014626  1
  O  O27  1  0.41117050  0.40170293  0.38104363  1
  O  O28  1  0.09113029  0.90411816  0.88019798  1
  O  O29  1  0.59094859  0.89687534  0.38211953  1
  O  O30  1  0.09113029  0.09588184  0.11980202  1
  O  O31  1  0.59094859  0.10312466  0.61788047  1
  O  O32  1  0.75038500  0.42434644  0.36264907  1
  O  O33  1  0.25256881  0.42909735  0.86315587  1
  O  O34  1  0.75038500  0.57565356  0.63735093  1
  O  O35  1  0.25256881  0.57090265  0.13684413  1
  O  O36  1  0.24689480  0.07302049  0.63607236  1
  O  O37  1  0.74848385  0.07102948  0.13731327  1
  O  O38  1  0.24689480  0.92697951  0.36392764  1
  O  O39  1  0.74848385  0.92897052  0.86268673  1
