# generated using pymatgen
data_MgV5(MoO5)5
_symmetry_space_group_name_H-M   'P 1'
_cell_length_a   19.68834843
_cell_length_b   5.60393883
_cell_length_c   6.46831945
_cell_angle_alpha   102.94639614
_cell_angle_beta   108.37116875
_cell_angle_gamma   45.25594991
_symmetry_Int_Tables_number   1
_chemical_formula_structural   MgV5(MoO5)5
_chemical_formula_sum   'Mg1 V5 Mo5 O25'
_cell_volume   481.05019985
_cell_formula_units_Z   1
loop_
 _symmetry_equiv_pos_site_id
 _symmetry_equiv_pos_as_xyz
  1  'x, y, z'
loop_
 _atom_site_type_symbol
 _atom_site_label
 _atom_site_symmetry_multiplicity
 _atom_site_fract_x
 _atom_site_fract_y
 _atom_site_fract_z
 _atom_site_occupancy
  Mg  Mg0  1  0.90996900  0.08662400  0.29441400  1
  V  V1  1  0.03693200  0.16616400  0.60261600  1
  V  V2  1  0.22145700  0.19791100  0.60746300  1
  V  V3  1  0.40460300  0.97015500  0.98631100  1
  V  V4  1  0.59832300  0.96240400  0.98582400  1
  V  V5  1  0.78455100  0.99577400  0.99064400  1
  Mo  Mo6  1  0.99654000  0.03347200  0.97378300  1
  Mo  Mo7  1  0.20321700  0.01478900  0.00339500  1
  Mo  Mo8  1  0.41989200  0.16118700  0.59039600  1
  Mo  Mo9  1  0.62376600  0.13025700  0.59032800  1
  Mo  Mo10  1  0.82776900  0.12318200  0.61952700  1
  O  O11  1  0.00572600  0.09914800  0.29287200  1
  O  O12  1  0.08083200  0.09831500  0.92927000  1
  O  O13  1  0.14920700  0.10449700  0.66196300  1
  O  O14  1  0.08615200  0.59469600  0.98176000  1
  O  O15  1  0.21126300  0.10492700  0.29065800  1
  O  O16  1  0.13786800  0.61740900  0.59836900  1
  O  O17  1  0.27557500  0.08941100  0.93085100  1
  O  O18  1  0.34782500  0.08498300  0.65829200  1
  O  O19  1  0.28729300  0.57977500  0.00191200  1
  O  O20  1  0.41211200  0.07509600  0.30204800  1
  O  O21  1  0.33731800  0.59597500  0.59144200  1
  O  O22  1  0.47708000  0.05826800  0.92114100  1
  O  O23  1  0.54615400  0.06211400  0.65777500  1
  O  O24  1  0.48456100  0.55596700  0.99815200  1
  O  O25  1  0.61201800  0.04472500  0.30271000  1
  O  O26  1  0.53704800  0.56686500  0.59060800  1
  O  O27  1  0.67291400  0.05103500  0.92798600  1
  O  O28  1  0.74212600  0.05820600  0.65953700  1
  O  O29  1  0.68442100  0.54059600  0.99290200  1
  O  O30  1  0.81731000  0.06203800  0.29992200  1
  O  O31  1  0.73602800  0.56398200  0.61152900  1
  O  O32  1  0.88145600  0.06390900  0.95868400  1
  O  O33  1  0.94109300  0.09700100  0.63315400  1
  O  O34  1  0.87985600  0.56954000  0.98190600  1
  O  O35  1  0.94146400  0.59293900  0.61152800  1
