# generated using pymatgen
data_Mo(WS3)2
_symmetry_space_group_name_H-M   'P 1'
_cell_length_a   3.18470157
_cell_length_b   3.18470635
_cell_length_c   28.07782095
_cell_angle_alpha   90.00000568
_cell_angle_beta   90.00000000
_cell_angle_gamma   119.99993947
_symmetry_Int_Tables_number   1
_chemical_formula_structural   Mo(WS3)2
_chemical_formula_sum   'Mo1 W2 S6'
_cell_volume   246.62235054
_cell_formula_units_Z   1
loop_
 _symmetry_equiv_pos_site_id
 _symmetry_equiv_pos_as_xyz
  1  'x, y, z'
loop_
 _atom_site_type_symbol
 _atom_site_label
 _atom_site_symmetry_multiplicity
 _atom_site_fract_x
 _atom_site_fract_y
 _atom_site_fract_z
 _atom_site_occupancy
  Mo  Mo0  1  0.66664333  0.33328565  0.34698200  1
  W  W1  1  0.33333305  0.66666811  0.11593284  1
  W  W2  1  0.33333305  0.66666711  0.57803416  1
  S  S3  1  0.33330845  0.66661791  0.40222097  1
  S  S4  1  0.66666743  0.33333485  0.06039868  1
  S  S5  1  0.66666890  0.33333781  0.52248033  1
  S  S6  1  0.66666890  0.33333881  0.17148567  1
  S  S7  1  0.66666743  0.33333485  0.63356232  1
  S  S8  1  0.33330845  0.66661791  0.29174503  1
