# generated using pymatgen
data_MgH4C4S4(OF)12
_symmetry_space_group_name_H-M   'P 1'
_cell_length_a   5.79776997
_cell_length_b   8.45881997
_cell_length_c   11.42540974
_cell_angle_alpha   91.12395110
_cell_angle_beta   88.10560731
_cell_angle_gamma   101.74850230
_symmetry_Int_Tables_number   1
_chemical_formula_structural   MgH4C4S4(OF)12
_chemical_formula_sum   'Mg1 H4 C4 S4 O12 F12'
_cell_volume   548.24249213
_cell_formula_units_Z   1
loop_
 _symmetry_equiv_pos_site_id
 _symmetry_equiv_pos_as_xyz
  1  'x, y, z'
loop_
 _atom_site_type_symbol
 _atom_site_label
 _atom_site_symmetry_multiplicity
 _atom_site_fract_x
 _atom_site_fract_y
 _atom_site_fract_z
 _atom_site_occupancy
  Mg  Mg0  1  0.03469326  0.37038487  0.20352132  1
  H  H1  1  0.49571967  0.51076238  0.74212415  1
  H  H2  1  0.99297323  0.00929402  0.75510161  1
  H  H3  1  0.51416726  0.48604880  0.28452602  1
  H  H4  1  0.05933528  0.07044116  0.17355218  1
  C  C5  1  0.39350390  0.72983681  0.94117006  1
  C  C6  1  0.90863795  0.23491897  0.56224252  1
  C  C7  1  0.57475888  0.25682527  0.06010750  1
  C  C8  1  0.08918951  0.75258445  0.43746912  1
  S  S9  1  0.55867705  0.76153198  0.79562777  1
  S  S10  1  0.06258370  0.26021067  0.70619223  1
  S  S11  1  0.47782531  0.22618124  0.22401491  1
  S  S12  1  0.91179876  0.71113329  0.30035069  1
  O  O13  1  0.62855844  0.59390216  0.77560692  1
  O  O14  1  0.12745282  0.09130006  0.71964313  1
  O  O15  1  0.38598814  0.40015782  0.24530090  1
  O  O16  1  0.91296470  0.86672481  0.25092710  1
  O  O17  1  0.77463409  0.87550936  0.81818853  1
  O  O18  1  0.28184016  0.37295403  0.68400563  1
  O  O19  1  0.13411868  0.17754516  0.14547012  1
  O  O20  1  0.68282724  0.62190646  0.34455322  1
  O  O21  1  0.39474017  0.79267921  0.71251100  1
  O  O22  1  0.89367992  0.29160716  0.79313793  1
  O  O23  1  0.72270538  0.27378642  0.27505877  1
  O  O24  1  0.04249896  0.60865307  0.22759374  1
  F  F25  1  0.27548713  0.84923636  0.96084776  1
  F  F26  1  0.80655033  0.36212559  0.54759912  1
  F  F27  1  0.61387509  0.11571823  0.01783304  1
  F  F28  1  0.18354545  0.62393261  0.46240559  1
  F  F29  1  0.23675849  0.58726428  0.93714464  1
  F  F30  1  0.74245985  0.09820490  0.56338717  1
  F  F31  1  0.79072478  0.36784313  0.05661977  1
  F  F32  1  0.26470975  0.88298320  0.42287964  1
  F  F33  1  0.54339505  0.72649035  0.02819083  1
  F  F34  1  0.06587064  0.22736929  0.47332755  1
  F  F35  1  0.43568507  0.31671263  0.99001555  1
  F  F36  1  0.94756592  0.78095377  0.52841927  1
