# generated using pymatgen
data_Al3GaN4
_symmetry_space_group_name_H-M   'P 1'
_cell_length_a   3.12543778
_cell_length_b   5.03769359
_cell_length_c   5.41117312
_cell_angle_alpha   89.96446562
_cell_angle_beta   90.00000000
_cell_angle_gamma   90.00000000
_symmetry_Int_Tables_number   1
_chemical_formula_structural   Al3GaN4
_chemical_formula_sum   'Al3 Ga1 N4'
_cell_volume   85.19889294
_cell_formula_units_Z   1
loop_
 _symmetry_equiv_pos_site_id
 _symmetry_equiv_pos_as_xyz
  1  'x, y, z'
loop_
 _atom_site_type_symbol
 _atom_site_label
 _atom_site_symmetry_multiplicity
 _atom_site_fract_x
 _atom_site_fract_y
 _atom_site_fract_z
 _atom_site_occupancy
  Al  Al0  1  0.50000000  0.50009873  0.83271961  1
  Al  Al1  1  0.50000000  0.00076357  0.16503569  1
  Al  Al2  1  -0.00000000  0.00088655  0.66841720  1
  Ga  Ga3  1  0.00000000  0.49971489  0.33383626  1
  N  N4  1  -0.00000000  0.11013543  0.33370446  1
  N  N5  1  0.50000000  0.12258652  0.83282614  1
  N  N6  1  0.50000000  0.62590355  0.15872248  1
  N  N7  1  -0.00000000  0.62350976  0.67473716  1
