# generated using pymatgen
data_CrCdO4
_symmetry_space_group_name_H-M   'P 1'
_cell_length_a   7.13383203
_cell_length_b   7.13383203
_cell_length_c   7.09630393
_cell_angle_alpha   81.49521515
_cell_angle_beta   81.49521515
_cell_angle_gamma   85.96291527
_symmetry_Int_Tables_number   1
_chemical_formula_structural   CrCdO4
_chemical_formula_sum   'Cr4 Cd4 O16'
_cell_volume   352.80800671
_cell_formula_units_Z   4
loop_
 _symmetry_equiv_pos_site_id
 _symmetry_equiv_pos_as_xyz
  1  'x, y, z'
loop_
 _atom_site_type_symbol
 _atom_site_label
 _atom_site_symmetry_multiplicity
 _atom_site_fract_x
 _atom_site_fract_y
 _atom_site_fract_z
 _atom_site_occupancy
  Cr  Cr0  1  0.72627567  0.72627567  0.41783041  1
  Cr  Cr1  1  0.27372433  0.27372433  0.58216959  1
  Cr  Cr2  1  0.74486522  0.25513478  -0.00000000  1
  Cr  Cr3  1  0.25513478  0.74486522  -0.00000000  1
  Cd  Cd4  1  0.21089688  0.21089688  0.12612544  1
  Cd  Cd5  1  0.78910312  0.78910312  0.87387456  1
  Cd  Cd6  1  0.81323335  0.18676665  0.50000000  1
  Cd  Cd7  1  0.18676665  0.81323335  0.50000000  1
  O  O8  1  0.22017891  0.49698808  0.52049486  1
  O  O9  1  0.50301192  0.77982109  0.47950514  1
  O  O10  1  0.77982109  0.50301192  0.47950514  1
  O  O11  1  0.49698808  0.22017891  0.52049486  1
  O  O12  1  0.11402053  0.79691551  0.82789617  1
  O  O13  1  0.20308449  0.88597947  0.17210383  1
  O  O14  1  0.88597947  0.20308449  0.17210383  1
  O  O15  1  0.79691551  0.11402053  0.82789617  1
  O  O16  1  0.85456326  0.85456326  0.53887655  1
  O  O17  1  0.14543674  0.14543674  0.46112345  1
  O  O18  1  0.21480995  0.21480995  0.81194928  1
  O  O19  1  0.78519005  0.78519005  0.18805072  1
  O  O20  1  0.47242722  0.77486247  0.90016876  1
  O  O21  1  0.22513753  0.52757278  0.09983124  1
  O  O22  1  0.52757278  0.22513753  0.09983124  1
  O  O23  1  0.77486247  0.47242722  0.90016876  1
