# generated using pymatgen
data_Ca2Ti3O8
_symmetry_space_group_name_H-M   'P 1'
_cell_length_a   6.35159126
_cell_length_b   6.35159126
_cell_length_c   5.06175049
_cell_angle_alpha   72.10147146
_cell_angle_beta   72.10147146
_cell_angle_gamma   57.19007045
_symmetry_Int_Tables_number   1
_chemical_formula_structural   Ca2Ti3O8
_chemical_formula_sum   'Ca2 Ti3 O8'
_cell_volume   160.77123141
_cell_formula_units_Z   1
loop_
 _symmetry_equiv_pos_site_id
 _symmetry_equiv_pos_as_xyz
  1  'x, y, z'
loop_
 _atom_site_type_symbol
 _atom_site_label
 _atom_site_symmetry_multiplicity
 _atom_site_fract_x
 _atom_site_fract_y
 _atom_site_fract_z
 _atom_site_occupancy
  Ca  Ca0  1  0.72547274  0.72547274  0.33788853  1
  Ca  Ca1  1  0.27452726  0.27452726  0.66211147  1
  Ti  Ti2  1  0.00000000  0.00000000  0.50000000  1
  Ti  Ti3  1  0.73425315  0.26574685  0.00000000  1
  Ti  Ti4  1  0.26574685  0.73425315  0.00000000  1
  O  O5  1  0.39617663  0.39617663  0.95228799  1
  O  O6  1  0.60382337  0.60382337  0.04771201  1
  O  O7  1  0.90062910  0.90062910  0.90539890  1
  O  O8  1  0.09937090  0.09937090  0.09460110  1
  O  O9  1  0.32389056  0.88358411  0.60673539  1
  O  O10  1  0.88358411  0.32389056  0.60673539  1
  O  O11  1  0.11641589  0.67610944  0.39326461  1
  O  O12  1  0.67610944  0.11641589  0.39326461  1
