# generated using pymatgen
data_Ba3Al2O6
_symmetry_space_group_name_H-M   'P 1'
_cell_length_a   16.72049751
_cell_length_b   16.72049751
_cell_length_c   16.72049751
_cell_angle_alpha   90.00000000
_cell_angle_beta   90.00000000
_cell_angle_gamma   90.00000000
_symmetry_Int_Tables_number   1
_chemical_formula_structural   Ba3Al2O6
_chemical_formula_sum   'Ba72 Al48 O144'
_cell_volume   4674.63370971
_cell_formula_units_Z   24
loop_
 _symmetry_equiv_pos_site_id
 _symmetry_equiv_pos_as_xyz
  1  'x, y, z'
loop_
 _atom_site_type_symbol
 _atom_site_label
 _atom_site_symmetry_multiplicity
 _atom_site_fract_x
 _atom_site_fract_y
 _atom_site_fract_z
 _atom_site_occupancy
  Ba  Ba0  1  0.49563599  0.99563599  0.50436401  1
  Ba  Ba1  1  0.99563599  0.50436401  0.49563599  1
  Ba  Ba2  1  0.50436401  0.49563599  0.99563599  1
  Ba  Ba3  1  0.00436401  0.00436401  0.00436401  1
  Ba  Ba4  1  0.24781268  0.74781268  0.75218732  1
  Ba  Ba5  1  0.74781268  0.75218732  0.24781268  1
  Ba  Ba6  1  0.75218732  0.24781268  0.74781268  1
  Ba  Ba7  1  0.25218732  0.25218732  0.25218732  1
  Ba  Ba8  1  0.62562973  0.12562973  0.37437027  1
  Ba  Ba9  1  0.12562973  0.37437027  0.62562973  1
  Ba  Ba10  1  0.37437027  0.62562973  0.12562973  1
  Ba  Ba11  1  0.87437027  0.87437027  0.87437027  1
  Ba  Ba12  1  0.37167969  0.87167969  0.62832031  1
  Ba  Ba13  1  0.87167969  0.62832031  0.37167969  1
  Ba  Ba14  1  0.62832031  0.37167969  0.87167969  1
  Ba  Ba15  1  0.12832031  0.12832031  0.12832031  1
  Ba  Ba16  1  0.87683287  0.37683287  0.12316713  1
  Ba  Ba17  1  0.37683287  0.12316713  0.87683287  1
  Ba  Ba18  1  0.12316713  0.87683287  0.37683287  1
  Ba  Ba19  1  0.62316713  0.62316713  0.62316713  1
  Ba  Ba20  1  0.10765929  0.60765929  0.89234071  1
  Ba  Ba21  1  0.60765929  0.89234071  0.10765929  1
  Ba  Ba22  1  0.89234071  0.10765929  0.60765929  1
  Ba  Ba23  1  0.39234071  0.39234071  0.39234071  1
  Ba  Ba24  1  0.85194660  0.13394603  0.36535068  1
  Ba  Ba25  1  0.63464932  0.35194660  0.36605397  1
  Ba  Ba26  1  0.63394603  0.13464932  0.14805340  1
  Ba  Ba27  1  0.35194660  0.36605397  0.63464932  1
  Ba  Ba28  1  0.13464932  0.14805340  0.63394603  1
  Ba  Ba29  1  0.13394603  0.36535068  0.85194660  1
  Ba  Ba30  1  0.14805340  0.63394603  0.13464932  1
  Ba  Ba31  1  0.36535068  0.85194660  0.13394603  1
  Ba  Ba32  1  0.36605397  0.63464932  0.35194660  1
  Ba  Ba33  1  0.64805340  0.86605397  0.86535068  1
  Ba  Ba34  1  0.86535068  0.64805340  0.86605397  1
  Ba  Ba35  1  0.86605397  0.86535068  0.64805340  1
  Ba  Ba36  1  0.10484188  0.88703957  0.60445633  1
  Ba  Ba37  1  0.39554367  0.60484188  0.61296043  1
  Ba  Ba38  1  0.38703957  0.89554367  0.89515812  1
  Ba  Ba39  1  0.60484188  0.61296043  0.39554367  1
  Ba  Ba40  1  0.89554367  0.89515812  0.38703957  1
  Ba  Ba41  1  0.88703957  0.60445633  0.10484188  1
  Ba  Ba42  1  0.89515812  0.38703957  0.89554367  1
  Ba  Ba43  1  0.60445633  0.10484188  0.88703957  1
  Ba  Ba44  1  0.61296043  0.39554367  0.60484188  1
  Ba  Ba45  1  0.39515812  0.11296043  0.10445633  1
  Ba  Ba46  1  0.10445633  0.39515812  0.11296043  1
  Ba  Ba47  1  0.11296043  0.10445633  0.39515812  1
  Ba  Ba48  1  0.65176623  0.36592607  0.13446476  1
  Ba  Ba49  1  0.86553524  0.15176623  0.13407393  1
  Ba  Ba50  1  0.86592607  0.36553524  0.34823377  1
  Ba  Ba51  1  0.15176623  0.13407393  0.86553524  1
  Ba  Ba52  1  0.36553524  0.34823377  0.86592607  1
  Ba  Ba53  1  0.36592607  0.13446476  0.65176623  1
  Ba  Ba54  1  0.34823377  0.86592607  0.36553524  1
  Ba  Ba55  1  0.13446476  0.65176623  0.36592607  1
  Ba  Ba56  1  0.13407393  0.86553524  0.15176623  1
  Ba  Ba57  1  0.84823377  0.63407393  0.63446476  1
  Ba  Ba58  1  0.63446476  0.84823377  0.63407393  1
  Ba  Ba59  1  0.63407393  0.63446476  0.84823377  1
  Ba  Ba60  1  0.38232824  0.62945477  0.88035557  1
  Ba  Ba61  1  0.11964443  0.88232824  0.87054523  1
  Ba  Ba62  1  0.12945477  0.61964443  0.61767176  1
  Ba  Ba63  1  0.88232824  0.87054523  0.11964443  1
  Ba  Ba64  1  0.61964443  0.61767176  0.12945477  1
  Ba  Ba65  1  0.62945477  0.88035557  0.38232824  1
  Ba  Ba66  1  0.61767176  0.12945477  0.61964443  1
  Ba  Ba67  1  0.88035557  0.38232824  0.62945477  1
  Ba  Ba68  1  0.87054523  0.11964443  0.88232824  1
  Ba  Ba69  1  0.11767176  0.37054523  0.38035557  1
  Ba  Ba70  1  0.38035557  0.11767176  0.37054523  1
  Ba  Ba71  1  0.37054523  0.38035557  0.11767176  1
  Al  Al72  1  0.76937964  0.99799356  0.22857645  1
  Al  Al73  1  0.77142355  0.26937964  0.50200644  1
  Al  Al74  1  0.49799356  0.27142355  0.23062036  1
  Al  Al75  1  0.26937964  0.50200644  0.77142355  1
  Al  Al76  1  0.27142355  0.23062036  0.49799356  1
  Al  Al77  1  0.99799356  0.22857645  0.76937964  1
  Al  Al78  1  0.23062036  0.49799356  0.27142355  1
  Al  Al79  1  0.22857645  0.76937964  0.99799356  1
  Al  Al80  1  0.50200644  0.77142355  0.26937964  1
  Al  Al81  1  0.73062036  0.00200644  0.72857645  1
  Al  Al82  1  0.72857645  0.73062036  0.00200644  1
  Al  Al83  1  0.00200644  0.72857645  0.73062036  1
  Al  Al84  1  0.73256182  0.50405341  0.26949425  1
  Al  Al85  1  0.73050575  0.23256182  0.99594659  1
  Al  Al86  1  0.00405341  0.23050575  0.26743818  1
  Al  Al87  1  0.23256182  0.99594659  0.73050575  1
  Al  Al88  1  0.23050575  0.26743818  0.00405341  1
  Al  Al89  1  0.50405341  0.26949425  0.73256182  1
  Al  Al90  1  0.26743818  0.00405341  0.23050575  1
  Al  Al91  1  0.26949425  0.73256182  0.50405341  1
  Al  Al92  1  0.99594659  0.73050575  0.23256182  1
  Al  Al93  1  0.76743818  0.49594659  0.76949425  1
  Al  Al94  1  0.76949425  0.76743818  0.49594659  1
  Al  Al95  1  0.49594659  0.76949425  0.76743818  1
  Al  Al96  1  0.51956089  0.25602853  0.01610178  1
  Al  Al97  1  0.98389822  0.01956089  0.24397147  1
  Al  Al98  1  0.75602853  0.48389822  0.48043911  1
  Al  Al99  1  0.01956089  0.24397147  0.98389822  1
  Al  Al100  1  0.48389822  0.48043911  0.75602853  1
  Al  Al101  1  0.25602853  0.01610178  0.51956089  1
  Al  Al102  1  0.48043911  0.75602853  0.48389822  1
  Al  Al103  1  0.01610178  0.51956089  0.25602853  1
  Al  Al104  1  0.24397147  0.98389822  0.01956089  1
  Al  Al105  1  0.98043911  0.74397147  0.51610178  1
  Al  Al106  1  0.51610178  0.98043911  0.74397147  1
  Al  Al107  1  0.74397147  0.51610178  0.98043911  1
  Al  Al108  1  0.98242121  0.25055473  0.48206428  1
  Al  Al109  1  0.51793572  0.48242121  0.24944527  1
  Al  Al110  1  0.75055473  0.01793572  0.01757879  1
  Al  Al111  1  0.48242121  0.24944527  0.51793572  1
  Al  Al112  1  0.01793572  0.01757879  0.75055473  1
  Al  Al113  1  0.25055473  0.48206428  0.98242121  1
  Al  Al114  1  0.01757879  0.75055473  0.01793572  1
  Al  Al115  1  0.48206428  0.98242121  0.25055473  1
  Al  Al116  1  0.24944527  0.51793572  0.48242121  1
  Al  Al117  1  0.51757879  0.74944527  0.98206428  1
  Al  Al118  1  0.98206428  0.51757879  0.74944527  1
  Al  Al119  1  0.74944527  0.98206428  0.51757879  1
  O  O120  1  0.76299757  0.37731116  0.49718499  1
  O  O121  1  0.50281501  0.26299757  0.12268884  1
  O  O122  1  0.87731116  0.00281501  0.23700243  1
  O  O123  1  0.26299757  0.12268884  0.50281501  1
  O  O124  1  0.00281501  0.23700243  0.87731116  1
  O  O125  1  0.37731116  0.49718499  0.76299757  1
  O  O126  1  0.23700243  0.87731116  0.00281501  1
  O  O127  1  0.49718499  0.76299757  0.37731116  1
  O  O128  1  0.12268884  0.50281501  0.26299757  1
  O  O129  1  0.73700243  0.62268884  0.99718499  1
  O  O130  1  0.99718499  0.73700243  0.62268884  1
  O  O131  1  0.62268884  0.99718499  0.73700243  1
  O  O132  1  0.74078569  0.12467669  0.99981344  1
  O  O133  1  0.00018656  0.24078569  0.37532331  1
  O  O134  1  0.62467669  0.50018656  0.25921431  1
  O  O135  1  0.24078569  0.37532331  0.00018656  1
  O  O136  1  0.50018656  0.25921431  0.62467669  1
  O  O137  1  0.12467669  0.99981344  0.74078569  1
  O  O138  1  0.25921431  0.62467669  0.50018656  1
  O  O139  1  0.99981344  0.74078569  0.12467669  1
  O  O140  1  0.37532331  0.00018656  0.24078569  1
  O  O141  1  0.75921431  0.87532331  0.49981344  1
  O  O142  1  0.49981344  0.75921431  0.87532331  1
  O  O143  1  0.87532331  0.49981344  0.75921431  1
  O  O144  1  0.98564489  0.33782155  0.01541603  1
  O  O145  1  0.98458397  0.48564489  0.16217845  1
  O  O146  1  0.83782155  0.48458397  0.01435511  1
  O  O147  1  0.48564489  0.16217845  0.98458397  1
  O  O148  1  0.48458397  0.01435511  0.83782155  1
  O  O149  1  0.33782155  0.01541603  0.98564489  1
  O  O150  1  0.01435511  0.83782155  0.48458397  1
  O  O151  1  0.01541603  0.98564489  0.33782155  1
  O  O152  1  0.16217845  0.98458397  0.48564489  1
  O  O153  1  0.51435511  0.66217845  0.51541603  1
  O  O154  1  0.51541603  0.51435511  0.66217845  1
  O  O155  1  0.66217845  0.51541603  0.51435511  1
  O  O156  1  0.97386824  0.66686226  0.97159423  1
  O  O157  1  0.02840577  0.47386824  0.83313774  1
  O  O158  1  0.16686226  0.52840577  0.02613176  1
  O  O159  1  0.47386824  0.83313774  0.02840577  1
  O  O160  1  0.52840577  0.02613176  0.16686226  1
  O  O161  1  0.66686226  0.97159423  0.97386824  1
  O  O162  1  0.02613176  0.16686226  0.52840577  1
  O  O163  1  0.97159423  0.97386824  0.66686226  1
  O  O164  1  0.83313774  0.02840577  0.47386824  1
  O  O165  1  0.52613176  0.33313774  0.47159423  1
  O  O166  1  0.47159423  0.52613176  0.33313774  1
  O  O167  1  0.33313774  0.47159423  0.52613176  1
  O  O168  1  0.76508642  0.41031937  0.23452839  1
  O  O169  1  0.76547161  0.26508642  0.08968063  1
  O  O170  1  0.91031937  0.26547161  0.23491358  1
  O  O171  1  0.26508642  0.08968063  0.76547161  1
  O  O172  1  0.26547161  0.23491358  0.91031937  1
  O  O173  1  0.41031937  0.23452839  0.76508642  1
  O  O174  1  0.23491358  0.91031937  0.26547161  1
  O  O175  1  0.23452839  0.76508642  0.41031937  1
  O  O176  1  0.08968063  0.76547161  0.26508642  1
  O  O177  1  0.73491358  0.58968063  0.73452839  1
  O  O178  1  0.73452839  0.73491358  0.58968063  1
  O  O179  1  0.58968063  0.73452839  0.73491358  1
  O  O180  1  0.23489045  0.59196780  0.73002190  1
  O  O181  1  0.26997810  0.73489045  0.90803220  1
  O  O182  1  0.09196780  0.76997810  0.76510955  1
  O  O183  1  0.73489045  0.90803220  0.26997810  1
  O  O184  1  0.76997810  0.76510955  0.09196780  1
  O  O185  1  0.59196780  0.73002190  0.23489045  1
  O  O186  1  0.76510955  0.09196780  0.76997810  1
  O  O187  1  0.73002190  0.23489045  0.59196780  1
  O  O188  1  0.90803220  0.26997810  0.73489045  1
  O  O189  1  0.26510955  0.40803220  0.23002190  1
  O  O190  1  0.23002190  0.26510955  0.40803220  1
  O  O191  1  0.40803220  0.23002190  0.26510955  1
  O  O192  1  0.49786225  0.87432288  0.74327625  1
  O  O193  1  0.25672375  0.99786225  0.62567712  1
  O  O194  1  0.37432288  0.75672375  0.50213775  1
  O  O195  1  0.99786225  0.62567712  0.25672375  1
  O  O196  1  0.75672375  0.50213775  0.37432288  1
  O  O197  1  0.87432288  0.74327625  0.49786225  1
  O  O198  1  0.50213775  0.37432288  0.75672375  1
  O  O199  1  0.74327625  0.49786225  0.87432288  1
  O  O200  1  0.62567712  0.25672375  0.99786225  1
  O  O201  1  0.00213775  0.12567712  0.24327625  1
  O  O202  1  0.24327625  0.00213775  0.12567712  1
  O  O203  1  0.12567712  0.24327625  0.00213775  1
  O  O204  1  0.99978262  0.62342375  0.75431660  1
  O  O205  1  0.24568340  0.49978262  0.87657625  1
  O  O206  1  0.12342375  0.74568340  0.00021738  1
  O  O207  1  0.49978262  0.87657625  0.24568340  1
  O  O208  1  0.74568340  0.00021738  0.12342375  1
  O  O209  1  0.62342375  0.75431660  0.99978262  1
  O  O210  1  0.00021738  0.12342375  0.74568340  1
  O  O211  1  0.75431660  0.99978262  0.62342375  1
  O  O212  1  0.87657625  0.24568340  0.49978262  1
  O  O213  1  0.50021738  0.37657625  0.25431660  1
  O  O214  1  0.25431660  0.50021738  0.37657625  1
  O  O215  1  0.37657625  0.25431660  0.50021738  1
  O  O216  1  0.73580273  0.09092591  0.26481875  1
  O  O217  1  0.73518125  0.23580273  0.40907409  1
  O  O218  1  0.59092591  0.23518125  0.26419727  1
  O  O219  1  0.23580273  0.40907409  0.73518125  1
  O  O220  1  0.23518125  0.26419727  0.59092591  1
  O  O221  1  0.09092591  0.26481875  0.73580273  1
  O  O222  1  0.26419727  0.59092591  0.23518125  1
  O  O223  1  0.26481875  0.73580273  0.09092591  1
  O  O224  1  0.40907409  0.73518125  0.23580273  1
  O  O225  1  0.76419727  0.90907409  0.76481875  1
  O  O226  1  0.76481875  0.76419727  0.90907409  1
  O  O227  1  0.90907409  0.76481875  0.76419727  1
  O  O228  1  0.26885577  0.90655937  0.77268827  1
  O  O229  1  0.22731173  0.76885577  0.59344063  1
  O  O230  1  0.40655937  0.72731173  0.73114423  1
  O  O231  1  0.76885577  0.59344063  0.22731173  1
  O  O232  1  0.72731173  0.73114423  0.40655937  1
  O  O233  1  0.90655937  0.77268827  0.26885577  1
  O  O234  1  0.73114423  0.40655937  0.72731173  1
  O  O235  1  0.77268827  0.26885577  0.90655937  1
  O  O236  1  0.59344063  0.22731173  0.76885577  1
  O  O237  1  0.23114423  0.09344063  0.27268827  1
  O  O238  1  0.27268827  0.23114423  0.09344063  1
  O  O239  1  0.09344063  0.27268827  0.23114423  1
  O  O240  1  0.52115144  0.84308444  0.52715367  1
  O  O241  1  0.47284633  0.02115144  0.65691556  1
  O  O242  1  0.34308444  0.97284633  0.47884856  1
  O  O243  1  0.02115144  0.65691556  0.47284633  1
  O  O244  1  0.97284633  0.47884856  0.34308444  1
  O  O245  1  0.84308444  0.52715367  0.52115144  1
  O  O246  1  0.47884856  0.34308444  0.97284633  1
  O  O247  1  0.52715367  0.52115144  0.84308444  1
  O  O248  1  0.65691556  0.47284633  0.02115144  1
  O  O249  1  0.97884856  0.15691556  0.02715367  1
  O  O250  1  0.02715367  0.97884856  0.15691556  1
  O  O251  1  0.15691556  0.02715367  0.97884856  1
  O  O252  1  0.51376805  0.15238789  0.49217852  1
  O  O253  1  0.50782148  0.01376805  0.34761211  1
  O  O254  1  0.65238789  0.00782148  0.48623195  1
  O  O255  1  0.01376805  0.34761211  0.50782148  1
  O  O256  1  0.00782148  0.48623195  0.65238789  1
  O  O257  1  0.15238789  0.49217852  0.51376805  1
  O  O258  1  0.48623195  0.65238789  0.00782148  1
  O  O259  1  0.49217852  0.51376805  0.15238789  1
  O  O260  1  0.34761211  0.50782148  0.01376805  1
  O  O261  1  0.98623195  0.84761211  0.99217852  1
  O  O262  1  0.99217852  0.98623195  0.84761211  1
  O  O263  1  0.84761211  0.99217852  0.98623195  1
