# generated using pymatgen
data_MgV6O5F19
_symmetry_space_group_name_H-M   'P 1'
_cell_length_a   5.47137261
_cell_length_b   5.37108802
_cell_length_c   15.74149417
_cell_angle_alpha   89.30198701
_cell_angle_beta   100.48304693
_cell_angle_gamma   92.83558381
_symmetry_Int_Tables_number   1
_chemical_formula_structural   MgV6O5F19
_chemical_formula_sum   'Mg1 V6 O5 F19'
_cell_volume   454.31814500
_cell_formula_units_Z   1
loop_
 _symmetry_equiv_pos_site_id
 _symmetry_equiv_pos_as_xyz
  1  'x, y, z'
loop_
 _atom_site_type_symbol
 _atom_site_label
 _atom_site_symmetry_multiplicity
 _atom_site_fract_x
 _atom_site_fract_y
 _atom_site_fract_z
 _atom_site_occupancy
  Mg  Mg0  1  0.97575900  0.77856800  0.48748800  1
  V  V1  1  0.05043700  0.96300400  0.00721700  1
  V  V2  1  0.15776700  0.51631900  0.32413300  1
  V  V3  1  0.35096800  0.99601300  0.68044100  1
  V  V4  1  0.53822000  0.45539900  0.99470700  1
  V  V5  1  0.67057000  0.04532300  0.32097400  1
  V  V6  1  0.85038100  0.42493200  0.67229300  1
  O  O7  1  0.04300500  0.20819800  0.65343800  1
  O  O8  1  0.56290000  0.27070100  0.65578300  1
  O  O9  1  0.70570600  0.24121800  0.96829500  1
  O  O10  1  0.28956200  0.79658500  0.03344200  1
  O  O11  1  0.87585800  0.29200400  0.30901800  1
  F  F12  1  0.21756400  0.26691400  0.97183400  1
  F  F13  1  0.12562000  0.70728700  0.68893800  1
  F  F14  1  0.02541600  0.11234000  0.10538000  1
  F  F15  1  0.16398300  0.49881700  0.44436800  1
  F  F16  1  0.36685000  0.07818400  0.78893200  1
  F  F17  1  0.11325900  0.62047100  0.21743600  1
  F  F18  1  0.26409800  0.93298000  0.55664400  1
  F  F19  1  0.44304500  0.62063200  0.89744100  1
  F  F20  1  0.37073700  0.24839400  0.31796000  1
  F  F21  1  0.45013100  0.74269600  0.35578000  1
  F  F22  1  0.61252400  0.78634500  0.68908700  1
  F  F23  1  0.53411700  0.40274600  0.10604000  1
  F  F24  1  0.75409800  0.04933400  0.44774000  1
  F  F25  1  0.90184500  0.43187500  0.78616900  1
  F  F26  1  0.55863000  0.92441200  0.21523400  1
  F  F27  1  0.79607600  0.57850000  0.55840200  1
  F  F28  1  0.94126200  0.89847200  0.89669900  1
  F  F29  1  0.79863100  0.71302700  0.03171100  1
  F  F30  1  0.94335800  0.79830800  0.34822900  1
