# generated using pymatgen
data_MgH4C4S4(OF)12
_symmetry_space_group_name_H-M   'P 1'
_cell_length_a   5.41637301
_cell_length_b   8.95629952
_cell_length_c   12.22583390
_cell_angle_alpha   87.88988077
_cell_angle_beta   81.46338034
_cell_angle_gamma   106.81979452
_symmetry_Int_Tables_number   1
_chemical_formula_structural   MgH4C4S4(OF)12
_chemical_formula_sum   'Mg1 H4 C4 S4 O12 F12'
_cell_volume   559.42423237
_cell_formula_units_Z   1
loop_
 _symmetry_equiv_pos_site_id
 _symmetry_equiv_pos_as_xyz
  1  'x, y, z'
loop_
 _atom_site_type_symbol
 _atom_site_label
 _atom_site_symmetry_multiplicity
 _atom_site_fract_x
 _atom_site_fract_y
 _atom_site_fract_z
 _atom_site_occupancy
  Mg  Mg0  1  0.90387675  0.30011707  0.91733182  1
  H  H1  1  0.44972891  0.49874029  0.84039276  1
  H  H2  1  0.99841445  0.00477202  0.72097860  1
  H  H3  1  0.51593231  0.46208314  0.26495777  1
  H  H4  1  0.03821128  0.97881609  0.24879187  1
  C  C5  1  0.40240524  0.77136411  0.94462098  1
  C  C6  1  0.85430924  0.21836632  0.54701684  1
  C  C7  1  0.74992568  0.30612316  0.08660053  1
  C  C8  1  0.07747057  0.75414059  0.44013559  1
  S  S9  1  0.58362018  0.76171173  0.80276031  1
  S  S10  1  0.04113332  0.24913528  0.66664158  1
  S  S11  1  0.49107159  0.23190121  0.20953362  1
  S  S12  1  0.94477764  0.73376249  0.30587407  1
  O  O13  1  0.62721156  0.60166401  0.81123440  1
  O  O14  1  0.13322107  0.10265731  0.67251599  1
  O  O15  1  0.39764100  0.38184177  0.22540178  1
  O  O16  1  0.88243311  0.89194983  0.29134442  1
  O  O17  1  0.83831760  0.87821521  0.80001163  1
  O  O18  1  0.25742929  0.38701224  0.63911407  1
  O  O19  1  0.27508465  0.11483124  0.17532085  1
  O  O20  1  0.69779873  0.61171244  0.33051697  1
  O  O21  1  0.42212196  0.78142710  0.72404553  1
  O  O22  1  0.84188182  0.24233859  0.76564453  1
  O  O23  1  0.60186240  0.19514772  0.30307218  1
  O  O24  1  0.15125040  0.72147720  0.22216588  1
  F  F25  1  0.39701569  0.91978344  0.95655982  1
  F  F26  1  0.75316604  0.33679225  0.53613489  1
  F  F27  1  0.84955125  0.16215750  0.06407622  1
  F  F28  1  0.15673774  0.62879569  0.46242109  1
  F  F29  1  0.15370180  0.67660566  0.95429251  1
  F  F30  1  0.66407782  0.08136320  0.56646499  1
  F  F31  1  0.94653725  0.40525177  0.13149601  1
  F  F32  1  0.28200983  0.88491185  0.43025690  1
  F  F33  1  0.52120858  0.72594047  0.02265526  1
  F  F34  1  0.02523945  0.21672120  0.45604397  1
  F  F35  1  0.27000179  0.38110736  0.88390838  1
  F  F36  1  0.89112201  0.76354744  0.52410939  1
