# generated using pymatgen
data_NaUN3O11
_symmetry_space_group_name_H-M   'P 1'
_cell_length_a   10.80357499
_cell_length_b   10.80357499
_cell_length_c   10.80357499
_cell_angle_alpha   90.00000000
_cell_angle_beta   90.00000000
_cell_angle_gamma   90.00000000
_symmetry_Int_Tables_number   1
_chemical_formula_structural   NaUN3O11
_chemical_formula_sum   'Na4 U4 N12 O44'
_cell_volume   1260.96337464
_cell_formula_units_Z   4
loop_
 _symmetry_equiv_pos_site_id
 _symmetry_equiv_pos_as_xyz
  1  'x, y, z'
loop_
 _atom_site_type_symbol
 _atom_site_label
 _atom_site_symmetry_multiplicity
 _atom_site_fract_x
 _atom_site_fract_y
 _atom_site_fract_z
 _atom_site_occupancy
  Na  Na0  1  0.32599507  0.32599507  0.32599507  1
  Na  Na1  1  0.67400493  0.82599507  0.17400493  1
  Na  Na2  1  0.82599507  0.17400493  0.67400493  1
  Na  Na3  1  0.17400493  0.67400493  0.82599507  1
  U  U4  1  0.57078019  0.07078019  0.42921981  1
  U  U5  1  0.07078019  0.42921981  0.57078019  1
  U  U6  1  0.42921981  0.57078019  0.07078019  1
  U  U7  1  0.92921981  0.92921981  0.92921981  1
  N  N8  1  0.52058091  0.28062827  0.59688316  1
  N  N9  1  0.40311684  0.02058091  0.21937173  1
  N  N10  1  0.78062827  0.90311684  0.47941909  1
  N  N11  1  0.02058091  0.21937173  0.40311684  1
  N  N12  1  0.90311684  0.47941909  0.78062827  1
  N  N13  1  0.28062827  0.59688316  0.52058091  1
  N  N14  1  0.47941909  0.78062827  0.90311684  1
  N  N15  1  0.59688316  0.52058091  0.28062827  1
  N  N16  1  0.21937173  0.40311684  0.02058091  1
  N  N17  1  0.97941909  0.71937173  0.09688316  1
  N  N18  1  0.09688316  0.97941909  0.71937173  1
  N  N19  1  0.71937173  0.09688316  0.97941909  1
  O  O20  1  0.49656432  0.36346615  0.66865904  1
  O  O21  1  0.33134096  0.99656432  0.13653385  1
  O  O22  1  0.86346615  0.83134096  0.50343568  1
  O  O23  1  0.99656432  0.13653385  0.33134096  1
  O  O24  1  0.83134096  0.50343568  0.86346615  1
  O  O25  1  0.36346615  0.66865904  0.49656432  1
  O  O26  1  0.50343568  0.86346615  0.83134096  1
  O  O27  1  0.66865904  0.49656432  0.36346615  1
  O  O28  1  0.13653385  0.33134096  0.99656432  1
  O  O29  1  0.00343568  0.63653385  0.16865904  1
  O  O30  1  0.16865904  0.00343568  0.63653385  1
  O  O31  1  0.63653385  0.16865904  0.00343568  1
  O  O32  1  0.45357162  0.25493753  0.50028208  1
  O  O33  1  0.49971792  0.95357162  0.24506247  1
  O  O34  1  0.75493753  0.99971792  0.54642838  1
  O  O35  1  0.95357162  0.24506247  0.49971792  1
  O  O36  1  0.99971792  0.54642838  0.75493753  1
  O  O37  1  0.25493753  0.50028208  0.45357162  1
  O  O38  1  0.54642838  0.75493753  0.99971792  1
  O  O39  1  0.50028208  0.45357162  0.25493753  1
  O  O40  1  0.24506247  0.49971792  0.95357162  1
  O  O41  1  0.04642838  0.74506247  0.00028208  1
  O  O42  1  0.00028208  0.04642838  0.74506247  1
  O  O43  1  0.74506247  0.00028208  0.04642838  1
  O  O44  1  0.61529451  0.20725899  0.60946362  1
  O  O45  1  0.39053638  0.11529451  0.29274101  1
  O  O46  1  0.70725899  0.89053638  0.38470549  1
  O  O47  1  0.11529451  0.29274101  0.39053638  1
  O  O48  1  0.89053638  0.38470549  0.70725899  1
  O  O49  1  0.20725899  0.60946362  0.61529451  1
  O  O50  1  0.38470549  0.70725899  0.89053638  1
  O  O51  1  0.60946362  0.61529451  0.20725899  1
  O  O52  1  0.29274101  0.39053638  0.11529451  1
  O  O53  1  0.88470549  0.79274101  0.10946362  1
  O  O54  1  0.10946362  0.88470549  0.79274101  1
  O  O55  1  0.79274101  0.10946362  0.88470549  1
  O  O56  1  0.47515082  0.97515082  0.52484918  1
  O  O57  1  0.97515082  0.52484918  0.47515082  1
  O  O58  1  0.52484918  0.47515082  0.97515082  1
  O  O59  1  0.02484918  0.02484918  0.02484918  1
  O  O60  1  0.66688706  0.16688706  0.33311294  1
  O  O61  1  0.16688706  0.33311294  0.66688706  1
  O  O62  1  0.33311294  0.66688706  0.16688706  1
  O  O63  1  0.83311294  0.83311294  0.83311294  1
