# generated using pymatgen
data_MgCo4(Te2O5)4
_symmetry_space_group_name_H-M   'P 1'
_cell_length_a   7.49130332
_cell_length_b   11.37987192
_cell_length_c   6.06486843
_cell_angle_alpha   89.99988514
_cell_angle_beta   91.74842225
_cell_angle_gamma   89.99995049
_symmetry_Int_Tables_number   1
_chemical_formula_structural   MgCo4(Te2O5)4
_chemical_formula_sum   'Mg1 Co4 Te8 O20'
_cell_volume   516.78975893
_cell_formula_units_Z   1
loop_
 _symmetry_equiv_pos_site_id
 _symmetry_equiv_pos_as_xyz
  1  'x, y, z'
loop_
 _atom_site_type_symbol
 _atom_site_label
 _atom_site_symmetry_multiplicity
 _atom_site_fract_x
 _atom_site_fract_y
 _atom_site_fract_z
 _atom_site_occupancy
  Mg  Mg0  1  0.50000000  0.24380748  0.75000000  1
  Co  Co1  1  1.00000000  0.04308335  0.25000000  1
  Co  Co2  1  1.00000000  0.92280105  0.75000000  1
  Co  Co3  1  0.50000000  0.57078738  0.25000000  1
  Co  Co4  1  0.50000000  0.47323615  0.75000000  1
  Te  Te5  1  0.15115790  0.35887776  0.48762921  1
  Te  Te6  1  0.13207208  0.65216273  0.99070933  1
  Te  Te7  1  0.35346713  0.12470804  0.06979607  1
  Te  Te8  1  0.36211663  0.83604901  0.49883858  1
  Te  Te9  1  0.64653287  0.12470804  0.43020392  1
  Te  Te10  1  0.63788337  0.83605001  0.00116042  1
  Te  Te11  1  0.86792792  0.65216173  0.50929067  1
  Te  Te12  1  0.84884210  0.35887777  0.01237179  1
  O  O13  1  1.00000000  0.45714724  0.25000000  1
  O  O14  1  1.00000000  0.55987739  0.75000000  1
  O  O15  1  0.14710242  0.03943156  0.97805075  1
  O  O16  1  0.15172477  0.92707013  0.45342899  1
  O  O17  1  0.20706493  0.19786737  0.32304468  1
  O  O18  1  0.18414175  0.78648477  0.81150765  1
  O  O19  1  0.29403123  0.33907988  0.77481725  1
  O  O20  1  0.30015745  0.70061807  0.33119042  1
  O  O21  1  0.35692412  0.44677867  0.41968833  1
  O  O22  1  0.35607661  0.58165250  0.94646367  1
  O  O23  1  0.49999900  0.90842986  0.25000000  1
  O  O24  1  0.50000000  0.07052013  0.75000000  1
  O  O25  1  0.64307488  0.44677867  0.08031167  1
  O  O26  1  0.64392439  0.58165150  0.55353633  1
  O  O27  1  0.70596877  0.33907888  0.72518275  1
  O  O28  1  0.69984355  0.70061807  0.16880858  1
  O  O29  1  0.79293607  0.19786737  0.17695432  1
  O  O30  1  0.81585625  0.78648377  0.68849335  1
  O  O31  1  0.85289858  0.03943056  0.52194925  1
  O  O32  1  0.84827623  0.92706913  0.04657101  1
