# generated using pymatgen
data_PW4Cl11
_symmetry_space_group_name_H-M   'P 1'
_cell_length_a   8.58502394
_cell_length_b   8.58502394
_cell_length_c   11.43059718
_cell_angle_alpha   89.31033669
_cell_angle_beta   89.31033669
_cell_angle_gamma   70.80547396
_symmetry_Int_Tables_number   1
_chemical_formula_structural   PW4Cl11
_chemical_formula_sum   'P2 W8 Cl22'
_cell_volume   795.54388574
_cell_formula_units_Z   2
loop_
 _symmetry_equiv_pos_site_id
 _symmetry_equiv_pos_as_xyz
  1  'x, y, z'
loop_
 _atom_site_type_symbol
 _atom_site_label
 _atom_site_symmetry_multiplicity
 _atom_site_fract_x
 _atom_site_fract_y
 _atom_site_fract_z
 _atom_site_occupancy
  P  P0  1  0.32474806  0.32474806  0.74868386  1
  P  P1  1  0.67525194  0.67525194  0.25131614  1
  W  W2  1  0.09397780  0.35348262  0.87261845  1
  W  W3  1  0.35348262  0.09397780  0.87261845  1
  W  W4  1  0.90602220  0.64651738  0.12738155  1
  W  W5  1  0.64651738  0.90602220  0.12738155  1
  W  W6  1  0.09391722  0.35343888  0.62839568  1
  W  W7  1  0.35343888  0.09391722  0.62839568  1
  W  W8  1  0.90608278  0.64656112  0.37160432  1
  W  W9  1  0.64656112  0.90608278  0.37160432  1
  Cl  Cl10  1  0.92557882  0.24352086  0.75310133  1
  Cl  Cl11  1  0.24352086  0.92557882  0.75310133  1
  Cl  Cl12  1  0.07442118  0.75647914  0.24689867  1
  Cl  Cl13  1  0.75647914  0.07442118  0.24689867  1
  Cl  Cl14  1  0.46906109  0.46906109  0.74588131  1
  Cl  Cl15  1  0.53093891  0.53093891  0.25411869  1
  Cl  Cl16  1  0.98482046  0.60701905  0.74912746  1
  Cl  Cl17  1  0.60701905  0.98482046  0.74912746  1
  Cl  Cl18  1  0.01517954  0.39298095  0.25087254  1
  Cl  Cl19  1  0.39298095  0.01517954  0.25087254  1
  Cl  Cl20  1  0.12726542  0.12726542  0.00731370  1
  Cl  Cl21  1  0.87273458  0.87273458  0.99268630  1
  Cl  Cl22  1  0.17998127  0.51935242  0.01168738  1
  Cl  Cl23  1  0.51935242  0.17998127  0.01168738  1
  Cl  Cl24  1  0.82001873  0.48064758  0.98831262  1
  Cl  Cl25  1  0.48064758  0.82001873  0.98831262  1
  Cl  Cl26  1  0.12700080  0.12700080  0.49748481  1
  Cl  Cl27  1  0.87299920  0.87299920  0.50251519  1
  Cl  Cl28  1  0.17988160  0.51934642  0.48484874  1
  Cl  Cl29  1  0.51934642  0.17988160  0.48484874  1
  Cl  Cl30  1  0.82011840  0.48065358  0.51515126  1
  Cl  Cl31  1  0.48065358  0.82011840  0.51515126  1
