# generated using pymatgen
data_BaDy2CoO5
_symmetry_space_group_name_H-M   'P 1'
_cell_length_a   3.67335283
_cell_length_b   5.76451461
_cell_length_c   6.72070156
_cell_angle_alpha   115.39114917
_cell_angle_beta   105.86058444
_cell_angle_gamma   90.00056943
_symmetry_Int_Tables_number   1
_chemical_formula_structural   BaDy2CoO5
_chemical_formula_sum   'Ba1 Dy2 Co1 O5'
_cell_volume   122.54007571
_cell_formula_units_Z   1
loop_
 _symmetry_equiv_pos_site_id
 _symmetry_equiv_pos_as_xyz
  1  'x, y, z'
loop_
 _atom_site_type_symbol
 _atom_site_label
 _atom_site_symmetry_multiplicity
 _atom_site_fract_x
 _atom_site_fract_y
 _atom_site_fract_z
 _atom_site_occupancy
  Ba  Ba0  1  0.99999668  0.00000086  0.99999784  1
  Dy  Dy1  1  0.79556001  0.29561567  0.59118713  1
  Dy  Dy2  1  0.20443327  0.70438197  0.40881265  1
  Co  Co3  1  0.50008123  0.50000573  0.00000385  1
  O  O4  1  0.65186948  0.41016319  0.30369026  1
  O  O5  1  0.34825070  0.10605036  0.69663501  1
  O  O6  1  0.34813583  0.58983961  0.69631425  1
  O  O7  1  0.65174381  0.89394797  0.30336006  1
  O  O8  1  -0.00006701  0.49999564  -0.00000006  1
