# generated using pymatgen
data_Pr6Mg(GeS7)2
_symmetry_space_group_name_H-M   'P 1'
_cell_length_a   10.29819340
_cell_length_b   10.29819340
_cell_length_c   5.80273160
_cell_angle_alpha   90.00000000
_cell_angle_beta   90.00000000
_cell_angle_gamma   119.99999655
_symmetry_Int_Tables_number   1
_chemical_formula_structural   Pr6Mg(GeS7)2
_chemical_formula_sum   'Pr6 Mg1 Ge2 S14'
_cell_volume   532.94846711
_cell_formula_units_Z   1
loop_
 _symmetry_equiv_pos_site_id
 _symmetry_equiv_pos_as_xyz
  1  'x, y, z'
loop_
 _atom_site_type_symbol
 _atom_site_label
 _atom_site_symmetry_multiplicity
 _atom_site_fract_x
 _atom_site_fract_y
 _atom_site_fract_z
 _atom_site_occupancy
  Pr  Pr0  1  0.23145629  0.35761534  0.24195614  1
  Pr  Pr1  1  0.12615904  0.76854371  0.24195614  1
  Pr  Pr2  1  0.64238466  0.87384096  0.24195614  1
  Pr  Pr3  1  0.76969113  0.64294761  0.74939430  1
  Pr  Pr4  1  0.87325648  0.23030887  0.74939430  1
  Pr  Pr5  1  0.35705239  0.12674352  0.74939430  1
  Mg  Mg6  1  0.00000000  0.00000000  0.47981591  1
  Ge  Ge7  1  0.33333300  0.66666700  0.82476185  1
  Ge  Ge8  1  0.66666700  0.33333300  0.33387994  1
  S  S9  1  0.91383902  0.16030905  0.23984623  1
  S  S10  1  0.24646904  0.08616098  0.23984623  1
  S  S11  1  0.83969095  0.75353096  0.23984623  1
  S  S12  1  0.08855378  0.84201101  0.71737731  1
  S  S13  1  0.75345723  0.91144622  0.71737731  1
  S  S14  1  0.15798899  0.24654277  0.71737731  1
  S  S15  1  0.33333300  0.66666700  0.45026397  1
  S  S16  1  0.66666700  0.33333300  0.95856506  1
  S  S17  1  0.41303939  0.89277287  0.97661892  1
  S  S18  1  0.47973448  0.58696061  0.97661892  1
  S  S19  1  0.10722713  0.52026552  0.97661892  1
  S  S20  1  0.58601133  0.10675089  0.48327618  1
  S  S21  1  0.52073856  0.41398867  0.48327618  1
  S  S22  1  0.89324911  0.47926144  0.48327618  1
