# generated using pymatgen
data_Ba2BrN
_symmetry_space_group_name_H-M   'P 1'
_cell_length_a   4.16782317
_cell_length_b   4.16782324
_cell_length_c   8.29527367
_cell_angle_alpha   75.45047565
_cell_angle_beta   75.45048208
_cell_angle_gamma   59.99999942
_symmetry_Int_Tables_number   1
_chemical_formula_structural   Ba2BrN
_chemical_formula_sum   'Ba2 Br1 N1'
_cell_volume   119.42436612
_cell_formula_units_Z   1
loop_
 _symmetry_equiv_pos_site_id
 _symmetry_equiv_pos_as_xyz
  1  'x, y, z'
loop_
 _atom_site_type_symbol
 _atom_site_label
 _atom_site_symmetry_multiplicity
 _atom_site_fract_x
 _atom_site_fract_y
 _atom_site_fract_z
 _atom_site_occupancy
  Ba  Ba0  1  0.22865860  0.22865860  0.31402221  1
  Ba  Ba1  1  0.77134140  0.77134140  0.68597779  1
  Br  Br2  1  0.00000000  0.00000000  -0.00000000  1
  N  N3  1  0.50000000  0.50000000  0.50000000  1
