# generated using pymatgen
data_Ba2MgGe2O7
_symmetry_space_group_name_H-M   'P 1'
_cell_length_a   8.40782169
_cell_length_b   8.40782169
_cell_length_c   5.58375680
_cell_angle_alpha   90.00000000
_cell_angle_beta   90.00000000
_cell_angle_gamma   90.00000000
_symmetry_Int_Tables_number   1
_chemical_formula_structural   Ba2MgGe2O7
_chemical_formula_sum   'Ba4 Mg2 Ge4 O14'
_cell_volume   394.72395158
_cell_formula_units_Z   2
loop_
 _symmetry_equiv_pos_site_id
 _symmetry_equiv_pos_as_xyz
  1  'x, y, z'
loop_
 _atom_site_type_symbol
 _atom_site_label
 _atom_site_symmetry_multiplicity
 _atom_site_fract_x
 _atom_site_fract_y
 _atom_site_fract_z
 _atom_site_occupancy
  Ba  Ba0  1  0.33530211  0.83530211  0.50857775  1
  Ba  Ba1  1  0.16469789  0.33530211  0.49142225  1
  Ba  Ba2  1  0.66469789  0.16469789  0.50857775  1
  Ba  Ba3  1  0.83530211  0.66469789  0.49142225  1
  Mg  Mg4  1  0.50000000  0.50000000  -0.00000000  1
  Mg  Mg5  1  -0.00000000  -0.00000000  -0.00000000  1
  Ge  Ge6  1  0.14101396  0.64101396  0.95813605  1
  Ge  Ge7  1  0.35898604  0.14101396  0.04186395  1
  Ge  Ge8  1  0.85898604  0.35898604  0.95813605  1
  Ge  Ge9  1  0.64101396  0.85898604  0.04186395  1
  O  O10  1  0.50000000  -0.00000000  0.16001640  1
  O  O11  1  -0.00000000  0.50000000  0.83998360  1
  O  O12  1  0.13852078  0.63852078  0.26819972  1
  O  O13  1  0.36147922  0.13852078  0.73180028  1
  O  O14  1  0.86147922  0.36147922  0.26819972  1
  O  O15  1  0.63852078  0.86147922  0.73180028  1
  O  O16  1  0.31698319  0.57876574  0.81489430  1
  O  O17  1  0.18301681  0.07876574  0.18510570  1
  O  O18  1  0.68301681  0.42123426  0.81489430  1
  O  O19  1  0.81698319  0.92123426  0.18510570  1
  O  O20  1  0.57876574  0.68301681  0.18510570  1
  O  O21  1  0.92123426  0.18301681  0.81489430  1
  O  O22  1  0.42123426  0.31698319  0.18510570  1
  O  O23  1  0.07876574  0.81698319  0.81489430  1
