# generated using pymatgen
data_OF2
_symmetry_space_group_name_H-M   'P 1'
_cell_length_a   3.14975327
_cell_length_b   5.41134256
_cell_length_c   9.58079297
_cell_angle_alpha   90.00000000
_cell_angle_beta   90.00000000
_cell_angle_gamma   90.00000000
_symmetry_Int_Tables_number   1
_chemical_formula_structural   OF2
_chemical_formula_sum   'O4 F8'
_cell_volume   163.29880948
_cell_formula_units_Z   4
loop_
 _symmetry_equiv_pos_site_id
 _symmetry_equiv_pos_as_xyz
  1  'x, y, z'
loop_
 _atom_site_type_symbol
 _atom_site_label
 _atom_site_symmetry_multiplicity
 _atom_site_fract_x
 _atom_site_fract_y
 _atom_site_fract_z
 _atom_site_occupancy
  O  O0  1  0.75000000  0.41895507  0.11958139  1
  O  O1  1  0.75000000  0.08104493  0.61958139  1
  O  O2  1  0.25000000  0.58104493  0.88041861  1
  O  O3  1  0.25000000  0.91895507  0.38041861  1
  F  F4  1  0.75000000  0.30909972  0.54680300  1
  F  F5  1  0.75000000  0.19090028  0.04680200  1
  F  F6  1  0.25000000  0.69090028  0.45319700  1
  F  F7  1  0.25000000  0.80909972  0.95319700  1
  F  F8  1  0.75000000  0.34794089  0.26173050  1
  F  F9  1  0.75000000  0.15205911  0.76173050  1
  F  F10  1  0.25000000  0.65205911  0.73826950  1
  F  F11  1  0.25000000  0.84794089  0.23826950  1
