# generated using pymatgen
data_AlCo3Se2ClO8
_symmetry_space_group_name_H-M   'P 1'
_cell_length_a   5.64447153
_cell_length_b   7.70202315
_cell_length_c   9.53344850
_cell_angle_alpha   84.21036004
_cell_angle_beta   80.97058981
_cell_angle_gamma   89.73381561
_symmetry_Int_Tables_number   1
_chemical_formula_structural   AlCo3Se2ClO8
_chemical_formula_sum   'Al2 Co6 Se4 Cl2 O16'
_cell_volume   407.20539801
_cell_formula_units_Z   2
loop_
 _symmetry_equiv_pos_site_id
 _symmetry_equiv_pos_as_xyz
  1  'x, y, z'
loop_
 _atom_site_type_symbol
 _atom_site_label
 _atom_site_symmetry_multiplicity
 _atom_site_fract_x
 _atom_site_fract_y
 _atom_site_fract_z
 _atom_site_occupancy
  Al  Al0  1  0.30353356  0.86122376  0.76758480  1
  Al  Al1  1  0.69646644  0.13877624  0.23241520  1
  Co  Co2  1  0.50000000  -0.00000000  0.00000000  1
  Co  Co3  1  0.50000000  -0.00000000  0.50000000  1
  Co  Co4  1  0.00000000  -0.00000000  0.00000000  1
  Co  Co5  1  0.80399816  0.75309946  0.23824009  1
  Co  Co6  1  0.19600184  0.24690054  0.76175991  1
  Co  Co7  1  0.00000000  -0.00000000  0.50000000  1
  Se  Se8  1  0.77825999  0.64063461  0.90945047  1
  Se  Se9  1  0.22174001  0.35936539  0.09054953  1
  Se  Se10  1  0.71708923  0.62191878  0.57598034  1
  Se  Se11  1  0.28291077  0.37808122  0.42401966  1
  Cl  Cl12  1  0.21537011  0.80788187  0.19543800  1
  Cl  Cl13  1  0.78462989  0.19211813  0.80456200  1
  O  O14  1  0.28747080  0.04525347  0.87529979  1
  O  O15  1  0.25094756  0.41074335  0.91458841  1
  O  O16  1  0.69794668  0.59637101  0.40398189  1
  O  O17  1  0.54498040  0.78938865  0.89039625  1
  O  O18  1  0.52090220  0.22716591  0.38826060  1
  O  O19  1  0.04656242  0.24252959  0.42571884  1
  O  O20  1  0.71252920  0.95474653  0.12470021  1
  O  O21  1  0.02023682  0.79001117  0.88437680  1
  O  O22  1  0.95343758  0.75747041  0.57428116  1
  O  O23  1  0.97976318  0.20998883  0.11562320  1
  O  O24  1  0.22063673  0.02151335  0.62744670  1
  O  O25  1  0.77936327  0.97848665  0.37255330  1
  O  O26  1  0.45501960  0.21061135  0.10960375  1
  O  O27  1  0.47909780  0.77283409  0.61173940  1
  O  O28  1  0.74905244  0.58925665  0.08541159  1
  O  O29  1  0.30205332  0.40362899  0.59601811  1
