# generated using pymatgen
data_Bi2I4O13
_symmetry_space_group_name_H-M   'P 1'
_cell_length_a   5.71268028
_cell_length_b   12.32999328
_cell_length_c   16.87531327
_cell_angle_alpha   89.99939149
_cell_angle_beta   89.99997228
_cell_angle_gamma   89.99919948
_symmetry_Int_Tables_number   1
_chemical_formula_structural   Bi2I4O13
_chemical_formula_sum   'Bi8 I16 O52'
_cell_volume   1188.65166300
_cell_formula_units_Z   4
loop_
 _symmetry_equiv_pos_site_id
 _symmetry_equiv_pos_as_xyz
  1  'x, y, z'
loop_
 _atom_site_type_symbol
 _atom_site_label
 _atom_site_symmetry_multiplicity
 _atom_site_fract_x
 _atom_site_fract_y
 _atom_site_fract_z
 _atom_site_occupancy
  Bi  Bi0  1  0.23512837  0.48793200  0.29819090  1
  Bi  Bi1  1  0.26489861  0.51207112  0.79818715  1
  Bi  Bi2  1  0.73510632  0.01206724  0.70181337  1
  Bi  Bi3  1  0.76488006  0.98792673  0.20180936  1
  Bi  Bi4  1  0.28499147  0.15355509  0.82546903  1
  Bi  Bi5  1  0.21499894  0.84645559  0.32547077  1
  Bi  Bi6  1  0.78499899  0.34645281  0.17452288  1
  Bi  Bi7  1  0.71498903  0.65355376  0.67454066  1
  I  I8  1  0.12058849  0.45175983  0.57225466  1
  I  I9  1  0.37937998  0.54822728  0.07227993  1
  I  I10  1  0.62060734  0.04823992  0.42773214  1
  I  I11  1  0.87942445  0.95175399  0.92773040  1
  I  I12  1  0.23704900  0.16734689  0.58871280  1
  I  I13  1  0.26292470  0.83264834  0.08871408  1
  I  I14  1  0.73709452  0.33265117  0.41128435  1
  I  I15  1  0.76300093  0.66734580  0.91129031  1
  I  I16  1  0.68643304  0.32870174  0.73681174  1
  I  I17  1  0.81358867  0.67130334  0.23680794  1
  I  I18  1  0.18640845  0.17132023  0.26318666  1
  I  I19  1  0.31354190  0.82870451  0.76319754  1
  I  I20  1  0.06272120  0.85855521  0.53063663  1
  I  I21  1  0.43721656  0.14142146  0.03063468  1
  I  I22  1  0.56279381  0.64141481  0.46936830  1
  I  I23  1  0.93720951  0.35857937  0.96936000  1
  O  O24  1  0.06100235  0.83252529  0.94302594  1
  O  O25  1  0.43904920  0.16748875  0.44303104  1
  O  O26  1  0.56095163  0.66747792  0.05697384  1
  O  O27  1  0.93901856  0.33252853  0.55697373  1
  O  O28  1  0.03868129  0.49215636  0.94045725  1
  O  O29  1  0.46131856  0.50783921  0.44045826  1
  O  O30  1  0.53868469  0.00784516  0.05953672  1
  O  O31  1  0.96131462  0.99213206  0.55954188  1
  O  O32  1  0.63451636  0.16794902  0.76310989  1
  O  O33  1  0.86547236  0.83204684  0.26311264  1
  O  O34  1  0.13455244  0.33205662  0.23687588  1
  O  O35  1  0.36547095  0.66794947  0.73689490  1
  O  O36  1  0.19318521  0.28216360  0.93976921  1
  O  O37  1  0.30681214  0.71783534  0.43977766  1
  O  O38  1  0.69319432  0.21784119  0.06021244  1
  O  O39  1  0.80674173  0.78215662  0.56023492  1
  O  O40  1  0.10154290  0.84676327  0.68497931  1
  O  O41  1  0.39838437  0.15324059  0.18497442  1
  O  O42  1  0.60155807  0.65322346  0.31501823  1
  O  O43  1  0.89844199  0.34676178  0.81502671  1
  O  O44  1  0.41449710  0.33124467  0.79784612  1
  O  O45  1  0.08553813  0.66875563  0.29784040  1
  O  O46  1  0.91449684  0.16876274  0.20213505  1
  O  O47  1  0.58548180  0.83124915  0.70216273  1
  O  O48  1  0.08051942  0.46376683  0.67933587  1
  O  O49  1  0.41951767  0.53625228  0.17935613  1
  O  O50  1  0.58049347  0.03624745  0.32065564  1
  O  O51  1  0.91948278  0.96375323  0.82065291  1
  O  O52  1  0.09111640  0.15438811  0.68506399  1
  O  O53  1  0.40880037  0.84562051  0.18507402  1
  O  O54  1  0.59120599  0.34562284  0.31493137  1
  O  O55  1  0.90889572  0.65439480  0.81493787  1
  O  O56  1  0.04175505  0.36844248  0.07359043  1
  O  O57  1  0.45824798  0.63155014  0.57359514  1
  O  O58  1  0.54175576  0.13154973  0.92640057  1
  O  O59  1  0.95819774  0.86842609  0.42640373  1
  O  O60  1  0.47655902  0.07062314  0.60194852  1
  O  O61  1  0.02339706  0.92936960  0.10193865  1
  O  O62  1  0.97664158  0.42937247  0.39806909  1
  O  O63  1  0.52346750  0.57062537  0.89805915  1
  O  O64  1  0.59427382  0.48350886  0.72499010  1
  O  O65  1  0.90577336  0.51649411  0.22498114  1
  O  O66  1  0.09426338  0.01649901  0.27500380  1
  O  O67  1  0.40571159  0.98351073  0.77501593  1
  O  O68  1  0.09450565  0.05555237  0.94889939  1
  O  O69  1  0.40551747  0.94445454  0.44891070  1
  O  O70  1  0.59447992  0.44444433  0.05109693  1
  O  O71  1  0.90549182  0.55556083  0.55110025  1
  O  O72  1  0.40010268  0.29087889  0.60880036  1
  O  O73  1  0.09986113  0.70912218  0.10879970  1
  O  O74  1  0.90015356  0.20911775  0.39120360  1
  O  O75  1  0.59993215  0.79086983  0.89120857  1
