# generated using pymatgen
data_Mo2SeS3
_symmetry_space_group_name_H-M   'P 1'
_cell_length_a   3.21730504
_cell_length_b   3.21730553
_cell_length_c   34.90797524
_cell_angle_alpha   89.99893278
_cell_angle_beta   90.00104264
_cell_angle_gamma   119.99934618
_symmetry_Int_Tables_number   1
_chemical_formula_structural   Mo2SeS3
_chemical_formula_sum   'Mo4 Se2 S6'
_cell_volume   312.92675521
_cell_formula_units_Z   2
loop_
 _symmetry_equiv_pos_site_id
 _symmetry_equiv_pos_as_xyz
  1  'x, y, z'
loop_
 _atom_site_type_symbol
 _atom_site_label
 _atom_site_symmetry_multiplicity
 _atom_site_fract_x
 _atom_site_fract_y
 _atom_site_fract_z
 _atom_site_occupancy
  Mo  Mo0  1  0.00004407  0.99995369  0.09504545  1
  Mo  Mo1  1  0.00005086  0.99994633  0.46885916  1
  Mo  Mo2  1  0.33337246  0.66662446  0.28227377  1
  Mo  Mo3  1  0.33320126  0.66680513  0.65673914  1
  Se  Se4  1  0.99989599  0.00011135  0.70513314  1
  Se  Se5  1  0.99982568  0.00018374  0.60831273  1
  S  S6  1  0.00004098  0.99995553  0.32644861  1
  S  S7  1  0.33337187  0.66662585  0.05088698  1
  S  S8  1  0.33338242  0.66661547  0.42470903  1
  S  S9  1  0.33338360  0.66661371  0.13922430  1
  S  S10  1  0.33339149  0.66660580  0.51302113  1
  S  S11  1  0.00003832  0.99995893  0.23809555  1
