# generated using pymatgen
data_Ba2MgMo4(P2O7)4
_symmetry_space_group_name_H-M   'P 1'
_cell_length_a   8.01064987
_cell_length_b   8.01065002
_cell_length_c   10.50800940
_cell_angle_alpha   76.67594532
_cell_angle_beta   76.67594835
_cell_angle_gamma   84.90371332
_symmetry_Int_Tables_number   1
_chemical_formula_structural   Ba2MgMo4(P2O7)4
_chemical_formula_sum   'Ba2 Mg1 Mo4 P8 O28'
_cell_volume   638.03692643
_cell_formula_units_Z   1
loop_
 _symmetry_equiv_pos_site_id
 _symmetry_equiv_pos_as_xyz
  1  'x, y, z'
loop_
 _atom_site_type_symbol
 _atom_site_label
 _atom_site_symmetry_multiplicity
 _atom_site_fract_x
 _atom_site_fract_y
 _atom_site_fract_z
 _atom_site_occupancy
  Ba  Ba0  1  0.00681684  0.47202976  0.04648525  1
  Ba  Ba1  1  0.52796924  0.99318316  0.45351575  1
  Mg  Mg2  1  0.09627318  0.90372682  0.75000000  1
  Mo  Mo3  1  0.98671361  0.98982544  0.48208337  1
  Mo  Mo4  1  0.01017356  0.01328639  0.01791663  1
  Mo  Mo5  1  0.44551664  0.55448436  0.25000000  1
  Mo  Mo6  1  0.54757220  0.45242880  0.75000000  1
  P  P7  1  0.79881125  0.72194957  0.28218836  1
  P  P8  1  0.27805143  0.20118975  0.21781264  1
  P  P9  1  0.19973497  0.27106910  0.72660220  1
  P  P10  1  0.72893090  0.80026503  0.77339880  1
  P  P11  1  0.72792903  0.36349864  0.43877637  1
  P  P12  1  0.63650136  0.27207197  0.06122363  1
  P  P13  1  0.25585091  0.62855850  0.55795687  1
  P  P14  1  0.37144050  0.74415009  0.94204313  1
  O  O15  1  0.92683424  0.76211481  0.14660357  1
  O  O16  1  0.23788519  0.07316676  0.35339543  1
  O  O17  1  0.07389858  0.25762724  0.86261042  1
  O  O18  1  0.74237176  0.92610142  0.63738958  1
  O  O19  1  0.60999976  0.74110258  0.26918666  1
  O  O20  1  0.25889642  0.39000024  0.23081434  1
  O  O21  1  0.38759540  0.26684491  0.73290526  1
  O  O22  1  0.73315509  0.61240460  0.76709474  1
  O  O23  1  0.82355694  0.81937568  0.38300236  1
  O  O24  1  0.18062532  0.17644206  0.11699664  1
  O  O25  1  0.17054694  0.13427812  0.65363036  1
  O  O26  1  0.86572188  0.82945306  0.84636864  1
  O  O27  1  0.84073794  0.51538818  0.32974220  1
  O  O28  1  0.48461182  0.15926206  0.17025880  1
  O  O29  1  0.35770875  0.73183464  0.08974573  1
  O  O30  1  0.26816536  0.64229225  0.41025427  1
  O  O31  1  0.61808341  0.27506838  0.92053625  1
  O  O32  1  0.72493062  0.38191759  0.57946375  1
  O  O33  1  0.36667458  0.57357055  0.89910208  1
  O  O34  1  0.42642945  0.63332442  0.60089692  1
  O  O35  1  0.62857479  0.45087202  0.09622604  1
  O  O36  1  0.15297686  0.46074272  0.64184887  1
  O  O37  1  0.21591298  0.85861886  0.90015466  1
  O  O38  1  0.14138114  0.78408702  0.59984534  1
  O  O39  1  0.79989363  0.17717175  0.09713242  1
  O  O40  1  0.82282725  0.20010637  0.40286658  1
  O  O41  1  0.53925728  0.84702314  0.85815113  1
  O  O42  1  0.54912798  0.37142521  0.40377296  1
