# generated using pymatgen
data_K4GeO4
_symmetry_space_group_name_H-M   'P 1'
_cell_length_a   6.55965214
_cell_length_b   10.43613819
_cell_length_c   10.48818114
_cell_angle_alpha   68.25865556
_cell_angle_beta   90.00000000
_cell_angle_gamma   90.00000000
_symmetry_Int_Tables_number   1
_chemical_formula_structural   K4GeO4
_chemical_formula_sum   'K16 Ge4 O16'
_cell_volume   666.91986335
_cell_formula_units_Z   4
loop_
 _symmetry_equiv_pos_site_id
 _symmetry_equiv_pos_as_xyz
  1  'x, y, z'
loop_
 _atom_site_type_symbol
 _atom_site_label
 _atom_site_symmetry_multiplicity
 _atom_site_fract_x
 _atom_site_fract_y
 _atom_site_fract_z
 _atom_site_occupancy
  K  K0  1  0.19572234  0.93258008  0.19994760  1
  K  K1  1  0.30427766  0.93258008  0.69994760  1
  K  K2  1  0.60593467  0.66354893  0.91477763  1
  K  K3  1  0.90851606  0.44187940  0.19612419  1
  K  K4  1  0.40851606  0.55812060  0.30387581  1
  K  K5  1  0.09148394  0.55812060  0.80387581  1
  K  K6  1  0.59148394  0.44187940  0.69612419  1
  K  K7  1  0.16546766  0.13524747  0.38909150  1
  K  K8  1  0.66546766  0.86475253  0.11090850  1
  K  K9  1  0.83453234  0.86475253  0.61090850  1
  K  K10  1  0.33453234  0.13524747  0.88909150  1
  K  K11  1  0.89406533  0.66354893  0.41477763  1
  K  K12  1  0.39406533  0.33645107  0.08522237  1
  K  K13  1  0.10593467  0.33645107  0.58522237  1
  K  K14  1  0.69572234  0.06741992  0.30005240  1
  K  K15  1  0.80427766  0.06741992  0.80005240  1
  Ge  Ge16  1  0.63404681  0.25810509  0.49210915  1
  Ge  Ge17  1  0.36595319  0.74189491  0.50789085  1
  Ge  Ge18  1  0.86595319  0.25810509  0.99210915  1
  Ge  Ge19  1  0.13404681  0.74189491  0.00789085  1
  O  O20  1  0.00096465  0.27612579  0.83973133  1
  O  O21  1  0.25654626  0.57868244  0.53395575  1
  O  O22  1  0.75654626  0.42131756  0.96604425  1
  O  O23  1  0.02991903  0.19937771  0.13849565  1
  O  O24  1  0.52991903  0.80062229  0.36150435  1
  O  O25  1  0.97008097  0.80062229  0.86150435  1
  O  O26  1  0.47008097  0.19937771  0.63849565  1
  O  O27  1  0.66541934  0.13473567  0.02196647  1
  O  O28  1  0.16541934  0.86526433  0.47803353  1
  O  O29  1  0.33458066  0.86526433  0.97803353  1
  O  O30  1  0.83458066  0.13473567  0.52196647  1
  O  O31  1  0.49903535  0.27612579  0.33973133  1
  O  O32  1  0.74345374  0.42131756  0.46604425  1
  O  O33  1  0.99903535  0.72387421  0.16026867  1
  O  O34  1  0.50096465  0.72387421  0.66026867  1
  O  O35  1  0.24345374  0.57868244  0.03395575  1
