# generated using pymatgen
data_HgS2O7
_symmetry_space_group_name_H-M   'P 1'
_cell_length_a   12.98956202
_cell_length_b   5.21007015
_cell_length_c   9.57959209
_cell_angle_alpha   59.47739475
_cell_angle_beta   90.00000000
_cell_angle_gamma   90.00000000
_symmetry_Int_Tables_number   1
_chemical_formula_structural   HgS2O7
_chemical_formula_sum   'Hg4 S8 O28'
_cell_volume   558.47599223
_cell_formula_units_Z   4
loop_
 _symmetry_equiv_pos_site_id
 _symmetry_equiv_pos_as_xyz
  1  'x, y, z'
loop_
 _atom_site_type_symbol
 _atom_site_label
 _atom_site_symmetry_multiplicity
 _atom_site_fract_x
 _atom_site_fract_y
 _atom_site_fract_z
 _atom_site_occupancy
  Hg  Hg0  1  0.65710293  0.14620526  0.17138947  1
  Hg  Hg1  1  0.84289707  0.14620526  0.67138947  1
  Hg  Hg2  1  0.34289707  0.85379474  0.82861053  1
  Hg  Hg3  1  0.15710293  0.85379474  0.32861053  1
  S  S4  1  0.47897096  0.64029899  0.19215027  1
  S  S5  1  0.02102904  0.64029899  0.69215027  1
  S  S6  1  0.52102904  0.35970101  0.80784973  1
  S  S7  1  0.97897096  0.35970101  0.30784973  1
  S  S8  1  0.82332977  0.74190264  0.09101843  1
  S  S9  1  0.67667023  0.74190264  0.59101843  1
  S  S10  1  0.17667023  0.25809736  0.90898157  1
  S  S11  1  0.32332977  0.25809736  0.40898157  1
  O  O12  1  0.44131949  0.31759028  0.34103430  1
  O  O13  1  0.05868051  0.31759028  0.84103430  1
  O  O14  1  0.55868051  0.68240972  0.65896570  1
  O  O15  1  0.94131949  0.68240972  0.15896570  1
  O  O16  1  0.83380504  0.02472396  0.94291937  1
  O  O17  1  0.66619496  0.02472396  0.44291937  1
  O  O18  1  0.16619496  0.97527604  0.05708063  1
  O  O19  1  0.33380504  0.97527604  0.55708063  1
  O  O20  1  0.76359473  0.76045265  0.21383379  1
  O  O21  1  0.73640527  0.76045265  0.71383379  1
  O  O22  1  0.23640527  0.23954735  0.78616621  1
  O  O23  1  0.26359473  0.23954735  0.28616621  1
  O  O24  1  0.39027539  0.77286736  0.08831805  1
  O  O25  1  0.10972461  0.77286736  0.58831805  1
  O  O26  1  0.60972461  0.22713264  0.91168195  1
  O  O27  1  0.89027539  0.22713264  0.41168195  1
  O  O28  1  0.56021855  0.55796456  0.11923487  1
  O  O29  1  0.93978145  0.55796456  0.61923487  1
  O  O30  1  0.43978145  0.44203544  0.88076513  1
  O  O31  1  0.06021855  0.44203544  0.38076513  1
  O  O32  1  0.51346410  0.80296010  0.26851554  1
  O  O33  1  0.98653590  0.80296010  0.76851554  1
  O  O34  1  0.48653590  0.19703990  0.73148446  1
  O  O35  1  0.01346410  0.19703990  0.23148446  1
  O  O36  1  0.79686655  0.49222089  0.07205521  1
  O  O37  1  0.70313345  0.49222089  0.57205521  1
  O  O38  1  0.20313345  0.50777911  0.92794479  1
  O  O39  1  0.29686655  0.50777911  0.42794479  1
