# generated using pymatgen
data_NaInSn2
_symmetry_space_group_name_H-M   'P 1'
_cell_length_a   6.35394734
_cell_length_b   6.56535185
_cell_length_c   11.51751760
_cell_angle_alpha   90.00000000
_cell_angle_beta   90.00000000
_cell_angle_gamma   90.00000000
_symmetry_Int_Tables_number   1
_chemical_formula_structural   NaInSn2
_chemical_formula_sum   'Na4 In4 Sn8'
_cell_volume   480.46361157
_cell_formula_units_Z   4
loop_
 _symmetry_equiv_pos_site_id
 _symmetry_equiv_pos_as_xyz
  1  'x, y, z'
loop_
 _atom_site_type_symbol
 _atom_site_label
 _atom_site_symmetry_multiplicity
 _atom_site_fract_x
 _atom_site_fract_y
 _atom_site_fract_z
 _atom_site_occupancy
  Na  Na0  1  0.88473683  0.61998614  0.06480270  1
  Na  Na1  1  0.61526317  0.38001386  0.56480270  1
  Na  Na2  1  0.38473683  0.88001386  0.93519730  1
  Na  Na3  1  0.11526317  0.11998614  0.43519730  1
  In  In4  1  0.60118979  0.90974331  0.38941281  1
  In  In5  1  0.89881021  0.09025669  0.88941281  1
  In  In6  1  0.10118979  0.59025669  0.61058719  1
  In  In7  1  0.39881021  0.40974331  0.11058719  1
  Sn  Sn8  1  0.77111190  0.72954061  0.76445042  1
  Sn  Sn9  1  0.72888810  0.27045939  0.26445042  1
  Sn  Sn10  1  0.27111190  0.77045939  0.23554958  1
  Sn  Sn11  1  0.22888810  0.22954061  0.73554958  1
  Sn  Sn12  1  0.93310160  0.61318770  0.37781063  1
  Sn  Sn13  1  0.56689840  0.38681230  0.87781063  1
  Sn  Sn14  1  0.43310160  0.88681230  0.62218937  1
  Sn  Sn15  1  0.06689840  0.11318770  0.12218937  1
