# generated using pymatgen
data_LiMg14SbO16
_symmetry_space_group_name_H-M   'P 1'
_cell_length_a   8.64968692
_cell_length_b   8.64968692
_cell_length_c   4.32904233
_cell_angle_alpha   90.00000000
_cell_angle_beta   90.00000000
_cell_angle_gamma   90.00000000
_symmetry_Int_Tables_number   1
_chemical_formula_structural   LiMg14SbO16
_chemical_formula_sum   'Li1 Mg14 Sb1 O16'
_cell_volume   323.88632284
_cell_formula_units_Z   1
loop_
 _symmetry_equiv_pos_site_id
 _symmetry_equiv_pos_as_xyz
  1  'x, y, z'
loop_
 _atom_site_type_symbol
 _atom_site_label
 _atom_site_symmetry_multiplicity
 _atom_site_fract_x
 _atom_site_fract_y
 _atom_site_fract_z
 _atom_site_occupancy
  Li  Li0  1  -0.00000000  0.00000000  -0.00000000  1
  Mg  Mg1  1  -0.00000000  0.50000000  -0.00000000  1
  Mg  Mg2  1  0.50000000  0.00000000  -0.00000000  1
  Mg  Mg3  1  -0.00000000  0.24123470  0.50000000  1
  Mg  Mg4  1  -0.00000000  0.75876530  0.50000000  1
  Mg  Mg5  1  0.50000000  0.23543272  0.50000000  1
  Mg  Mg6  1  0.50000000  0.76456728  0.50000000  1
  Mg  Mg7  1  0.24123470  0.00000000  0.50000000  1
  Mg  Mg8  1  0.23543272  0.50000000  0.50000000  1
  Mg  Mg9  1  0.75876530  0.00000000  0.50000000  1
  Mg  Mg10  1  0.76456728  0.50000000  0.50000000  1
  Mg  Mg11  1  0.23819700  0.23819700  -0.00000000  1
  Mg  Mg12  1  0.23819700  0.76180300  0.00000000  1
  Mg  Mg13  1  0.76180300  0.23819700  -0.00000000  1
  Mg  Mg14  1  0.76180300  0.76180300  -0.00000000  1
  Sb  Sb15  1  0.50000000  0.50000000  -0.00000000  1
  O  O16  1  0.25679726  0.00000000  -0.00000000  1
  O  O17  1  0.23857433  0.50000000  -0.00000000  1
  O  O18  1  0.74320274  0.00000000  0.00000000  1
  O  O19  1  0.76142567  0.50000000  0.00000000  1
  O  O20  1  0.25223879  0.25223879  0.50000000  1
  O  O21  1  0.25223879  0.74776121  0.50000000  1
  O  O22  1  0.74776121  0.25223879  0.50000000  1
  O  O23  1  0.74776121  0.74776121  0.50000000  1
  O  O24  1  -0.00000000  0.00000000  0.50000000  1
  O  O25  1  -0.00000000  0.50000000  0.50000000  1
  O  O26  1  0.50000000  0.00000000  0.50000000  1
  O  O27  1  0.50000000  0.50000000  0.50000000  1
  O  O28  1  -0.00000000  0.25679726  -0.00000000  1
  O  O29  1  -0.00000000  0.74320274  0.00000000  1
  O  O30  1  0.50000000  0.23857433  -0.00000000  1
  O  O31  1  0.50000000  0.76142567  -0.00000000  1
