# generated using pymatgen
data_Cs2SnSe3
_symmetry_space_group_name_H-M   'P 1'
_cell_length_a   7.58163038
_cell_length_b   8.34637223
_cell_length_c   9.66942464
_cell_angle_alpha   72.29475444
_cell_angle_beta   66.91841628
_cell_angle_gamma   62.98735246
_symmetry_Int_Tables_number   1
_chemical_formula_structural   Cs2SnSe3
_chemical_formula_sum   'Cs4 Sn2 Se6'
_cell_volume   495.51548296
_cell_formula_units_Z   2
loop_
 _symmetry_equiv_pos_site_id
 _symmetry_equiv_pos_as_xyz
  1  'x, y, z'
loop_
 _atom_site_type_symbol
 _atom_site_label
 _atom_site_symmetry_multiplicity
 _atom_site_fract_x
 _atom_site_fract_y
 _atom_site_fract_z
 _atom_site_occupancy
  Cs  Cs0  1  0.68955935  0.93784792  0.68303037  1
  Cs  Cs1  1  0.31044065  0.06215208  0.31696963  1
  Cs  Cs2  1  0.91503975  0.30252087  0.86740163  1
  Cs  Cs3  1  0.08496025  0.69747913  0.13259837  1
  Sn  Sn4  1  0.62105771  0.44501395  0.31287163  1
  Sn  Sn5  1  0.37894229  0.55498605  0.68712837  1
  Se  Se6  1  0.61411919  0.68501469  0.08674793  1
  Se  Se7  1  0.38588081  0.31498531  0.91325207  1
  Se  Se8  1  0.80215008  0.12241557  0.27328426  1
  Se  Se9  1  0.19784992  0.87758443  0.72671574  1
  Se  Se10  1  0.75372679  0.50000000  0.50000000  1
  Se  Se11  1  0.24627321  0.50000000  0.50000000  1
