# generated using pymatgen
data_K4Sr(SiO3)3
_symmetry_space_group_name_H-M   'P 1'
_cell_length_a   16.37721873
_cell_length_b   16.37721873
_cell_length_c   16.37721873
_cell_angle_alpha   90.00000000
_cell_angle_beta   90.00000000
_cell_angle_gamma   90.00000000
_symmetry_Int_Tables_number   1
_chemical_formula_structural   K4Sr(SiO3)3
_chemical_formula_sum   'K64 Sr16 Si48 O144'
_cell_volume   4392.58777116
_cell_formula_units_Z   16
loop_
 _symmetry_equiv_pos_site_id
 _symmetry_equiv_pos_as_xyz
  1  'x, y, z'
loop_
 _atom_site_type_symbol
 _atom_site_label
 _atom_site_symmetry_multiplicity
 _atom_site_fract_x
 _atom_site_fract_y
 _atom_site_fract_z
 _atom_site_occupancy
  K  K0  1  0.50000000  0.50000000  -0.00000000  1
  K  K1  1  0.50000000  -0.00000000  0.50000000  1
  K  K2  1  -0.00000000  0.50000000  0.50000000  1
  K  K3  1  -0.00000000  -0.00000000  -0.00000000  1
  K  K4  1  -0.00000000  0.00000000  0.50000000  1
  K  K5  1  -0.00000000  0.50000000  -0.00000000  1
  K  K6  1  0.50000000  0.00000000  -0.00000000  1
  K  K7  1  0.50000000  0.50000000  0.50000000  1
  K  K8  1  0.25095672  0.74904328  0.24904328  1
  K  K9  1  0.74904328  0.24904328  0.25095672  1
  K  K10  1  0.24904328  0.25095672  0.74904328  1
  K  K11  1  0.75095672  0.75095672  0.75095672  1
  K  K12  1  0.74904328  0.25095672  0.75095672  1
  K  K13  1  0.25095672  0.75095672  0.74904328  1
  K  K14  1  0.75095672  0.74904328  0.25095672  1
  K  K15  1  0.24904328  0.24904328  0.24904328  1
  K  K16  1  0.11012479  0.88826399  0.14498445  1
  K  K17  1  0.88987521  0.38826399  0.35501555  1
  K  K18  1  0.38987521  0.11173601  0.64498445  1
  K  K19  1  0.61012479  0.61173601  0.85501555  1
  K  K20  1  0.14498445  0.11012479  0.88826399  1
  K  K21  1  0.35501555  0.88987521  0.38826399  1
  K  K22  1  0.64498445  0.38987521  0.11173601  1
  K  K23  1  0.85501555  0.61012479  0.61173601  1
  K  K24  1  0.88826399  0.14498445  0.11012479  1
  K  K25  1  0.38826399  0.35501555  0.88987521  1
  K  K26  1  0.11173601  0.64498445  0.38987521  1
  K  K27  1  0.61173601  0.85501555  0.61012479  1
  K  K28  1  0.88987521  0.11173601  0.85501555  1
  K  K29  1  0.11012479  0.61173601  0.64498445  1
  K  K30  1  0.61012479  0.88826399  0.35501555  1
  K  K31  1  0.38987521  0.38826399  0.14498445  1
  K  K32  1  0.85501555  0.88987521  0.11173601  1
  K  K33  1  0.64498445  0.11012479  0.61173601  1
  K  K34  1  0.35501555  0.61012479  0.88826399  1
  K  K35  1  0.14498445  0.38987521  0.38826399  1
  K  K36  1  0.11173601  0.85501555  0.88987521  1
  K  K37  1  0.61173601  0.64498445  0.11012479  1
  K  K38  1  0.88826399  0.35501555  0.61012479  1
  K  K39  1  0.38826399  0.14498445  0.38987521  1
  K  K40  1  0.35791978  0.58812813  0.34842142  1
  K  K41  1  0.64208022  0.08812813  0.15157858  1
  K  K42  1  0.14208022  0.41187187  0.84842142  1
  K  K43  1  0.85791978  0.91187187  0.65157858  1
  K  K44  1  0.34842142  0.35791978  0.58812813  1
  K  K45  1  0.15157858  0.64208022  0.08812813  1
  K  K46  1  0.84842142  0.14208022  0.41187187  1
  K  K47  1  0.65157858  0.85791978  0.91187187  1
  K  K48  1  0.58812813  0.34842142  0.35791978  1
  K  K49  1  0.08812813  0.15157858  0.64208022  1
  K  K50  1  0.41187187  0.84842142  0.14208022  1
  K  K51  1  0.91187187  0.65157858  0.85791978  1
  K  K52  1  0.64208022  0.41187187  0.65157858  1
  K  K53  1  0.35791978  0.91187187  0.84842142  1
  K  K54  1  0.85791978  0.58812813  0.15157858  1
  K  K55  1  0.14208022  0.08812813  0.34842142  1
  K  K56  1  0.65157858  0.64208022  0.41187187  1
  K  K57  1  0.84842142  0.35791978  0.91187187  1
  K  K58  1  0.15157858  0.85791978  0.58812813  1
  K  K59  1  0.34842142  0.14208022  0.08812813  1
  K  K60  1  0.41187187  0.65157858  0.64208022  1
  K  K61  1  0.91187187  0.84842142  0.35791978  1
  K  K62  1  0.58812813  0.15157858  0.85791978  1
  K  K63  1  0.08812813  0.34842142  0.14208022  1
  Sr  Sr64  1  0.37666115  0.62333885  0.12333885  1
  Sr  Sr65  1  0.62333885  0.12333885  0.37666115  1
  Sr  Sr66  1  0.12333885  0.37666115  0.62333885  1
  Sr  Sr67  1  0.87666115  0.87666115  0.87666115  1
  Sr  Sr68  1  0.62333885  0.37666115  0.87666115  1
  Sr  Sr69  1  0.37666115  0.87666115  0.62333885  1
  Sr  Sr70  1  0.87666115  0.62333885  0.37666115  1
  Sr  Sr71  1  0.12333885  0.12333885  0.12333885  1
  Sr  Sr72  1  0.12706545  0.87293455  0.37293455  1
  Sr  Sr73  1  0.87293455  0.37293455  0.12706545  1
  Sr  Sr74  1  0.37293455  0.12706545  0.87293455  1
  Sr  Sr75  1  0.62706545  0.62706545  0.62706545  1
  Sr  Sr76  1  0.87293455  0.12706545  0.62706545  1
  Sr  Sr77  1  0.12706545  0.62706545  0.87293455  1
  Sr  Sr78  1  0.62706545  0.87293455  0.12706545  1
  Sr  Sr79  1  0.37293455  0.37293455  0.37293455  1
  Si  Si80  1  0.27799021  0.99063898  0.21691308  1
  Si  Si81  1  0.72200979  0.49063898  0.28308692  1
  Si  Si82  1  0.22200979  0.00936102  0.71691308  1
  Si  Si83  1  0.77799021  0.50936102  0.78308692  1
  Si  Si84  1  0.21691308  0.27799021  0.99063898  1
  Si  Si85  1  0.28308692  0.72200979  0.49063898  1
  Si  Si86  1  0.71691308  0.22200979  0.00936102  1
  Si  Si87  1  0.78308692  0.77799021  0.50936102  1
  Si  Si88  1  0.99063898  0.21691308  0.27799021  1
  Si  Si89  1  0.49063898  0.28308692  0.72200979  1
  Si  Si90  1  0.00936102  0.71691308  0.22200979  1
  Si  Si91  1  0.50936102  0.78308692  0.77799021  1
  Si  Si92  1  0.72200979  0.00936102  0.78308692  1
  Si  Si93  1  0.27799021  0.50936102  0.71691308  1
  Si  Si94  1  0.77799021  0.99063898  0.28308692  1
  Si  Si95  1  0.22200979  0.49063898  0.21691308  1
  Si  Si96  1  0.78308692  0.72200979  0.00936102  1
  Si  Si97  1  0.71691308  0.27799021  0.50936102  1
  Si  Si98  1  0.28308692  0.77799021  0.99063898  1
  Si  Si99  1  0.21691308  0.22200979  0.49063898  1
  Si  Si100  1  0.00936102  0.78308692  0.72200979  1
  Si  Si101  1  0.50936102  0.71691308  0.27799021  1
  Si  Si102  1  0.99063898  0.28308692  0.77799021  1
  Si  Si103  1  0.49063898  0.21691308  0.22200979  1
  Si  Si104  1  0.25643520  0.97024102  0.02310314  1
  Si  Si105  1  0.74356480  0.47024102  0.47689686  1
  Si  Si106  1  0.24356480  0.02975898  0.52310314  1
  Si  Si107  1  0.75643520  0.52975898  0.97689686  1
  Si  Si108  1  0.02310314  0.25643520  0.97024102  1
  Si  Si109  1  0.47689686  0.74356480  0.47024102  1
  Si  Si110  1  0.52310314  0.24356480  0.02975898  1
  Si  Si111  1  0.97689686  0.75643520  0.52975898  1
  Si  Si112  1  0.97024102  0.02310314  0.25643520  1
  Si  Si113  1  0.47024102  0.47689686  0.74356480  1
  Si  Si114  1  0.02975898  0.52310314  0.24356480  1
  Si  Si115  1  0.52975898  0.97689686  0.75643520  1
  Si  Si116  1  0.74356480  0.02975898  0.97689686  1
  Si  Si117  1  0.25643520  0.52975898  0.52310314  1
  Si  Si118  1  0.75643520  0.97024102  0.47689686  1
  Si  Si119  1  0.24356480  0.47024102  0.02310314  1
  Si  Si120  1  0.97689686  0.74356480  0.02975898  1
  Si  Si121  1  0.52310314  0.25643520  0.52975898  1
  Si  Si122  1  0.47689686  0.75643520  0.97024102  1
  Si  Si123  1  0.02310314  0.24356480  0.47024102  1
  Si  Si124  1  0.02975898  0.97689686  0.74356480  1
  Si  Si125  1  0.52975898  0.52310314  0.25643520  1
  Si  Si126  1  0.97024102  0.47689686  0.75643520  1
  Si  Si127  1  0.47024102  0.02310314  0.24356480  1
  O  O128  1  0.07812250  0.76721864  0.27288786  1
  O  O129  1  0.92187750  0.26721864  0.22711214  1
  O  O130  1  0.42187750  0.23278136  0.77288786  1
  O  O131  1  0.57812250  0.73278136  0.72711214  1
  O  O132  1  0.27288786  0.07812250  0.76721864  1
  O  O133  1  0.22711214  0.92187750  0.26721864  1
  O  O134  1  0.77288786  0.42187750  0.23278136  1
  O  O135  1  0.72711214  0.57812250  0.73278136  1
  O  O136  1  0.76721864  0.27288786  0.07812250  1
  O  O137  1  0.26721864  0.22711214  0.92187750  1
  O  O138  1  0.23278136  0.77288786  0.42187750  1
  O  O139  1  0.73278136  0.72711214  0.57812250  1
  O  O140  1  0.92187750  0.23278136  0.72711214  1
  O  O141  1  0.07812250  0.73278136  0.77288786  1
  O  O142  1  0.57812250  0.76721864  0.22711214  1
  O  O143  1  0.42187750  0.26721864  0.27288786  1
  O  O144  1  0.72711214  0.92187750  0.23278136  1
  O  O145  1  0.77288786  0.07812250  0.73278136  1
  O  O146  1  0.22711214  0.57812250  0.76721864  1
  O  O147  1  0.27288786  0.42187750  0.26721864  1
  O  O148  1  0.23278136  0.72711214  0.92187750  1
  O  O149  1  0.73278136  0.77288786  0.07812250  1
  O  O150  1  0.76721864  0.22711214  0.57812250  1
  O  O151  1  0.26721864  0.27288786  0.42187750  1
  O  O152  1  0.02802473  0.82633760  0.48163796  1
  O  O153  1  0.97197527  0.32633760  0.01836204  1
  O  O154  1  0.47197527  0.17366240  0.98163796  1
  O  O155  1  0.52802473  0.67366240  0.51836204  1
  O  O156  1  0.48163796  0.02802473  0.82633760  1
  O  O157  1  0.01836204  0.97197527  0.32633760  1
  O  O158  1  0.98163796  0.47197527  0.17366240  1
  O  O159  1  0.51836204  0.52802473  0.67366240  1
  O  O160  1  0.82633760  0.48163796  0.02802473  1
  O  O161  1  0.32633760  0.01836204  0.97197527  1
  O  O162  1  0.17366240  0.98163796  0.47197527  1
  O  O163  1  0.67366240  0.51836204  0.52802473  1
  O  O164  1  0.97197527  0.17366240  0.51836204  1
  O  O165  1  0.02802473  0.67366240  0.98163796  1
  O  O166  1  0.52802473  0.82633760  0.01836204  1
  O  O167  1  0.47197527  0.32633760  0.48163796  1
  O  O168  1  0.51836204  0.97197527  0.17366240  1
  O  O169  1  0.98163796  0.02802473  0.67366240  1
  O  O170  1  0.01836204  0.52802473  0.82633760  1
  O  O171  1  0.48163796  0.47197527  0.32633760  1
  O  O172  1  0.17366240  0.51836204  0.97197527  1
  O  O173  1  0.67366240  0.98163796  0.02802473  1
  O  O174  1  0.82633760  0.01836204  0.52802473  1
  O  O175  1  0.32633760  0.48163796  0.47197527  1
  O  O176  1  0.04106238  0.61969883  0.21083447  1
  O  O177  1  0.95893762  0.11969883  0.28916553  1
  O  O178  1  0.45893762  0.38030117  0.71083447  1
  O  O179  1  0.54106238  0.88030117  0.78916553  1
  O  O180  1  0.21083447  0.04106238  0.61969883  1
  O  O181  1  0.28916553  0.95893762  0.11969883  1
  O  O182  1  0.71083447  0.45893762  0.38030117  1
  O  O183  1  0.78916553  0.54106238  0.88030117  1
  O  O184  1  0.61969883  0.21083447  0.04106238  1
  O  O185  1  0.11969883  0.28916553  0.95893762  1
  O  O186  1  0.38030117  0.71083447  0.45893762  1
  O  O187  1  0.88030117  0.78916553  0.54106238  1
  O  O188  1  0.95893762  0.38030117  0.78916553  1
  O  O189  1  0.04106238  0.88030117  0.71083447  1
  O  O190  1  0.54106238  0.61969883  0.28916553  1
  O  O191  1  0.45893762  0.11969883  0.21083447  1
  O  O192  1  0.78916553  0.95893762  0.38030117  1
  O  O193  1  0.71083447  0.04106238  0.88030117  1
  O  O194  1  0.28916553  0.54106238  0.61969883  1
  O  O195  1  0.21083447  0.45893762  0.11969883  1
  O  O196  1  0.38030117  0.78916553  0.95893762  1
  O  O197  1  0.88030117  0.71083447  0.04106238  1
  O  O198  1  0.61969883  0.28916553  0.54106238  1
  O  O199  1  0.11969883  0.21083447  0.45893762  1
  O  O200  1  0.25914113  0.58232330  0.21710796  1
  O  O201  1  0.74085887  0.08232330  0.28289204  1
  O  O202  1  0.24085887  0.41767670  0.71710796  1
  O  O203  1  0.75914113  0.91767670  0.78289204  1
  O  O204  1  0.21710796  0.25914113  0.58232330  1
  O  O205  1  0.28289204  0.74085887  0.08232330  1
  O  O206  1  0.71710796  0.24085887  0.41767670  1
  O  O207  1  0.78289204  0.75914113  0.91767670  1
  O  O208  1  0.58232330  0.21710796  0.25914113  1
  O  O209  1  0.08232330  0.28289204  0.74085887  1
  O  O210  1  0.41767670  0.71710796  0.24085887  1
  O  O211  1  0.91767670  0.78289204  0.75914113  1
  O  O212  1  0.74085887  0.41767670  0.78289204  1
  O  O213  1  0.25914113  0.91767670  0.71710796  1
  O  O214  1  0.75914113  0.58232330  0.28289204  1
  O  O215  1  0.24085887  0.08232330  0.21710796  1
  O  O216  1  0.78289204  0.74085887  0.41767670  1
  O  O217  1  0.71710796  0.25914113  0.91767670  1
  O  O218  1  0.28289204  0.75914113  0.58232330  1
  O  O219  1  0.21710796  0.24085887  0.08232330  1
  O  O220  1  0.41767670  0.78289204  0.74085887  1
  O  O221  1  0.91767670  0.71710796  0.25914113  1
  O  O222  1  0.58232330  0.28289204  0.75914113  1
  O  O223  1  0.08232330  0.21710796  0.24085887  1
  O  O224  1  0.33428580  0.51030984  0.02313761  1
  O  O225  1  0.66571420  0.01030984  0.47686239  1
  O  O226  1  0.16571420  0.48969016  0.52313761  1
  O  O227  1  0.83428580  0.98969016  0.97686239  1
  O  O228  1  0.02313761  0.33428580  0.51030984  1
  O  O229  1  0.47686239  0.66571420  0.01030984  1
  O  O230  1  0.52313761  0.16571420  0.48969016  1
  O  O231  1  0.97686239  0.83428580  0.98969016  1
  O  O232  1  0.51030984  0.02313761  0.33428580  1
  O  O233  1  0.01030984  0.47686239  0.66571420  1
  O  O234  1  0.48969016  0.52313761  0.16571420  1
  O  O235  1  0.98969016  0.97686239  0.83428580  1
  O  O236  1  0.66571420  0.48969016  0.97686239  1
  O  O237  1  0.33428580  0.98969016  0.52313761  1
  O  O238  1  0.83428580  0.51030984  0.47686239  1
  O  O239  1  0.16571420  0.01030984  0.02313761  1
  O  O240  1  0.97686239  0.66571420  0.48969016  1
  O  O241  1  0.52313761  0.33428580  0.98969016  1
  O  O242  1  0.47686239  0.83428580  0.51030984  1
  O  O243  1  0.02313761  0.16571420  0.01030984  1
  O  O244  1  0.48969016  0.97686239  0.66571420  1
  O  O245  1  0.98969016  0.52313761  0.33428580  1
  O  O246  1  0.51030984  0.47686239  0.83428580  1
  O  O247  1  0.01030984  0.02313761  0.16571420  1
  O  O248  1  0.01212594  0.75384511  0.12595621  1
  O  O249  1  0.98787406  0.25384511  0.37404379  1
  O  O250  1  0.48787406  0.24615489  0.62595621  1
  O  O251  1  0.51212594  0.74615489  0.87404379  1
  O  O252  1  0.12595621  0.01212594  0.75384511  1
  O  O253  1  0.37404379  0.98787406  0.25384511  1
  O  O254  1  0.62595621  0.48787406  0.24615489  1
  O  O255  1  0.87404379  0.51212594  0.74615489  1
  O  O256  1  0.75384511  0.12595621  0.01212594  1
  O  O257  1  0.25384511  0.37404379  0.98787406  1
  O  O258  1  0.24615489  0.62595621  0.48787406  1
  O  O259  1  0.74615489  0.87404379  0.51212594  1
  O  O260  1  0.98787406  0.24615489  0.87404379  1
  O  O261  1  0.01212594  0.74615489  0.62595621  1
  O  O262  1  0.51212594  0.75384511  0.37404379  1
  O  O263  1  0.48787406  0.25384511  0.12595621  1
  O  O264  1  0.87404379  0.98787406  0.24615489  1
  O  O265  1  0.62595621  0.01212594  0.74615489  1
  O  O266  1  0.37404379  0.51212594  0.75384511  1
  O  O267  1  0.12595621  0.48787406  0.25384511  1
  O  O268  1  0.24615489  0.87404379  0.98787406  1
  O  O269  1  0.74615489  0.62595621  0.01212594  1
  O  O270  1  0.75384511  0.37404379  0.51212594  1
  O  O271  1  0.25384511  0.12595621  0.48787406  1
