# generated using pymatgen
data_Ba3GaS4Cl
_symmetry_space_group_name_H-M   'P 1'
_cell_length_a   8.51277787
_cell_length_b   9.64321393
_cell_length_c   12.40152509
_cell_angle_alpha   90.00000000
_cell_angle_beta   90.00000000
_cell_angle_gamma   90.00000000
_symmetry_Int_Tables_number   1
_chemical_formula_structural   Ba3GaS4Cl
_chemical_formula_sum   'Ba12 Ga4 S16 Cl4'
_cell_volume   1018.04786838
_cell_formula_units_Z   4
loop_
 _symmetry_equiv_pos_site_id
 _symmetry_equiv_pos_as_xyz
  1  'x, y, z'
loop_
 _atom_site_type_symbol
 _atom_site_label
 _atom_site_symmetry_multiplicity
 _atom_site_fract_x
 _atom_site_fract_y
 _atom_site_fract_z
 _atom_site_occupancy
  Ba  Ba0  1  0.41404922  0.75000000  0.48077098  1
  Ba  Ba1  1  0.08595078  0.75000000  0.98077098  1
  Ba  Ba2  1  0.58595078  0.25000000  0.51922902  1
  Ba  Ba3  1  0.91404922  0.25000000  0.01922902  1
  Ba  Ba4  1  0.08407381  0.48025335  0.66776829  1
  Ba  Ba5  1  0.41592619  0.01974665  0.16776829  1
  Ba  Ba6  1  0.91592619  0.98025335  0.33223171  1
  Ba  Ba7  1  0.58407381  0.51974665  0.83223171  1
  Ba  Ba8  1  0.91592619  0.51974665  0.33223171  1
  Ba  Ba9  1  0.58407381  0.98025335  0.83223171  1
  Ba  Ba10  1  0.08407381  0.01974665  0.66776829  1
  Ba  Ba11  1  0.41592619  0.48025335  0.16776829  1
  Ga  Ga12  1  0.81125674  0.75000000  0.60646546  1
  Ga  Ga13  1  0.68874326  0.75000000  0.10646546  1
  Ga  Ga14  1  0.18874326  0.25000000  0.39353454  1
  Ga  Ga15  1  0.31125674  0.25000000  0.89353454  1
  S  S16  1  0.31185940  0.45074291  0.42664211  1
  S  S17  1  0.18814060  0.04925709  0.92664211  1
  S  S18  1  0.68814060  0.95074291  0.57335789  1
  S  S19  1  0.81185940  0.54925709  0.07335789  1
  S  S20  1  0.68814060  0.54925709  0.57335789  1
  S  S21  1  0.81185940  0.95074291  0.07335789  1
  S  S22  1  0.31185940  0.04925709  0.42664211  1
  S  S23  1  0.18814060  0.45074291  0.92664211  1
  S  S24  1  0.63744289  0.75000000  0.28631393  1
  S  S25  1  0.86255711  0.75000000  0.78631393  1
  S  S26  1  0.36255711  0.25000000  0.71368607  1
  S  S27  1  0.13744289  0.25000000  0.21368607  1
  S  S28  1  0.03538680  0.75000000  0.50713984  1
  S  S29  1  0.46461320  0.75000000  0.00713984  1
  S  S30  1  0.96461320  0.25000000  0.49286016  1
  S  S31  1  0.53538680  0.25000000  0.99286016  1
  Cl  Cl32  1  0.33286472  0.75000000  0.73064639  1
  Cl  Cl33  1  0.16713528  0.75000000  0.23064639  1
  Cl  Cl34  1  0.66713528  0.25000000  0.26935361  1
  Cl  Cl35  1  0.83286472  0.25000000  0.76935361  1
