# generated using pymatgen
data_Rb2V3O8
_symmetry_space_group_name_H-M   'P 1'
_cell_length_a   8.89749741
_cell_length_b   8.89749741
_cell_length_c   5.68406447
_cell_angle_alpha   90.00000000
_cell_angle_beta   90.00000000
_cell_angle_gamma   90.00000000
_symmetry_Int_Tables_number   1
_chemical_formula_structural   Rb2V3O8
_chemical_formula_sum   'Rb4 V6 O16'
_cell_volume   449.98157935
_cell_formula_units_Z   2
loop_
 _symmetry_equiv_pos_site_id
 _symmetry_equiv_pos_as_xyz
  1  'x, y, z'
loop_
 _atom_site_type_symbol
 _atom_site_label
 _atom_site_symmetry_multiplicity
 _atom_site_fract_x
 _atom_site_fract_y
 _atom_site_fract_z
 _atom_site_occupancy
  Rb  Rb0  1  0.16682433  0.66682433  0.00994152  1
  Rb  Rb1  1  0.66682433  0.83317567  0.00994152  1
  Rb  Rb2  1  0.33317567  0.16682433  0.00994152  1
  Rb  Rb3  1  0.83317567  0.33317567  0.00994152  1
  V  V4  1  0.36534744  0.86534744  0.52897035  1
  V  V5  1  0.86534744  0.63465256  0.52897035  1
  V  V6  1  0.13465256  0.36534744  0.52897035  1
  V  V7  1  0.63465256  0.13465256  0.52897035  1
  V  V8  1  0.50000000  0.50000000  0.72040909  1
  V  V9  1  0.00000000  0.00000000  0.72040909  1
  O  O10  1  0.50000000  0.50000000  0.00611512  1
  O  O11  1  0.00000000  0.00000000  0.00611512  1
  O  O12  1  0.80680781  0.08349494  0.64050143  1
  O  O13  1  0.19319219  0.91650506  0.64050143  1
  O  O14  1  0.91650506  0.80680781  0.64050143  1
  O  O15  1  0.08349494  0.19319219  0.64050143  1
  O  O16  1  0.41650506  0.69319219  0.64050143  1
  O  O17  1  0.69319219  0.58349494  0.64050143  1
  O  O18  1  0.30680781  0.41650506  0.64050143  1
  O  O19  1  0.58349494  0.30680781  0.64050143  1
  O  O20  1  0.50000000  0.00000000  0.63863007  1
  O  O21  1  0.00000000  0.50000000  0.63863007  1
  O  O22  1  0.63257332  0.13257332  0.23865862  1
  O  O23  1  0.36742668  0.86742668  0.23865862  1
  O  O24  1  0.86742668  0.63257332  0.23865862  1
  O  O25  1  0.13257332  0.36742668  0.23865862  1
