# generated using pymatgen
data_Ba3La2Cl12
_symmetry_space_group_name_H-M   'P 1'
_cell_length_a   9.31874100
_cell_length_b   10.09916273
_cell_length_c   13.27198292
_cell_angle_alpha   111.53758950
_cell_angle_beta   106.05601864
_cell_angle_gamma   94.20303504
_symmetry_Int_Tables_number   1
_chemical_formula_structural   Ba3La2Cl12
_chemical_formula_sum   'Ba6 La4 Cl24'
_cell_volume   1094.95071132
_cell_formula_units_Z   2
loop_
 _symmetry_equiv_pos_site_id
 _symmetry_equiv_pos_as_xyz
  1  'x, y, z'
loop_
 _atom_site_type_symbol
 _atom_site_label
 _atom_site_symmetry_multiplicity
 _atom_site_fract_x
 _atom_site_fract_y
 _atom_site_fract_z
 _atom_site_occupancy
  Ba  Ba0  1  0.41180700  0.23026000  0.63259800  1
  Ba  Ba1  1  0.00545400  0.69307700  0.20721200  1
  Ba  Ba2  1  0.38234700  0.78714500  0.97053600  1
  Ba  Ba3  1  0.61765300  0.21285500  0.02946400  1
  Ba  Ba4  1  0.99454600  0.30692300  0.79278800  1
  Ba  Ba5  1  0.58819300  0.76974000  0.36740200  1
  La  La6  1  0.79044700  0.77108800  0.79609600  1
  La  La7  1  0.20989600  0.72047100  0.57655300  1
  La  La8  1  0.79010400  0.27952900  0.42344700  1
  La  La9  1  0.20955300  0.22891200  0.20390400  1
  Cl  Cl10  1  0.66471000  0.32746200  0.79743300  1
  Cl  Cl11  1  0.76693700  0.54458500  0.98640800  1
  Cl  Cl12  1  0.53514400  0.76393300  0.61070700  1
  Cl  Cl13  1  0.61313300  0.93723000  0.83824900  1
  Cl  Cl14  1  0.30244600  0.57036300  0.46520100  1
  Cl  Cl15  1  0.96641300  0.14899300  0.05299900  1
  Cl  Cl16  1  0.05533300  0.35221000  0.29846900  1
  Cl  Cl17  1  0.20108700  0.95164500  0.36591900  1
  Cl  Cl18  1  0.32502800  0.11836200  0.86974000  1
  Cl  Cl19  1  0.30049300  0.47880600  0.76991000  1
  Cl  Cl20  1  0.23688200  0.91335600  0.68163600  1
  Cl  Cl21  1  0.06652200  0.29926100  0.58164800  1
  Cl  Cl22  1  0.93347800  0.70073900  0.41835200  1
  Cl  Cl23  1  0.76311800  0.08664400  0.31836400  1
  Cl  Cl24  1  0.69950700  0.52119400  0.23009000  1
  Cl  Cl25  1  0.67497200  0.88163800  0.13026000  1
  Cl  Cl26  1  0.79891300  0.04835500  0.63408100  1
  Cl  Cl27  1  0.94466700  0.64779000  0.70153100  1
  Cl  Cl28  1  0.03358700  0.85100700  0.94700100  1
  Cl  Cl29  1  0.69755400  0.42963700  0.53479900  1
  Cl  Cl30  1  0.38686700  0.06277000  0.16175100  1
  Cl  Cl31  1  0.46485600  0.23606700  0.38929300  1
  Cl  Cl32  1  0.23306300  0.45541500  0.01359200  1
  Cl  Cl33  1  0.33529000  0.67253800  0.20256700  1
