# generated using pymatgen
data_Mg14CdNiO16
_symmetry_space_group_name_H-M   'P 1'
_cell_length_a   8.60296683
_cell_length_b   8.60334740
_cell_length_c   4.30679707
_cell_angle_alpha   90.00000000
_cell_angle_beta   90.00000000
_cell_angle_gamma   90.00000000
_symmetry_Int_Tables_number   1
_chemical_formula_structural   Mg14CdNiO16
_chemical_formula_sum   'Mg14 Cd1 Ni1 O16'
_cell_volume   318.76462339
_cell_formula_units_Z   1
loop_
 _symmetry_equiv_pos_site_id
 _symmetry_equiv_pos_as_xyz
  1  'x, y, z'
loop_
 _atom_site_type_symbol
 _atom_site_label
 _atom_site_symmetry_multiplicity
 _atom_site_fract_x
 _atom_site_fract_y
 _atom_site_fract_z
 _atom_site_occupancy
  Mg  Mg0  1  0.50000000  0.00000000  0.00000000  1
  Mg  Mg1  1  0.50000000  0.50000000  0.00000000  1
  Mg  Mg2  1  0.00000000  0.24367616  0.50000000  1
  Mg  Mg3  1  0.00000000  0.75632384  0.50000000  1
  Mg  Mg4  1  0.50000000  0.24902711  0.50000000  1
  Mg  Mg5  1  0.50000000  0.75097289  0.50000000  1
  Mg  Mg6  1  0.24962163  0.00000000  0.50000000  1
  Mg  Mg7  1  0.25500551  0.50000000  0.50000000  1
  Mg  Mg8  1  0.75037837  0.00000000  0.50000000  1
  Mg  Mg9  1  0.74499449  0.50000000  0.50000000  1
  Mg  Mg10  1  0.25190878  0.24677190  0.00000000  1
  Mg  Mg11  1  0.25190878  0.75322810  0.00000000  1
  Mg  Mg12  1  0.74809122  0.24677190  0.00000000  1
  Mg  Mg13  1  0.74809122  0.75322810  0.00000000  1
  Cd  Cd14  1  0.00000000  0.50000000  0.00000000  1
  Ni  Ni15  1  0.00000000  0.00000000  0.00000000  1
  O  O16  1  0.25396886  0.00000000  0.00000000  1
  O  O17  1  0.26502176  0.50000000  0.00000000  1
  O  O18  1  0.74603114  0.00000000  0.00000000  1
  O  O19  1  0.73497824  0.50000000  0.00000000  1
  O  O20  1  0.24868922  0.24999014  0.50000000  1
  O  O21  1  0.24868922  0.75000986  0.50000000  1
  O  O22  1  0.75131078  0.24999014  0.50000000  1
  O  O23  1  0.75131078  0.75000986  0.50000000  1
  O  O24  1  0.00000000  0.00000000  0.50000000  1
  O  O25  1  0.00000000  0.50000000  0.50000000  1
  O  O26  1  0.50000000  0.00000000  0.50000000  1
  O  O27  1  0.50000000  0.50000000  0.50000000  1
  O  O28  1  0.00000000  0.23478947  0.00000000  1
  O  O29  1  0.00000000  0.76521053  0.00000000  1
  O  O30  1  0.50000000  0.24769481  0.00000000  1
  O  O31  1  0.50000000  0.75230519  0.00000000  1
