# generated using pymatgen
data_BaV4O9
_symmetry_space_group_name_H-M   'P 1'
_cell_length_a   4.90648692
_cell_length_b   7.86737790
_cell_length_c   9.40848390
_cell_angle_alpha   68.01130200
_cell_angle_beta   90.00000000
_cell_angle_gamma   90.00000000
_symmetry_Int_Tables_number   1
_chemical_formula_structural   BaV4O9
_chemical_formula_sum   'Ba2 V8 O18'
_cell_volume   336.76020507
_cell_formula_units_Z   2
loop_
 _symmetry_equiv_pos_site_id
 _symmetry_equiv_pos_as_xyz
  1  'x, y, z'
loop_
 _atom_site_type_symbol
 _atom_site_label
 _atom_site_symmetry_multiplicity
 _atom_site_fract_x
 _atom_site_fract_y
 _atom_site_fract_z
 _atom_site_occupancy
  Ba  Ba0  1  0.34463286  0.00000000  0.25000000  1
  Ba  Ba1  1  0.65536714  0.00000000  0.75000000  1
  V  V2  1  0.75356701  0.69626075  0.15124547  1
  V  V3  1  0.75356701  0.30373925  0.34875453  1
  V  V4  1  0.24643299  0.30373925  0.84875453  1
  V  V5  1  0.24643299  0.69626075  0.65124547  1
  V  V6  1  0.24551985  0.55181876  0.05068235  1
  V  V7  1  0.24551985  0.44818124  0.44931765  1
  V  V8  1  0.75448015  0.44818124  0.94931765  1
  V  V9  1  0.75448015  0.55181876  0.55068235  1
  O  O10  1  0.03800480  0.50000000  0.25000000  1
  O  O11  1  0.96199520  0.50000000  0.75000000  1
  O  O12  1  0.90719069  0.67620144  0.96938305  1
  O  O13  1  0.90719069  0.32379856  0.53061695  1
  O  O14  1  0.09280931  0.32379856  0.03061695  1
  O  O15  1  0.09280931  0.67620144  0.46938305  1
  O  O16  1  0.41790004  0.58936572  0.85064481  1
  O  O17  1  0.41790004  0.41063428  0.64935519  1
  O  O18  1  0.58209996  0.41063428  0.14935519  1
  O  O19  1  0.58209996  0.58936572  0.35064481  1
  O  O20  1  0.12906402  0.88916298  0.65495734  1
  O  O21  1  0.12906402  0.11083702  0.84504266  1
  O  O22  1  0.87093598  0.11083702  0.34504266  1
  O  O23  1  0.87093598  0.88916298  0.15495734  1
  O  O24  1  0.57215206  0.75934425  0.56219104  1
  O  O25  1  0.57215206  0.24065575  0.93780896  1
  O  O26  1  0.42784794  0.24065575  0.43780896  1
  O  O27  1  0.42784794  0.75934425  0.06219104  1
