# generated using pymatgen
data_CoSbS
_symmetry_space_group_name_H-M   'P 1'
_cell_length_a   5.81017310
_cell_length_b   5.81017310
_cell_length_c   5.81017310
_cell_angle_alpha   90.00000000
_cell_angle_beta   90.00000000
_cell_angle_gamma   90.00000000
_symmetry_Int_Tables_number   1
_chemical_formula_structural   CoSbS
_chemical_formula_sum   'Co4 Sb4 S4'
_cell_volume   196.14047107
_cell_formula_units_Z   4
loop_
 _symmetry_equiv_pos_site_id
 _symmetry_equiv_pos_as_xyz
  1  'x, y, z'
loop_
 _atom_site_type_symbol
 _atom_site_label
 _atom_site_symmetry_multiplicity
 _atom_site_fract_x
 _atom_site_fract_y
 _atom_site_fract_z
 _atom_site_occupancy
  Co  Co0  1  0.48318920  0.98318920  0.51681080  1
  Co  Co1  1  0.98318920  0.51681080  0.48318920  1
  Co  Co2  1  0.51681080  0.48318920  0.98318920  1
  Co  Co3  1  0.01681080  0.01681080  0.01681080  1
  Sb  Sb4  1  0.12737466  0.62737466  0.87262534  1
  Sb  Sb5  1  0.62737466  0.87262534  0.12737466  1
  Sb  Sb6  1  0.87262534  0.12737466  0.62737466  1
  Sb  Sb7  1  0.37262534  0.37262534  0.37262534  1
  S  S8  1  0.87806969  0.37806969  0.12193031  1
  S  S9  1  0.37806969  0.12193031  0.87806969  1
  S  S10  1  0.12193031  0.87806969  0.37806969  1
  S  S11  1  0.62193031  0.62193031  0.62193031  1
