# generated using pymatgen
data_BaAlFe4O7
_symmetry_space_group_name_H-M   'P 1'
_cell_length_a   5.93439027
_cell_length_b   5.93448825
_cell_length_c   10.18086978
_cell_angle_alpha   89.99898075
_cell_angle_beta   90.00000000
_cell_angle_gamma   119.99945662
_symmetry_Int_Tables_number   1
_chemical_formula_structural   BaAlFe4O7
_chemical_formula_sum   'Ba2 Al2 Fe8 O14'
_cell_volume   310.51120044
_cell_formula_units_Z   2
loop_
 _symmetry_equiv_pos_site_id
 _symmetry_equiv_pos_as_xyz
  1  'x, y, z'
loop_
 _atom_site_type_symbol
 _atom_site_label
 _atom_site_symmetry_multiplicity
 _atom_site_fract_x
 _atom_site_fract_y
 _atom_site_fract_z
 _atom_site_occupancy
  Ba  Ba0  1  0.66667996  0.33335893  0.49900598  1
  Ba  Ba1  1  0.33332951  0.66666002  -0.00123797  1
  Al  Al2  1  0.66666568  0.33333035  0.88110470  1
  Al  Al3  1  0.33332929  0.66665958  0.38111764  1
  Fe  Fe4  1  0.80951481  0.19049312  0.18426519  1
  Fe  Fe5  1  0.61905850  0.80953535  0.68428309  1
  Fe  Fe6  1  0.19047271  0.38094642  0.68427875  1
  Fe  Fe7  1  0.80949083  0.61898066  0.18424958  1
  Fe  Fe8  1  0.38097930  0.19049312  0.18426519  1
  Fe  Fe9  1  0.19047585  0.80953535  0.68428309  1
  Fe  Fe10  1  0.99999727  0.99999454  0.42923579  1
  Fe  Fe11  1  0.99999895  0.99999790  0.92917673  1
  O  O12  1  0.82373517  0.17627533  0.99510260  1
  O  O13  1  0.64743196  0.82368860  0.49519487  1
  O  O14  1  0.17627929  0.35255858  0.49519731  1
  O  O15  1  0.82372520  0.64745040  0.99509193  1
  O  O16  1  0.35254016  0.17627533  0.99510260  1
  O  O17  1  0.17625664  0.82368860  0.49519487  1
  O  O18  1  0.00001469  0.00002937  0.74360459  1
  O  O19  1  0.99998966  0.99997932  0.24365740  1
  O  O20  1  0.48821757  0.51178353  0.28106821  1
  O  O21  1  0.97620044  0.48809785  0.78086882  1
  O  O22  1  0.51191821  0.02383742  0.78086234  1
  O  O23  1  0.48823499  0.97646899  0.28108367  1
  O  O24  1  0.51189641  0.48809785  0.78086882  1
  O  O25  1  0.02356695  0.51178353  0.28106821  1
