# generated using pymatgen
data_MnO2
_symmetry_space_group_name_H-M   'P 1'
_cell_length_a   2.85469766
_cell_length_b   7.01576424
_cell_length_c   7.01953963
_cell_angle_alpha   87.57534312
_cell_angle_beta   78.26880630
_cell_angle_gamma   78.25214817
_symmetry_Int_Tables_number   1
_chemical_formula_structural   MnO2
_chemical_formula_sum   'Mn4 O8'
_cell_volume   134.76660221
_cell_formula_units_Z   4
loop_
 _symmetry_equiv_pos_site_id
 _symmetry_equiv_pos_as_xyz
  1  'x, y, z'
loop_
 _atom_site_type_symbol
 _atom_site_label
 _atom_site_symmetry_multiplicity
 _atom_site_fract_x
 _atom_site_fract_y
 _atom_site_fract_z
 _atom_site_occupancy
  Mn  Mn0  1  0.65155204  0.18203102  0.51786946  1
  Mn  Mn1  1  0.16804623  0.48550696  0.18212972  1
  Mn  Mn2  1  0.83274373  0.51734630  0.82091119  1
  Mn  Mn3  1  0.34951250  0.82079611  0.48529819  1
  O  O4  1  0.83716519  0.70747424  0.62277073  1
  O  O5  1  0.45806578  0.37951197  0.70828811  1
  O  O6  1  0.54292522  0.62333355  0.29478472  1
  O  O7  1  0.16393066  0.29542335  0.38037727  1
  O  O8  1  0.15608275  0.04887425  0.64306196  1
  O  O9  1  0.79731915  0.35998702  0.04946720  1
  O  O10  1  0.84509788  0.95399027  0.36012846  1
  O  O11  1  0.20373986  0.64288495  0.95357498  1
