# generated using pymatgen
data_La2MgMoO6
_symmetry_space_group_name_H-M   'P 1'
_cell_length_a   5.63819290
_cell_length_b   5.63819292
_cell_length_c   5.63819344
_cell_angle_alpha   61.29403676
_cell_angle_beta   61.29402300
_cell_angle_gamma   61.29403022
_symmetry_Int_Tables_number   1
_chemical_formula_structural   La2MgMoO6
_chemical_formula_sum   'La2 Mg1 Mo1 O6'
_cell_volume   130.42411710
_cell_formula_units_Z   1
loop_
 _symmetry_equiv_pos_site_id
 _symmetry_equiv_pos_as_xyz
  1  'x, y, z'
loop_
 _atom_site_type_symbol
 _atom_site_label
 _atom_site_symmetry_multiplicity
 _atom_site_fract_x
 _atom_site_fract_y
 _atom_site_fract_z
 _atom_site_occupancy
  La  La0  1  0.74779900  0.74779900  0.74779900  1
  La  La1  1  0.25220100  0.25220100  0.25220100  1
  Mg  Mg2  1  0.50000000  0.50000000  0.50000000  1
  Mo  Mo3  1  0.00000000  0.00000000  0.00000000  1
  O  O4  1  0.33578700  0.74850400  0.16192900  1
  O  O5  1  0.74850400  0.16192900  0.33578700  1
  O  O6  1  0.16192900  0.33578700  0.74850400  1
  O  O7  1  0.66421300  0.25149600  0.83807100  1
  O  O8  1  0.83807100  0.66421300  0.25149600  1
  O  O9  1  0.25149600  0.83807100  0.66421300  1
