# generated using pymatgen
data_CsNaMg14O15
_symmetry_space_group_name_H-M   'P 1'
_cell_length_a   8.54240524
_cell_length_b   8.90736306
_cell_length_c   4.41409962
_cell_angle_alpha   89.99998805
_cell_angle_beta   89.99998813
_cell_angle_gamma   89.99997812
_symmetry_Int_Tables_number   1
_chemical_formula_structural   CsNaMg14O15
_chemical_formula_sum   'Cs1 Na1 Mg14 O15'
_cell_volume   335.87018585
_cell_formula_units_Z   1
loop_
 _symmetry_equiv_pos_site_id
 _symmetry_equiv_pos_as_xyz
  1  'x, y, z'
loop_
 _atom_site_type_symbol
 _atom_site_label
 _atom_site_symmetry_multiplicity
 _atom_site_fract_x
 _atom_site_fract_y
 _atom_site_fract_z
 _atom_site_occupancy
  Cs  Cs0  1  0.10395740  0.49999980  0.99999984  1
  Na  Na1  1  0.98780784  0.00000003  -0.00000022  1
  Mg  Mg2  1  0.50030379  0.99999978  0.99999988  1
  Mg  Mg3  1  0.52113724  0.49999989  0.00000015  1
  Mg  Mg4  1  0.99123930  0.23801097  0.50000006  1
  Mg  Mg5  1  0.99123864  0.76198805  0.50000006  1
  Mg  Mg6  1  0.49770815  0.24892259  0.50000034  1
  Mg  Mg7  1  0.49770801  0.75107747  0.49999984  1
  Mg  Mg8  1  0.24261882  0.00000002  0.50000000  1
  Mg  Mg9  1  0.26360644  0.50000155  0.49999967  1
  Mg  Mg10  1  0.74823961  -0.00000011  0.50000009  1
  Mg  Mg11  1  0.75901254  0.49999956  0.49999986  1
  Mg  Mg12  1  0.24198983  0.21548391  -0.00000062  1
  Mg  Mg13  1  0.24198948  0.78451590  0.00000009  1
  Mg  Mg14  1  0.75694641  0.25223510  0.00000008  1
  Mg  Mg15  1  0.75694183  0.74776394  0.00000051  1
  O  O16  1  0.26609333  -0.00000021  0.00000002  1
  O  O17  1  0.72700724  0.00000069  0.99999988  1
  O  O18  1  0.74479410  0.49999996  0.00000017  1
  O  O19  1  0.24615563  0.25759075  0.50000047  1
  O  O20  1  0.24615591  0.74240943  0.49999998  1
  O  O21  1  0.74250479  0.24912916  0.50000009  1
  O  O22  1  0.74250417  0.75087072  0.49999974  1
  O  O23  1  0.00108820  0.99999984  0.50000006  1
  O  O24  1  0.99067008  0.50000112  0.49999995  1
  O  O25  1  0.49104934  0.00000007  0.50000018  1
  O  O26  1  0.49211672  0.50000012  0.50000005  1
  O  O27  1  0.99699483  0.23965132  0.99999996  1
  O  O28  1  0.99699439  0.76034863  0.00000017  1
  O  O29  1  0.48171335  0.26547922  0.99999985  1
  O  O30  1  0.48171260  0.73452073  0.99999979  1
