# generated using pymatgen
data_Ba3GaS4Br
_symmetry_space_group_name_H-M   'P 1'
_cell_length_a   8.57113357
_cell_length_b   9.70016628
_cell_length_c   12.51511046
_cell_angle_alpha   90.00000000
_cell_angle_beta   90.00000000
_cell_angle_gamma   90.00000000
_symmetry_Int_Tables_number   1
_chemical_formula_structural   Ba3GaS4Br
_chemical_formula_sum   'Ba12 Ga4 S16 Br4'
_cell_volume   1040.52406558
_cell_formula_units_Z   4
loop_
 _symmetry_equiv_pos_site_id
 _symmetry_equiv_pos_as_xyz
  1  'x, y, z'
loop_
 _atom_site_type_symbol
 _atom_site_label
 _atom_site_symmetry_multiplicity
 _atom_site_fract_x
 _atom_site_fract_y
 _atom_site_fract_z
 _atom_site_occupancy
  Ba  Ba0  1  0.41640517  0.75000000  0.47453438  1
  Ba  Ba1  1  0.08359483  0.75000000  0.97453438  1
  Ba  Ba2  1  0.58359483  0.25000000  0.52546562  1
  Ba  Ba3  1  0.91640517  0.25000000  0.02546562  1
  Ba  Ba4  1  0.91213889  0.52014000  0.33601141  1
  Ba  Ba5  1  0.58786111  0.97986000  0.83601141  1
  Ba  Ba6  1  0.08786111  0.02014000  0.66398859  1
  Ba  Ba7  1  0.41213889  0.47986000  0.16398859  1
  Ba  Ba8  1  0.08786111  0.47986000  0.66398859  1
  Ba  Ba9  1  0.41213889  0.02014000  0.16398859  1
  Ba  Ba10  1  0.91213889  0.97986000  0.33601141  1
  Ba  Ba11  1  0.58786111  0.52014000  0.83601141  1
  Ga  Ga12  1  0.68952493  0.75000000  0.10579704  1
  Ga  Ga13  1  0.81047507  0.75000000  0.60579704  1
  Ga  Ga14  1  0.31047507  0.25000000  0.89420296  1
  Ga  Ga15  1  0.18952493  0.25000000  0.39420296  1
  S  S16  1  0.81215558  0.55055837  0.07136921  1
  S  S17  1  0.68784442  0.94944163  0.57136921  1
  S  S18  1  0.18784442  0.05055837  0.92863079  1
  S  S19  1  0.31215558  0.44944163  0.42863079  1
  S  S20  1  0.18784442  0.44944163  0.92863079  1
  S  S21  1  0.31215558  0.05055837  0.42863079  1
  S  S22  1  0.81215558  0.94944163  0.07136921  1
  S  S23  1  0.68784442  0.55055837  0.57136921  1
  S  S24  1  0.63892130  0.75000000  0.28405801  1
  S  S25  1  0.86107870  0.75000000  0.78405801  1
  S  S26  1  0.36107870  0.25000000  0.71594199  1
  S  S27  1  0.13892130  0.25000000  0.21594199  1
  S  S28  1  0.46563727  0.75000000  0.00756580  1
  S  S29  1  0.03436273  0.75000000  0.50756580  1
  S  S30  1  0.53436273  0.25000000  0.99243420  1
  S  S31  1  0.96563727  0.25000000  0.49243420  1
  Br  Br32  1  0.16970154  0.75000000  0.23219427  1
  Br  Br33  1  0.33029846  0.75000000  0.73219427  1
  Br  Br34  1  0.83029846  0.25000000  0.76780573  1
  Br  Br35  1  0.66970154  0.25000000  0.26780573  1
