# generated using pymatgen
data_MgCo6(OF5)2
_symmetry_space_group_name_H-M   'P 1'
_cell_length_a   5.29590529
_cell_length_b   5.13913679
_cell_length_c   9.82450726
_cell_angle_alpha   91.66943133
_cell_angle_beta   93.83952144
_cell_angle_gamma   99.03125458
_symmetry_Int_Tables_number   1
_chemical_formula_structural   MgCo6(OF5)2
_chemical_formula_sum   'Mg1 Co6 O2 F10'
_cell_volume   263.26666738
_cell_formula_units_Z   1
loop_
 _symmetry_equiv_pos_site_id
 _symmetry_equiv_pos_as_xyz
  1  'x, y, z'
loop_
 _atom_site_type_symbol
 _atom_site_label
 _atom_site_symmetry_multiplicity
 _atom_site_fract_x
 _atom_site_fract_y
 _atom_site_fract_z
 _atom_site_occupancy
  Mg  Mg0  1  0.50087400  0.99172900  0.66869600  1
  Co  Co1  1  0.90773200  0.96227500  0.02431000  1
  Co  Co2  1  0.09123200  0.04166100  0.31870800  1
  Co  Co3  1  0.00124600  0.99284100  0.66976400  1
  Co  Co4  1  0.45287400  0.55468200  0.17334800  1
  Co  Co5  1  0.39352400  0.51218600  0.88398900  1
  Co  Co6  1  0.62256200  0.47369100  0.45202500  1
  O  O7  1  0.34984200  0.34923500  0.32690200  1
  O  O8  1  0.64255000  0.66135800  0.01670600  1
  F  F9  1  0.18926700  0.81206500  0.15962400  1
  F  F10  1  0.24007900  0.80015700  0.78519500  1
  F  F11  1  0.21354400  0.91509200  0.52104300  1
  F  F12  1  0.20354800  0.26610500  0.00389400  1
  F  F13  1  0.31945400  0.28959200  0.70980300  1
  F  F14  1  0.68503500  0.69500500  0.62930900  1
  F  F15  1  0.78650200  0.73994500  0.33516100  1
  F  F16  1  0.83660900  0.17066200  0.18751600  1
  F  F17  1  0.78713400  0.07293500  0.81683500  1
  F  F18  1  0.76250500  0.18489300  0.55288700  1
