# generated using pymatgen
data_CsCuS4
_symmetry_space_group_name_H-M   'P 1'
_cell_length_a   5.23299828
_cell_length_b   8.93368380
_cell_length_c   13.75770196
_cell_angle_alpha   90.00000000
_cell_angle_beta   90.00000000
_cell_angle_gamma   90.00000000
_symmetry_Int_Tables_number   1
_chemical_formula_structural   CsCuS4
_chemical_formula_sum   'Cs4 Cu4 S16'
_cell_volume   643.17190570
_cell_formula_units_Z   4
loop_
 _symmetry_equiv_pos_site_id
 _symmetry_equiv_pos_as_xyz
  1  'x, y, z'
loop_
 _atom_site_type_symbol
 _atom_site_label
 _atom_site_symmetry_multiplicity
 _atom_site_fract_x
 _atom_site_fract_y
 _atom_site_fract_z
 _atom_site_occupancy
  Cs  Cs0  1  0.32558972  0.57948544  0.16323137  1
  Cs  Cs1  1  0.82558972  0.92051456  0.83676863  1
  Cs  Cs2  1  0.67441028  0.07948544  0.33676863  1
  Cs  Cs3  1  0.17441028  0.42051456  0.66323137  1
  Cu  Cu4  1  0.46524895  0.64402912  0.43856393  1
  Cu  Cu5  1  0.96524895  0.85597088  0.56143607  1
  Cu  Cu6  1  0.53475105  0.14402912  0.06143607  1
  Cu  Cu7  1  0.03475105  0.35597088  0.93856393  1
  S  S8  1  0.06366968  0.93841312  0.07601728  1
  S  S9  1  0.56366968  0.56158688  0.92398272  1
  S  S10  1  0.93633032  0.43841312  0.42398272  1
  S  S11  1  0.43633032  0.06158688  0.57601728  1
  S  S12  1  0.11778821  0.79189105  0.40965426  1
  S  S13  1  0.61778821  0.70810895  0.59034574  1
  S  S14  1  0.88221179  0.29189105  0.09034574  1
  S  S15  1  0.38221179  0.20810895  0.90965426  1
  S  S16  1  0.34939256  0.85787681  0.64741967  1
  S  S17  1  0.84939256  0.64212319  0.35258033  1
  S  S18  1  0.65060744  0.35787681  0.85258033  1
  S  S19  1  0.15060744  0.14212319  0.14741967  1
  S  S20  1  0.18080549  0.59053814  0.90207872  1
  S  S21  1  0.68080549  0.90946186  0.09792128  1
  S  S22  1  0.81919451  0.09053814  0.59792128  1
  S  S23  1  0.31919451  0.40946186  0.40207872  1
