# generated using pymatgen
data_CeSe2
_symmetry_space_group_name_H-M   'P 1'
_cell_length_a   7.84100977
_cell_length_b   13.79962940
_cell_length_c   14.34292062
_cell_angle_alpha   112.03386221
_cell_angle_beta   90.00000000
_cell_angle_gamma   90.00000000
_symmetry_Int_Tables_number   1
_chemical_formula_structural   CeSe2
_chemical_formula_sum   'Ce8 Se16'
_cell_volume   1438.59677785
_cell_formula_units_Z   8
loop_
 _symmetry_equiv_pos_site_id
 _symmetry_equiv_pos_as_xyz
  1  'x, y, z'
loop_
 _atom_site_type_symbol
 _atom_site_label
 _atom_site_symmetry_multiplicity
 _atom_site_fract_x
 _atom_site_fract_y
 _atom_site_fract_z
 _atom_site_occupancy
  Ce  Ce0  1  0.23128495  0.28293191  0.65566078  1
  Ce  Ce1  1  0.73128495  0.21706809  0.84433922  1
  Ce  Ce2  1  0.76871505  0.71706809  0.34433922  1
  Ce  Ce3  1  0.26871505  0.78293191  0.15566078  1
  Ce  Ce4  1  0.47096456  0.65333833  0.78130158  1
  Ce  Ce5  1  0.97096456  0.84666167  0.71869842  1
  Ce  Ce6  1  0.52903544  0.34666167  0.21869842  1
  Ce  Ce7  1  0.02903544  0.15333833  0.28130158  1
  Se  Se8  1  0.37441949  0.46167326  0.64860449  1
  Se  Se9  1  0.87441949  0.03832674  0.85139551  1
  Se  Se10  1  0.62558051  0.53832674  0.35139551  1
  Se  Se11  1  0.12558051  0.96167326  0.14860449  1
  Se  Se12  1  0.09570488  0.16671772  0.47279213  1
  Se  Se13  1  0.59570488  0.33328228  0.02720787  1
  Se  Se14  1  0.90429512  0.83328228  0.52720787  1
  Se  Se15  1  0.40429512  0.66671772  0.97279213  1
  Se  Se16  1  0.47592549  0.17005529  0.70665517  1
  Se  Se17  1  0.97592549  0.32994471  0.79334483  1
  Se  Se18  1  0.52407451  0.82994471  0.29334483  1
  Se  Se19  1  0.02407451  0.67005529  0.20665517  1
  Se  Se20  1  0.30836287  0.80683593  0.74020007  1
  Se  Se21  1  0.80836287  0.69316407  0.75979993  1
  Se  Se22  1  0.69163713  0.19316407  0.25979993  1
  Se  Se23  1  0.19163713  0.30683593  0.24020007  1
