# generated using pymatgen
data_K2TiO3
_symmetry_space_group_name_H-M   'P 1'
_cell_length_a   5.45298663
_cell_length_b   6.10745828
_cell_length_c   6.10745808
_cell_angle_alpha   110.55665704
_cell_angle_beta   90.00000000
_cell_angle_gamma   90.00000000
_symmetry_Int_Tables_number   1
_chemical_formula_structural   K2TiO3
_chemical_formula_sum   'K4 Ti2 O6'
_cell_volume   190.45055999
_cell_formula_units_Z   2
loop_
 _symmetry_equiv_pos_site_id
 _symmetry_equiv_pos_as_xyz
  1  'x, y, z'
loop_
 _atom_site_type_symbol
 _atom_site_label
 _atom_site_symmetry_multiplicity
 _atom_site_fract_x
 _atom_site_fract_y
 _atom_site_fract_z
 _atom_site_occupancy
  K  K0  1  0.25000000  0.48595630  0.81066277  1
  K  K1  1  0.25000000  0.81066277  0.48595630  1
  K  K2  1  0.75000000  0.51404370  0.18933723  1
  K  K3  1  0.75000000  0.18933723  0.51404370  1
  Ti  Ti4  1  0.75000000  0.91482818  0.91482818  1
  Ti  Ti5  1  0.25000000  0.08517182  0.08517182  1
  O  O6  1  0.75000000  0.66077696  0.66077696  1
  O  O7  1  0.25000000  0.33922304  0.33922304  1
  O  O8  1  0.50000000  0.12648973  0.87351027  1
  O  O9  1  -0.00000000  0.87351027  0.12648973  1
  O  O10  1  0.00000000  0.12648973  0.87351027  1
  O  O11  1  0.50000000  0.87351027  0.12648973  1
