# generated using pymatgen
data_Ba6Nd2Ga4O15
_symmetry_space_group_name_H-M   'P 1'
_cell_length_a   6.05228948
_cell_length_b   8.10477053
_cell_length_c   18.75452073
_cell_angle_alpha   90.99810156
_cell_angle_beta   90.00000000
_cell_angle_gamma   90.00000000
_symmetry_Int_Tables_number   1
_chemical_formula_structural   Ba6Nd2Ga4O15
_chemical_formula_sum   'Ba12 Nd4 Ga8 O30'
_cell_volume   919.81499703
_cell_formula_units_Z   2
loop_
 _symmetry_equiv_pos_site_id
 _symmetry_equiv_pos_as_xyz
  1  'x, y, z'
loop_
 _atom_site_type_symbol
 _atom_site_label
 _atom_site_symmetry_multiplicity
 _atom_site_fract_x
 _atom_site_fract_y
 _atom_site_fract_z
 _atom_site_occupancy
  Ba  Ba0  1  0.75641701  0.50321179  0.42103339  1
  Ba  Ba1  1  0.24358299  0.49678821  0.57896661  1
  Ba  Ba2  1  0.75641701  0.49678821  0.07896661  1
  Ba  Ba3  1  0.24358299  0.50321179  0.92103339  1
  Ba  Ba4  1  0.75412456  0.97043650  0.40808291  1
  Ba  Ba5  1  0.24587544  0.02956350  0.59191709  1
  Ba  Ba6  1  0.75412456  0.02956350  0.09191709  1
  Ba  Ba7  1  0.24587544  0.97043650  0.90808291  1
  Ba  Ba8  1  0.70942717  0.00000000  0.75000000  1
  Ba  Ba9  1  0.29057283  0.00000000  0.25000000  1
  Ba  Ba10  1  0.65947774  0.50000000  0.75000000  1
  Ba  Ba11  1  0.34052226  0.50000000  0.25000000  1
  Nd  Nd12  1  0.74676168  0.75439528  0.59065564  1
  Nd  Nd13  1  0.25323832  0.24560472  0.40934436  1
  Nd  Nd14  1  0.74676168  0.24560472  0.90934436  1
  Nd  Nd15  1  0.25323832  0.75439528  0.09065564  1
  Ga  Ga16  1  0.74531376  0.75409627  0.94005031  1
  Ga  Ga17  1  0.25468624  0.24590373  0.05994969  1
  Ga  Ga18  1  0.74531376  0.24590373  0.55994969  1
  Ga  Ga19  1  0.25468624  0.75409627  0.44005031  1
  Ga  Ga20  1  0.78311596  0.77190193  0.23542981  1
  Ga  Ga21  1  0.21688404  0.22809807  0.76457019  1
  Ga  Ga22  1  0.78311596  0.22809807  0.26457019  1
  Ga  Ga23  1  0.21688404  0.77190193  0.73542981  1
  O  O24  1  0.20722897  0.00000000  0.75000000  1
  O  O25  1  0.79277103  0.00000000  0.25000000  1
  O  O26  1  0.51473797  0.76370907  0.49294944  1
  O  O27  1  0.48526203  0.23629093  0.50705056  1
  O  O28  1  0.51473797  0.23629093  0.00705056  1
  O  O29  1  0.48526203  0.76370907  0.99294944  1
  O  O30  1  0.76749789  0.94811512  0.88920641  1
  O  O31  1  0.23250211  0.05188488  0.11079359  1
  O  O32  1  0.76749789  0.05188488  0.61079359  1
  O  O33  1  0.23250211  0.94811512  0.38920641  1
  O  O34  1  0.02335472  0.76810518  0.50679177  1
  O  O35  1  0.97664528  0.23189482  0.49320823  1
  O  O36  1  0.02335472  0.23189482  0.99320823  1
  O  O37  1  0.97664528  0.76810518  0.00679177  1
  O  O38  1  0.32971887  0.69229688  0.81775013  1
  O  O39  1  0.67028113  0.30770312  0.18224987  1
  O  O40  1  0.32971887  0.30770312  0.68224987  1
  O  O41  1  0.67028113  0.69229688  0.31775013  1
  O  O42  1  0.42648058  0.74824232  0.66211113  1
  O  O43  1  0.57351942  0.25175768  0.33788887  1
  O  O44  1  0.42648058  0.25175768  0.83788887  1
  O  O45  1  0.57351942  0.74824232  0.16211113  1
  O  O46  1  0.94133423  0.72756185  0.69909933  1
  O  O47  1  0.05866577  0.27243815  0.30090067  1
  O  O48  1  0.94133423  0.27243815  0.80090067  1
  O  O49  1  0.05866577  0.72756185  0.19909933  1
  O  O50  1  0.76174943  0.53689095  0.90725582  1
  O  O51  1  0.23825057  0.46310905  0.09274418  1
  O  O52  1  0.76174943  0.46310905  0.59274418  1
  O  O53  1  0.23825057  0.53689095  0.40725582  1
