# generated using pymatgen
data_Rb2Mg2(WO4)3
_symmetry_space_group_name_H-M   'P 1'
_cell_length_a   11.05989415
_cell_length_b   11.05989415
_cell_length_c   11.05989415
_cell_angle_alpha   90.00000000
_cell_angle_beta   90.00000000
_cell_angle_gamma   90.00000000
_symmetry_Int_Tables_number   1
_chemical_formula_structural   Rb2Mg2(WO4)3
_chemical_formula_sum   'Rb8 Mg8 W12 O48'
_cell_volume   1352.86017251
_cell_formula_units_Z   4
loop_
 _symmetry_equiv_pos_site_id
 _symmetry_equiv_pos_as_xyz
  1  'x, y, z'
loop_
 _atom_site_type_symbol
 _atom_site_label
 _atom_site_symmetry_multiplicity
 _atom_site_fract_x
 _atom_site_fract_y
 _atom_site_fract_z
 _atom_site_occupancy
  Rb  Rb0  1  0.29576219  0.20423781  0.79576219  1
  Rb  Rb1  1  0.20423781  0.79576219  0.29576219  1
  Rb  Rb2  1  0.70423781  0.70423781  0.70423781  1
  Rb  Rb3  1  0.79576219  0.29576219  0.20423781  1
  Rb  Rb4  1  0.42926482  0.57073518  0.07073518  1
  Rb  Rb5  1  0.92926482  0.92926482  0.92926482  1
  Rb  Rb6  1  0.07073518  0.42926482  0.57073518  1
  Rb  Rb7  1  0.57073518  0.07073518  0.42926482  1
  Mg  Mg8  1  0.36372926  0.86372926  0.63627074  1
  Mg  Mg9  1  0.86372926  0.63627074  0.36372926  1
  Mg  Mg10  1  0.63627074  0.36372926  0.86372926  1
  Mg  Mg11  1  0.13627074  0.13627074  0.13627074  1
  Mg  Mg12  1  0.41264493  0.41264493  0.41264493  1
  Mg  Mg13  1  0.58735507  0.91264493  0.08735507  1
  Mg  Mg14  1  0.91264493  0.08735507  0.58735507  1
  Mg  Mg15  1  0.08735507  0.58735507  0.91264493  1
  W  W16  1  0.44934553  0.22382806  0.12707284  1
  W  W17  1  0.87292716  0.94934553  0.27617194  1
  W  W18  1  0.72382806  0.37292716  0.55065447  1
  W  W19  1  0.94934553  0.27617194  0.87292716  1
  W  W20  1  0.37292716  0.55065447  0.72382806  1
  W  W21  1  0.22382806  0.12707284  0.44934553  1
  W  W22  1  0.55065447  0.72382806  0.37292716  1
  W  W23  1  0.12707284  0.44934553  0.22382806  1
  W  W24  1  0.27617194  0.87292716  0.94934553  1
  W  W25  1  0.05065447  0.77617194  0.62707284  1
  W  W26  1  0.62707284  0.05065447  0.77617194  1
  W  W27  1  0.77617194  0.62707284  0.05065447  1
  O  O28  1  0.50242972  0.07031462  0.14660126  1
  O  O29  1  0.85339874  0.00242972  0.42968538  1
  O  O30  1  0.57031462  0.35339874  0.49757028  1
  O  O31  1  0.00242972  0.42968538  0.85339874  1
  O  O32  1  0.35339874  0.49757028  0.57031462  1
  O  O33  1  0.07031462  0.14660126  0.50242972  1
  O  O34  1  0.49757028  0.57031462  0.35339874  1
  O  O35  1  0.14660126  0.50242972  0.07031462  1
  O  O36  1  0.42968538  0.85339874  0.00242972  1
  O  O37  1  0.99757028  0.92968538  0.64660126  1
  O  O38  1  0.64660126  0.99757028  0.92968538  1
  O  O39  1  0.92968538  0.64660126  0.99757028  1
  O  O40  1  0.29267138  0.22941698  0.07785754  1
  O  O41  1  0.92214246  0.79267138  0.27058302  1
  O  O42  1  0.72941698  0.42214246  0.70732862  1
  O  O43  1  0.79267138  0.27058302  0.92214246  1
  O  O44  1  0.42214246  0.70732862  0.72941698  1
  O  O45  1  0.22941698  0.07785754  0.29267138  1
  O  O46  1  0.70732862  0.72941698  0.42214246  1
  O  O47  1  0.07785754  0.29267138  0.22941698  1
  O  O48  1  0.27058302  0.92214246  0.79267138  1
  O  O49  1  0.20732862  0.77058302  0.57785754  1
  O  O50  1  0.57785754  0.20732862  0.77058302  1
  O  O51  1  0.77058302  0.57785754  0.20732862  1
  O  O52  1  0.53918785  0.30408003  0.01562729  1
  O  O53  1  0.98437271  0.03918785  0.19591997  1
  O  O54  1  0.80408003  0.48437271  0.46081215  1
  O  O55  1  0.03918785  0.19591997  0.98437271  1
  O  O56  1  0.48437271  0.46081215  0.80408003  1
  O  O57  1  0.30408003  0.01562729  0.53918785  1
  O  O58  1  0.46081215  0.80408003  0.48437271  1
  O  O59  1  0.01562729  0.53918785  0.30408003  1
  O  O60  1  0.19591997  0.98437271  0.03918785  1
  O  O61  1  0.96081215  0.69591997  0.51562729  1
  O  O62  1  0.51562729  0.96081215  0.69591997  1
  O  O63  1  0.69591997  0.51562729  0.96081215  1
  O  O64  1  0.47122922  0.30216368  0.26953253  1
  O  O65  1  0.73046747  0.97122922  0.19783632  1
  O  O66  1  0.80216368  0.23046747  0.52877078  1
  O  O67  1  0.97122922  0.19783632  0.73046747  1
  O  O68  1  0.23046747  0.52877078  0.80216368  1
  O  O69  1  0.30216368  0.26953253  0.47122922  1
  O  O70  1  0.52877078  0.80216368  0.23046747  1
  O  O71  1  0.26953253  0.47122922  0.30216368  1
  O  O72  1  0.19783632  0.73046747  0.97122922  1
  O  O73  1  0.02877078  0.69783632  0.76953253  1
  O  O74  1  0.76953253  0.02877078  0.69783632  1
  O  O75  1  0.69783632  0.76953253  0.02877078  1
