# generated using pymatgen
data_Ca7PbN6
_symmetry_space_group_name_H-M   'P 1'
_cell_length_a   6.42672353
_cell_length_b   9.34599729
_cell_length_c   9.34599729
_cell_angle_alpha   80.45024846
_cell_angle_beta   69.89008554
_cell_angle_gamma   69.89008554
_symmetry_Int_Tables_number   1
_chemical_formula_structural   Ca7PbN6
_chemical_formula_sum   'Ca14 Pb2 N12'
_cell_volume   494.27446027
_cell_formula_units_Z   2
loop_
 _symmetry_equiv_pos_site_id
 _symmetry_equiv_pos_as_xyz
  1  'x, y, z'
loop_
 _atom_site_type_symbol
 _atom_site_label
 _atom_site_symmetry_multiplicity
 _atom_site_fract_x
 _atom_site_fract_y
 _atom_site_fract_z
 _atom_site_occupancy
  Ca  Ca0  1  0.28918868  0.94931035  0.05068965  1
  Ca  Ca1  1  0.71081132  0.05068965  0.94931035  1
  Ca  Ca2  1  0.21081132  0.44931035  0.55068965  1
  Ca  Ca3  1  0.78918868  0.55068965  0.44931035  1
  Ca  Ca4  1  0.75048910  0.15241942  0.59202593  1
  Ca  Ca5  1  0.50506555  0.59202593  0.15241942  1
  Ca  Ca6  1  0.74951090  0.90797407  0.34758058  1
  Ca  Ca7  1  0.99493445  0.34758058  0.90797407  1
  Ca  Ca8  1  0.24951090  0.84758058  0.40797407  1
  Ca  Ca9  1  0.49493445  0.40797407  0.84758058  1
  Ca  Ca10  1  0.25048910  0.09202593  0.65241942  1
  Ca  Ca11  1  0.00506555  0.65241942  0.09202593  1
  Ca  Ca12  1  0.25000000  0.25000000  0.25000000  1
  Ca  Ca13  1  0.75000000  0.75000000  0.75000000  1
  Pb  Pb14  1  0.75000000  0.25000000  0.25000000  1
  Pb  Pb15  1  0.25000000  0.75000000  0.75000000  1
  N  N16  1  0.03522688  0.05666044  0.29612459  1
  N  N17  1  0.61198710  0.29612459  0.05666044  1
  N  N18  1  0.46477312  0.20387541  0.44333956  1
  N  N19  1  0.88801290  0.44333956  0.20387541  1
  N  N20  1  0.96477312  0.94333956  0.70387541  1
  N  N21  1  0.38801290  0.70387541  0.94333956  1
  N  N22  1  0.53522688  0.79612459  0.55666044  1
  N  N23  1  0.11198710  0.55666044  0.79612459  1
  N  N24  1  0.87142573  0.35273938  0.64726062  1
  N  N25  1  0.12857427  0.64726062  0.35273938  1
  N  N26  1  0.62857427  0.85273938  0.14726062  1
  N  N27  1  0.37142573  0.14726062  0.85273938  1
