# generated using pymatgen
data_MgAl4(HO)12
_symmetry_space_group_name_H-M   'P 1'
_cell_length_a   7.02147242
_cell_length_b   7.22383320
_cell_length_c   7.17926363
_cell_angle_alpha   101.89344816
_cell_angle_beta   137.23234976
_cell_angle_gamma   94.17067776
_symmetry_Int_Tables_number   1
_chemical_formula_structural   MgAl4(HO)12
_chemical_formula_sum   'Mg1 Al4 H12 O12'
_cell_volume   227.79011907
_cell_formula_units_Z   1
loop_
 _symmetry_equiv_pos_site_id
 _symmetry_equiv_pos_as_xyz
  1  'x, y, z'
loop_
 _atom_site_type_symbol
 _atom_site_label
 _atom_site_symmetry_multiplicity
 _atom_site_fract_x
 _atom_site_fract_y
 _atom_site_fract_z
 _atom_site_occupancy
  Mg  Mg0  1  0.94989004  0.96857205  0.04392053  1
  Al  Al1  1  0.50855998  0.85031342  0.32631571  1
  Al  Al2  1  0.49726452  0.18191851  0.69052072  1
  Al  Al3  1  0.00792252  0.68996035  0.65731976  1
  Al  Al4  1  0.03197069  0.34057016  0.37879477  1
  H  H5  1  0.99854637  0.00542102  0.56055589  1
  H  H6  1  0.74765882  0.73757438  0.02869118  1
  H  H7  1  0.57402676  0.56120155  0.81088195  1
  H  H8  1  0.47801391  0.50460043  0.15192011  1
  H  H9  1  0.90773042  0.66044467  0.24121504  1
  H  H10  1  0.95475091  0.32813057  0.66663056  1
  H  H11  1  0.47999977  0.20866579  0.31550122  1
  H  H12  1  0.37341372  0.79229456  0.56450212  1
  H  H13  1  0.56565939  0.79777304  0.01909229  1
  H  H14  1  0.52181857  0.09165920  0.02167545  1
  H  H15  1  0.08903042  0.34890262  0.06264853  1
  H  H16  1  0.94161021  0.62222965  0.94229601  1
  O  O17  1  0.92549226  0.93919066  0.61836771  1
  O  O18  1  0.09292696  0.09722453  0.41706192  1
  O  O19  1  0.44964008  0.42324900  0.64652305  1
  O  O20  1  0.57040177  0.59536812  0.33992822  1
  O  O21  1  0.04120693  0.61661992  0.41611485  1
  O  O22  1  0.04614924  0.42878826  0.65927919  1
  O  O23  1  0.44879632  0.10638032  0.36786824  1
  O  O24  1  0.52248361  0.89756196  0.61835424  1
  O  O25  1  0.42295233  0.84074812  0.00734550  1
  O  O26  1  0.60409812  0.21537833  0.03104424  1
  O  O27  1  0.93866194  0.26845244  0.02456103  1
  O  O28  1  0.06300743  0.73258638  0.97432098  1
