# generated using pymatgen
data_Cs3LaBr6
_symmetry_space_group_name_H-M   'P 1'
_cell_length_a   14.98910808
_cell_length_b   14.98910808
_cell_length_c   13.95691200
_cell_angle_alpha   81.20675239
_cell_angle_beta   81.20675239
_cell_angle_gamma   33.86061933
_symmetry_Int_Tables_number   1
_chemical_formula_structural   Cs3LaBr6
_chemical_formula_sum   'Cs12 La4 Br24'
_cell_volume   1724.70728941
_cell_formula_units_Z   4
loop_
 _symmetry_equiv_pos_site_id
 _symmetry_equiv_pos_as_xyz
  1  'x, y, z'
loop_
 _atom_site_type_symbol
 _atom_site_label
 _atom_site_symmetry_multiplicity
 _atom_site_fract_x
 _atom_site_fract_y
 _atom_site_fract_z
 _atom_site_occupancy
  Cs  Cs0  1  0.16287068  0.52636514  0.64564380  1
  Cs  Cs1  1  0.47363486  0.83712932  0.85435620  1
  Cs  Cs2  1  0.83712932  0.47363486  0.35435620  1
  Cs  Cs3  1  0.52636514  0.16287068  0.14564380  1
  Cs  Cs4  1  0.66923660  0.23285540  0.42604584  1
  Cs  Cs5  1  0.76714460  0.33076340  0.07395416  1
  Cs  Cs6  1  0.33076340  0.76714460  0.57395416  1
  Cs  Cs7  1  0.23285540  0.66923660  0.92604584  1
  Cs  Cs8  1  0.34071180  0.98097245  0.19985889  1
  Cs  Cs9  1  0.01902755  0.65928820  0.30014111  1
  Cs  Cs10  1  0.65928820  0.01902755  0.80014111  1
  Cs  Cs11  1  0.98097245  0.34071180  0.69985889  1
  La  La12  1  0.50000000  0.00000000  0.50000000  1
  La  La13  1  0.00000000  0.50000000  -0.00000000  1
  La  La14  1  0.19939350  0.80060650  0.25000000  1
  La  La15  1  0.80060650  0.19939350  0.75000000  1
  Br  Br16  1  0.37390178  0.28375720  0.41917324  1
  Br  Br17  1  0.71624280  0.62609822  0.08082676  1
  Br  Br18  1  0.62609822  0.71624280  0.58082676  1
  Br  Br19  1  0.28375720  0.37390178  0.91917324  1
  Br  Br20  1  0.49415497  0.62726193  0.32092347  1
  Br  Br21  1  0.37273807  0.50584503  0.17907653  1
  Br  Br22  1  0.50584503  0.37273807  0.67907653  1
  Br  Br23  1  0.62726193  0.49415497  0.82092347  1
  Br  Br24  1  0.78482321  0.86686224  0.53371137  1
  Br  Br25  1  0.13313776  0.21517679  0.96628863  1
  Br  Br26  1  0.21517679  0.13313776  0.46628863  1
  Br  Br27  1  0.86686224  0.78482321  0.03371137  1
  Br  Br28  1  0.36130844  0.13949931  0.69310762  1
  Br  Br29  1  0.86050069  0.63869156  0.80689238  1
  Br  Br30  1  0.63869156  0.86050069  0.30689238  1
  Br  Br31  1  0.13949931  0.36130844  0.19310762  1
  Br  Br32  1  0.17135322  0.71379142  0.44110800  1
  Br  Br33  1  0.28620858  0.82864678  0.05889200  1
  Br  Br34  1  0.82864678  0.28620858  0.55889200  1
  Br  Br35  1  0.71379142  0.17135322  0.94110800  1
  Br  Br36  1  0.00695394  0.11476403  0.29635794  1
  Br  Br37  1  0.88523597  0.99304606  0.20364206  1
  Br  Br38  1  0.99304606  0.88523597  0.70364206  1
  Br  Br39  1  0.11476403  0.00695394  0.79635794  1
