# generated using pymatgen
data_Mn5VO8
_symmetry_space_group_name_H-M   'P 1'
_cell_length_a   5.40578575
_cell_length_b   6.18542373
_cell_length_c   10.17843350
_cell_angle_alpha   106.87563104
_cell_angle_beta   99.31534244
_cell_angle_gamma   90.48528124
_symmetry_Int_Tables_number   1
_chemical_formula_structural   Mn5VO8
_chemical_formula_sum   'Mn10 V2 O16'
_cell_volume   320.83147965
_cell_formula_units_Z   2
loop_
 _symmetry_equiv_pos_site_id
 _symmetry_equiv_pos_as_xyz
  1  'x, y, z'
loop_
 _atom_site_type_symbol
 _atom_site_label
 _atom_site_symmetry_multiplicity
 _atom_site_fract_x
 _atom_site_fract_y
 _atom_site_fract_z
 _atom_site_occupancy
  Mn  Mn0  1  0.24178157  0.36273496  0.73147461  1
  Mn  Mn1  1  0.75821843  0.63726504  0.26852539  1
  Mn  Mn2  1  0.50515687  0.24979849  0.00378987  1
  Mn  Mn3  1  0.49484313  0.75020151  0.99621013  1
  Mn  Mn4  1  0.74155237  0.10693611  0.73372697  1
  Mn  Mn5  1  0.25844763  0.89306389  0.26627303  1
  Mn  Mn6  1  0.25345884  0.38087418  0.26671334  1
  Mn  Mn7  1  0.74654116  0.61912582  0.73328666  1
  Mn  Mn8  1  -0.00000000  -0.00000000  -0.00000000  1
  Mn  Mn9  1  -0.00000000  0.50000000  -0.00000000  1
  V  V10  1  0.19724385  0.78710875  0.57309905  1
  V  V11  1  0.80275615  0.21289125  0.42690095  1
  O  O12  1  0.36988868  0.58863906  0.63239734  1
  O  O13  1  0.63011132  0.41136094  0.36760266  1
  O  O14  1  0.63346570  0.95323213  0.36634813  1
  O  O15  1  0.36653430  0.04676787  0.63365187  1
  O  O16  1  0.11024037  0.64775794  0.87727017  1
  O  O17  1  0.88975963  0.35224206  0.12272983  1
  O  O18  1  0.90035729  0.79043215  0.10836738  1
  O  O19  1  0.09964271  0.20956785  0.89163262  1
  O  O20  1  0.39296696  0.57342693  0.13987438  1
  O  O21  1  0.60703304  0.42657307  0.86012562  1
  O  O22  1  0.32706018  0.05669942  0.11178886  1
  O  O23  1  0.67293982  0.94330058  0.88821114  1
  O  O24  1  0.91219221  0.81542610  0.63318061  1
  O  O25  1  0.08780779  0.18457390  0.36681939  1
  O  O26  1  0.86827459  0.30244316  0.61349292  1
  O  O27  1  0.13172541  0.69755684  0.38650708  1
