# generated using pymatgen
data_LiSn(SO4)2
_symmetry_space_group_name_H-M   'P 1'
_cell_length_a   9.84509711
_cell_length_b   9.47042011
_cell_length_c   14.82431787
_cell_angle_alpha   90.00000000
_cell_angle_beta   90.62511993
_cell_angle_gamma   90.00000000
_symmetry_Int_Tables_number   1
_chemical_formula_structural   LiSn(SO4)2
_chemical_formula_sum   'Li8 Sn8 S16 O64'
_cell_volume   1382.09571001
_cell_formula_units_Z   8
loop_
 _symmetry_equiv_pos_site_id
 _symmetry_equiv_pos_as_xyz
  1  'x, y, z'
loop_
 _atom_site_type_symbol
 _atom_site_label
 _atom_site_symmetry_multiplicity
 _atom_site_fract_x
 _atom_site_fract_y
 _atom_site_fract_z
 _atom_site_occupancy
  Li  Li0  1  0.20421530  0.96282659  0.36833401  1
  Li  Li1  1  0.20421530  0.53717341  0.86833401  1
  Li  Li2  1  0.29658828  0.03888741  0.86903737  1
  Li  Li3  1  0.29658828  0.46111259  0.36903737  1
  Li  Li4  1  0.77265143  0.44249398  0.12728478  1
  Li  Li5  1  0.77265143  0.05750602  0.62728478  1
  Li  Li6  1  0.95253738  0.76517617  0.62835250  1
  Li  Li7  1  0.95253738  0.73482383  0.12835250  1
  Sn  Sn8  1  0.15549429  0.11005203  0.12408628  1
  Sn  Sn9  1  0.15549429  0.38994797  0.62408628  1
  Sn  Sn10  1  0.36236944  0.60726957  0.12830775  1
  Sn  Sn11  1  0.36236944  0.89273043  0.62830775  1
  Sn  Sn12  1  0.64223377  0.10006512  0.37707834  1
  Sn  Sn13  1  0.64223377  0.39993488  0.87707834  1
  Sn  Sn14  1  0.85362371  0.59687279  0.38162130  1
  Sn  Sn15  1  0.85362371  0.90312721  0.88162130  1
  S  S16  1  0.05662193  0.06135629  0.73556181  1
  S  S17  1  0.05662193  0.43864371  0.23556181  1
  S  S18  1  0.14752139  0.68650009  0.48347130  1
  S  S19  1  0.14752139  0.81349991  0.98347130  1
  S  S20  1  0.35138166  0.18543313  0.47839945  1
  S  S21  1  0.35138166  0.31456687  0.97839945  1
  S  S22  1  0.43254024  0.93011423  0.23518959  1
  S  S23  1  0.43254024  0.56988577  0.73518959  1
  S  S24  1  0.59036812  0.41969610  0.27465398  1
  S  S25  1  0.59036812  0.08030390  0.77465398  1
  S  S26  1  0.67041390  0.68660909  0.00963643  1
  S  S27  1  0.67041390  0.81339091  0.50963643  1
  S  S28  1  0.84402454  0.19451510  0.00163555  1
  S  S29  1  0.84402454  0.30548490  0.50163555  1
  S  S30  1  0.90852995  0.58224713  0.77807698  1
  S  S31  1  0.90852995  0.91775287  0.27807698  1
  O  O32  1  0.99037817  0.68143582  0.47527386  1
  O  O33  1  0.99037817  0.81856418  0.97527386  1
  O  O34  1  0.00572867  0.97006514  0.34412761  1
  O  O35  1  0.00572867  0.52993486  0.84412761  1
  O  O36  1  0.00509635  0.47460116  0.33081313  1
  O  O37  1  0.00509635  0.02539884  0.83081313  1
  O  O38  1  0.04280124  0.21459447  0.72415688  1
  O  O39  1  0.04280124  0.28540553  0.22415688  1
  O  O40  1  0.16358828  0.75056226  0.07548239  1
  O  O41  1  0.16358828  0.74943774  0.57548239  1
  O  O42  1  0.20301927  0.95902132  0.98200395  1
  O  O43  1  0.20301927  0.54097868  0.48200395  1
  O  O44  1  0.20165385  0.01731229  0.73989784  1
  O  O45  1  0.20165385  0.48268771  0.23989784  1
  O  O46  1  0.20537611  0.76942406  0.41127713  1
  O  O47  1  0.20537611  0.73057594  0.91127713  1
  O  O48  1  0.29226392  0.26632504  0.40411782  1
  O  O49  1  0.29226392  0.23367496  0.90411782  1
  O  O50  1  0.28703440  0.97458800  0.24591977  1
  O  O51  1  0.28703440  0.52541200  0.74591977  1
  O  O52  1  0.29954941  0.03838758  0.47755818  1
  O  O53  1  0.29954941  0.46161242  0.97755818  1
  O  O54  1  0.32691825  0.25110825  0.06882267  1
  O  O55  1  0.32691825  0.24889175  0.56882267  1
  O  O56  1  0.43864879  0.77247201  0.23284269  1
  O  O57  1  0.43864879  0.72752799  0.73284269  1
  O  O58  1  0.49668830  0.53207108  0.82901376  1
  O  O59  1  0.49668830  0.96792892  0.32901376  1
  O  O60  1  0.49252721  0.47848107  0.33642327  1
  O  O61  1  0.49252721  0.02151893  0.83642327  1
  O  O62  1  0.50746584  0.18322463  0.47124167  1
  O  O63  1  0.50746584  0.31677537  0.97124167  1
  O  O64  1  0.52518256  0.70321201  0.02465518  1
  O  O65  1  0.52518256  0.79678799  0.52465518  1
  O  O66  1  0.49953313  0.50145928  0.66149219  1
  O  O67  1  0.49953313  0.99854072  0.16149219  1
  O  O68  1  0.56375574  0.44844744  0.17818514  1
  O  O69  1  0.56375574  0.05155256  0.67818514  1
  O  O70  1  0.60250999  0.26076194  0.28272181  1
  O  O71  1  0.60250999  0.23923806  0.78272181  1
  O  O72  1  0.70156128  0.72790908  0.42569840  1
  O  O73  1  0.70156128  0.77209092  0.92569840  1
  O  O74  1  0.70368451  0.53223402  0.98611296  1
  O  O75  1  0.70368451  0.96776598  0.48611296  1
  O  O76  1  0.73270849  0.48155343  0.29026075  1
  O  O77  1  0.73270849  0.01844657  0.79026075  1
  O  O78  1  0.75797084  0.71964217  0.08618527  1
  O  O79  1  0.75797084  0.78035783  0.58618527  1
  O  O80  1  0.77305046  0.24824244  0.07951126  1
  O  O81  1  0.77305046  0.25175756  0.57951126  1
  O  O82  1  0.77059450  0.51653811  0.79069193  1
  O  O83  1  0.77059450  0.98346189  0.29069193  1
  O  O84  1  0.79508620  0.45622638  0.48324887  1
  O  O85  1  0.79508620  0.04377362  0.98324887  1
  O  O86  1  0.80702510  0.22145309  0.41629801  1
  O  O87  1  0.80702510  0.27854691  0.91629801  1
  O  O88  1  0.89089926  0.74502132  0.78498853  1
  O  O89  1  0.89089926  0.75497868  0.28498853  1
  O  O90  1  0.94860383  0.56447137  0.68346539  1
  O  O91  1  0.94860383  0.93552863  0.18346539  1
  O  O92  1  0.97648987  0.98276572  0.66677852  1
  O  O93  1  0.97648987  0.51723428  0.16677852  1
  O  O94  1  0.99239086  0.19737074  0.00892774  1
  O  O95  1  0.99239086  0.30262926  0.50892774  1
