# generated using pymatgen
data_Ge19(SbI)4
_symmetry_space_group_name_H-M   'P 1'
_cell_length_a   11.10327934
_cell_length_b   11.10327934
_cell_length_c   11.10327934
_cell_angle_alpha   90.00000000
_cell_angle_beta   90.00000000
_cell_angle_gamma   90.00000000
_symmetry_Int_Tables_number   1
_chemical_formula_structural   Ge19(SbI)4
_chemical_formula_sum   'Ge38 Sb8 I8'
_cell_volume   1368.84350059
_cell_formula_units_Z   2
loop_
 _symmetry_equiv_pos_site_id
 _symmetry_equiv_pos_as_xyz
  1  'x, y, z'
loop_
 _atom_site_type_symbol
 _atom_site_label
 _atom_site_symmetry_multiplicity
 _atom_site_fract_x
 _atom_site_fract_y
 _atom_site_fract_z
 _atom_site_occupancy
  Ge  Ge0  1  0.32335440  0.32335440  0.32335440  1
  Ge  Ge1  1  0.67664560  0.67664560  0.32335440  1
  Ge  Ge2  1  0.67664560  0.32335440  0.67664560  1
  Ge  Ge3  1  0.82335440  0.82335440  0.82335440  1
  Ge  Ge4  1  0.32335440  0.67664560  0.67664560  1
  Ge  Ge5  1  0.17664560  0.17664560  0.82335440  1
  Ge  Ge6  1  0.82335440  0.17664560  0.17664560  1
  Ge  Ge7  1  0.17664560  0.82335440  0.17664560  1
  Ge  Ge8  1  0.99015789  0.11470522  0.31509641  1
  Ge  Ge9  1  0.00984211  0.88529478  0.31509641  1
  Ge  Ge10  1  0.00984211  0.11470522  0.68490359  1
  Ge  Ge11  1  0.31509641  0.99015789  0.11470522  1
  Ge  Ge12  1  0.61470522  0.49015789  0.81509641  1
  Ge  Ge13  1  0.99015789  0.88529478  0.68490359  1
  Ge  Ge14  1  0.31509641  0.00984211  0.88529478  1
  Ge  Ge15  1  0.38529478  0.50984211  0.81509641  1
  Ge  Ge16  1  0.68490359  0.00984211  0.11470522  1
  Ge  Ge17  1  0.61470522  0.50984211  0.18490359  1
  Ge  Ge18  1  0.68490359  0.99015789  0.88529478  1
  Ge  Ge19  1  0.38529478  0.49015789  0.18490359  1
  Ge  Ge20  1  0.11470522  0.31509641  0.99015789  1
  Ge  Ge21  1  0.49015789  0.81509641  0.61470522  1
  Ge  Ge22  1  0.11470522  0.68490359  0.00984211  1
  Ge  Ge23  1  0.50984211  0.18490359  0.61470522  1
  Ge  Ge24  1  0.88529478  0.68490359  0.99015789  1
  Ge  Ge25  1  0.49015789  0.18490359  0.38529478  1
  Ge  Ge26  1  0.88529478  0.31509641  0.00984211  1
  Ge  Ge27  1  0.50984211  0.81509641  0.38529478  1
  Ge  Ge28  1  0.81509641  0.61470522  0.49015789  1
  Ge  Ge29  1  0.81509641  0.38529478  0.50984211  1
  Ge  Ge30  1  0.18490359  0.38529478  0.49015789  1
  Ge  Ge31  1  0.18490359  0.61470522  0.50984211  1
  Ge  Ge32  1  0.25000000  0.50000000  0.00000000  1
  Ge  Ge33  1  0.75000000  0.50000000  0.00000000  1
  Ge  Ge34  1  -0.00000000  0.25000000  0.50000000  1
  Ge  Ge35  1  -0.00000000  0.75000000  0.50000000  1
  Ge  Ge36  1  0.50000000  -0.00000000  0.25000000  1
  Ge  Ge37  1  0.50000000  -0.00000000  0.75000000  1
  Sb  Sb38  1  0.18463055  0.18463055  0.18463055  1
  Sb  Sb39  1  0.81536945  0.81536945  0.18463055  1
  Sb  Sb40  1  0.81536945  0.18463055  0.81536945  1
  Sb  Sb41  1  0.68463055  0.68463055  0.68463055  1
  Sb  Sb42  1  0.18463055  0.81536945  0.81536945  1
  Sb  Sb43  1  0.31536945  0.31536945  0.68463055  1
  Sb  Sb44  1  0.68463055  0.31536945  0.31536945  1
  Sb  Sb45  1  0.31536945  0.68463055  0.31536945  1
  I  I46  1  0.25000000  -0.00000000  0.50000000  1
  I  I47  1  0.75000000  -0.00000000  0.50000000  1
  I  I48  1  0.50000000  0.25000000  0.00000000  1
  I  I49  1  0.50000000  0.75000000  0.00000000  1
  I  I50  1  -0.00000000  0.50000000  0.25000000  1
  I  I51  1  -0.00000000  0.50000000  0.75000000  1
  I  I52  1  -0.00000000  -0.00000000  0.00000000  1
  I  I53  1  0.50000000  0.50000000  0.50000000  1
