# generated using pymatgen
data_AsH9(NO2)2
_symmetry_space_group_name_H-M   'P 1'
_cell_length_a   6.83648937
_cell_length_b   8.12619522
_cell_length_c   10.94985022
_cell_angle_alpha   108.45326042
_cell_angle_beta   90.00000000
_cell_angle_gamma   90.00000000
_symmetry_Int_Tables_number   1
_chemical_formula_structural   AsH9(NO2)2
_chemical_formula_sum   'As4 H36 N8 O16'
_cell_volume   577.03683429
_cell_formula_units_Z   4
loop_
 _symmetry_equiv_pos_site_id
 _symmetry_equiv_pos_as_xyz
  1  'x, y, z'
loop_
 _atom_site_type_symbol
 _atom_site_label
 _atom_site_symmetry_multiplicity
 _atom_site_fract_x
 _atom_site_fract_y
 _atom_site_fract_z
 _atom_site_occupancy
  As  As0  1  0.39016806  0.31990907  0.24884582  1
  As  As1  1  0.89016806  0.18009093  0.75115418  1
  As  As2  1  0.60983194  0.68009093  0.75115418  1
  As  As3  1  0.10983194  0.81990907  0.24884582  1
  H  H4  1  0.63915248  0.71556647  0.50210554  1
  H  H5  1  0.13915248  0.78443353  0.49789446  1
  H  H6  1  0.36084752  0.28443353  0.49789446  1
  H  H7  1  0.86084752  0.21556647  0.50210554  1
  H  H8  1  0.49040350  0.80991585  0.41631722  1
  H  H9  1  0.99040350  0.69008415  0.58368278  1
  H  H10  1  0.50959650  0.19008415  0.58368278  1
  H  H11  1  0.00959650  0.30991585  0.41631722  1
  H  H12  1  0.72984437  0.76439212  0.37355675  1
  H  H13  1  0.22984437  0.73560788  0.62644325  1
  H  H14  1  0.27015563  0.23560788  0.62644325  1
  H  H15  1  0.77015563  0.26439212  0.37355675  1
  H  H16  1  0.67601039  0.92163056  0.51256030  1
  H  H17  1  0.17601039  0.57836944  0.48743970  1
  H  H18  1  0.32398961  0.07836944  0.48743970  1
  H  H19  1  0.82398961  0.42163056  0.51256030  1
  H  H20  1  0.01457705  0.30120324  0.12080339  1
  H  H21  1  0.51457705  0.19879676  0.87919661  1
  H  H22  1  0.98542295  0.69879676  0.87919661  1
  H  H23  1  0.48542295  0.80120324  0.12080339  1
  H  H24  1  0.88617601  0.49052728  0.17138977  1
  H  H25  1  0.38617601  0.00947272  0.82861023  1
  H  H26  1  0.11382399  0.50947272  0.82861023  1
  H  H27  1  0.61382399  0.99052728  0.17138977  1
  H  H28  1  0.83004581  0.33891266  0.02818180  1
  H  H29  1  0.33004581  0.16108734  0.97181820  1
  H  H30  1  0.16995419  0.66108734  0.97181820  1
  H  H31  1  0.66995419  0.83891266  0.02818180  1
  H  H32  1  0.77814263  0.30160269  0.16792844  1
  H  H33  1  0.27814263  0.19839731  0.83207156  1
  H  H34  1  0.22185737  0.69839731  0.83207156  1
  H  H35  1  0.72185737  0.80160269  0.16792844  1
  H  H36  1  0.37744566  0.56604955  0.17765957  1
  H  H37  1  0.87744566  0.93395045  0.82234043  1
  H  H38  1  0.62255434  0.43395045  0.82234043  1
  H  H39  1  0.12255434  0.06604955  0.17765957  1
  N  N40  1  0.63012425  0.80237365  0.44988380  1
  N  N41  1  0.13012425  0.69762635  0.55011620  1
  N  N42  1  0.36987575  0.19762635  0.55011620  1
  N  N43  1  0.86987575  0.30237365  0.44988380  1
  N  N44  1  0.87801702  0.35784914  0.12204772  1
  N  N45  1  0.37801702  0.14215086  0.87795228  1
  N  N46  1  0.12198298  0.64215086  0.87795228  1
  N  N47  1  0.62198298  0.85784914  0.12204772  1
  O  O48  1  0.47761940  0.49895416  0.21051881  1
  O  O49  1  0.97761940  0.00104584  0.78948119  1
  O  O50  1  0.52238060  0.50104584  0.78948119  1
  O  O51  1  0.02238060  0.99895416  0.21051881  1
  O  O52  1  0.59797654  0.21180025  0.25644848  1
  O  O53  1  0.09797654  0.28819975  0.74355152  1
  O  O54  1  0.40202346  0.78819975  0.74355152  1
  O  O55  1  0.90202346  0.71180025  0.25644848  1
  O  O56  1  0.26560077  0.38372734  0.38907356  1
  O  O57  1  0.76560077  0.11627266  0.61092644  1
  O  O58  1  0.73439923  0.61627266  0.61092644  1
  O  O59  1  0.23439923  0.88372734  0.38907356  1
  O  O60  1  0.24373399  0.20051468  0.12810004  1
  O  O61  1  0.74373399  0.29948532  0.87189996  1
  O  O62  1  0.75626601  0.79948532  0.87189996  1
  O  O63  1  0.25626601  0.70051468  0.12810004  1
