# generated using pymatgen
data_La(LuS2)3
_symmetry_space_group_name_H-M   'P 1'
_cell_length_a   3.93737766
_cell_length_b   10.94170426
_cell_length_c   11.17570495
_cell_angle_alpha   70.95859804
_cell_angle_beta   90.00000000
_cell_angle_gamma   90.00000000
_symmetry_Int_Tables_number   1
_chemical_formula_structural   La(LuS2)3
_chemical_formula_sum   'La2 Lu6 S12'
_cell_volume   455.12307355
_cell_formula_units_Z   2
loop_
 _symmetry_equiv_pos_site_id
 _symmetry_equiv_pos_as_xyz
  1  'x, y, z'
loop_
 _atom_site_type_symbol
 _atom_site_label
 _atom_site_symmetry_multiplicity
 _atom_site_fract_x
 _atom_site_fract_y
 _atom_site_fract_z
 _atom_site_occupancy
  La  La0  1  0.75000000  0.55217917  0.80274312  1
  La  La1  1  0.25000000  0.44782083  0.19725688  1
  Lu  Lu2  1  0.75000000  0.17768946  0.99955172  1
  Lu  Lu3  1  0.25000000  0.82231054  0.00044828  1
  Lu  Lu4  1  0.75000000  0.94670873  0.66580610  1
  Lu  Lu5  1  0.25000000  0.05329127  0.33419390  1
  Lu  Lu6  1  0.75000000  0.66175369  0.41075796  1
  Lu  Lu7  1  0.25000000  0.33824631  0.58924204  1
  S  S8  1  0.75000000  0.97767534  0.88865396  1
  S  S9  1  0.25000000  0.02232466  0.11134604  1
  S  S10  1  0.75000000  0.29904308  0.74863898  1
  S  S11  1  0.25000000  0.70095692  0.25136102  1
  S  S12  1  0.75000000  0.89163290  0.44437488  1
  S  S13  1  0.25000000  0.10836710  0.55562512  1
  S  S14  1  0.75000000  0.41844956  0.41087382  1
  S  S15  1  0.25000000  0.58155044  0.58912618  1
  S  S16  1  0.75000000  0.22608650  0.23145154  1
  S  S17  1  0.25000000  0.77391350  0.76854846  1
  S  S18  1  0.75000000  0.62396212  0.03626178  1
  S  S19  1  0.25000000  0.37603788  0.96373822  1
