# generated using pymatgen
data_P4Se3Br2
_symmetry_space_group_name_H-M   'P 1'
_cell_length_a   9.94314843
_cell_length_b   9.94314843
_cell_length_c   12.68646744
_cell_angle_alpha   72.84074537
_cell_angle_beta   72.84074537
_cell_angle_gamma   99.04230084
_symmetry_Int_Tables_number   1
_chemical_formula_structural   P4Se3Br2
_chemical_formula_sum   'P16 Se12 Br8'
_cell_volume   1103.36366163
_cell_formula_units_Z   4
loop_
 _symmetry_equiv_pos_site_id
 _symmetry_equiv_pos_as_xyz
  1  'x, y, z'
loop_
 _atom_site_type_symbol
 _atom_site_label
 _atom_site_symmetry_multiplicity
 _atom_site_fract_x
 _atom_site_fract_y
 _atom_site_fract_z
 _atom_site_occupancy
  P  P0  1  0.31849098  0.85584795  0.07272806  1
  P  P1  1  0.14415205  0.68150902  0.42727194  1
  P  P2  1  0.68150902  0.14415205  0.92727194  1
  P  P3  1  0.85584795  0.31849098  0.57272806  1
  P  P4  1  0.99405595  0.71549485  0.33132924  1
  P  P5  1  0.28450515  0.00594405  0.16867076  1
  P  P6  1  0.00594405  0.28450515  0.66867076  1
  P  P7  1  0.71549485  0.99405595  0.83132924  1
  P  P8  1  0.64598270  0.60118896  0.07986319  1
  P  P9  1  0.39881104  0.35401730  0.42013681  1
  P  P10  1  0.35401730  0.39881104  0.92013681  1
  P  P11  1  0.60118896  0.64598270  0.57986319  1
  P  P12  1  0.63733338  0.40878518  0.37001238  1
  P  P13  1  0.59121482  0.36266662  0.12998762  1
  P  P14  1  0.36266662  0.59121482  0.62998762  1
  P  P15  1  0.40878518  0.63733338  0.87001238  1
  Se  Se16  1  0.13054639  0.65163352  0.18564136  1
  Se  Se17  1  0.34836648  0.86945361  0.31435864  1
  Se  Se18  1  0.86945361  0.34836648  0.81435864  1
  Se  Se19  1  0.65163352  0.13054639  0.68564136  1
  Se  Se20  1  0.04104115  0.95895885  0.25000000  1
  Se  Se21  1  0.95895885  0.04104115  0.75000000  1
  Se  Se22  1  0.66646660  0.63660410  0.24517812  1
  Se  Se23  1  0.36339590  0.33353340  0.25482188  1
  Se  Se24  1  0.33353340  0.36339590  0.75482188  1
  Se  Se25  1  0.63660410  0.66646660  0.74517812  1
  Se  Se26  1  0.71275658  0.28724342  0.25000000  1
  Se  Se27  1  0.28724342  0.71275658  0.75000000  1
  Br  Br28  1  0.24315369  0.96641981  0.92440589  1
  Br  Br29  1  0.03358019  0.75684631  0.57559411  1
  Br  Br30  1  0.75684631  0.03358019  0.07559411  1
  Br  Br31  1  0.96641981  0.24315369  0.42440589  1
  Br  Br32  1  0.88145319  0.65367337  0.96012203  1
  Br  Br33  1  0.34632663  0.11854681  0.53987797  1
  Br  Br34  1  0.11854681  0.34632663  0.03987797  1
  Br  Br35  1  0.65367337  0.88145319  0.46012203  1
