# generated using pymatgen
data_Pr2SiS5
_symmetry_space_group_name_H-M   'P 1'
_cell_length_a   12.58108904
_cell_length_b   7.59900760
_cell_length_c   7.85517588
_cell_angle_alpha   78.62708248
_cell_angle_beta   90.00000000
_cell_angle_gamma   90.00000000
_symmetry_Int_Tables_number   1
_chemical_formula_structural   Pr2SiS5
_chemical_formula_sum   'Pr8 Si4 S20'
_cell_volume   736.23863292
_cell_formula_units_Z   4
loop_
 _symmetry_equiv_pos_site_id
 _symmetry_equiv_pos_as_xyz
  1  'x, y, z'
loop_
 _atom_site_type_symbol
 _atom_site_label
 _atom_site_symmetry_multiplicity
 _atom_site_fract_x
 _atom_site_fract_y
 _atom_site_fract_z
 _atom_site_occupancy
  Pr  Pr0  1  0.83547796  0.83808593  0.63196673  1
  Pr  Pr1  1  0.16452204  0.16191407  0.36803327  1
  Pr  Pr2  1  0.33547796  0.16191407  0.86803327  1
  Pr  Pr3  1  0.66452204  0.83808593  0.13196673  1
  Pr  Pr4  1  0.40545947  0.75963594  0.54279189  1
  Pr  Pr5  1  0.59454053  0.24036406  0.45720811  1
  Pr  Pr6  1  0.90545947  0.24036406  0.95720811  1
  Pr  Pr7  1  0.09454053  0.75963594  0.04279189  1
  Si  Si8  1  0.11636117  0.66848864  0.59472377  1
  Si  Si9  1  0.88363883  0.33151136  0.40527623  1
  Si  Si10  1  0.61636117  0.33151136  0.90527623  1
  Si  Si11  1  0.38363883  0.66848864  0.09472377  1
  S  S12  1  0.47021482  0.82520018  0.88633321  1
  S  S13  1  0.52978518  0.17479982  0.11366679  1
  S  S14  1  0.97021482  0.17479982  0.61366679  1
  S  S15  1  0.02978518  0.82520018  0.38633321  1
  S  S16  1  0.20285702  0.86993893  0.69412490  1
  S  S17  1  0.79714298  0.13006107  0.30587510  1
  S  S18  1  0.70285702  0.13006107  0.80587510  1
  S  S19  1  0.29714298  0.86993893  0.19412490  1
  S  S20  1  0.22655696  0.47461982  0.54975302  1
  S  S21  1  0.77344304  0.52538018  0.45024698  1
  S  S22  1  0.72655696  0.52538018  0.95024698  1
  S  S23  1  0.27344304  0.47461982  0.04975302  1
  S  S24  1  0.87879972  0.86298285  0.99657658  1
  S  S25  1  0.12120028  0.13701715  0.00342342  1
  S  S26  1  0.37879972  0.13701715  0.50342342  1
  S  S27  1  0.62120028  0.86298285  0.49657658  1
  S  S28  1  0.49778142  0.42114044  0.71978264  1
  S  S29  1  0.50221858  0.57885956  0.28021736  1
  S  S30  1  0.99778142  0.57885956  0.78021736  1
  S  S31  1  0.00221858  0.42114044  0.21978264  1
