# generated using pymatgen
data_Cs3Gd(PO4)2
_symmetry_space_group_name_H-M   'P 1'
_cell_length_a   10.43486132
_cell_length_b   10.57649606
_cell_length_c   10.72199827
_cell_angle_alpha   90.00000000
_cell_angle_beta   107.69579226
_cell_angle_gamma   90.00000000
_symmetry_Int_Tables_number   1
_chemical_formula_structural   Cs3Gd(PO4)2
_chemical_formula_sum   'Cs12 Gd4 P8 O32'
_cell_volume   1127.33504941
_cell_formula_units_Z   4
loop_
 _symmetry_equiv_pos_site_id
 _symmetry_equiv_pos_as_xyz
  1  'x, y, z'
loop_
 _atom_site_type_symbol
 _atom_site_label
 _atom_site_symmetry_multiplicity
 _atom_site_fract_x
 _atom_site_fract_y
 _atom_site_fract_z
 _atom_site_occupancy
  Cs  Cs0  1  0.72172045  0.89713676  0.98121516  1
  Cs  Cs1  1  0.27827955  0.39713676  0.01878484  1
  Cs  Cs2  1  0.52023668  0.32006164  0.77777010  1
  Cs  Cs3  1  0.47976332  0.82006164  0.22222990  1
  Cs  Cs4  1  0.03452859  0.26626073  0.66534118  1
  Cs  Cs5  1  0.96547141  0.76626073  0.33465882  1
  Cs  Cs6  1  0.33241136  0.51823910  0.45417263  1
  Cs  Cs7  1  0.66758864  0.01823910  0.54582737  1
  Cs  Cs8  1  0.00972828  0.91621072  0.78940691  1
  Cs  Cs9  1  0.99027172  0.41621072  0.21059309  1
  Cs  Cs10  1  0.27450269  0.97714204  0.56397540  1
  Cs  Cs11  1  0.72549731  0.47714204  0.43602460  1
  Gd  Gd12  1  0.84142514  0.56468648  0.83719459  1
  Gd  Gd13  1  0.15857486  0.06468648  0.16280541  1
  Gd  Gd14  1  0.34332541  0.70797115  0.83625354  1
  Gd  Gd15  1  0.65667459  0.20797115  0.16374646  1
  P  P16  1  0.09755736  0.58563909  0.64609581  1
  P  P17  1  0.90244264  0.08563909  0.35390419  1
  P  P18  1  0.36136088  0.05437004  0.92284898  1
  P  P19  1  0.63863912  0.55437004  0.07715102  1
  P  P20  1  0.60005228  0.69574155  0.65119017  1
  P  P21  1  0.39994772  0.19574155  0.34880983  1
  P  P22  1  0.13407850  0.71724815  0.07778073  1
  P  P23  1  0.86592150  0.21724815  0.92221927  1
  O  O24  1  0.97755102  0.56693076  0.70334640  1
  O  O25  1  0.02244898  0.06693076  0.29665360  1
  O  O26  1  0.22737103  0.51942070  0.73909762  1
  O  O27  1  0.77262897  0.01942070  0.26090238  1
  O  O28  1  0.05721624  0.53095569  0.50666301  1
  O  O29  1  0.94278376  0.03095569  0.49333699  1
  O  O30  1  0.63354575  0.54956255  0.66713396  1
  O  O31  1  0.36645425  0.04956255  0.33286604  1
  O  O32  1  0.56549724  0.73587783  0.50759454  1
  O  O33  1  0.43450276  0.23587783  0.49240546  1
  O  O34  1  0.73171905  0.76019104  0.74099927  1
  O  O35  1  0.26828095  0.26019104  0.25900073  1
  O  O36  1  0.47952322  0.72408483  0.70525716  1
  O  O37  1  0.52047678  0.22408483  0.29474284  1
  O  O38  1  0.29228999  0.13935092  0.80553450  1
  O  O39  1  0.70771001  0.63935092  0.19446550  1
  O  O40  1  0.38207763  0.91780133  0.87445389  1
  O  O41  1  0.61792237  0.41780133  0.12554611  1
  O  O42  1  0.50373566  0.10811564  0.99873519  1
  O  O43  1  0.49626434  0.60811564  0.00126481  1
  O  O44  1  0.27734980  0.04395083  0.01923152  1
  O  O45  1  0.72265020  0.54395083  0.98076848  1
  O  O46  1  0.11876938  0.85450388  0.12747787  1
  O  O47  1  0.88123062  0.35450388  0.87252213  1
  O  O48  1  0.22079705  0.71977955  0.98214632  1
  O  O49  1  0.77920295  0.21977955  0.01785368  1
  O  O50  1  0.98904029  0.67273595  0.99873079  1
  O  O51  1  0.01095971  0.17273595  0.00126921  1
  O  O52  1  0.19601154  0.62976607  0.19456350  1
  O  O53  1  0.80398846  0.12976607  0.80543650  1
  O  O54  1  0.14037350  0.72875499  0.65066922  1
  O  O55  1  0.85962650  0.22875499  0.34933078  1
