# generated using pymatgen
data_NaMg6BO7
_symmetry_space_group_name_H-M   'P 1'
_cell_length_a   8.03827791
_cell_length_b   4.40668289
_cell_length_c   4.40668289
_cell_angle_alpha   90.00000000
_cell_angle_beta   90.00000000
_cell_angle_gamma   90.00000000
_symmetry_Int_Tables_number   1
_chemical_formula_structural   NaMg6BO7
_chemical_formula_sum   'Na1 Mg6 B1 O7'
_cell_volume   156.09414589
_cell_formula_units_Z   1
loop_
 _symmetry_equiv_pos_site_id
 _symmetry_equiv_pos_as_xyz
  1  'x, y, z'
loop_
 _atom_site_type_symbol
 _atom_site_label
 _atom_site_symmetry_multiplicity
 _atom_site_fract_x
 _atom_site_fract_y
 _atom_site_fract_z
 _atom_site_occupancy
  Na  Na0  1  0.99916620  0.00000000  -0.00000000  1
  Mg  Mg1  1  0.00484331  0.50000000  0.50000000  1
  Mg  Mg2  1  0.50431702  0.50000000  0.50000000  1
  Mg  Mg3  1  0.26064432  0.00000000  0.50000000  1
  Mg  Mg4  1  0.74935536  0.00000000  0.50000000  1
  Mg  Mg5  1  0.26064432  0.50000000  0.00000000  1
  Mg  Mg6  1  0.74935536  0.50000000  0.00000000  1
  B  B7  1  0.50842360  0.00000000  -0.00000000  1
  O  O8  1  0.68616031  0.00000000  -0.00000000  1
  O  O9  1  0.25515635  0.50000000  0.50000000  1
  O  O10  1  0.75384257  0.50000000  0.50000000  1
  O  O11  1  0.00565374  0.00000000  0.50000000  1
  O  O12  1  0.50339190  0.00000000  0.50000000  1
  O  O13  1  0.00565374  0.50000000  -0.00000000  1
  O  O14  1  0.50339190  0.50000000  0.00000000  1
