# generated using pymatgen
data_Ca11AlSb9
_symmetry_space_group_name_H-M   'P 1'
_cell_length_a   12.04684593
_cell_length_b   12.04726352
_cell_length_c   12.04673221
_cell_angle_alpha   121.14537590
_cell_angle_beta   117.20699120
_cell_angle_gamma   91.46483154
_symmetry_Int_Tables_number   1
_chemical_formula_structural   Ca11AlSb9
_chemical_formula_sum   'Ca22 Al2 Sb18'
_cell_volume   1249.44952167
_cell_formula_units_Z   2
loop_
 _symmetry_equiv_pos_site_id
 _symmetry_equiv_pos_as_xyz
  1  'x, y, z'
loop_
 _atom_site_type_symbol
 _atom_site_label
 _atom_site_symmetry_multiplicity
 _atom_site_fract_x
 _atom_site_fract_y
 _atom_site_fract_z
 _atom_site_occupancy
  Ca  Ca0  1  0.49875790  0.51286975  0.66437271  1
  Ca  Ca1  1  0.84849582  0.83439799  0.33561546  1
  Ca  Ca2  1  0.34850618  0.01286889  0.01412664  1
  Ca  Ca3  1  0.99874832  0.33438250  0.98588769  1
  Ca  Ca4  1  0.29015122  0.08732533  0.34963407  1
  Ca  Ca5  1  0.73767812  0.94052156  0.65034352  1
  Ca  Ca6  1  0.23769533  0.58732605  0.79718296  1
  Ca  Ca7  1  0.79016505  0.44052751  0.20283717  1
  Ca  Ca8  1  0.35824843  0.61849645  0.37353845  1
  Ca  Ca9  1  0.24497209  0.98470753  0.62646207  1
  Ca  Ca10  1  0.74495866  0.11852238  0.26026410  1
  Ca  Ca11  1  0.85822717  0.48471145  0.73975250  1
  Ca  Ca12  1  0.99506336  0.99507016  -0.00000508  1
  Ca  Ca13  1  0.49506828  0.49506291  0.00000103  1
  Ca  Ca14  1  0.09839071  0.36293026  0.36992457  1
  Ca  Ca15  1  0.99302963  0.72850722  0.63008471  1
  Ca  Ca16  1  0.49302489  0.86293040  0.26451473  1
  Ca  Ca17  1  0.59840628  0.22848658  0.73546487  1
  Ca  Ca18  1  0.60734432  0.42620629  0.36708840  1
  Ca  Ca19  1  0.05910643  0.24025811  0.63291463  1
  Ca  Ca20  1  0.55910869  0.92618920  0.81886237  1
  Ca  Ca21  1  0.10732742  0.74024784  0.18115393  1
  Al  Al22  1  0.27560644  0.27557930  0.00001564  1
  Al  Al23  1  0.77559517  0.77560823  -0.00001982  1
  Sb  Sb24  1  0.72501586  0.71805065  0.72357319  1
  Sb  Sb25  1  0.99444102  0.00145672  0.27643471  1
  Sb  Sb26  1  0.49446116  0.21802210  0.99300435  1
  Sb  Sb27  1  0.22502623  0.50143244  0.00700187  1
  Sb  Sb28  1  0.56684104  0.21124577  0.42593120  1
  Sb  Sb29  1  0.78527609  0.14087659  0.57398518  1
  Sb  Sb30  1  0.28532767  0.71126247  0.64443019  1
  Sb  Sb31  1  0.06687957  0.64087845  0.35562571  1
  Sb  Sb32  1  0.28563019  0.30208933  0.24497166  1
  Sb  Sb33  1  0.05713842  0.04067299  0.75503655  1
  Sb  Sb34  1  0.55720176  0.80208002  0.01652056  1
  Sb  Sb35  1  0.78556366  0.54068794  0.98349675  1
  Sb  Sb36  1  0.67083428  0.66830334  0.35411912  1
  Sb  Sb37  1  0.31417554  0.31665932  0.64588598  1
  Sb  Sb38  1  0.81415308  0.16830315  0.99748153  1
  Sb  Sb39  1  0.17077969  0.81666341  0.00249195  1
  Sb  Sb40  1  0.92247799  0.42248797  0.50002884  1
  Sb  Sb41  1  0.42250285  0.92249344  0.49996533  1
