# generated using pymatgen
data_K2Gd2Mg(MoO4)4
_symmetry_space_group_name_H-M   'P 1'
_cell_length_a   7.51874380
_cell_length_b   8.11752646
_cell_length_c   7.65199214
_cell_angle_alpha   113.00759837
_cell_angle_beta   117.31894683
_cell_angle_gamma   94.52550837
_symmetry_Int_Tables_number   1
_chemical_formula_structural   K2Gd2Mg(MoO4)4
_chemical_formula_sum   'K2 Gd2 Mg1 Mo4 O16'
_cell_volume   362.38291237
_cell_formula_units_Z   1
loop_
 _symmetry_equiv_pos_site_id
 _symmetry_equiv_pos_as_xyz
  1  'x, y, z'
loop_
 _atom_site_type_symbol
 _atom_site_label
 _atom_site_symmetry_multiplicity
 _atom_site_fract_x
 _atom_site_fract_y
 _atom_site_fract_z
 _atom_site_occupancy
  K  K0  1  0.41860182  0.15734117  0.22545340  1
  K  K1  1  0.56338073  0.79544030  0.74686527  1
  Gd  Gd2  1  0.01872265  0.83381988  0.28204602  1
  Gd  Gd3  1  0.96365731  0.15271329  0.70519977  1
  Mg  Mg4  1  0.13808306  0.54090881  0.05236624  1
  Mo  Mo5  1  0.94435704  0.31899658  0.26921833  1
  Mo  Mo6  1  0.04925340  0.68523301  0.72291233  1
  Mo  Mo7  1  0.56229180  0.67021033  0.24051043  1
  Mo  Mo8  1  0.46897029  0.32384563  0.76979797  1
  O  O9  1  0.66771581  0.24980632  0.07942274  1
  O  O10  1  0.32463055  0.75135798  0.91520988  1
  O  O11  1  0.68493424  0.60727471  0.45464882  1
  O  O12  1  0.34856769  0.39931792  0.56833440  1
  O  O13  1  0.75885803  0.91552442  0.35792744  1
  O  O14  1  0.24964337  0.10236402  0.63793708  1
  O  O15  1  0.03690803  0.33529972  0.08346512  1
  O  O16  1  0.95841017  0.67642356  0.92832187  1
  O  O17  1  0.04667795  0.61464792  0.42928598  1
  O  O18  1  0.95467420  0.38616955  0.55367175  1
  O  O19  1  0.66864515  0.57602911  0.03033872  1
  O  O20  1  0.32569448  0.42190690  0.97004538  1
  O  O21  1  0.98208509  0.09233871  0.22756422  1
  O  O22  1  0.02302285  0.93460704  0.79058989  1
  O  O23  1  0.35753156  0.76922581  0.31476334  1
  O  O24  1  0.64539674  0.22491131  0.69410360  1
