# generated using pymatgen
data_Na7Fe3O8
_symmetry_space_group_name_H-M   'P 1'
_cell_length_a   5.87120801
_cell_length_b   8.31425956
_cell_length_c   11.26200060
_cell_angle_alpha   68.45474733
_cell_angle_beta   78.57339586
_cell_angle_gamma   70.33622423
_symmetry_Int_Tables_number   1
_chemical_formula_structural   Na7Fe3O8
_chemical_formula_sum   'Na14 Fe6 O16'
_cell_volume   479.77308613
_cell_formula_units_Z   2
loop_
 _symmetry_equiv_pos_site_id
 _symmetry_equiv_pos_as_xyz
  1  'x, y, z'
loop_
 _atom_site_type_symbol
 _atom_site_label
 _atom_site_symmetry_multiplicity
 _atom_site_fract_x
 _atom_site_fract_y
 _atom_site_fract_z
 _atom_site_occupancy
  Na  Na0  1  0.49566338  0.44059047  0.28164315  1
  Na  Na1  1  0.50433686  0.55940891  0.71835586  1
  Na  Na2  1  0.87691200  0.21845517  0.66383337  1
  Na  Na3  1  0.12308855  0.78154256  0.33616737  1
  Na  Na4  1  0.37603463  0.35997736  0.56671969  1
  Na  Na5  1  0.62396685  0.64002226  0.43327979  1
  Na  Na6  1  0.72399700  0.06724115  0.47516141  1
  Na  Na7  1  0.27600332  0.93275948  0.52483719  1
  Na  Na8  1  0.30545148  0.86644060  0.04501324  1
  Na  Na9  1  0.69454684  0.13356201  0.95498671  1
  Na  Na10  1  0.26926117  0.45316070  0.04877585  1
  Na  Na11  1  0.73073726  0.54683955  0.95122444  1
  Na  Na12  1  0.53928173  0.93712081  0.78012988  1
  Na  Na13  1  0.46071770  0.06288236  0.21987033  1
  Fe  Fe14  1  0.81402943  0.73906948  0.14779927  1
  Fe  Fe15  1  0.04319733  0.31138774  0.36197192  1
  Fe  Fe16  1  0.95680286  0.68861348  0.63802754  1
  Fe  Fe17  1  0.05630212  0.84560784  0.84540543  1
  Fe  Fe18  1  0.94369819  0.15439065  0.15459537  1
  Fe  Fe19  1  0.18596726  0.26093182  0.85220030  1
  O  O20  1  0.06621671  0.53066648  0.22326717  1
  O  O21  1  0.67915572  0.78191311  0.55433265  1
  O  O22  1  0.78396416  0.79910117  0.96775918  1
  O  O23  1  0.21603358  0.20089983  0.03224052  1
  O  O24  1  0.09769189  0.06456412  0.84398366  1
  O  O25  1  0.90230580  0.93543599  0.15601971  1
  O  O26  1  0.75700983  0.34567061  0.46270709  1
  O  O27  1  0.24299140  0.65432887  0.53729331  1
  O  O28  1  0.50886872  0.74942928  0.22801999  1
  O  O29  1  0.49113164  0.25056879  0.77198008  1
  O  O30  1  0.64644088  0.31351579  0.11713564  1
  O  O31  1  0.32084645  0.21808732  0.44566576  1
  O  O32  1  0.35355682  0.68648454  0.88286327  1
  O  O33  1  0.05598097  0.10004138  0.31533321  1
  O  O34  1  0.94402078  0.89995826  0.68466669  1
  O  O35  1  0.93378366  0.46933405  0.77673296  1
