# generated using pymatgen
data_MgVFe(P2O7)2
_symmetry_space_group_name_H-M   'P 1'
_cell_length_a   4.99945085
_cell_length_b   8.21185174
_cell_length_c   7.24229842
_cell_angle_alpha   85.25572941
_cell_angle_beta   114.49877117
_cell_angle_gamma   92.56844605
_symmetry_Int_Tables_number   1
_chemical_formula_structural   MgVFe(P2O7)2
_chemical_formula_sum   'Mg1 V1 Fe1 P4 O14'
_cell_volume   269.61697240
_cell_formula_units_Z   1
loop_
 _symmetry_equiv_pos_site_id
 _symmetry_equiv_pos_as_xyz
  1  'x, y, z'
loop_
 _atom_site_type_symbol
 _atom_site_label
 _atom_site_symmetry_multiplicity
 _atom_site_fract_x
 _atom_site_fract_y
 _atom_site_fract_z
 _atom_site_occupancy
  Mg  Mg0  1  0.49857500  0.87244400  0.80324100  1
  V  V1  1  0.22733900  0.49051800  0.72529300  1
  Fe  Fe2  1  0.76460900  0.03614600  0.30615100  1
  P  P3  1  0.39975200  0.18230700  0.53163300  1
  P  P4  1  0.21051900  0.78574400  0.05467300  1
  P  P5  1  0.82391400  0.27487000  0.93422900  1
  P  P6  1  0.60332600  0.68303000  0.47973200  1
  O  O7  1  0.08194500  0.32130600  0.88131100  1
  O  O8  1  0.22909900  0.69826300  0.88100900  1
  O  O9  1  0.20343300  0.02623000  0.51275000  1
  O  O10  1  0.25206000  0.34078800  0.51998400  1
  O  O11  1  0.44226700  0.67668400  0.62204000  1
  O  O12  1  0.62860700  0.41762600  0.91413300  1
  O  O13  1  0.63013100  0.13789900  0.76977400  1
  O  O14  1  0.35046200  0.66423200  0.25523300  1
  O  O15  1  0.42022000  0.93705700  0.07432100  1
  O  O16  1  0.57453800  0.18688300  0.40105300  1
  O  O17  1  0.73831300  0.85449100  0.48693200  1
  O  O18  1  0.81910900  0.54699500  0.52178700  1
  O  O19  1  0.90654100  0.17243500  0.13493500  1
  O  O20  1  0.90363100  0.82728900  0.02297100  1
