# generated using pymatgen
data_DyCrO3
_symmetry_space_group_name_H-M   'P 1'
_cell_length_a   5.23463434
_cell_length_b   5.53590021
_cell_length_c   7.54140459
_cell_angle_alpha   90.00000000
_cell_angle_beta   90.00000000
_cell_angle_gamma   90.00000000
_symmetry_Int_Tables_number   1
_chemical_formula_structural   DyCrO3
_chemical_formula_sum   'Dy4 Cr4 O12'
_cell_volume   218.53793939
_cell_formula_units_Z   4
loop_
 _symmetry_equiv_pos_site_id
 _symmetry_equiv_pos_as_xyz
  1  'x, y, z'
loop_
 _atom_site_type_symbol
 _atom_site_label
 _atom_site_symmetry_multiplicity
 _atom_site_fract_x
 _atom_site_fract_y
 _atom_site_fract_z
 _atom_site_occupancy
  Dy  Dy0  1  0.01887500  0.93178253  0.75000000  1
  Dy  Dy1  1  0.51887500  0.56821747  0.25000000  1
  Dy  Dy2  1  0.48112500  0.43178253  0.75000000  1
  Dy  Dy3  1  0.98112500  0.06821747  0.25000000  1
  Cr  Cr4  1  0.50000000  -0.00000000  0.50000000  1
  Cr  Cr5  1  0.00000000  0.50000000  0.50000000  1
  Cr  Cr6  1  0.00000000  0.50000000  0.00000000  1
  Cr  Cr7  1  0.50000000  -0.00000000  0.00000000  1
  O  O8  1  0.69273930  0.30253425  0.44429867  1
  O  O9  1  0.19273930  0.19746575  0.55570133  1
  O  O10  1  0.80726070  0.80253425  0.05570133  1
  O  O11  1  0.30726070  0.69746575  0.94429867  1
  O  O12  1  0.30726070  0.69746575  0.55570133  1
  O  O13  1  0.80726070  0.80253425  0.44429867  1
  O  O14  1  0.19273930  0.19746575  0.94429867  1
  O  O15  1  0.69273930  0.30253425  0.05570133  1
  O  O16  1  0.10896329  0.46330271  0.25000000  1
  O  O17  1  0.60896329  0.03669729  0.75000000  1
  O  O18  1  0.39103671  0.96330271  0.25000000  1
  O  O19  1  0.89103671  0.53669729  0.75000000  1
