# generated using pymatgen
data_Rb14ZnGe16
_symmetry_space_group_name_H-M   'P 1'
_cell_length_a   7.37332109
_cell_length_b   14.72698820
_cell_length_c   21.31826720
_cell_angle_alpha   90.00000000
_cell_angle_beta   90.00000000
_cell_angle_gamma   90.00000000
_symmetry_Int_Tables_number   1
_chemical_formula_structural   Rb14ZnGe16
_chemical_formula_sum   'Rb28 Zn2 Ge32'
_cell_volume   2314.88268726
_cell_formula_units_Z   2
loop_
 _symmetry_equiv_pos_site_id
 _symmetry_equiv_pos_as_xyz
  1  'x, y, z'
loop_
 _atom_site_type_symbol
 _atom_site_label
 _atom_site_symmetry_multiplicity
 _atom_site_fract_x
 _atom_site_fract_y
 _atom_site_fract_z
 _atom_site_occupancy
  Rb  Rb0  1  0.46259993  0.89012380  0.59041571  1
  Rb  Rb1  1  0.46259993  0.89012380  0.40958429  1
  Rb  Rb2  1  0.53740007  0.39012380  0.90958429  1
  Rb  Rb3  1  0.53740007  0.39012380  0.09041571  1
  Rb  Rb4  1  0.43244453  0.63458717  0.64516589  1
  Rb  Rb5  1  0.43244453  0.63458717  0.35483411  1
  Rb  Rb6  1  0.56755547  0.13458717  0.85483411  1
  Rb  Rb7  1  0.56755547  0.13458717  0.14516589  1
  Rb  Rb8  1  0.69674584  0.13584106  0.65478032  1
  Rb  Rb9  1  0.69674584  0.13584106  0.34521968  1
  Rb  Rb10  1  0.30325416  0.63584106  0.84521968  1
  Rb  Rb11  1  0.30325416  0.63584106  0.15478032  1
  Rb  Rb12  1  0.95538278  0.81508574  0.65782475  1
  Rb  Rb13  1  0.95538278  0.81508574  0.34217525  1
  Rb  Rb14  1  0.04461722  0.31508574  0.84217525  1
  Rb  Rb15  1  0.04461722  0.31508574  0.15782475  1
  Rb  Rb16  1  0.85226331  0.54401985  0.74842687  1
  Rb  Rb17  1  0.85226331  0.54401985  0.25157313  1
  Rb  Rb18  1  0.14773669  0.04401985  0.75157313  1
  Rb  Rb19  1  0.14773669  0.04401985  0.24842687  1
  Rb  Rb20  1  0.98520770  0.86763985  0.88644525  1
  Rb  Rb21  1  0.98520770  0.86763985  0.11355475  1
  Rb  Rb22  1  0.01479230  0.36763985  0.61355475  1
  Rb  Rb23  1  0.01479230  0.36763985  0.38644525  1
  Rb  Rb24  1  0.53623804  0.50429215  0.50000000  1
  Rb  Rb25  1  0.46376196  0.00429215  0.00000000  1
  Rb  Rb26  1  0.41832632  0.21300101  0.50000000  1
  Rb  Rb27  1  0.58167368  0.71300101  0.00000000  1
  Zn  Zn28  1  0.97299390  0.88543507  0.50000000  1
  Zn  Zn29  1  0.02700610  0.38543507  0.00000000  1
  Ge  Ge30  1  0.94627534  0.16867199  0.50000000  1
  Ge  Ge31  1  0.05372466  0.66867199  0.00000000  1
  Ge  Ge32  1  0.75613814  0.02593800  0.50000000  1
  Ge  Ge33  1  0.24386186  0.52593800  0.00000000  1
  Ge  Ge34  1  0.92801014  0.53441306  0.93700522  1
  Ge  Ge35  1  0.92801014  0.53441306  0.06299478  1
  Ge  Ge36  1  0.07198986  0.03441306  0.56299478  1
  Ge  Ge37  1  0.07198986  0.03441306  0.43700522  1
  Ge  Ge38  1  0.78076895  0.72973750  0.50000000  1
  Ge  Ge39  1  0.21923105  0.22973750  0.00000000  1
  Ge  Ge40  1  0.15331789  0.72878755  0.50000000  1
  Ge  Ge41  1  0.84668211  0.22878755  0.00000000  1
  Ge  Ge42  1  0.96623532  0.61023910  0.56177476  1
  Ge  Ge43  1  0.96623532  0.61023910  0.43822524  1
  Ge  Ge44  1  0.03376468  0.11023910  0.93822524  1
  Ge  Ge45  1  0.03376468  0.11023910  0.06177476  1
  Ge  Ge46  1  0.48528252  0.87337483  0.85889863  1
  Ge  Ge47  1  0.48528252  0.87337483  0.14110137  1
  Ge  Ge48  1  0.51471748  0.37337483  0.64110137  1
  Ge  Ge49  1  0.51471748  0.37337483  0.35889863  1
  Ge  Ge50  1  0.64461442  0.93771005  0.75927575  1
  Ge  Ge51  1  0.64461442  0.93771005  0.24072425  1
  Ge  Ge52  1  0.35538558  0.43771005  0.74072425  1
  Ge  Ge53  1  0.35538558  0.43771005  0.25927575  1
  Ge  Ge54  1  0.35840668  0.83305678  0.74892865  1
  Ge  Ge55  1  0.35840668  0.83305678  0.25107135  1
  Ge  Ge56  1  0.64159332  0.33305678  0.75107135  1
  Ge  Ge57  1  0.64159332  0.33305678  0.24892865  1
  Ge  Ge58  1  0.66667723  0.76608808  0.78505714  1
  Ge  Ge59  1  0.66667723  0.76608808  0.21494286  1
  Ge  Ge60  1  0.33332277  0.26608808  0.71494286  1
  Ge  Ge61  1  0.33332277  0.26608808  0.28505714  1
