# generated using pymatgen
data_CsPSe6
_symmetry_space_group_name_H-M   'P 1'
_cell_length_a   12.95010649
_cell_length_b   7.03486274
_cell_length_c   13.24317349
_cell_angle_alpha   59.56217679
_cell_angle_beta   90.00000000
_cell_angle_gamma   90.00000000
_symmetry_Int_Tables_number   1
_chemical_formula_structural   CsPSe6
_chemical_formula_sum   'Cs4 P4 Se24'
_cell_volume   1040.20441442
_cell_formula_units_Z   4
loop_
 _symmetry_equiv_pos_site_id
 _symmetry_equiv_pos_as_xyz
  1  'x, y, z'
loop_
 _atom_site_type_symbol
 _atom_site_label
 _atom_site_symmetry_multiplicity
 _atom_site_fract_x
 _atom_site_fract_y
 _atom_site_fract_z
 _atom_site_occupancy
  Cs  Cs0  1  0.97848665  0.00130632  0.74940367  1
  Cs  Cs1  1  0.02151335  0.00130632  0.24940367  1
  Cs  Cs2  1  0.50182394  0.50889134  0.00000103  1
  Cs  Cs3  1  0.49817606  0.50889134  0.50000103  1
  P  P4  1  0.15159179  0.50079310  0.74963957  1
  P  P5  1  0.84840821  0.50079310  0.24963957  1
  P  P6  1  0.65941460  0.50181929  0.75004989  1
  P  P7  1  0.34058540  0.50181929  0.25004989  1
  Se  Se8  1  0.76369611  0.50646552  0.88816629  1
  Se  Se9  1  0.23770545  0.49533491  0.11128946  1
  Se  Se10  1  0.76229455  0.49533491  0.61128946  1
  Se  Se11  1  0.23630389  0.50646552  0.38816629  1
  Se  Se12  1  0.67758631  0.06732895  0.42428518  1
  Se  Se13  1  0.32260740  0.93605948  0.57660963  1
  Se  Se14  1  0.67739260  0.93605948  0.07660963  1
  Se  Se15  1  0.32241369  0.06732895  0.92428518  1
  Se  Se16  1  0.25300379  0.74344738  0.76880681  1
  Se  Se17  1  0.74603418  0.25887010  0.23122703  1
  Se  Se18  1  0.25396582  0.25887010  0.73122703  1
  Se  Se19  1  0.74699621  0.74344738  0.26880681  1
  Se  Se20  1  0.57470588  0.80512607  0.67982994  1
  Se  Se21  1  0.42748669  0.20111152  0.32088880  1
  Se  Se22  1  0.57251331  0.20111152  0.82088880  1
  Se  Se23  1  0.42529412  0.80512607  0.17982994  1
  Se  Se24  1  0.82844081  0.14158862  0.97392410  1
  Se  Se25  1  0.17166065  0.85911327  0.02575894  1
  Se  Se26  1  0.82833935  0.85911327  0.52575894  1
  Se  Se27  1  0.17155919  0.14158862  0.47392410  1
  Se  Se28  1  0.06518948  0.35273677  0.91033476  1
  Se  Se29  1  0.93421374  0.64840936  0.08868592  1
  Se  Se30  1  0.06578626  0.64840936  0.58868592  1
  Se  Se31  1  0.93481052  0.35273677  0.41033476  1
