# generated using pymatgen
data_GdBO3
_symmetry_space_group_name_H-M   'P 1'
_cell_length_a   6.63034099
_cell_length_b   6.63034203
_cell_length_c   9.68188307
_cell_angle_alpha   70.33476037
_cell_angle_beta   70.33475606
_cell_angle_gamma   60.09216631
_symmetry_Int_Tables_number   1
_chemical_formula_structural   GdBO3
_chemical_formula_sum   'Gd6 B6 O18'
_cell_volume   339.92516006
_cell_formula_units_Z   6
loop_
 _symmetry_equiv_pos_site_id
 _symmetry_equiv_pos_as_xyz
  1  'x, y, z'
loop_
 _atom_site_type_symbol
 _atom_site_label
 _atom_site_symmetry_multiplicity
 _atom_site_fract_x
 _atom_site_fract_y
 _atom_site_fract_z
 _atom_site_occupancy
  Gd  Gd0  1  0.00000031  0.50000006  0.50000019  1
  Gd  Gd1  1  0.50000070  -0.00000012  0.00000019  1
  Gd  Gd2  1  0.82890885  0.34271936  0.00073871  1
  Gd  Gd3  1  0.65728752  0.17108919  0.49926185  1
  Gd  Gd4  1  0.17109428  0.65727937  0.99926185  1
  Gd  Gd5  1  0.34271237  0.82891085  0.50073907  1
  B  B6  1  0.08250375  0.15483481  0.25308593  1
  B  B7  1  0.84514895  0.91748343  0.24695605  1
  B  B8  1  0.91749588  0.84516533  0.74691471  1
  B  B9  1  0.15485093  0.08251725  0.75304354  1
  B  B10  1  0.32125627  0.67872780  0.25002228  1
  B  B11  1  0.67874348  0.32127200  0.74997782  1
  O  O12  1  0.03497809  0.21654782  0.39445037  1
  O  O13  1  0.78344671  0.96502674  0.10554019  1
  O  O14  1  0.96502071  0.78345201  0.60555047  1
  O  O15  1  0.21655507  0.03497337  0.89445901  1
  O  O16  1  0.12986242  0.31155921  0.11305085  1
  O  O17  1  0.68845276  0.87014561  0.38693479  1
  O  O18  1  0.87013839  0.68844066  0.88694979  1
  O  O19  1  0.31154662  0.12985494  0.61306410  1
  O  O20  1  0.47886345  0.61622896  0.11007147  1
  O  O21  1  0.38376267  0.52114976  0.38991495  1
  O  O22  1  0.52113672  0.38377047  0.88992906  1
  O  O23  1  0.61623479  0.47885156  0.61008688  1
  O  O24  1  0.08354835  0.70385080  0.24795378  1
  O  O25  1  0.29614986  0.91644971  0.25204207  1
  O  O26  1  0.91645168  0.29614944  0.75204598  1
  O  O27  1  0.70384975  0.08355042  0.74795784  1
  O  O28  1  0.86937766  0.13062428  0.24999677  1
  O  O29  1  0.13062201  0.86937590  0.75000346  1
