# generated using pymatgen
data_Al2O3
_symmetry_space_group_name_H-M   'P 1'
_cell_length_a   5.58468585
_cell_length_b   5.58468640
_cell_length_c   13.53140475
_cell_angle_alpha   90.49857822
_cell_angle_beta   89.50142049
_cell_angle_gamma   119.61554334
_symmetry_Int_Tables_number   1
_chemical_formula_structural   Al2O3
_chemical_formula_sum   'Al16 O24'
_cell_volume   366.87533708
_cell_formula_units_Z   8
loop_
 _symmetry_equiv_pos_site_id
 _symmetry_equiv_pos_as_xyz
  1  'x, y, z'
loop_
 _atom_site_type_symbol
 _atom_site_label
 _atom_site_symmetry_multiplicity
 _atom_site_fract_x
 _atom_site_fract_y
 _atom_site_fract_z
 _atom_site_occupancy
  Al  Al0  1  0.47202201  0.72346299  0.20752784  1
  Al  Al1  1  0.79416478  0.40132022  0.12255393  1
  Al  Al2  1  0.96223068  0.72250562  0.34004956  1
  Al  Al3  1  0.14427439  0.05121161  0.16066607  1
  Al  Al4  1  0.96305904  0.23242596  0.33934820  1
  Al  Al5  1  0.47297938  0.23325432  0.34004956  1
  Al  Al6  1  0.13010612  0.06537988  0.54710856  1
  Al  Al7  1  0.46382910  0.73165590  0.45322186  1
  Al  Al8  1  0.63168687  0.07450594  0.66028271  1
  Al  Al9  1  0.63089954  0.56458646  0.66098856  1
  Al  Al10  1  0.12098006  0.56379913  0.66028271  1
  Al  Al11  1  0.79987267  0.39561233  0.87780789  1
  Al  Al12  1  0.12193917  0.07354683  0.79280070  1
  Al  Al13  1  0.29704879  0.39841553  0.00018054  1
  Al  Al14  1  0.44967432  0.74581068  0.83972326  1
  Al  Al15  1  0.79706947  0.89843621  0.00018054  1
  O  O16  1  0.80033897  0.39514603  0.25832345  1
  O  O17  1  0.28598167  0.36708943  0.25461518  1
  O  O18  1  0.82839557  0.90950433  0.25461518  1
  O  O19  1  0.29110931  0.90437669  0.25271782  1
  O  O20  1  0.45041933  0.24322627  0.08639361  1
  O  O21  1  0.97383514  0.22164986  0.08363554  1
  O  O22  1  0.13276951  0.06271649  0.41262121  1
  O  O23  1  0.95225873  0.74506667  0.08639361  1
  O  O24  1  0.46115258  0.73433242  0.58767107  1
  O  O25  1  0.96050528  0.73055236  0.59387113  1
  O  O26  1  0.46493264  0.23497972  0.59387113  1
  O  O27  1  0.96106731  0.23441769  0.59397214  1
  O  O28  1  0.12903627  0.56204548  0.40641965  1
  O  O29  1  0.63286204  0.56262296  0.40633009  1
  O  O30  1  0.79359963  0.40188537  0.74201246  1
  O  O31  1  0.63343952  0.06644873  0.40641965  1
  O  O32  1  0.11827960  0.07720640  0.92104091  1
  O  O33  1  0.64186015  0.05189696  0.91396857  1
  O  O34  1  0.14358904  0.55362485  0.91396857  1
  O  O35  1  0.62019126  0.57529374  0.91670784  1
  O  O36  1  0.76555060  0.88752785  0.74571084  1
  O  O37  1  0.30285215  0.89263385  0.74763455  1
  O  O38  1  0.47578615  0.71969885  0.07929945  1
  O  O39  1  0.30795815  0.42993440  0.74571084  1
