# generated using pymatgen
data_Ba6Mg(P2O7)3
_symmetry_space_group_name_H-M   'P 1'
_cell_length_a   7.27626099
_cell_length_b   9.52072788
_cell_length_c   9.91693475
_cell_angle_alpha   121.38532980
_cell_angle_beta   90.00000000
_cell_angle_gamma   90.00000000
_symmetry_Int_Tables_number   1
_chemical_formula_structural   Ba6Mg(P2O7)3
_chemical_formula_sum   'Ba6 Mg1 P6 O21'
_cell_volume   586.47986270
_cell_formula_units_Z   1
loop_
 _symmetry_equiv_pos_site_id
 _symmetry_equiv_pos_as_xyz
  1  'x, y, z'
loop_
 _atom_site_type_symbol
 _atom_site_label
 _atom_site_symmetry_multiplicity
 _atom_site_fract_x
 _atom_site_fract_y
 _atom_site_fract_z
 _atom_site_occupancy
  Ba  Ba0  1  0.50000000  0.39437331  0.37059020  1
  Ba  Ba1  1  0.50000000  0.99995037  0.66347476  1
  Ba  Ba2  1  0.50000000  0.60562248  0.97619773  1
  Ba  Ba3  1  -0.00000000  0.29833124  0.00328602  1
  Ba  Ba4  1  -0.00000000  0.70168198  0.70496098  1
  Ba  Ba5  1  -0.00000000  0.99995604  0.27052391  1
  Mg  Mg6  1  0.50000000  0.99995751  0.32120597  1
  P  P7  1  0.21976457  0.66602686  0.32702973  1
  P  P8  1  0.78023543  0.66602686  0.32702973  1
  P  P9  1  0.21972244  0.33402544  0.66103929  1
  P  P10  1  0.78027756  0.33402544  0.66103929  1
  P  P11  1  0.28045865  0.99998475  0.98773886  1
  P  P12  1  0.71954135  0.99998475  0.98773886  1
  O  O13  1  0.30271292  0.51539638  0.18256401  1
  O  O14  1  0.25497878  0.67031007  0.48197842  1
  O  O15  1  0.26638558  0.83063925  0.34191559  1
  O  O16  1  0.69728708  0.51539638  0.18256401  1
  O  O17  1  0.74502122  0.67031007  0.48197842  1
  O  O18  1  0.73361442  0.83063925  0.34191559  1
  O  O19  1  0.25498323  0.32992035  0.81184118  1
  O  O20  1  0.26608430  0.16925609  0.51144445  1
  O  O21  1  0.30278016  0.48449839  0.66700747  1
  O  O22  1  0.74501677  0.32992035  0.81184118  1
  O  O23  1  0.73391570  0.16925609  0.51144445  1
  O  O24  1  0.69721984  0.48449839  0.66700747  1
  O  O25  1  0.22509796  0.84120368  0.98152751  1
  O  O26  1  0.22500292  0.15870348  0.14034681  1
  O  O27  1  0.20731715  0.00002162  0.84090935  1
  O  O28  1  0.77490204  0.84120368  0.98152751  1
  O  O29  1  0.77499708  0.15870348  0.14034681  1
  O  O30  1  0.79268285  0.00002162  0.84090935  1
  O  O31  1  -0.00000000  0.36798235  0.65177287  1
  O  O32  1  -0.00000000  0.63232214  0.28387119  1
  O  O33  1  0.50000000  0.00004986  0.95332603  1
