# generated using pymatgen
data_CsMnInTe3
_symmetry_space_group_name_H-M   'P 1'
_cell_length_a   8.87602626
_cell_length_b   8.87602626
_cell_length_c   24.52194378
_cell_angle_alpha   84.80896158
_cell_angle_beta   84.80896158
_cell_angle_gamma   90.00412041
_symmetry_Int_Tables_number   1
_chemical_formula_structural   CsMnInTe3
_chemical_formula_sum   'Cs8 Mn8 In8 Te24'
_cell_volume   1916.05162130
_cell_formula_units_Z   8
loop_
 _symmetry_equiv_pos_site_id
 _symmetry_equiv_pos_as_xyz
  1  'x, y, z'
loop_
 _atom_site_type_symbol
 _atom_site_label
 _atom_site_symmetry_multiplicity
 _atom_site_fract_x
 _atom_site_fract_y
 _atom_site_fract_z
 _atom_site_occupancy
  Cs  Cs0  1  0.76988116  0.39472640  0.42008771  1
  Cs  Cs1  1  0.60527360  0.23011884  0.07991229  1
  Cs  Cs2  1  0.23011884  0.60527360  0.57991229  1
  Cs  Cs3  1  0.39472640  0.76988116  0.92008771  1
  Cs  Cs4  1  0.10466619  0.22990057  0.07991920  1
  Cs  Cs5  1  0.77009943  0.89533381  0.42008080  1
  Cs  Cs6  1  0.89533381  0.77009943  0.92008080  1
  Cs  Cs7  1  0.22990057  0.10466619  0.57991920  1
  Mn  Mn8  1  0.06312289  0.93687711  0.25000000  1
  Mn  Mn9  1  0.93687711  0.06312289  0.75000000  1
  Mn  Mn10  1  0.06379861  0.43907209  0.24991129  1
  Mn  Mn11  1  0.56092791  0.93620139  0.25008871  1
  Mn  Mn12  1  0.93620139  0.56092791  0.75008871  1
  Mn  Mn13  1  0.43907209  0.06379861  0.74991129  1
  Mn  Mn14  1  0.56121930  0.43878070  0.25000000  1
  Mn  Mn15  1  0.43878070  0.56121930  0.75000000  1
  In  In16  1  0.84403472  0.71913664  0.12361479  1
  In  In17  1  0.28086336  0.15596528  0.37638521  1
  In  In18  1  0.15596528  0.28086336  0.87638521  1
  In  In19  1  0.71913664  0.84403472  0.62361479  1
  In  In20  1  0.28079316  0.65602220  0.37592489  1
  In  In21  1  0.34397780  0.71920684  0.12407511  1
  In  In22  1  0.71920684  0.34397780  0.62407511  1
  In  In23  1  0.65602220  0.28079316  0.87592489  1
  Te  Te24  1  0.26314451  0.38866173  0.44739556  1
  Te  Te25  1  0.61133827  0.73685549  0.05260444  1
  Te  Te26  1  0.73685549  0.61133827  0.55260444  1
  Te  Te27  1  0.38866173  0.26314451  0.94739556  1
  Te  Te28  1  0.11202408  0.73698158  0.05265871  1
  Te  Te29  1  0.26301842  0.88797592  0.44734129  1
  Te  Te30  1  0.88797592  0.26301842  0.94734129  1
  Te  Te31  1  0.73698158  0.11202408  0.55265871  1
  Te  Te32  1  0.32902318  0.43545480  0.18430799  1
  Te  Te33  1  0.56454520  0.67097682  0.31569201  1
  Te  Te34  1  0.67097682  0.56454520  0.81569201  1
  Te  Te35  1  0.43545480  0.32902318  0.68430799  1
  Te  Te36  1  0.02865452  0.17154085  0.31545052  1
  Te  Te37  1  0.82845915  0.97134548  0.18454948  1
  Te  Te38  1  0.97134548  0.82845915  0.68454948  1
  Te  Te39  1  0.17154085  0.02865452  0.81545052  1
  Te  Te40  1  0.02775479  0.67140378  0.31549624  1
  Te  Te41  1  0.32859622  0.97224521  0.18450376  1
  Te  Te42  1  0.97224521  0.32859622  0.68450376  1
  Te  Te43  1  0.67140378  0.02775479  0.81549624  1
  Te  Te44  1  0.82875420  0.43627568  0.18464454  1
  Te  Te45  1  0.56372432  0.17124580  0.31535546  1
  Te  Te46  1  0.17124580  0.56372432  0.81535546  1
  Te  Te47  1  0.43627568  0.82875420  0.68464454  1
