# generated using pymatgen
data_K2In2P3Se10
_symmetry_space_group_name_H-M   'P 1'
_cell_length_a   7.92294040
_cell_length_b   13.39369993
_cell_length_c   19.99312424
_cell_angle_alpha   73.24020868
_cell_angle_beta   90.00000000
_cell_angle_gamma   90.00000000
_symmetry_Int_Tables_number   1
_chemical_formula_structural   K2In2P3Se10
_chemical_formula_sum   'K8 In8 P12 Se40'
_cell_volume   2031.49811512
_cell_formula_units_Z   4
loop_
 _symmetry_equiv_pos_site_id
 _symmetry_equiv_pos_as_xyz
  1  'x, y, z'
loop_
 _atom_site_type_symbol
 _atom_site_label
 _atom_site_symmetry_multiplicity
 _atom_site_fract_x
 _atom_site_fract_y
 _atom_site_fract_z
 _atom_site_occupancy
  K  K0  1  0.05460978  0.32402549  0.08072300  1
  K  K1  1  0.55460978  0.17597451  0.91927700  1
  K  K2  1  0.94539022  0.67597451  0.91927700  1
  K  K3  1  0.44539022  0.82402549  0.08072300  1
  K  K4  1  0.85117350  0.40057731  0.42608344  1
  K  K5  1  0.35117350  0.09942269  0.57391656  1
  K  K6  1  0.14882650  0.59942269  0.57391656  1
  K  K7  1  0.64882650  0.90057731  0.42608344  1
  In  In8  1  0.52500492  0.46837685  0.17541459  1
  In  In9  1  0.02500492  0.03162315  0.82458541  1
  In  In10  1  0.47499508  0.53162315  0.82458541  1
  In  In11  1  0.97499508  0.96837685  0.17541459  1
  In  In12  1  0.64978282  0.40009659  0.68902660  1
  In  In13  1  0.14978282  0.09990341  0.31097340  1
  In  In14  1  0.35021718  0.59990341  0.31097340  1
  In  In15  1  0.85021718  0.90009659  0.68902660  1
  P  P16  1  0.61133261  0.44751327  0.02099754  1
  P  P17  1  0.11133261  0.05248673  0.97900246  1
  P  P18  1  0.38866739  0.55248673  0.97900246  1
  P  P19  1  0.88866739  0.94751327  0.02099754  1
  P  P20  1  0.55837724  0.22537061  0.33613197  1
  P  P21  1  0.05837724  0.27462939  0.66386803  1
  P  P22  1  0.44162276  0.77462939  0.66386803  1
  P  P23  1  0.94162276  0.72537061  0.33613197  1
  P  P24  1  0.82220593  0.18440223  0.65309171  1
  P  P25  1  0.32220593  0.31559777  0.34690829  1
  P  P26  1  0.17779407  0.81559777  0.34690829  1
  P  P27  1  0.67779407  0.68440223  0.65309171  1
  Se  Se28  1  0.77551352  0.53644658  0.07163878  1
  Se  Se29  1  0.27551352  0.96355342  0.92836122  1
  Se  Se30  1  0.22448648  0.46355342  0.92836122  1
  Se  Se31  1  0.72448648  0.03644658  0.07163878  1
  Se  Se32  1  0.22324068  0.08630115  0.06904139  1
  Se  Se33  1  0.72324068  0.41369885  0.93095861  1
  Se  Se34  1  0.77675932  0.91369885  0.93095861  1
  Se  Se35  1  0.27675932  0.58630115  0.06904139  1
  Se  Se36  1  0.51170151  0.31589074  0.10370597  1
  Se  Se37  1  0.01170151  0.18410926  0.89629403  1
  Se  Se38  1  0.48829849  0.68410926  0.89629403  1
  Se  Se39  1  0.98829849  0.81589074  0.10370597  1
  Se  Se40  1  0.92781589  0.13450340  0.21762884  1
  Se  Se41  1  0.42781589  0.36549660  0.78237116  1
  Se  Se42  1  0.07218411  0.86549660  0.78237116  1
  Se  Se43  1  0.57218411  0.63450340  0.21762884  1
  Se  Se44  1  0.22503311  0.39470858  0.24295607  1
  Se  Se45  1  0.72503311  0.10529142  0.75704393  1
  Se  Se46  1  0.77496689  0.60529142  0.75704393  1
  Se  Se47  1  0.27496689  0.89470858  0.24295607  1
  Se  Se48  1  0.73089035  0.34470227  0.27639645  1
  Se  Se49  1  0.23089035  0.15529773  0.72360355  1
  Se  Se50  1  0.26910965  0.65529773  0.72360355  1
  Se  Se51  1  0.76910965  0.84470227  0.27639645  1
  Se  Se52  1  0.65471213  0.15345344  0.43916282  1
  Se  Se53  1  0.15471213  0.34654656  0.56083718  1
  Se  Se54  1  0.34528787  0.84654656  0.56083718  1
  Se  Se55  1  0.84528787  0.65345344  0.43916282  1
  Se  Se56  1  0.89458097  0.08078542  0.58998217  1
  Se  Se57  1  0.39458097  0.41921458  0.41001783  1
  Se  Se58  1  0.10541903  0.91921458  0.41001783  1
  Se  Se59  1  0.60541903  0.58078542  0.58998217  1
  Se  Se60  1  0.63205610  0.29461411  0.59391053  1
  Se  Se61  1  0.13205610  0.20538589  0.40608947  1
  Se  Se62  1  0.36794390  0.70538589  0.40608947  1
  Se  Se63  1  0.86794390  0.79461411  0.59391053  1
  Se  Se64  1  0.97211937  0.38582479  0.72141721  1
  Se  Se65  1  0.47211937  0.11417521  0.27858279  1
  Se  Se66  1  0.02788063  0.61417521  0.27858279  1
  Se  Se67  1  0.52788063  0.88582479  0.72141721  1
