# generated using pymatgen
data_MnCd4Te5
_symmetry_space_group_name_H-M   'P 1'
_cell_length_a   6.51321495
_cell_length_b   7.97700039
_cell_length_c   7.97726768
_cell_angle_alpha   80.40146380
_cell_angle_beta   65.89763467
_cell_angle_gamma   65.90880693
_symmetry_Int_Tables_number   1
_chemical_formula_structural   MnCd4Te5
_chemical_formula_sum   'Mn1 Cd4 Te5'
_cell_volume   345.37810860
_cell_formula_units_Z   1
loop_
 _symmetry_equiv_pos_site_id
 _symmetry_equiv_pos_as_xyz
  1  'x, y, z'
loop_
 _atom_site_type_symbol
 _atom_site_label
 _atom_site_symmetry_multiplicity
 _atom_site_fract_x
 _atom_site_fract_y
 _atom_site_fract_z
 _atom_site_occupancy
  Mn  Mn0  1  0.80013720  0.79999578  0.59998222  1
  Cd  Cd1  1  0.00030242  0.99755180  0.99891664  1
  Cd  Cd2  1  0.20076931  0.19903079  0.40225478  1
  Cd  Cd3  1  0.40199179  0.40097237  0.79775592  1
  Cd  Cd4  1  0.59690531  0.60233193  0.20099507  1
  Te  Te5  1  0.46105040  0.70236536  0.89156960  1
  Te  Te6  1  0.65470375  0.89784945  0.30861290  1
  Te  Te7  1  0.84754078  0.09142871  0.69769995  1
  Te  Te8  1  0.04978901  0.29999065  0.09998164  1
  Te  Te9  1  0.23680903  0.50848216  0.50223128  1
