# generated using pymatgen
data_K12Mg(Pb2O5)2
_symmetry_space_group_name_H-M   'P 1'
_cell_length_a   6.41922387
_cell_length_b   8.43639550
_cell_length_c   12.35340519
_cell_angle_alpha   84.05065953
_cell_angle_beta   83.55260788
_cell_angle_gamma   87.39315736
_symmetry_Int_Tables_number   1
_chemical_formula_structural   K12Mg(Pb2O5)2
_chemical_formula_sum   'K12 Mg1 Pb4 O10'
_cell_volume   660.80059894
_cell_formula_units_Z   1
loop_
 _symmetry_equiv_pos_site_id
 _symmetry_equiv_pos_as_xyz
  1  'x, y, z'
loop_
 _atom_site_type_symbol
 _atom_site_label
 _atom_site_symmetry_multiplicity
 _atom_site_fract_x
 _atom_site_fract_y
 _atom_site_fract_z
 _atom_site_occupancy
  K  K0  1  0.40384833  0.61396089  0.36045426  1
  K  K1  1  0.51485013  0.46241592  0.62060784  1
  K  K2  1  0.90901893  0.45109172  0.36906964  1
  K  K3  1  0.99668261  0.59484278  0.62515921  1
  K  K4  1  0.31880498  0.92728647  0.11623432  1
  K  K5  1  0.75747228  0.94675909  0.88661633  1
  K  K6  1  0.33932247  0.46785712  0.07826815  1
  K  K7  1  0.78433081  0.53597289  0.89966427  1
  K  K8  1  0.77265470  0.69857092  0.14046800  1
  K  K9  1  0.12427578  0.23318053  0.90063841  1
  K  K10  1  0.38533995  0.16923786  0.36153638  1
  K  K11  1  0.59011242  0.94721415  0.61007733  1
  Mg  Mg12  1  0.56621127  0.27325387  0.82875912  1
  Pb  Pb13  1  0.89343030  0.88176776  0.36181478  1
  Pb  Pb14  1  0.10453617  0.17751274  0.64061647  1
  Pb  Pb15  1  0.77148229  0.19001235  0.13779223  1
  Pb  Pb16  1  0.32732731  0.72861697  0.84576886  1
  O  O17  1  0.64017482  0.97024355  0.24161599  1
  O  O18  1  0.39265495  0.16313058  0.73415934  1
  O  O19  1  0.59076266  0.19589171  0.99035284  1
  O  O20  1  0.51622546  0.73492231  0.98708966  1
  O  O21  1  0.71768647  0.70083649  0.47307657  1
  O  O22  1  0.20309406  0.37279500  0.51535162  1
  O  O23  1  0.60530371  0.37618280  0.22808808  1
  O  O24  1  0.38489774  0.46547614  0.84750438  1
  O  O25  1  0.07376202  0.71649085  0.26170461  1
  O  O26  1  0.85740437  0.31280955  0.75001130  1
