# generated using pymatgen
data_CsZnFeF6
_symmetry_space_group_name_H-M   'P 1'
_cell_length_a   7.36848534
_cell_length_b   7.36848534
_cell_length_c   7.36848534
_cell_angle_alpha   120.70548062
_cell_angle_beta   119.60201802
_cell_angle_gamma   89.73657282
_symmetry_Int_Tables_number   1
_chemical_formula_structural   CsZnFeF6
_chemical_formula_sum   'Cs2 Zn2 Fe2 F12'
_cell_volume   282.19780359
_cell_formula_units_Z   2
loop_
 _symmetry_equiv_pos_site_id
 _symmetry_equiv_pos_as_xyz
  1  'x, y, z'
loop_
 _atom_site_type_symbol
 _atom_site_label
 _atom_site_symmetry_multiplicity
 _atom_site_fract_x
 _atom_site_fract_y
 _atom_site_fract_z
 _atom_site_occupancy
  Cs  Cs0  1  0.36930927  0.61930927  0.75000000  1
  Cs  Cs1  1  0.63069073  0.38069073  0.25000000  1
  Zn  Zn2  1  0.00000000  0.00000000  0.50000000  1
  Zn  Zn3  1  0.00000000  0.50000000  0.00000000  1
  Fe  Fe4  1  0.00000000  0.00000000  0.00000000  1
  Fe  Fe5  1  0.50000000  0.00000000  0.50000000  1
  F  F6  1  0.31398853  0.06398853  0.25000000  1
  F  F7  1  0.92714786  0.67714786  0.25000000  1
  F  F8  1  0.32747020  0.68883707  0.26039015  1
  F  F9  1  0.92844692  0.06708006  0.23960985  1
  F  F10  1  0.32747020  0.06708006  0.63863413  1
  F  F11  1  0.92844692  0.68883707  0.86136587  1
  F  F12  1  0.68601147  0.93601147  0.75000000  1
  F  F13  1  0.07285214  0.32285214  0.75000000  1
  F  F14  1  0.67252980  0.31116293  0.73960985  1
  F  F15  1  0.07155308  0.93291994  0.76039015  1
  F  F16  1  0.67252980  0.93291994  0.36136587  1
  F  F17  1  0.07155308  0.31116293  0.13863413  1
