# generated using pymatgen
data_MgTl4V4(TeO5)4
_symmetry_space_group_name_H-M   'P 1'
_cell_length_a   7.30804558
_cell_length_b   8.11750935
_cell_length_c   9.30476768
_cell_angle_alpha   93.71858420
_cell_angle_beta   93.62827918
_cell_angle_gamma   84.43959240
_symmetry_Int_Tables_number   1
_chemical_formula_structural   MgTl4V4(TeO5)4
_chemical_formula_sum   'Mg1 Tl4 V4 Te4 O20'
_cell_volume   547.33037860
_cell_formula_units_Z   1
loop_
 _symmetry_equiv_pos_site_id
 _symmetry_equiv_pos_as_xyz
  1  'x, y, z'
loop_
 _atom_site_type_symbol
 _atom_site_label
 _atom_site_symmetry_multiplicity
 _atom_site_fract_x
 _atom_site_fract_y
 _atom_site_fract_z
 _atom_site_occupancy
  Mg  Mg0  1  0.84358700  0.84506400  0.02507000  1
  Tl  Tl1  1  0.06719900  0.94777900  0.83171900  1
  Tl  Tl2  1  0.52501500  0.91728600  0.61016300  1
  Tl  Tl3  1  0.52431700  0.40486400  0.39230400  1
  Tl  Tl4  1  0.02918000  0.41131700  0.09710300  1
  V  V5  1  0.26553300  0.78051500  0.25720100  1
  V  V6  1  0.24009500  0.28357300  0.74046400  1
  V  V7  1  0.76918500  0.76161300  0.28614300  1
  V  V8  1  0.72449500  0.31798400  0.74659600  1
  Te  Te9  1  0.97631000  0.09226700  0.46095400  1
  Te  Te10  1  0.03795600  0.59235800  0.53338700  1
  Te  Te11  1  0.49410500  0.59048500  0.97018900  1
  Te  Te12  1  0.49630500  0.06346700  0.05855400  1
  O  O13  1  0.94368600  0.26352800  0.81874800  1
  O  O14  1  0.15008100  0.05748300  0.62250000  1
  O  O15  1  0.01883500  0.75817700  0.17974700  1
  O  O16  1  0.86884400  0.54783200  0.37421700  1
  O  O17  1  0.23417900  0.97510100  0.34229300  1
  O  O18  1  0.54403800  0.75306900  0.33000800  1
  O  O19  1  0.89343400  0.86827100  0.45892500  1
  O  O20  1  0.22256800  0.47615400  0.82563400  1
  O  O21  1  0.46082900  0.26325600  0.67852200  1
  O  O22  1  0.61414200  0.36667700  0.93034100  1
  O  O23  1  0.28528100  0.14331600  0.88732000  1
  O  O24  1  0.36266300  0.55129300  0.13144500  1
  O  O25  1  0.72066900  0.64759400  0.07746500  1
  O  O26  1  0.35626900  0.87400100  0.06810700  1
  O  O27  1  0.76480100  0.16651200  0.57973700  1
  O  O28  1  0.72858800  0.50570400  0.68403800  1
  O  O29  1  0.64573400  0.97500300  0.90644500  1
  O  O30  1  0.71572100  0.98028000  0.19023400  1
  O  O31  1  0.23876500  0.63294700  0.42173100  1
  O  O32  1  0.11259100  0.35822400  0.55412600  1
