# generated using pymatgen
data_MgMn4(Si4O11)2
_symmetry_space_group_name_H-M   'P 1'
_cell_length_a   8.69416889
_cell_length_b   7.66856730
_cell_length_c   7.12958377
_cell_angle_alpha   107.41842981
_cell_angle_beta   103.16541420
_cell_angle_gamma   99.01972413
_symmetry_Int_Tables_number   1
_chemical_formula_structural   MgMn4(Si4O11)2
_chemical_formula_sum   'Mg1 Mn4 Si8 O22'
_cell_volume   428.48327481
_cell_formula_units_Z   1
loop_
 _symmetry_equiv_pos_site_id
 _symmetry_equiv_pos_as_xyz
  1  'x, y, z'
loop_
 _atom_site_type_symbol
 _atom_site_label
 _atom_site_symmetry_multiplicity
 _atom_site_fract_x
 _atom_site_fract_y
 _atom_site_fract_z
 _atom_site_occupancy
  Mg  Mg0  1  0.18601600  0.80598700  0.60292400  1
  Mn  Mn1  1  0.39198400  0.62583800  0.87908200  1
  Mn  Mn2  1  0.39425300  0.63788000  0.34547100  1
  Mn  Mn3  1  0.60948300  0.37378600  0.64309700  1
  Mn  Mn4  1  0.61902100  0.37218900  0.12848700  1
  Si  Si5  1  0.02767800  0.38364400  0.23994400  1
  Si  Si6  1  0.22580400  0.21767100  0.95605400  1
  Si  Si7  1  0.21899400  0.20693900  0.51983700  1
  Si  Si8  1  0.60497600  0.98019500  0.77860300  1
  Si  Si9  1  0.38853800  0.02071600  0.23353200  1
  Si  Si10  1  0.77456200  0.78667400  0.46973700  1
  Si  Si11  1  0.78335500  0.78279900  0.04271200  1
  Si  Si12  1  0.96832300  0.62672200  0.76484500  1
  O  O13  1  0.15389500  0.62498400  0.77216300  1
  O  O14  1  0.06410100  0.25195200  0.38550000  1
  O  O15  1  0.15643700  0.58974100  0.34579300  1
  O  O16  1  0.06963900  0.27248700  0.02463200  1
  O  O17  1  0.17532900  0.12877500  0.70091500  1
  O  O18  1  0.26863300  0.01960300  0.38610700  1
  O  O19  1  0.37834900  0.38599900  0.61185300  1
  O  O20  1  0.43075100  0.81987000  0.67759800  1
  O  O21  1  0.43110500  0.81735900  0.17559000  1
  O  O22  1  0.28096600  0.04330400  0.01999400  1
  O  O23  1  0.38337600  0.40133800  0.05362600  1
  O  O24  1  0.63971800  0.58457900  0.91840200  1
  O  O25  1  0.71320400  0.95016700  0.98131300  1
  O  O26  1  0.58114100  0.19539900  0.84585700  1
  O  O27  1  0.54207700  0.20715600  0.34589500  1
  O  O28  1  0.63177100  0.58971600  0.38053500  1
  O  O29  1  0.70534700  0.95085600  0.60598800  1
  O  O30  1  0.82693800  0.84668400  0.29068300  1
  O  O31  1  0.95043300  0.76038900  0.98337100  1
  O  O32  1  0.83346200  0.42890700  0.67051100  1
  O  O33  1  0.94165700  0.76198800  0.61267500  1
  O  O34  1  0.84399700  0.40604100  0.19926700  1
