# generated using pymatgen
data_Mg14CoNiO16
_symmetry_space_group_name_H-M   'P 1'
_cell_length_a   8.51705248
_cell_length_b   8.51705248
_cell_length_c   4.23312968
_cell_angle_alpha   90.00000000
_cell_angle_beta   90.00000000
_cell_angle_gamma   90.00000000
_symmetry_Int_Tables_number   1
_chemical_formula_structural   Mg14CoNiO16
_chemical_formula_sum   'Mg14 Co1 Ni1 O16'
_cell_volume   307.07200143
_cell_formula_units_Z   1
loop_
 _symmetry_equiv_pos_site_id
 _symmetry_equiv_pos_as_xyz
  1  'x, y, z'
loop_
 _atom_site_type_symbol
 _atom_site_label
 _atom_site_symmetry_multiplicity
 _atom_site_fract_x
 _atom_site_fract_y
 _atom_site_fract_z
 _atom_site_occupancy
  Mg  Mg0  1  0.00000000  0.50000000  0.00000000  1
  Mg  Mg1  1  0.50000000  0.00000000  0.00000000  1
  Mg  Mg2  1  0.00000000  0.25062242  0.50000000  1
  Mg  Mg3  1  0.00000000  0.74937758  0.50000000  1
  Mg  Mg4  1  0.50000000  0.25105828  0.50000000  1
  Mg  Mg5  1  0.50000000  0.74894172  0.50000000  1
  Mg  Mg6  1  0.25062242  0.00000000  0.50000000  1
  Mg  Mg7  1  0.25105828  0.50000000  0.50000000  1
  Mg  Mg8  1  0.74937758  0.00000000  0.50000000  1
  Mg  Mg9  1  0.74894172  0.50000000  0.50000000  1
  Mg  Mg10  1  0.25002943  0.25002943  0.00000000  1
  Mg  Mg11  1  0.25002943  0.74997057  0.00000000  1
  Mg  Mg12  1  0.74997057  0.25002943  0.00000000  1
  Mg  Mg13  1  0.74997057  0.74997057  0.00000000  1
  Co  Co14  1  0.00000000  0.00000000  0.00000000  1
  Ni  Ni15  1  0.50000000  0.50000000  0.00000000  1
  O  O16  1  0.25339986  0.00000000  0.00000000  1
  O  O17  1  0.24952841  0.50000000  0.00000000  1
  O  O18  1  0.74660014  0.00000000  0.00000000  1
  O  O19  1  0.75047159  0.50000000  0.00000000  1
  O  O20  1  0.24975946  0.24975946  0.50000000  1
  O  O21  1  0.24975946  0.75024054  0.50000000  1
  O  O22  1  0.75024054  0.24975946  0.50000000  1
  O  O23  1  0.75024054  0.75024054  0.50000000  1
  O  O24  1  0.00000000  0.00000000  0.50000000  1
  O  O25  1  0.00000000  0.50000000  0.50000000  1
  O  O26  1  0.50000000  0.00000000  0.50000000  1
  O  O27  1  0.50000000  0.50000000  0.50000000  1
  O  O28  1  0.00000000  0.25339986  0.00000000  1
  O  O29  1  0.00000000  0.74660014  0.00000000  1
  O  O30  1  0.50000000  0.24952841  0.00000000  1
  O  O31  1  0.50000000  0.75047159  0.00000000  1
