# generated using pymatgen
data_CaTiFe5O8
_symmetry_space_group_name_H-M   'P 1'
_cell_length_a   6.08043365
_cell_length_b   6.20032756
_cell_length_c   6.34596154
_cell_angle_alpha   82.79617669
_cell_angle_beta   59.00091400
_cell_angle_gamma   110.25743801
_symmetry_Int_Tables_number   1
_chemical_formula_structural   CaTiFe5O8
_chemical_formula_sum   'Ca1 Ti1 Fe5 O8'
_cell_volume   178.14200549
_cell_formula_units_Z   1
loop_
 _symmetry_equiv_pos_site_id
 _symmetry_equiv_pos_as_xyz
  1  'x, y, z'
loop_
 _atom_site_type_symbol
 _atom_site_label
 _atom_site_symmetry_multiplicity
 _atom_site_fract_x
 _atom_site_fract_y
 _atom_site_fract_z
 _atom_site_occupancy
  Ca  Ca0  1  0.69239900  0.48501300  0.75140800  1
  Ti  Ti1  1  0.48894900  0.96452000  0.51664900  1
  Fe  Fe2  1  0.19851100  0.97610200  0.25044100  1
  Fe  Fe3  1  0.93585900  0.00610200  0.92277500  1
  Fe  Fe4  1  0.47470500  0.49110900  0.46044400  1
  Fe  Fe5  1  0.98436900  0.49688600  0.97360700  1
  Fe  Fe6  1  0.17602400  0.46983000  0.28084700  1
  O  O7  1  0.93669900  0.65236200  0.26260000  1
  O  O8  1  0.91719700  0.17438000  0.24354700  1
  O  O9  1  0.40997400  0.16112500  0.71956300  1
  O  O10  1  0.48575600  0.31191100  0.18986400  1
  O  O11  1  0.02507100  0.34122600  0.69219500  1
  O  O12  1  0.07149400  0.83016100  0.65884500  1
  O  O13  1  0.49741800  0.81114400  0.22930200  1
  O  O14  1  0.45557600  0.70312900  0.72291400  1
