# generated using pymatgen
data_Cs5Ga3Se7
_symmetry_space_group_name_H-M   'P 1'
_cell_length_a   11.24742559
_cell_length_b   11.24742559
_cell_length_c   9.76109236
_cell_angle_alpha   75.36004170
_cell_angle_beta   75.36004170
_cell_angle_gamma   70.74504296
_symmetry_Int_Tables_number   1
_chemical_formula_structural   Cs5Ga3Se7
_chemical_formula_sum   'Cs10 Ga6 Se14'
_cell_volume   1108.33348638
_cell_formula_units_Z   2
loop_
 _symmetry_equiv_pos_site_id
 _symmetry_equiv_pos_as_xyz
  1  'x, y, z'
loop_
 _atom_site_type_symbol
 _atom_site_label
 _atom_site_symmetry_multiplicity
 _atom_site_fract_x
 _atom_site_fract_y
 _atom_site_fract_z
 _atom_site_occupancy
  Cs  Cs0  1  0.02507990  0.43891596  0.71880633  1
  Cs  Cs1  1  0.43891596  0.02507990  0.71880633  1
  Cs  Cs2  1  0.97492010  0.56108404  0.28119367  1
  Cs  Cs3  1  0.56108404  0.97492010  0.28119367  1
  Cs  Cs4  1  0.28660510  0.71339490  -0.00000000  1
  Cs  Cs5  1  0.71339490  0.28660510  -0.00000000  1
  Cs  Cs6  1  0.84950016  0.15049984  0.50000000  1
  Cs  Cs7  1  0.15049984  0.84950016  0.50000000  1
  Cs  Cs8  1  0.42510077  0.42510077  0.69290122  1
  Cs  Cs9  1  0.57489923  0.57489923  0.30709878  1
  Ga  Ga10  1  0.21321781  0.21321781  0.18318077  1
  Ga  Ga11  1  0.78678219  0.78678219  0.81681923  1
  Ga  Ga12  1  0.07169177  0.07169177  0.05763274  1
  Ga  Ga13  1  0.92830823  0.92830823  0.94236726  1
  Ga  Ga14  1  0.34727907  0.34727907  0.33533816  1
  Ga  Ga15  1  0.65272093  0.65272093  0.66466184  1
  Se  Se16  1  0.00243467  0.28508348  0.11418869  1
  Se  Se17  1  0.28508348  0.00243467  0.11418869  1
  Se  Se18  1  0.99756533  0.71491652  0.88581131  1
  Se  Se19  1  0.71491652  0.99756533  0.88581131  1
  Se  Se20  1  0.20415182  0.20415182  0.43333663  1
  Se  Se21  1  0.79584818  0.79584818  0.56666337  1
  Se  Se22  1  0.06457078  0.06457078  0.81325387  1
  Se  Se23  1  0.93542922  0.93542922  0.18674613  1
  Se  Se24  1  0.35026355  0.35026355  0.07647842  1
  Se  Se25  1  0.64973645  0.64973645  0.92352158  1
  Se  Se26  1  0.25037981  0.55384880  0.39439203  1
  Se  Se27  1  0.55384880  0.25037981  0.39439203  1
  Se  Se28  1  0.74962019  0.44615120  0.60560797  1
  Se  Se29  1  0.44615120  0.74962019  0.60560797  1
