# generated using pymatgen
data_K8MgCo2(Mo4O15)2
_symmetry_space_group_name_H-M   'P 1'
_cell_length_a   10.57523338
_cell_length_b   10.51096450
_cell_length_c   8.48211697
_cell_angle_alpha   89.40270486
_cell_angle_beta   91.76440223
_cell_angle_gamma   120.37161238
_symmetry_Int_Tables_number   1
_chemical_formula_structural   K8MgCo2(Mo4O15)2
_chemical_formula_sum   'K8 Mg1 Co2 Mo8 O30'
_cell_volume   813.04627675
_cell_formula_units_Z   1
loop_
 _symmetry_equiv_pos_site_id
 _symmetry_equiv_pos_as_xyz
  1  'x, y, z'
loop_
 _atom_site_type_symbol
 _atom_site_label
 _atom_site_symmetry_multiplicity
 _atom_site_fract_x
 _atom_site_fract_y
 _atom_site_fract_z
 _atom_site_occupancy
  K  K0  1  0.09647800  0.67709500  0.13772700  1
  K  K1  1  0.59523300  0.90518000  0.15114900  1
  K  K2  1  0.40072800  0.08958100  0.85539300  1
  K  K3  1  0.99794600  0.99553900  0.01506700  1
  K  K4  1  0.87395900  0.28308300  0.91476000  1
  K  K5  1  0.69848400  0.60574400  0.86365900  1
  K  K6  1  0.29780900  0.41002400  0.13621400  1
  K  K7  1  0.00310000  0.00241900  0.52227800  1
  Mg  Mg8  1  0.11600100  0.44852400  0.67975700  1
  Co  Co9  1  0.33170600  0.66371800  0.46013000  1
  Co  Co10  1  0.67325800  0.33365800  0.52434500  1
  Mo  Mo11  1  0.96969800  0.30820800  0.36078800  1
  Mo  Mo12  1  0.01987900  0.68143700  0.62768500  1
  Mo  Mo13  1  0.33536000  0.00636200  0.36547600  1
  Mo  Mo14  1  0.65305500  0.33086600  0.16021500  1
  Mo  Mo15  1  0.67524000  0.00160900  0.63519700  1
  Mo  Mo16  1  0.34943200  0.68239000  0.84575500  1
  Mo  Mo17  1  0.67226400  0.66156800  0.36743900  1
  Mo  Mo18  1  0.34346900  0.34176000  0.62283000  1
  O  O19  1  0.49657300  0.83175800  0.65402900  1
  O  O20  1  0.66007400  0.47966100  0.35045800  1
  O  O21  1  0.74338100  0.01084600  0.44385400  1
  O  O22  1  0.49149200  0.64234700  0.34488000  1
  O  O23  1  0.16701600  0.50616600  0.90523700  1
  O  O24  1  0.14164900  0.49897100  0.35829500  1
  O  O25  1  0.26546400  0.99392300  0.55528800  1
  O  O26  1  0.36069400  0.84862100  0.34012900  1
  O  O27  1  0.50698300  0.34347600  0.06720800  1
  O  O28  1  0.87402100  0.49317800  0.65889900  1
  O  O29  1  0.33065800  0.51401800  0.64079200  1
  O  O30  1  0.79920500  0.32861000  0.34965100  1
  O  O31  1  0.98906600  0.26651900  0.57307100  1
  O  O32  1  0.74050900  0.73273600  0.55817200  1
  O  O33  1  0.33744600  0.82509500  0.94625500  1
  O  O34  1  0.80944500  0.47292300  0.06426900  1
  O  O35  1  0.20813700  0.99273900  0.21520300  1
  O  O36  1  0.99684000  0.73427500  0.43730400  1
  O  O37  1  0.63277200  0.16874900  0.06959400  1
  O  O38  1  0.79586300  0.00437400  0.78935000  1
  O  O39  1  0.98600000  0.21603700  0.19128100  1
  O  O40  1  0.51022900  0.18335500  0.35340600  1
  O  O41  1  0.52586000  0.36800200  0.65451000  1
  O  O42  1  0.19227900  0.66822200  0.63997600  1
  O  O43  1  0.27176700  0.26681100  0.43519100  1
  O  O44  1  0.65192900  0.16001700  0.66445800  1
  O  O45  1  0.78247300  0.78519300  0.21833800  1
  O  O46  1  0.00949100  0.79420700  0.77569200  1
  O  O47  1  0.48603900  0.65423800  0.94352900  1
  O  O48  1  0.22729600  0.21741700  0.76675600  1
