# generated using pymatgen
data_KBS2
_symmetry_space_group_name_H-M   'P 1'
_cell_length_a   9.45280665
_cell_length_b   9.45280665
_cell_length_c   9.45280662
_cell_angle_alpha   111.41248956
_cell_angle_beta   111.41248956
_cell_angle_gamma   111.41248342
_symmetry_Int_Tables_number   1
_chemical_formula_structural   KBS2
_chemical_formula_sum   'K6 B6 S12'
_cell_volume   598.95470553
_cell_formula_units_Z   6
loop_
 _symmetry_equiv_pos_site_id
 _symmetry_equiv_pos_as_xyz
  1  'x, y, z'
loop_
 _atom_site_type_symbol
 _atom_site_label
 _atom_site_symmetry_multiplicity
 _atom_site_fract_x
 _atom_site_fract_y
 _atom_site_fract_z
 _atom_site_occupancy
  K  K0  1  0.25000000  0.70155324  0.79844676  1
  K  K1  1  0.79844676  0.25000000  0.70155324  1
  K  K2  1  0.70155324  0.79844676  0.25000000  1
  K  K3  1  0.75000000  0.29844676  0.20155324  1
  K  K4  1  0.20155324  0.75000000  0.29844676  1
  K  K5  1  0.29844676  0.20155324  0.75000000  1
  B  B6  1  0.25000000  0.36513215  0.13486785  1
  B  B7  1  0.13486785  0.25000000  0.36513215  1
  B  B8  1  0.36513215  0.13486785  0.25000000  1
  B  B9  1  0.75000000  0.63486785  0.86513215  1
  B  B10  1  0.86513215  0.75000000  0.63486785  1
  B  B11  1  0.63486785  0.86513215  0.75000000  1
  S  S12  1  0.86932579  0.63067421  0.75000000  1
  S  S13  1  0.63067421  0.75000000  0.86932579  1
  S  S14  1  0.75000000  0.86932579  0.63067421  1
  S  S15  1  0.13067421  0.36932579  0.25000000  1
  S  S16  1  0.36932579  0.25000000  0.13067421  1
  S  S17  1  0.25000000  0.13067421  0.36932579  1
  S  S18  1  0.52161021  0.97838979  0.75000000  1
  S  S19  1  0.97838979  0.75000000  0.52161021  1
  S  S20  1  0.75000000  0.52161021  0.97838979  1
  S  S21  1  0.47838979  0.02161021  0.25000000  1
  S  S22  1  0.02161021  0.25000000  0.47838979  1
  S  S23  1  0.25000000  0.47838979  0.02161021  1
