# generated using pymatgen
data_K4MgZn4H16(Br3O2)4
_symmetry_space_group_name_H-M   'P 1'
_cell_length_a   6.88796997
_cell_length_b   12.90941655
_cell_length_c   14.04734245
_cell_angle_alpha   91.45372396
_cell_angle_beta   130.23059282
_cell_angle_gamma   88.98365150
_symmetry_Int_Tables_number   1
_chemical_formula_structural   K4MgZn4H16(Br3O2)4
_chemical_formula_sum   'K4 Mg1 Zn4 H16 Br12 O8'
_cell_volume   953.30719650
_cell_formula_units_Z   1
loop_
 _symmetry_equiv_pos_site_id
 _symmetry_equiv_pos_as_xyz
  1  'x, y, z'
loop_
 _atom_site_type_symbol
 _atom_site_label
 _atom_site_symmetry_multiplicity
 _atom_site_fract_x
 _atom_site_fract_y
 _atom_site_fract_z
 _atom_site_occupancy
  K  K0  1  0.27666702  0.82090159  0.00186542  1
  K  K1  1  0.78080596  0.35950542  0.48543096  1
  K  K2  1  0.73401121  0.17007543  0.01001079  1
  K  K3  1  0.24801141  0.68902577  0.48323997  1
  Mg  Mg4  1  0.36793836  0.16679979  0.53045472  1
  Zn  Zn5  1  0.47581656  0.92127868  0.75886357  1
  Zn  Zn6  1  0.54034475  0.43585383  0.76914216  1
  Zn  Zn7  1  0.51158922  0.06427330  0.23962087  1
  Zn  Zn8  1  0.47615982  0.57732071  0.23858009  1
  H  H9  1  0.83274733  0.26660824  0.81701973  1
  H  H10  1  0.17078748  0.76489476  0.70219412  1
  H  H11  1  0.17974641  0.73341063  0.19983896  1
  H  H12  1  0.72734224  0.23806251  0.26295160  1
  H  H13  1  0.98845852  0.34338918  0.93601713  1
  H  H14  1  0.02134767  0.84047608  0.58485163  1
  H  H15  1  0.02737681  0.66084075  0.07477953  1
  H  H16  1  0.92482824  0.17859928  0.39034967  1
  H  H17  1  0.93708518  0.16721818  0.70966559  1
  H  H18  1  0.08058761  0.63622862  0.78250621  1
  H  H19  1  0.06307273  0.85428671  0.27395437  1
  H  H20  1  0.92290344  0.34988719  0.22058531  1
  H  H21  1  0.80660750  0.09396979  0.73811607  1
  H  H22  1  0.36479076  0.65011578  0.84436805  1
  H  H23  1  0.34399226  0.85996996  0.33105743  1
  H  H24  1  0.63434572  0.37162370  0.13812187  1
  Br  Br25  1  0.35625493  0.43362112  0.55260935  1
  Br  Br26  1  0.72068095  0.88389404  0.97489157  1
  Br  Br27  1  0.71164541  0.61359160  0.45875377  1
  Br  Br28  1  0.27947858  0.08634678  0.01810502  1
  Br  Br29  1  0.25049975  0.39158057  0.80250614  1
  Br  Br30  1  0.70743130  0.90201643  0.68450196  1
  Br  Br31  1  0.72435545  0.60128830  0.17645272  1
  Br  Br32  1  0.23130442  0.07711141  0.28646683  1
  Br  Br33  1  0.27490374  0.09004508  0.71432854  1
  Br  Br34  1  0.74107987  0.60338332  0.85256563  1
  Br  Br35  1  0.74049872  0.90026226  0.32244499  1
  Br  Br36  1  0.26944319  0.40924123  0.17416507  1
  O  O37  1  0.18853133  0.81055577  0.65091905  1
  O  O38  1  0.81758737  0.31710701  0.86671167  1
  O  O39  1  0.73354466  0.19492470  0.32332265  1
  O  O40  1  0.19604796  0.68867341  0.14515526  1
  O  O41  1  0.20861131  0.68909781  0.81070148  1
  O  O42  1  0.79344673  0.16527865  0.70983212  1
  O  O43  1  0.75809082  0.31493503  0.17164359  1
  O  O44  1  0.21105131  0.81034658  0.30584677  1
