# generated using pymatgen
data_MgVFe(P2O7)2
_symmetry_space_group_name_H-M   'P 1'
_cell_length_a   5.01683435
_cell_length_b   8.35331455
_cell_length_c   6.85048554
_cell_angle_alpha   90.39622417
_cell_angle_beta   109.24276032
_cell_angle_gamma   90.30376676
_symmetry_Int_Tables_number   1
_chemical_formula_structural   MgVFe(P2O7)2
_chemical_formula_sum   'Mg1 V1 Fe1 P4 O14'
_cell_volume   271.03019132
_cell_formula_units_Z   1
loop_
 _symmetry_equiv_pos_site_id
 _symmetry_equiv_pos_as_xyz
  1  'x, y, z'
loop_
 _atom_site_type_symbol
 _atom_site_label
 _atom_site_symmetry_multiplicity
 _atom_site_fract_x
 _atom_site_fract_y
 _atom_site_fract_z
 _atom_site_occupancy
  Mg  Mg0  1  0.38304200  0.38949200  0.18301100  1
  V  V1  1  0.20201800  0.51253800  0.71214700  1
  Fe  Fe2  1  0.78764500  0.99065000  0.27678300  1
  P  P3  1  0.37234100  0.18914700  0.50149500  1
  P  P4  1  0.21632100  0.77963500  0.08295500  1
  P  P5  1  0.76745800  0.27882400  0.92102200  1
  P  P6  1  0.61078200  0.68116200  0.48930400  1
  O  O7  1  0.03655800  0.36012700  0.90709700  1
  O  O8  1  0.10557900  0.67948500  0.88860300  1
  O  O9  1  0.15267100  0.06469200  0.49794900  1
  O  O10  1  0.26691700  0.36407300  0.48083000  1
  O  O11  1  0.43405800  0.66867700  0.63214800  1
  O  O12  1  0.54774300  0.40419300  0.94028100  1
  O  O13  1  0.62447100  0.17305900  0.71939100  1
  O  O14  1  0.39872600  0.63830300  0.25152900  1
  O  O15  1  0.42569100  0.90957500  0.07771600  1
  O  O16  1  0.51955900  0.17678400  0.33534200  1
  O  O17  1  0.72487800  0.84867100  0.48917200  1
  O  O18  1  0.82128200  0.54288900  0.50882500  1
  O  O19  1  0.85143000  0.16769400  0.10261100  1
  O  O20  1  0.98699200  0.83023400  0.16830700  1
