# generated using pymatgen
data_CaSeO4
_symmetry_space_group_name_H-M   'P 1'
_cell_length_a   6.39656071
_cell_length_b   7.21233983
_cell_length_c   8.05958306
_cell_angle_alpha   116.56152868
_cell_angle_beta   90.00000000
_cell_angle_gamma   90.00000000
_symmetry_Int_Tables_number   1
_chemical_formula_structural   CaSeO4
_chemical_formula_sum   'Ca4 Se4 O16'
_cell_volume   332.57808302
_cell_formula_units_Z   4
loop_
 _symmetry_equiv_pos_site_id
 _symmetry_equiv_pos_as_xyz
  1  'x, y, z'
loop_
 _atom_site_type_symbol
 _atom_site_label
 _atom_site_symmetry_multiplicity
 _atom_site_fract_x
 _atom_site_fract_y
 _atom_site_fract_z
 _atom_site_occupancy
  Ca  Ca0  1  0.12022804  0.12463553  0.24931163  1
  Ca  Ca1  1  0.87977196  0.87536447  0.75068837  1
  Ca  Ca2  1  0.62022804  0.37536447  0.75068837  1
  Ca  Ca3  1  0.37977196  0.62463553  0.24931163  1
  Se  Se4  1  0.11648586  0.37670239  0.75332696  1
  Se  Se5  1  0.88351414  0.62329761  0.24667304  1
  Se  Se6  1  0.61648586  0.12329761  0.24667304  1
  Se  Se7  1  0.38351414  0.87670239  0.75332696  1
  O  O8  1  0.25939401  0.28127495  0.56251370  1
  O  O9  1  0.74060599  0.71872505  0.43748630  1
  O  O10  1  0.75939401  0.21872505  0.43748630  1
  O  O11  1  0.24060599  0.78127495  0.56251370  1
  O  O12  1  0.28997751  0.46139790  0.92275205  1
  O  O13  1  0.71002249  0.53860210  0.07724795  1
  O  O14  1  0.78997751  0.03860210  0.07724795  1
  O  O15  1  0.21002249  0.96139790  0.92275205  1
  O  O16  1  0.95594017  0.55977554  0.76153871  1
  O  O17  1  0.04404330  0.79812138  0.23839697  1
  O  O18  1  0.45595670  0.29812138  0.23839697  1
  O  O19  1  0.54405983  0.05977554  0.76153871  1
  O  O20  1  0.04405983  0.44022446  0.23846129  1
  O  O21  1  0.95595670  0.20187862  0.76160303  1
  O  O22  1  0.54404330  0.70187862  0.76160303  1
  O  O23  1  0.45594017  0.94022446  0.23846129  1
