# generated using pymatgen
data_HoRhO3
_symmetry_space_group_name_H-M   'P 1'
_cell_length_a   5.20253763
_cell_length_b   5.73954677
_cell_length_c   7.55043384
_cell_angle_alpha   90.00000000
_cell_angle_beta   90.00000000
_cell_angle_gamma   90.00000000
_symmetry_Int_Tables_number   1
_chemical_formula_structural   HoRhO3
_chemical_formula_sum   'Ho4 Rh4 O12'
_cell_volume   225.45752533
_cell_formula_units_Z   4
loop_
 _symmetry_equiv_pos_site_id
 _symmetry_equiv_pos_as_xyz
  1  'x, y, z'
loop_
 _atom_site_type_symbol
 _atom_site_label
 _atom_site_symmetry_multiplicity
 _atom_site_fract_x
 _atom_site_fract_y
 _atom_site_fract_z
 _atom_site_occupancy
  Ho  Ho0  1  0.03011575  0.41578605  0.25000000  1
  Ho  Ho1  1  0.96988425  0.58421395  0.75000000  1
  Ho  Ho2  1  0.53011575  0.08421395  0.75000000  1
  Ho  Ho3  1  0.46988425  0.91578605  0.25000000  1
  Rh  Rh4  1  0.00000000  -0.00000000  -0.00000000  1
  Rh  Rh5  1  0.50000000  0.50000000  -0.00000000  1
  Rh  Rh6  1  0.00000000  -0.00000000  0.50000000  1
  Rh  Rh7  1  0.50000000  0.50000000  0.50000000  1
  O  O8  1  0.32458985  0.18922736  0.06239742  1
  O  O9  1  0.67541015  0.81077264  0.93760258  1
  O  O10  1  0.82458985  0.31077264  0.93760258  1
  O  O11  1  0.67541015  0.81077264  0.56239742  1
  O  O12  1  0.17541015  0.68922736  0.06239742  1
  O  O13  1  0.32458985  0.18922736  0.43760258  1
  O  O14  1  0.17541015  0.68922736  0.43760258  1
  O  O15  1  0.82458985  0.31077264  0.56239742  1
  O  O16  1  0.63531712  0.55323652  0.25000000  1
  O  O17  1  0.36468288  0.44676348  0.75000000  1
  O  O18  1  0.13531712  0.94676348  0.75000000  1
  O  O19  1  0.86468288  0.05323652  0.25000000  1
