# generated using pymatgen
data_MgSnO3
_symmetry_space_group_name_H-M   'P 1'
_cell_length_a   5.59935241
_cell_length_b   5.59935241
_cell_length_c   5.59935234
_cell_angle_alpha   56.16581344
_cell_angle_beta   56.16581341
_cell_angle_gamma   56.16581038
_symmetry_Int_Tables_number   1
_chemical_formula_structural   MgSnO3
_chemical_formula_sum   'Mg2 Sn2 O6'
_cell_volume   113.11787770
_cell_formula_units_Z   2
loop_
 _symmetry_equiv_pos_site_id
 _symmetry_equiv_pos_as_xyz
  1  'x, y, z'
loop_
 _atom_site_type_symbol
 _atom_site_label
 _atom_site_symmetry_multiplicity
 _atom_site_fract_x
 _atom_site_fract_y
 _atom_site_fract_z
 _atom_site_occupancy
  Mg  Mg0  1  0.35649755  0.35649755  0.35649755  1
  Mg  Mg1  1  0.64350245  0.64350245  0.64350245  1
  Sn  Sn2  1  0.14753151  0.14753151  0.14753151  1
  Sn  Sn3  1  0.85246849  0.85246849  0.85246849  1
  O  O4  1  0.44816865  0.75634124  0.04887097  1
  O  O5  1  0.75634124  0.04887097  0.44816865  1
  O  O6  1  0.95112903  0.55183135  0.24365876  1
  O  O7  1  0.04887097  0.44816865  0.75634124  1
  O  O8  1  0.24365876  0.95112903  0.55183135  1
  O  O9  1  0.55183135  0.24365876  0.95112903  1
