# generated using pymatgen
data_K2CeF6
_symmetry_space_group_name_H-M   'P 1'
_cell_length_a   3.70534129
_cell_length_b   6.50883800
_cell_length_c   6.50882981
_cell_angle_alpha   120.00050859
_cell_angle_beta   90.00003696
_cell_angle_gamma   89.99999374
_symmetry_Int_Tables_number   1
_chemical_formula_structural   K2CeF6
_chemical_formula_sum   'K2 Ce1 F6'
_cell_volume   135.94492529
_cell_formula_units_Z   1
loop_
 _symmetry_equiv_pos_site_id
 _symmetry_equiv_pos_as_xyz
  1  'x, y, z'
loop_
 _atom_site_type_symbol
 _atom_site_label
 _atom_site_symmetry_multiplicity
 _atom_site_fract_x
 _atom_site_fract_y
 _atom_site_fract_z
 _atom_site_occupancy
  K  K0  1  0.49999993  0.66668114  0.33332911  1
  K  K1  1  0.50000103  0.33335304  0.66667655  1
  Ce  Ce2  1  0.99999762  -0.00000096  0.00000147  1
  F  F3  1  0.50000075  0.77166454  0.77166847  1
  F  F4  1  0.50000057  0.99999618  0.22832716  1
  F  F5  1  0.49999984  0.22832760  0.00000028  1
  F  F6  1  0.00000064  0.34179767  0.34180316  1
  F  F7  1  0.00000036  0.99999260  0.65819614  1
  F  F8  1  0.00000125  0.65818719  0.99999766  1
