# generated using pymatgen
data_NdPb7F17
_symmetry_space_group_name_H-M   'P 1'
_cell_length_a   4.19045300
_cell_length_b   4.22167900
_cell_length_c   28.06057645
_cell_angle_alpha   94.18901062
_cell_angle_beta   89.88948015
_cell_angle_gamma   119.68401046
_symmetry_Int_Tables_number   1
_chemical_formula_structural   NdPb7F17
_chemical_formula_sum   'Nd1 Pb7 F17'
_cell_volume   429.78001865
_cell_formula_units_Z   1
loop_
 _symmetry_equiv_pos_site_id
 _symmetry_equiv_pos_as_xyz
  1  'x, y, z'
loop_
 _atom_site_type_symbol
 _atom_site_label
 _atom_site_symmetry_multiplicity
 _atom_site_fract_x
 _atom_site_fract_y
 _atom_site_fract_z
 _atom_site_occupancy
  Nd  Nd0  1  0.39359700  0.64132200  0.11864100  1
  Pb  Pb1  1  0.00256800  0.98830600  0.99872100  1
  Pb  Pb2  1  0.69050200  0.41856500  0.87242400  1
  Pb  Pb3  1  0.28257900  0.77136100  0.74665200  1
  Pb  Pb4  1  0.50287500  0.50349400  0.49662300  1
  Pb  Pb5  1  0.88379800  0.13172200  0.62172000  1
  Pb  Pb6  1  0.12792400  0.87811200  0.37208400  1
  Pb  Pb7  1  0.75565900  0.25618700  0.24553600  1
  F  F8  1  0.70073700  0.40112700  0.96336200  1
  F  F9  1  0.93343700  0.11427100  0.71417300  1
  F  F10  1  0.02727500  0.06776100  0.90548700  1
  F  F11  1  0.34304200  0.75826800  0.84046200  1
  F  F12  1  0.53864800  0.47622900  0.58979500  1
  F  F13  1  0.62721900  0.42833600  0.77738800  1
  F  F14  1  0.15924200  0.84906500  0.46410800  1
  F  F15  1  0.22843700  0.78733400  0.65304500  1
  F  F16  1  0.78548700  0.22333200  0.34125300  1
  F  F17  1  0.84547500  0.15768200  0.52752000  1
  F  F18  1  0.41431000  0.60838400  0.20649900  1
  F  F19  1  0.47036600  0.53185300  0.40380500  1
  F  F20  1  0.09726200  0.90989300  0.27485100  1
  F  F21  1  0.06630000  0.00070300  0.11734000  1
  F  F22  1  0.73414100  0.29483800  0.15921800  1
  F  F23  1  0.73865400  0.41565000  0.07216500  1
  F  F24  1  0.38196800  0.72670100  0.03162900  1
