# generated using pymatgen
data_K4SnO3
_symmetry_space_group_name_H-M   'P 1'
_cell_length_a   6.47875451
_cell_length_b   11.22487629
_cell_length_c   18.87698213
_cell_angle_alpha   90.00000000
_cell_angle_beta   90.00000000
_cell_angle_gamma   90.00000000
_symmetry_Int_Tables_number   1
_chemical_formula_structural   K4SnO3
_chemical_formula_sum   'K32 Sn8 O24'
_cell_volume   1372.79488451
_cell_formula_units_Z   8
loop_
 _symmetry_equiv_pos_site_id
 _symmetry_equiv_pos_as_xyz
  1  'x, y, z'
loop_
 _atom_site_type_symbol
 _atom_site_label
 _atom_site_symmetry_multiplicity
 _atom_site_fract_x
 _atom_site_fract_y
 _atom_site_fract_z
 _atom_site_occupancy
  K  K0  1  0.87495374  0.32448684  0.34505035  1
  K  K1  1  0.37495374  0.17551316  0.65494965  1
  K  K2  1  0.12504626  0.82448684  0.15494965  1
  K  K3  1  0.62504626  0.67551316  0.84505035  1
  K  K4  1  0.12504626  0.67551316  0.65494965  1
  K  K5  1  0.62504626  0.82448684  0.34505035  1
  K  K6  1  0.87495374  0.17551316  0.84505035  1
  K  K7  1  0.37495374  0.32448684  0.15494965  1
  K  K8  1  0.74263694  0.05653666  0.46383684  1
  K  K9  1  0.24263694  0.44346334  0.53616316  1
  K  K10  1  0.25736306  0.55653666  0.03616316  1
  K  K11  1  0.75736306  0.94346334  0.96383684  1
  K  K12  1  0.25736306  0.94346334  0.53616316  1
  K  K13  1  0.75736306  0.55653666  0.46383684  1
  K  K14  1  0.74263694  0.44346334  0.96383684  1
  K  K15  1  0.24263694  0.05653666  0.03616316  1
  K  K16  1  0.72703977  0.18923072  0.05611610  1
  K  K17  1  0.22703977  0.31076928  0.94388390  1
  K  K18  1  0.27296023  0.68923072  0.44388390  1
  K  K19  1  0.77296023  0.81076928  0.55611610  1
  K  K20  1  0.27296023  0.81076928  0.94388390  1
  K  K21  1  0.77296023  0.68923072  0.05611610  1
  K  K22  1  0.72703977  0.31076928  0.55611610  1
  K  K23  1  0.22703977  0.18923072  0.44388390  1
  K  K24  1  0.54654428  0.11323226  0.29687838  1
  K  K25  1  0.04654428  0.38676774  0.70312162  1
  K  K26  1  0.45345572  0.61323226  0.20312162  1
  K  K27  1  0.95345572  0.88676774  0.79687838  1
  K  K28  1  0.45345572  0.88676774  0.70312162  1
  K  K29  1  0.95345572  0.61323226  0.29687838  1
  K  K30  1  0.54654428  0.38676774  0.79687838  1
  K  K31  1  0.04654428  0.11323226  0.20312162  1
  Sn  Sn32  1  0.89025282  0.43173281  0.14962401  1
  Sn  Sn33  1  0.39025282  0.06826719  0.85037599  1
  Sn  Sn34  1  0.10974718  0.93173281  0.35037599  1
  Sn  Sn35  1  0.60974718  0.56826719  0.64962401  1
  Sn  Sn36  1  0.10974718  0.56826719  0.85037599  1
  Sn  Sn37  1  0.60974718  0.93173281  0.14962401  1
  Sn  Sn38  1  0.89025282  0.06826719  0.64962401  1
  Sn  Sn39  1  0.39025282  0.43173281  0.35037599  1
  O  O40  1  0.95981539  0.09343949  0.34396151  1
  O  O41  1  0.45981539  0.40656051  0.65603849  1
  O  O42  1  0.04018461  0.59343949  0.15603849  1
  O  O43  1  0.54018461  0.90656051  0.84396151  1
  O  O44  1  0.04018461  0.90656051  0.65603849  1
  O  O45  1  0.54018461  0.59343949  0.34396151  1
  O  O46  1  0.95981539  0.40656051  0.84396151  1
  O  O47  1  0.45981539  0.09343949  0.15603849  1
  O  O48  1  0.62444589  0.48126106  0.09827706  1
  O  O49  1  0.12444589  0.01873894  0.90172294  1
  O  O50  1  0.37555411  0.98126106  0.40172294  1
  O  O51  1  0.87555411  0.51873894  0.59827706  1
  O  O52  1  0.37555411  0.51873894  0.90172294  1
  O  O53  1  0.87555411  0.98126106  0.09827706  1
  O  O54  1  0.62444589  0.01873894  0.59827706  1
  O  O55  1  0.12444589  0.48126106  0.40172294  1
  O  O56  1  0.54305246  0.35145661  0.43338232  1
  O  O57  1  0.04305246  0.14854339  0.56661768  1
  O  O58  1  0.45694754  0.85145661  0.06661768  1
  O  O59  1  0.95694754  0.64854339  0.93338232  1
  O  O60  1  0.45694754  0.64854339  0.56661768  1
  O  O61  1  0.95694754  0.85145661  0.43338232  1
  O  O62  1  0.54305246  0.14854339  0.93338232  1
  O  O63  1  0.04305246  0.35145661  0.06661768  1
