# generated using pymatgen
data_GeC4(BrF5)2
_symmetry_space_group_name_H-M   'P 1'
_cell_length_a   9.00151500
_cell_length_b   9.00151500
_cell_length_c   15.46632685
_cell_angle_alpha   90.00000000
_cell_angle_beta   90.00000000
_cell_angle_gamma   90.00000000
_symmetry_Int_Tables_number   1
_chemical_formula_structural   GeC4(BrF5)2
_chemical_formula_sum   'Ge4 C16 Br8 F40'
_cell_volume   1253.19427708
_cell_formula_units_Z   4
loop_
 _symmetry_equiv_pos_site_id
 _symmetry_equiv_pos_as_xyz
  1  'x, y, z'
loop_
 _atom_site_type_symbol
 _atom_site_label
 _atom_site_symmetry_multiplicity
 _atom_site_fract_x
 _atom_site_fract_y
 _atom_site_fract_z
 _atom_site_occupancy
  Ge  Ge0  1  0.10994219  0.89005781  0.75000000  1
  Ge  Ge1  1  0.89005781  0.10994219  0.25000000  1
  Ge  Ge2  1  0.39005781  0.39005781  -0.00000000  1
  Ge  Ge3  1  0.60994219  0.60994219  0.50000000  1
  C  C4  1  0.09143318  0.03847262  0.64847700  1
  C  C5  1  0.90856682  0.96152738  0.14847700  1
  C  C6  1  0.53847262  0.40856682  0.89847700  1
  C  C7  1  0.46152738  0.59143318  0.39847700  1
  C  C8  1  0.96152738  0.90856682  0.85152300  1
  C  C9  1  0.03847262  0.09143318  0.35152300  1
  C  C10  1  0.40856682  0.53847262  0.10152300  1
  C  C11  1  0.59143318  0.46152738  0.60152300  1
  C  C12  1  0.09708524  0.20646709  0.67097195  1
  C  C13  1  0.90291476  0.79353291  0.17097195  1
  C  C14  1  0.70646709  0.40291476  0.92097195  1
  C  C15  1  0.29353291  0.59708524  0.42097195  1
  C  C16  1  0.79353291  0.90291476  0.82902805  1
  C  C17  1  0.20646709  0.09708524  0.32902805  1
  C  C18  1  0.40291476  0.70646709  0.07902805  1
  C  C19  1  0.59708524  0.29353291  0.57902805  1
  Br  Br20  1  0.08663518  0.66002338  0.68727759  1
  Br  Br21  1  0.91336482  0.33997662  0.18727759  1
  Br  Br22  1  0.16002338  0.41336482  0.93727759  1
  Br  Br23  1  0.83997662  0.58663518  0.43727759  1
  Br  Br24  1  0.33997662  0.91336482  0.81272241  1
  Br  Br25  1  0.66002338  0.08663518  0.31272241  1
  Br  Br26  1  0.41336482  0.16002338  0.06272241  1
  Br  Br27  1  0.58663518  0.83997662  0.56272241  1
  F  F28  1  0.20412873  0.00977413  0.59131306  1
  F  F29  1  0.79587127  0.99022587  0.09131306  1
  F  F30  1  0.50977413  0.29587127  0.84131306  1
  F  F31  1  0.49022587  0.70412873  0.34131306  1
  F  F32  1  0.99022587  0.79587127  0.90868694  1
  F  F33  1  0.00977413  0.20412873  0.40868694  1
  F  F34  1  0.29587127  0.50977413  0.15868694  1
  F  F35  1  0.70412873  0.49022587  0.65868694  1
  F  F36  1  0.95900702  0.01078184  0.60770721  1
  F  F37  1  0.04099298  0.98921816  0.10770721  1
  F  F38  1  0.51078184  0.54099298  0.85770721  1
  F  F39  1  0.48921816  0.45900702  0.35770721  1
  F  F40  1  0.98921816  0.04099298  0.89229279  1
  F  F41  1  0.01078184  0.95900702  0.39229279  1
  F  F42  1  0.54099298  0.51078184  0.14229279  1
  F  F43  1  0.45900702  0.48921816  0.64229279  1
  F  F44  1  0.07939469  0.29091047  0.59940066  1
  F  F45  1  0.92060531  0.70908953  0.09940066  1
  F  F46  1  0.79091047  0.42060531  0.84940066  1
  F  F47  1  0.20908953  0.57939469  0.34940066  1
  F  F48  1  0.70908953  0.92060531  0.90059934  1
  F  F49  1  0.29091047  0.07939469  0.40059934  1
  F  F50  1  0.42060531  0.79091047  0.15059934  1
  F  F51  1  0.57939469  0.20908953  0.65059934  1
  F  F52  1  0.98685108  0.24007307  0.72744329  1
  F  F53  1  0.01314892  0.75992693  0.22744329  1
  F  F54  1  0.74007307  0.51314892  0.97744329  1
  F  F55  1  0.25992693  0.48685108  0.47744329  1
  F  F56  1  0.75992693  0.01314892  0.77255671  1
  F  F57  1  0.24007307  0.98685108  0.27255671  1
  F  F58  1  0.51314892  0.74007307  0.02255671  1
  F  F59  1  0.48685108  0.25992693  0.52255671  1
  F  F60  1  0.22905745  0.24102664  0.70761378  1
  F  F61  1  0.77094255  0.75897336  0.20761378  1
  F  F62  1  0.74102664  0.27094255  0.95761378  1
  F  F63  1  0.25897336  0.72905745  0.45761378  1
  F  F64  1  0.75897336  0.77094255  0.79238622  1
  F  F65  1  0.24102664  0.22905745  0.29238622  1
  F  F66  1  0.27094255  0.74102664  0.04238622  1
  F  F67  1  0.72905745  0.25897336  0.54238622  1
