# generated using pymatgen
data_Ba(TmS2)2
_symmetry_space_group_name_H-M   'P 1'
_cell_length_a   3.99069779
_cell_length_b   12.22417586
_cell_length_c   14.37434215
_cell_angle_alpha   90.00000000
_cell_angle_beta   90.00000000
_cell_angle_gamma   90.00000000
_symmetry_Int_Tables_number   1
_chemical_formula_structural   Ba(TmS2)2
_chemical_formula_sum   'Ba4 Tm8 S16'
_cell_volume   701.22341220
_cell_formula_units_Z   4
loop_
 _symmetry_equiv_pos_site_id
 _symmetry_equiv_pos_as_xyz
  1  'x, y, z'
loop_
 _atom_site_type_symbol
 _atom_site_label
 _atom_site_symmetry_multiplicity
 _atom_site_fract_x
 _atom_site_fract_y
 _atom_site_fract_z
 _atom_site_occupancy
  Ba  Ba0  1  0.25000000  0.75789431  0.33783776  1
  Ba  Ba1  1  0.25000000  0.25789431  0.16216224  1
  Ba  Ba2  1  0.75000000  0.24210569  0.66216224  1
  Ba  Ba3  1  0.75000000  0.74210569  0.83783776  1
  Tm  Tm4  1  0.25000000  0.43432326  0.39131917  1
  Tm  Tm5  1  0.25000000  0.93432326  0.10868083  1
  Tm  Tm6  1  0.75000000  0.56567674  0.60868083  1
  Tm  Tm7  1  0.75000000  0.06567674  0.89131917  1
  Tm  Tm8  1  0.25000000  0.42148262  0.89869881  1
  Tm  Tm9  1  0.25000000  0.92148262  0.60130119  1
  Tm  Tm10  1  0.75000000  0.57851738  0.10130119  1
  Tm  Tm11  1  0.75000000  0.07851738  0.39869881  1
  S  S12  1  0.25000000  0.20703737  0.84133014  1
  S  S13  1  0.25000000  0.70703737  0.65866986  1
  S  S14  1  0.75000000  0.79296263  0.15866986  1
  S  S15  1  0.75000000  0.29296263  0.34133014  1
  S  S16  1  0.25000000  0.12162436  0.52260249  1
  S  S17  1  0.25000000  0.62162436  0.97739751  1
  S  S18  1  0.75000000  0.87837564  0.47739751  1
  S  S19  1  0.75000000  0.37837564  0.02260249  1
  S  S20  1  0.25000000  0.02287821  0.28314242  1
  S  S21  1  0.25000000  0.52287821  0.21685758  1
  S  S22  1  0.75000000  0.97712179  0.71685758  1
  S  S23  1  0.75000000  0.47712179  0.78314242  1
  S  S24  1  0.25000000  0.41957155  0.57594013  1
  S  S25  1  0.25000000  0.91957155  0.92405987  1
  S  S26  1  0.75000000  0.58042845  0.42405987  1
  S  S27  1  0.75000000  0.08042845  0.07594013  1
