# generated using pymatgen
data_Cs2NiAs2
_symmetry_space_group_name_H-M   'P 1'
_cell_length_a   8.18281799
_cell_length_b   8.18281799
_cell_length_c   6.12369971
_cell_angle_alpha   90.00000000
_cell_angle_beta   90.00000000
_cell_angle_gamma   127.64074210
_symmetry_Int_Tables_number   1
_chemical_formula_structural   Cs2NiAs2
_chemical_formula_sum   'Cs4 Ni2 As4'
_cell_volume   324.68755950
_cell_formula_units_Z   2
loop_
 _symmetry_equiv_pos_site_id
 _symmetry_equiv_pos_as_xyz
  1  'x, y, z'
loop_
 _atom_site_type_symbol
 _atom_site_label
 _atom_site_symmetry_multiplicity
 _atom_site_fract_x
 _atom_site_fract_y
 _atom_site_fract_z
 _atom_site_occupancy
  Cs  Cs0  1  0.79159358  0.20840642  0.25000000  1
  Cs  Cs1  1  0.20840642  0.79159358  0.75000000  1
  Cs  Cs2  1  0.40604586  0.59395414  0.25000000  1
  Cs  Cs3  1  0.59395414  0.40604586  0.75000000  1
  Ni  Ni4  1  0.00000000  0.00000000  -0.00000000  1
  Ni  Ni5  1  0.00000000  0.00000000  0.50000000  1
  As  As6  1  0.92243311  0.74333749  0.25000000  1
  As  As7  1  0.07756689  0.25666251  0.75000000  1
  As  As8  1  0.25666251  0.07756689  0.25000000  1
  As  As9  1  0.74333749  0.92243311  0.75000000  1
