# generated using pymatgen
data_BaAl4Se7
_symmetry_space_group_name_H-M   'P 1'
_cell_length_a   6.57916280
_cell_length_b   7.68530168
_cell_length_c   14.81562467
_cell_angle_alpha   58.93759710
_cell_angle_beta   90.00000000
_cell_angle_gamma   90.00000000
_symmetry_Int_Tables_number   1
_chemical_formula_structural   BaAl4Se7
_chemical_formula_sum   'Ba2 Al8 Se14'
_cell_volume   641.70076118
_cell_formula_units_Z   2
loop_
 _symmetry_equiv_pos_site_id
 _symmetry_equiv_pos_as_xyz
  1  'x, y, z'
loop_
 _atom_site_type_symbol
 _atom_site_label
 _atom_site_symmetry_multiplicity
 _atom_site_fract_x
 _atom_site_fract_y
 _atom_site_fract_z
 _atom_site_occupancy
  Ba  Ba0  1  0.64248253  0.43459533  0.54607866  1
  Ba  Ba1  1  0.35751747  0.43459533  0.04607866  1
  Al  Al2  1  0.83989648  0.99159698  0.24139536  1
  Al  Al3  1  0.16010352  0.99159698  0.74139536  1
  Al  Al4  1  0.98602466  0.99812586  0.50260770  1
  Al  Al5  1  0.01397534  0.99812586  0.00260770  1
  Al  Al6  1  0.84697894  0.50844748  0.22822879  1
  Al  Al7  1  0.15302106  0.50844748  0.72822879  1
  Al  Al8  1  0.63360041  0.76399510  0.72475673  1
  Al  Al9  1  0.36639959  0.76399510  0.22475673  1
  Se  Se10  1  0.85481740  0.20898941  0.05680264  1
  Se  Se11  1  0.14518260  0.20898941  0.55680264  1
  Se  Se12  1  0.63694044  0.99138028  0.54119777  1
  Se  Se13  1  0.36305956  0.99138028  0.04119777  1
  Se  Se14  1  0.89686612  0.67257257  0.04551476  1
  Se  Se15  1  0.10313388  0.67257257  0.54551476  1
  Se  Se16  1  0.97633170  0.67482470  0.80647540  1
  Se  Se17  1  0.02366830  0.67482470  0.30647540  1
  Se  Se18  1  0.48462977  0.90407888  0.81905846  1
  Se  Se19  1  0.51537023  0.90407888  0.31905846  1
  Se  Se20  1  0.49703341  0.43965137  0.77757459  1
  Se  Se21  1  0.50296659  0.43965137  0.27757459  1
  Se  Se22  1  0.97918091  0.18044205  0.80802515  1
  Se  Se23  1  0.02081909  0.18044205  0.30802515  1
