# generated using pymatgen
data_Cs2WO4
_symmetry_space_group_name_H-M   'P 1'
_cell_length_a   6.57682389
_cell_length_b   8.55938432
_cell_length_c   11.66288926
_cell_angle_alpha   90.00000000
_cell_angle_beta   90.00000000
_cell_angle_gamma   90.00000000
_symmetry_Int_Tables_number   1
_chemical_formula_structural   Cs2WO4
_chemical_formula_sum   'Cs8 W4 O16'
_cell_volume   656.54559458
_cell_formula_units_Z   4
loop_
 _symmetry_equiv_pos_site_id
 _symmetry_equiv_pos_as_xyz
  1  'x, y, z'
loop_
 _atom_site_type_symbol
 _atom_site_label
 _atom_site_symmetry_multiplicity
 _atom_site_fract_x
 _atom_site_fract_y
 _atom_site_fract_z
 _atom_site_occupancy
  Cs  Cs0  1  0.75000000  0.50955372  0.79275294  1
  Cs  Cs1  1  0.75000000  0.00955372  0.70724706  1
  Cs  Cs2  1  0.25000000  0.49044628  0.20724706  1
  Cs  Cs3  1  0.25000000  0.99044628  0.29275294  1
  Cs  Cs4  1  0.75000000  0.82979565  0.08268214  1
  Cs  Cs5  1  0.75000000  0.32979565  0.41731786  1
  Cs  Cs6  1  0.25000000  0.17020435  0.91731786  1
  Cs  Cs7  1  0.25000000  0.67020435  0.58268214  1
  W  W8  1  0.75000000  0.27508377  0.07933403  1
  W  W9  1  0.75000000  0.77508377  0.42066597  1
  W  W10  1  0.25000000  0.72491623  0.92066597  1
  W  W11  1  0.25000000  0.22491623  0.57933403  1
  O  O12  1  0.75000000  0.48391970  0.08120712  1
  O  O13  1  0.75000000  0.98391970  0.41879288  1
  O  O14  1  0.25000000  0.51608030  0.91879288  1
  O  O15  1  0.25000000  0.01608030  0.58120712  1
  O  O16  1  0.75000000  0.20464058  0.93438639  1
  O  O17  1  0.75000000  0.70464058  0.56561361  1
  O  O18  1  0.25000000  0.79535942  0.06561361  1
  O  O19  1  0.25000000  0.29535942  0.43438639  1
  O  O20  1  0.97308897  0.20295075  0.14990456  1
  O  O21  1  0.52691103  0.70295075  0.35009544  1
  O  O22  1  0.47308897  0.79704925  0.85009544  1
  O  O23  1  0.02691103  0.29704925  0.64990456  1
  O  O24  1  0.02691103  0.79704925  0.85009544  1
  O  O25  1  0.47308897  0.29704925  0.64990456  1
  O  O26  1  0.52691103  0.20295075  0.14990456  1
  O  O27  1  0.97308897  0.70295075  0.35009544  1
