# generated using pymatgen
data_Ba2CaTi2CuF14
_symmetry_space_group_name_H-M   'P 1'
_cell_length_a   5.57239068
_cell_length_b   7.70683804
_cell_length_c   15.25835814
_cell_angle_alpha   93.16626964
_cell_angle_beta   90.06122160
_cell_angle_gamma   111.25474358
_symmetry_Int_Tables_number   1
_chemical_formula_structural   Ba2CaTi2CuF14
_chemical_formula_sum   'Ba4 Ca2 Ti4 Cu2 F28'
_cell_volume   609.61567875
_cell_formula_units_Z   2
loop_
 _symmetry_equiv_pos_site_id
 _symmetry_equiv_pos_as_xyz
  1  'x, y, z'
loop_
 _atom_site_type_symbol
 _atom_site_label
 _atom_site_symmetry_multiplicity
 _atom_site_fract_x
 _atom_site_fract_y
 _atom_site_fract_z
 _atom_site_occupancy
  Ba  Ba0  1  0.09372400  0.35768000  0.62304100  1
  Ba  Ba1  1  0.26312000  0.35904600  0.12275000  1
  Ba  Ba2  1  0.90319200  0.64147600  0.37692700  1
  Ba  Ba3  1  0.73716900  0.64203200  0.87745400  1
  Ca  Ca4  1  0.42755800  0.99915200  0.74982100  1
  Ca  Ca5  1  0.57169200  0.00089300  0.24983100  1
  Ti  Ti6  1  0.10082600  0.24873100  0.87623800  1
  Ti  Ti7  1  0.90012700  0.75123500  0.12363200  1
  Ti  Ti8  1  0.14661100  0.24884200  0.37644800  1
  Ti  Ti9  1  0.85105300  0.75035800  0.62389000  1
  Cu  Cu10  1  0.50155800  0.00063000  0.00022400  1
  Cu  Cu11  1  0.49680400  0.99680900  0.50009600  1
  F  F12  1  0.91440400  0.99420600  0.34397700  1
  F  F13  1  0.89261900  0.30251400  0.45088500  1
  F  F14  1  0.10616000  0.69809300  0.54933400  1
  F  F15  1  0.63968400  0.49103400  0.60444800  1
  F  F16  1  0.61941300  0.09892700  0.61887600  1
  F  F17  1  0.52150700  0.89996800  0.88084900  1
  F  F18  1  0.40970700  0.30403700  0.95076200  1
  F  F19  1  0.92133100  0.00525600  0.15677900  1
  F  F20  1  0.35137000  0.31937500  0.77931400  1
  F  F21  1  0.35970200  0.50738200  0.39598200  1
  F  F22  1  0.82977800  0.23413600  0.79115200  1
  F  F23  1  0.14350400  0.50666000  0.89684200  1
  F  F24  1  0.40348200  0.23549000  0.29163700  1
  F  F25  1  0.17313500  0.76473700  0.20769700  1
  F  F26  1  0.48033600  0.10211200  0.11916400  1
  F  F27  1  0.65023500  0.68037600  0.22085800  1
  F  F28  1  0.08489900  0.81628200  0.01962200  1
  F  F29  1  0.08288700  0.00571600  0.65612000  1
  F  F30  1  0.91714800  0.18335300  0.98048500  1
  F  F31  1  0.72837500  0.81217300  0.51953200  1
  F  F32  1  0.59126900  0.69865100  0.04937300  1
  F  F33  1  0.59271000  0.76368900  0.70812600  1
  F  F34  1  0.96317500  0.31671400  0.27929000  1
  F  F35  1  0.26765000  0.18466700  0.48038000  1
  F  F36  1  0.37782200  0.89872000  0.38054900  1
  F  F37  1  0.08042100  0.99445400  0.84364600  1
  F  F38  1  0.03399500  0.68284200  0.72110700  1
  F  F39  1  0.85428000  0.49282300  0.10301000  1
