# generated using pymatgen
data_Na3FeC6O17
_symmetry_space_group_name_H-M   'P 1'
_cell_length_a   10.77594864
_cell_length_b   10.77594864
_cell_length_c   14.21041067
_cell_angle_alpha   79.72449787
_cell_angle_beta   79.72449787
_cell_angle_gamma   75.02557920
_symmetry_Int_Tables_number   1
_chemical_formula_structural   Na3FeC6O17
_chemical_formula_sum   'Na12 Fe4 C24 O68'
_cell_volume   1553.26021976
_cell_formula_units_Z   4
loop_
 _symmetry_equiv_pos_site_id
 _symmetry_equiv_pos_as_xyz
  1  'x, y, z'
loop_
 _atom_site_type_symbol
 _atom_site_label
 _atom_site_symmetry_multiplicity
 _atom_site_fract_x
 _atom_site_fract_y
 _atom_site_fract_z
 _atom_site_occupancy
  Na  Na0  1  0.26875097  0.73124903  0.25000000  1
  Na  Na1  1  0.73124903  0.26875097  0.75000000  1
  Na  Na2  1  0.99833874  0.00166126  0.25000000  1
  Na  Na3  1  0.00166126  0.99833874  0.75000000  1
  Na  Na4  1  0.22739840  0.03738359  0.97309453  1
  Na  Na5  1  0.96261641  0.77260160  0.52690547  1
  Na  Na6  1  0.77260160  0.96261641  0.02690547  1
  Na  Na7  1  0.03738359  0.22739840  0.47309453  1
  Na  Na8  1  0.41599922  0.67648190  0.99750153  1
  Na  Na9  1  0.32351810  0.58400078  0.50249847  1
  Na  Na10  1  0.58400078  0.32351810  0.00249847  1
  Na  Na11  1  0.67648190  0.41599922  0.49750153  1
  Fe  Fe12  1  0.55863489  0.81850555  0.75626007  1
  Fe  Fe13  1  0.18149445  0.44136511  0.74373993  1
  Fe  Fe14  1  0.44136511  0.18149445  0.24373993  1
  Fe  Fe15  1  0.81850555  0.55863489  0.25626007  1
  C  C16  1  0.72336212  0.95163792  0.81337930  1
  C  C17  1  0.04836208  0.27663788  0.68662070  1
  C  C18  1  0.27663788  0.04836208  0.18662070  1
  C  C19  1  0.95163792  0.72336212  0.31337930  1
  C  C20  1  0.69967971  0.01036340  0.70663670  1
  C  C21  1  0.98963660  0.30032029  0.79336330  1
  C  C22  1  0.30032029  0.98963660  0.29336330  1
  C  C23  1  0.01036340  0.69967971  0.20663670  1
  C  C24  1  0.60669523  0.55483484  0.81369284  1
  C  C25  1  0.44516516  0.39330477  0.68630716  1
  C  C26  1  0.39330477  0.44516516  0.18630716  1
  C  C27  1  0.55483484  0.60669523  0.31369284  1
  C  C28  1  0.70476293  0.57708254  0.72183752  1
  C  C29  1  0.42291746  0.29523707  0.77816248  1
  C  C30  1  0.29523707  0.42291746  0.27816248  1
  C  C31  1  0.57708254  0.70476293  0.22183752  1
  C  C32  1  0.29510575  0.95883607  0.78227677  1
  C  C33  1  0.04116393  0.70489425  0.71772323  1
  C  C34  1  0.70489425  0.04116393  0.21772323  1
  C  C35  1  0.95883607  0.29510575  0.28227677  1
  C  C36  1  0.31087956  0.89192677  0.68910814  1
  C  C37  1  0.10807323  0.68912044  0.81089186  1
  C  C38  1  0.68912044  0.10807323  0.31089186  1
  C  C39  1  0.89192677  0.31087956  0.18910814  1
  O  O40  1  0.49184105  0.94427947  0.00594515  1
  O  O41  1  0.05572053  0.50815895  0.49405485  1
  O  O42  1  0.50815895  0.05572053  0.99405485  1
  O  O43  1  0.94427947  0.49184105  0.50594515  1
  O  O44  1  0.20738405  0.80805199  0.98253689  1
  O  O45  1  0.19194801  0.79261595  0.51746311  1
  O  O46  1  0.79261595  0.19194801  0.01746311  1
  O  O47  1  0.80805199  0.20738405  0.48253689  1
  O  O48  1  0.31786535  0.43439195  0.99121185  1
  O  O49  1  0.56560805  0.68213465  0.50878815  1
  O  O50  1  0.68213465  0.56560805  0.00878815  1
  O  O51  1  0.43439195  0.31786535  0.49121185  1
  O  O52  1  0.18818181  0.30081248  0.01164854  1
  O  O53  1  0.69918752  0.81181819  0.48835146  1
  O  O54  1  0.81181819  0.69918752  0.98835146  1
  O  O55  1  0.30081248  0.18818181  0.51164854  1
  O  O56  1  0.20266769  0.41276206  0.01862375  1
  O  O57  1  0.58723794  0.79733231  0.48137625  1
  O  O58  1  0.79733231  0.58723794  0.98137625  1
  O  O59  1  0.41276206  0.20266769  0.51862375  1
  O  O60  1  0.67217264  0.85597915  0.84818827  1
  O  O61  1  0.14402085  0.32782736  0.65181173  1
  O  O62  1  0.32782736  0.14402085  0.15181173  1
  O  O63  1  0.85597915  0.67217264  0.34818827  1
  O  O64  1  0.61826880  0.96678384  0.67355724  1
  O  O65  1  0.03321616  0.38173120  0.82644276  1
  O  O66  1  0.38173120  0.03321616  0.32644276  1
  O  O67  1  0.96678384  0.61826880  0.17355724  1
  O  O68  1  0.21299900  0.99858943  0.14452656  1
  O  O69  1  0.00141057  0.78700100  0.35547344  1
  O  O70  1  0.78700100  0.00141057  0.85547344  1
  O  O71  1  0.99858943  0.21299900  0.64452656  1
  O  O72  1  0.24072482  0.90697172  0.33769212  1
  O  O73  1  0.09302828  0.75927518  0.16230788  1
  O  O74  1  0.75927518  0.09302828  0.66230788  1
  O  O75  1  0.90697172  0.24072482  0.83769212  1
  O  O76  1  0.53041913  0.65971732  0.84283318  1
  O  O77  1  0.34028268  0.46958087  0.65716682  1
  O  O78  1  0.46958087  0.34028268  0.15716682  1
  O  O79  1  0.65971732  0.53041913  0.34283318  1
  O  O80  1  0.70204091  0.69832543  0.68976598  1
  O  O81  1  0.30167457  0.29795909  0.81023402  1
  O  O82  1  0.29795909  0.30167457  0.31023402  1
  O  O83  1  0.69832543  0.70204091  0.18976598  1
  O  O84  1  0.39419269  0.55652820  0.14511686  1
  O  O85  1  0.44347180  0.60580731  0.35488314  1
  O  O86  1  0.60580731  0.44347180  0.85488314  1
  O  O87  1  0.55652820  0.39419269  0.64511686  1
  O  O88  1  0.22184435  0.51630039  0.31392303  1
  O  O89  1  0.48369961  0.77815565  0.18607697  1
  O  O90  1  0.77815565  0.48369961  0.68607697  1
  O  O91  1  0.51630039  0.22184435  0.81392303  1
  O  O92  1  0.39804156  0.92822832  0.82453014  1
  O  O93  1  0.07177168  0.60195844  0.67546986  1
  O  O94  1  0.60195844  0.07177168  0.17546986  1
  O  O95  1  0.92822832  0.39804156  0.32453014  1
  O  O96  1  0.42304353  0.81975499  0.66849155  1
  O  O97  1  0.18024501  0.57695647  0.83150845  1
  O  O98  1  0.57695647  0.18024501  0.33150845  1
  O  O99  1  0.81975499  0.42304353  0.16849155  1
  O  O100  1  0.80928988  0.96933000  0.18746573  1
  O  O101  1  0.03067000  0.19071012  0.31253427  1
  O  O102  1  0.19071012  0.03067000  0.81253427  1
  O  O103  1  0.96933000  0.80928988  0.68746573  1
  O  O104  1  0.78697603  0.08716187  0.35262590  1
  O  O105  1  0.91283813  0.21302397  0.14737410  1
  O  O106  1  0.21302397  0.91283813  0.64737410  1
  O  O107  1  0.08716187  0.78697603  0.85262590  1
