# generated using pymatgen
data_Rb2ZnBr4
_symmetry_space_group_name_H-M   'P 1'
_cell_length_a   7.63822416
_cell_length_b   9.74048118
_cell_length_c   13.43397976
_cell_angle_alpha   90.00000000
_cell_angle_beta   90.00000000
_cell_angle_gamma   90.00000000
_symmetry_Int_Tables_number   1
_chemical_formula_structural   Rb2ZnBr4
_chemical_formula_sum   'Rb8 Zn4 Br16'
_cell_volume   999.48780772
_cell_formula_units_Z   4
loop_
 _symmetry_equiv_pos_site_id
 _symmetry_equiv_pos_as_xyz
  1  'x, y, z'
loop_
 _atom_site_type_symbol
 _atom_site_label
 _atom_site_symmetry_multiplicity
 _atom_site_fract_x
 _atom_site_fract_y
 _atom_site_fract_z
 _atom_site_occupancy
  Rb  Rb0  1  0.25576838  0.01684033  0.17470461  1
  Rb  Rb1  1  0.75576838  0.98315967  0.82529539  1
  Rb  Rb2  1  0.75576838  0.48315967  0.67470461  1
  Rb  Rb3  1  0.25576838  0.51684033  0.32529539  1
  Rb  Rb4  1  0.25686057  0.37824040  0.91594075  1
  Rb  Rb5  1  0.75686057  0.62175960  0.08405925  1
  Rb  Rb6  1  0.75686057  0.12175960  0.41594075  1
  Rb  Rb7  1  0.25686057  0.87824040  0.58405925  1
  Zn  Zn8  1  0.24918037  0.77676086  0.92222554  1
  Zn  Zn9  1  0.74918037  0.22323914  0.07777446  1
  Zn  Zn10  1  0.74918037  0.72323914  0.42222554  1
  Zn  Zn11  1  0.24918037  0.27676086  0.57777446  1
  Br  Br12  1  0.23618583  0.02195850  0.91521040  1
  Br  Br13  1  0.73618583  0.97804150  0.08478960  1
  Br  Br14  1  0.73618583  0.47804150  0.41521040  1
  Br  Br15  1  0.23618583  0.52195850  0.58478960  1
  Br  Br16  1  0.26597245  0.68303491  0.08893492  1
  Br  Br17  1  0.76597245  0.31696509  0.91106508  1
  Br  Br18  1  0.76597245  0.81696509  0.58893492  1
  Br  Br19  1  0.26597245  0.18303491  0.41106508  1
  Br  Br20  1  0.49660042  0.68721535  0.83355579  1
  Br  Br21  1  -0.00339958  0.31278465  0.16644421  1
  Br  Br22  1  -0.00339958  0.81278465  0.33355579  1
  Br  Br23  1  0.49660042  0.18721535  0.66644421  1
  Br  Br24  1  0.98923298  0.67680456  0.85137751  1
  Br  Br25  1  0.48923298  0.32319544  0.14862249  1
  Br  Br26  1  0.48923298  0.82319544  0.35137751  1
  Br  Br27  1  0.98923298  0.17680456  0.64862249  1
