# generated using pymatgen
data_MgBi4(PO6)2
_symmetry_space_group_name_H-M   'P 1'
_cell_length_a   5.35748458
_cell_length_b   16.85841307
_cell_length_c   23.67385623
_cell_angle_alpha   90.00000000
_cell_angle_beta   90.00000000
_cell_angle_gamma   90.00000000
_symmetry_Int_Tables_number   1
_chemical_formula_structural   MgBi4(PO6)2
_chemical_formula_sum   'Mg8 Bi32 P16 O96'
_cell_volume   2138.19163615
_cell_formula_units_Z   8
loop_
 _symmetry_equiv_pos_site_id
 _symmetry_equiv_pos_as_xyz
  1  'x, y, z'
loop_
 _atom_site_type_symbol
 _atom_site_label
 _atom_site_symmetry_multiplicity
 _atom_site_fract_x
 _atom_site_fract_y
 _atom_site_fract_z
 _atom_site_occupancy
  Mg  Mg0  1  0.88686349  0.29367488  0.50701096  1
  Mg  Mg1  1  0.61313651  0.79367488  0.49298904  1
  Mg  Mg2  1  0.38686349  0.70632512  0.99298904  1
  Mg  Mg3  1  0.11313651  0.20632512  0.00701096  1
  Mg  Mg4  1  0.11313651  0.70632512  0.49298904  1
  Mg  Mg5  1  0.38686349  0.20632512  0.50701096  1
  Mg  Mg6  1  0.61313651  0.29367488  0.00701096  1
  Mg  Mg7  1  0.88686349  0.79367488  0.99298904  1
  Bi  Bi8  1  0.33327871  0.32830246  0.80149682  1
  Bi  Bi9  1  0.16672129  0.82830246  0.19850318  1
  Bi  Bi10  1  0.83327871  0.67169754  0.69850318  1
  Bi  Bi11  1  0.66672129  0.17169754  0.30149682  1
  Bi  Bi12  1  0.66672129  0.67169754  0.19850318  1
  Bi  Bi13  1  0.83327871  0.17169754  0.80149682  1
  Bi  Bi14  1  0.16672129  0.32830246  0.30149682  1
  Bi  Bi15  1  0.33327871  0.82830246  0.69850318  1
  Bi  Bi16  1  0.82531681  0.34179057  0.69462852  1
  Bi  Bi17  1  0.67468319  0.84179057  0.30537148  1
  Bi  Bi18  1  0.32531681  0.65820943  0.80537148  1
  Bi  Bi19  1  0.17468319  0.15820943  0.19462852  1
  Bi  Bi20  1  0.17468319  0.65820943  0.30537148  1
  Bi  Bi21  1  0.32531681  0.15820943  0.69462852  1
  Bi  Bi22  1  0.67468319  0.34179057  0.19462852  1
  Bi  Bi23  1  0.82531681  0.84179057  0.80537148  1
  Bi  Bi24  1  0.29905722  0.49423804  0.69348800  1
  Bi  Bi25  1  0.20094278  0.99423804  0.30651200  1
  Bi  Bi26  1  0.79905722  0.50576196  0.80651200  1
  Bi  Bi27  1  0.70094278  0.00576196  0.19348800  1
  Bi  Bi28  1  0.70094278  0.50576196  0.30651200  1
  Bi  Bi29  1  0.79905722  0.00576196  0.69348800  1
  Bi  Bi30  1  0.20094278  0.49423804  0.19348800  1
  Bi  Bi31  1  0.29905722  0.99423804  0.80651200  1
  Bi  Bi32  1  0.85173359  0.50640897  0.56803784  1
  Bi  Bi33  1  0.64826641  0.00640897  0.43196216  1
  Bi  Bi34  1  0.35173359  0.49359103  0.93196216  1
  Bi  Bi35  1  0.14826641  0.99359103  0.06803784  1
  Bi  Bi36  1  0.14826641  0.49359103  0.43196216  1
  Bi  Bi37  1  0.35173359  0.99359103  0.56803784  1
  Bi  Bi38  1  0.64826641  0.50640897  0.06803784  1
  Bi  Bi39  1  0.85173359  0.00640897  0.93196216  1
  P  P40  1  0.34577484  0.65546081  0.58969547  1
  P  P41  1  0.15422516  0.15546081  0.41030453  1
  P  P42  1  0.84577484  0.34453919  0.91030453  1
  P  P43  1  0.65422516  0.84453919  0.08969547  1
  P  P44  1  0.65422516  0.34453919  0.41030453  1
  P  P45  1  0.84577484  0.84453919  0.58969547  1
  P  P46  1  0.15422516  0.65546081  0.08969547  1
  P  P47  1  0.34577484  0.15546081  0.91030453  1
  P  P48  1  0.37718202  0.36840255  0.57854507  1
  P  P49  1  0.12281798  0.86840255  0.42145493  1
  P  P50  1  0.87718202  0.63159745  0.92145493  1
  P  P51  1  0.62281798  0.13159745  0.07854507  1
  P  P52  1  0.62281798  0.63159745  0.42145493  1
  P  P53  1  0.87718202  0.13159745  0.57854507  1
  P  P54  1  0.12281798  0.36840255  0.07854507  1
  P  P55  1  0.37718202  0.86840255  0.92145493  1
  O  O56  1  0.08873955  0.41206227  0.74821350  1
  O  O57  1  0.41126045  0.91206227  0.25178650  1
  O  O58  1  0.58873955  0.58793773  0.75178650  1
  O  O59  1  0.91126045  0.08793773  0.24821350  1
  O  O60  1  0.91126045  0.58793773  0.25178650  1
  O  O61  1  0.58873955  0.08793773  0.74821350  1
  O  O62  1  0.41126045  0.41206227  0.24821350  1
  O  O63  1  0.08873955  0.91206227  0.75178650  1
  O  O64  1  0.58660253  0.41513499  0.75062614  1
  O  O65  1  0.91339747  0.91513499  0.24937386  1
  O  O66  1  0.08660253  0.58486501  0.74937386  1
  O  O67  1  0.41339747  0.08486501  0.25062614  1
  O  O68  1  0.41339747  0.58486501  0.24937386  1
  O  O69  1  0.08660253  0.08486501  0.75062614  1
  O  O70  1  0.91339747  0.41513499  0.25062614  1
  O  O71  1  0.58660253  0.91513499  0.74937386  1
  O  O72  1  0.57163286  0.25055901  0.74631005  1
  O  O73  1  0.92836714  0.75055901  0.25368995  1
  O  O74  1  0.07163286  0.74944099  0.75368995  1
  O  O75  1  0.42836714  0.24944099  0.24631005  1
  O  O76  1  0.42836714  0.74944099  0.25368995  1
  O  O77  1  0.07163286  0.24944099  0.74631005  1
  O  O78  1  0.92836714  0.25055901  0.24631005  1
  O  O79  1  0.57163286  0.75055901  0.75368995  1
  O  O80  1  0.89850970  0.48665598  0.65460935  1
  O  O81  1  0.60149030  0.98665598  0.34539065  1
  O  O82  1  0.39850970  0.51334402  0.84539065  1
  O  O83  1  0.10149030  0.01334402  0.15460935  1
  O  O84  1  0.10149030  0.51334402  0.34539065  1
  O  O85  1  0.39850970  0.01334402  0.65460935  1
  O  O86  1  0.60149030  0.48665598  0.15460935  1
  O  O87  1  0.89850970  0.98665598  0.84539065  1
  O  O88  1  0.66172006  0.36642862  0.56236079  1
  O  O89  1  0.83827994  0.86642862  0.43763921  1
  O  O90  1  0.16172006  0.63357138  0.93763921  1
  O  O91  1  0.33827994  0.13357138  0.06236079  1
  O  O92  1  0.33827994  0.63357138  0.43763921  1
  O  O93  1  0.16172006  0.13357138  0.56236079  1
  O  O94  1  0.83827994  0.36642862  0.06236079  1
  O  O95  1  0.66172006  0.86642862  0.93763921  1
  O  O96  1  0.11121297  0.61559158  0.56023485  1
  O  O97  1  0.38878703  0.11559158  0.43976515  1
  O  O98  1  0.61121297  0.38440842  0.93976515  1
  O  O99  1  0.88878703  0.88440842  0.06023485  1
  O  O100  1  0.88878703  0.38440842  0.43976515  1
  O  O101  1  0.61121297  0.88440842  0.56023485  1
  O  O102  1  0.38878703  0.61559158  0.06023485  1
  O  O103  1  0.11121297  0.11559158  0.93976515  1
  O  O104  1  0.27332734  0.68730233  0.64906623  1
  O  O105  1  0.22667266  0.18730233  0.35093377  1
  O  O106  1  0.77332734  0.31269767  0.85093377  1
  O  O107  1  0.72667266  0.81269767  0.14906623  1
  O  O108  1  0.72667266  0.31269767  0.35093377  1
  O  O109  1  0.77332734  0.81269767  0.64906623  1
  O  O110  1  0.22667266  0.68730233  0.14906623  1
  O  O111  1  0.27332734  0.18730233  0.85093377  1
  O  O112  1  0.22923509  0.30208582  0.54764431  1
  O  O113  1  0.27076491  0.80208582  0.45235569  1
  O  O114  1  0.72923509  0.69791418  0.95235569  1
  O  O115  1  0.77076491  0.19791418  0.04764431  1
  O  O116  1  0.77076491  0.69791418  0.45235569  1
  O  O117  1  0.72923509  0.19791418  0.54764431  1
  O  O118  1  0.27076491  0.30208582  0.04764431  1
  O  O119  1  0.22923509  0.80208582  0.95235569  1
  O  O120  1  0.35583883  0.35746654  0.64402674  1
  O  O121  1  0.14416117  0.85746654  0.35597326  1
  O  O122  1  0.85583883  0.64253346  0.85597326  1
  O  O123  1  0.64416117  0.14253346  0.14402674  1
  O  O124  1  0.64416117  0.64253346  0.35597326  1
  O  O125  1  0.85583883  0.14253346  0.64402674  1
  O  O126  1  0.14416117  0.35746654  0.14402674  1
  O  O127  1  0.35583883  0.85746654  0.85597326  1
  O  O128  1  0.41633555  0.72005929  0.54717054  1
  O  O129  1  0.08366445  0.22005929  0.45282946  1
  O  O130  1  0.91633555  0.27994071  0.95282946  1
  O  O131  1  0.58366445  0.77994071  0.04717054  1
  O  O132  1  0.58366445  0.27994071  0.45282946  1
  O  O133  1  0.91633555  0.77994071  0.54717054  1
  O  O134  1  0.08366445  0.72005929  0.04717054  1
  O  O135  1  0.41633555  0.22005929  0.95282946  1
  O  O136  1  0.55982700  0.59526764  0.60061215  1
  O  O137  1  0.94017300  0.09526764  0.39938785  1
  O  O138  1  0.05982700  0.40473236  0.89938785  1
  O  O139  1  0.44017300  0.90473236  0.10061215  1
  O  O140  1  0.44017300  0.40473236  0.39938785  1
  O  O141  1  0.05982700  0.90473236  0.60061215  1
  O  O142  1  0.94017300  0.59526764  0.10061215  1
  O  O143  1  0.55982700  0.09526764  0.89938785  1
  O  O144  1  0.26850247  0.45035402  0.56116940  1
  O  O145  1  0.23149753  0.95035402  0.43883060  1
  O  O146  1  0.76850247  0.54964598  0.93883060  1
  O  O147  1  0.73149753  0.04964598  0.06116940  1
  O  O148  1  0.73149753  0.54964598  0.43883060  1
  O  O149  1  0.76850247  0.04964598  0.56116940  1
  O  O150  1  0.23149753  0.45035402  0.06116940  1
  O  O151  1  0.26850247  0.95035402  0.93883060  1
