# generated using pymatgen
data_Ga(PO3)3
_symmetry_space_group_name_H-M   'P 1'
_cell_length_a   11.49012721
_cell_length_b   11.49012721
_cell_length_c   9.31210557
_cell_angle_alpha   70.16552602
_cell_angle_beta   70.16552602
_cell_angle_gamma   111.06797036
_symmetry_Int_Tables_number   1
_chemical_formula_structural   Ga(PO3)3
_chemical_formula_sum   'Ga6 P18 O54'
_cell_volume   918.15988361
_cell_formula_units_Z   6
loop_
 _symmetry_equiv_pos_site_id
 _symmetry_equiv_pos_as_xyz
  1  'x, y, z'
loop_
 _atom_site_type_symbol
 _atom_site_label
 _atom_site_symmetry_multiplicity
 _atom_site_fract_x
 _atom_site_fract_y
 _atom_site_fract_z
 _atom_site_occupancy
  Ga  Ga0  1  0.63930597  0.81717272  0.03547019  1
  Ga  Ga1  1  0.81717272  0.63930597  0.53547019  1
  Ga  Ga2  1  0.30964875  0.15120902  0.03145358  1
  Ga  Ga3  1  0.15120902  0.30964875  0.53145358  1
  Ga  Ga4  1  0.49328043  0.00541781  0.50040863  1
  Ga  Ga5  1  0.00541781  0.49328043  0.00040863  1
  P  P6  1  0.39497371  0.33254419  0.21278763  1
  P  P7  1  0.33254419  0.39497371  0.71278763  1
  P  P8  1  0.61504690  0.56074625  0.36801191  1
  P  P9  1  0.56074625  0.61504690  0.86801191  1
  P  P10  1  0.98287750  0.94690995  0.80660005  1
  P  P11  1  0.94690995  0.98287750  0.30660005  1
  P  P12  1  0.29566321  0.66435653  0.28555512  1
  P  P13  1  0.66435653  0.29566321  0.78555512  1
  P  P14  1  0.74222584  0.01800490  0.18983843  1
  P  P15  1  0.01800490  0.74222584  0.68983843  1
  P  P16  1  0.67803229  0.07539324  0.68720939  1
  P  P17  1  0.07539324  0.67803229  0.18720939  1
  P  P18  1  0.35818321  0.65204907  0.74338164  1
  P  P19  1  0.65204907  0.35818321  0.24338164  1
  P  P20  1  0.23890069  0.96672934  0.84179229  1
  P  P21  1  0.96672934  0.23890069  0.34179229  1
  P  P22  1  0.29998120  0.90945688  0.33467137  1
  P  P23  1  0.90945688  0.29998120  0.83467137  1
  O  O24  1  0.06180785  0.68293771  0.81607390  1
  O  O25  1  0.68293771  0.06180785  0.31607390  1
  O  O26  1  0.05739667  0.09555901  0.64993727  1
  O  O27  1  0.09555901  0.05739667  0.14993727  1
  O  O28  1  0.09540920  0.31606186  0.35331475  1
  O  O29  1  0.31606186  0.09540920  0.85331475  1
  O  O30  1  0.55584410  0.36703942  0.15589264  1
  O  O31  1  0.36703942  0.55584410  0.65589264  1
  O  O32  1  0.79511309  0.40664578  0.09584852  1
  O  O33  1  0.40664578  0.79511309  0.59584852  1
  O  O34  1  0.16834872  0.62522920  0.24729515  1
  O  O35  1  0.62522920  0.16834872  0.74729515  1
  O  O36  1  0.20196683  0.82298573  -0.00050552  1
  O  O37  1  0.82298573  0.20196683  0.49949448  1
  O  O38  1  0.31230044  0.97438801  0.67066922  1
  O  O39  1  0.97438801  0.31230044  0.17066922  1
  O  O40  1  0.42867100  0.00616118  0.33241692  1
  O  O41  1  0.00616118  0.42867100  0.83241692  1
  O  O42  1  0.43775534  0.75866492  0.11002217  1
  O  O43  1  0.75866492  0.43775534  0.61002217  1
  O  O44  1  0.95941345  0.83570258  0.74016856  1
  O  O45  1  0.83570258  0.95941345  0.24016856  1
  O  O46  1  0.99773801  0.71227630  0.31396695  1
  O  O47  1  0.71227630  0.99773801  0.81396695  1
  O  O48  1  0.47919798  0.67829895  0.79367935  1
  O  O49  1  0.67829895  0.47919798  0.29367935  1
  O  O50  1  0.47338208  0.42686361  0.55567935  1
  O  O51  1  0.42686361  0.47338208  0.05567935  1
  O  O52  1  0.30561586  0.20129327  0.21301429  1
  O  O53  1  0.20129327  0.30561586  0.71301429  1
  O  O54  1  0.33119927  0.32783679  0.38429736  1
  O  O55  1  0.32783679  0.33119927  0.88429736  1
  O  O56  1  0.21386361  0.56986670  0.91140934  1
  O  O57  1  0.56986670  0.21386361  0.41140934  1
  O  O58  1  0.75408521  0.27894029  0.88097785  1
  O  O59  1  0.27894029  0.75408521  0.38097785  1
  O  O60  1  0.98442945  0.56438906  0.16403105  1
  O  O61  1  0.56438906  0.98442945  0.66403105  1
  O  O62  1  0.63580573  0.57364948  0.74946256  1
  O  O63  1  0.57364948  0.63580573  0.24946256  1
  O  O64  1  0.88736229  0.84053544  0.46547460  1
  O  O65  1  0.84053544  0.88736229  0.96547460  1
  O  O66  1  0.52370783  0.26189392  0.92012744  1
  O  O67  1  0.26189392  0.52370783  0.42012744  1
  O  O68  1  0.63383842  0.91058291  0.17584603  1
  O  O69  1  0.91058291  0.63383842  0.67584603  1
  O  O70  1  0.93255558  0.08022016  0.38915615  1
  O  O71  1  0.08022016  0.93255558  0.88915615  1
  O  O72  1  0.97123882  0.29675429  0.66837030  1
  O  O73  1  0.29675429  0.97123882  0.16837030  1
  O  O74  1  0.65172962  0.72169357  0.89903929  1
  O  O75  1  0.72169357  0.65172962  0.39903929  1
  O  O76  1  0.86712562  0.15719719  0.99768927  1
  O  O77  1  0.15719719  0.86712562  0.49768927  1
