# generated using pymatgen
data_LiTe4H4(O3F4)2
_symmetry_space_group_name_H-M   'P 1'
_cell_length_a   5.03149017
_cell_length_b   6.46161516
_cell_length_c   11.60356293
_cell_angle_alpha   92.63328823
_cell_angle_beta   78.91566929
_cell_angle_gamma   67.73448422
_symmetry_Int_Tables_number   1
_chemical_formula_structural   LiTe4H4(O3F4)2
_chemical_formula_sum   'Li1 Te4 H4 O6 F8'
_cell_volume   339.66518823
_cell_formula_units_Z   1
loop_
 _symmetry_equiv_pos_site_id
 _symmetry_equiv_pos_as_xyz
  1  'x, y, z'
loop_
 _atom_site_type_symbol
 _atom_site_label
 _atom_site_symmetry_multiplicity
 _atom_site_fract_x
 _atom_site_fract_y
 _atom_site_fract_z
 _atom_site_occupancy
  Li  Li0  1  0.62207800  0.31669300  0.15748000  1
  Te  Te1  1  0.80796000  0.26104400  0.87469200  1
  Te  Te2  1  0.90513200  0.76803100  0.11541400  1
  Te  Te3  1  0.41510100  0.77255100  0.61184800  1
  Te  Te4  1  0.71675100  0.28243200  0.41467100  1
  H  H5  1  0.22066000  0.29056200  0.72531300  1
  H  H6  1  0.10286800  0.70348300  0.29864600  1
  H  H7  1  0.69314600  0.78018700  0.76301700  1
  H  H8  1  0.13855900  0.18609000  0.23906500  1
  O  O9  1  0.71700400  0.56532900  0.47596900  1
  O  O10  1  0.91422100  0.14315300  0.00866400  1
  O  O11  1  0.61849600  0.66856500  0.73417600  1
  O  O12  1  0.92811200  0.29312300  0.25771400  1
  O  O13  1  0.19066500  0.16167000  0.76008700  1
  O  O14  1  0.95602800  0.83622300  0.27346800  1
  F  F15  1  0.38575900  0.47286300  0.33067800  1
  F  F16  1  0.33153900  0.48222700  0.63170500  1
  F  F17  1  0.51203500  0.05021800  0.18049600  1
  F  F18  1  0.85468800  0.94493700  0.80589600  1
  F  F19  1  0.10748100  0.13217200  0.45343600  1
  F  F20  1  0.66485000  0.94506100  0.57024000  1
  F  F21  1  0.33237400  0.53012100  0.08598800  1
  F  F22  1  0.91049800  0.52785000  0.92181200  1
