# generated using pymatgen
data_K2TiZnO4
_symmetry_space_group_name_H-M   'P 1'
_cell_length_a   5.62003571
_cell_length_b   11.28343457
_cell_length_c   16.00863781
_cell_angle_alpha   90.00000000
_cell_angle_beta   90.00000000
_cell_angle_gamma   90.00000000
_symmetry_Int_Tables_number   1
_chemical_formula_structural   K2TiZnO4
_chemical_formula_sum   'K16 Ti8 Zn8 O32'
_cell_volume   1015.16063552
_cell_formula_units_Z   8
loop_
 _symmetry_equiv_pos_site_id
 _symmetry_equiv_pos_as_xyz
  1  'x, y, z'
loop_
 _atom_site_type_symbol
 _atom_site_label
 _atom_site_symmetry_multiplicity
 _atom_site_fract_x
 _atom_site_fract_y
 _atom_site_fract_z
 _atom_site_occupancy
  K  K0  1  0.04404088  0.23139043  0.86865444  1
  K  K1  1  0.95595912  0.76860957  0.36865444  1
  K  K2  1  0.95595912  0.73139043  0.86865444  1
  K  K3  1  0.04404088  0.26860957  0.36865444  1
  K  K4  1  0.01240811  0.48720206  0.74353639  1
  K  K5  1  0.98759189  0.51279794  0.24353639  1
  K  K6  1  0.98759189  0.98720206  0.74353639  1
  K  K7  1  0.01240811  0.01279794  0.24353639  1
  K  K8  1  0.54358093  0.26632952  0.50295159  1
  K  K9  1  0.45641907  0.73367048  0.00295159  1
  K  K10  1  0.45641907  0.76632952  0.50295159  1
  K  K11  1  0.54358093  0.23367048  0.00295159  1
  K  K12  1  0.50717644  0.01586065  0.62499873  1
  K  K13  1  0.49282356  0.98413935  0.12499873  1
  K  K14  1  0.49282356  0.51586065  0.62499873  1
  K  K15  1  0.50717644  0.48413935  0.12499873  1
  Ti  Ti16  1  0.51812677  0.48951716  0.87466575  1
  Ti  Ti17  1  0.48187323  0.51048284  0.37466575  1
  Ti  Ti18  1  0.48187323  0.98951716  0.87466575  1
  Ti  Ti19  1  0.51812677  0.01048284  0.37466575  1
  Ti  Ti20  1  0.02681636  0.26555305  0.61911172  1
  Ti  Ti21  1  0.97318364  0.73444695  0.11911172  1
  Ti  Ti22  1  0.97318364  0.76555305  0.61911172  1
  Ti  Ti23  1  0.02681636  0.23444695  0.11911172  1
  Zn  Zn24  1  0.01641914  0.01069969  0.49450201  1
  Zn  Zn25  1  0.98358086  0.98930031  0.99450201  1
  Zn  Zn26  1  0.98358086  0.51069969  0.49450201  1
  Zn  Zn27  1  0.01641914  0.48930031  0.99450201  1
  Zn  Zn28  1  0.52879704  0.23634223  0.75066655  1
  Zn  Zn29  1  0.47120296  0.76365777  0.25066655  1
  Zn  Zn30  1  0.47120296  0.73634223  0.75066655  1
  Zn  Zn31  1  0.52879704  0.26365777  0.25066655  1
  O  O32  1  0.58339664  0.33486858  0.84803621  1
  O  O33  1  0.41660336  0.66513142  0.34803621  1
  O  O34  1  0.41660336  0.83486858  0.84803621  1
  O  O35  1  0.58339664  0.16513142  0.34803621  1
  O  O36  1  0.30350528  0.30558642  0.67180511  1
  O  O37  1  0.69649472  0.69441358  0.17180511  1
  O  O38  1  0.69649472  0.80558642  0.67180511  1
  O  O39  1  0.30350528  0.19441358  0.17180511  1
  O  O40  1  0.11309463  0.59729043  0.08447085  1
  O  O41  1  0.88690537  0.40270957  0.58447085  1
  O  O42  1  0.88690537  0.09729043  0.08447085  1
  O  O43  1  0.11309463  0.90270957  0.58447085  1
  O  O44  1  0.20236882  0.51707087  0.89308536  1
  O  O45  1  0.79763118  0.48292913  0.39308536  1
  O  O46  1  0.79763118  0.01707087  0.89308536  1
  O  O47  1  0.20236882  0.98292913  0.39308536  1
  O  O48  1  0.17930086  0.69340758  0.69105419  1
  O  O49  1  0.82069914  0.30659242  0.19105419  1
  O  O50  1  0.82069914  0.19340758  0.69105419  1
  O  O51  1  0.17930086  0.80659242  0.19105419  1
  O  O52  1  0.31761007  0.02521547  0.96988403  1
  O  O53  1  0.68238993  0.97478453  0.46988403  1
  O  O54  1  0.68238993  0.52521547  0.96988403  1
  O  O55  1  0.31761007  0.47478453  0.46988403  1
  O  O56  1  0.08743941  0.17299252  0.52816613  1
  O  O57  1  0.91256059  0.82700748  0.02816613  1
  O  O58  1  0.91256059  0.67299252  0.52816613  1
  O  O59  1  0.08743941  0.32700748  0.02816613  1
  O  O60  1  0.38767770  0.08557129  0.78910995  1
  O  O61  1  0.61232230  0.91442871  0.28910995  1
  O  O62  1  0.61232230  0.58557129  0.78910995  1
  O  O63  1  0.38767770  0.41442871  0.28910995  1
