# generated using pymatgen
data_Ca2MgAs2(H2O5)2
_symmetry_space_group_name_H-M   'P 1'
_cell_length_a   5.63184618
_cell_length_b   5.79878231
_cell_length_c   12.90879838
_cell_angle_alpha   90.00000000
_cell_angle_beta   90.00000000
_cell_angle_gamma   107.68684301
_symmetry_Int_Tables_number   1
_chemical_formula_structural   Ca2MgAs2(H2O5)2
_chemical_formula_sum   'Ca4 Mg2 As4 H8 O20'
_cell_volume   401.64635274
_cell_formula_units_Z   2
loop_
 _symmetry_equiv_pos_site_id
 _symmetry_equiv_pos_as_xyz
  1  'x, y, z'
loop_
 _atom_site_type_symbol
 _atom_site_label
 _atom_site_symmetry_multiplicity
 _atom_site_fract_x
 _atom_site_fract_y
 _atom_site_fract_z
 _atom_site_occupancy
  Ca  Ca0  1  0.23444705  0.56470008  0.12100909  1
  Ca  Ca1  1  0.76555295  0.43529992  0.87899091  1
  Ca  Ca2  1  0.26555295  0.43529992  0.62100909  1
  Ca  Ca3  1  0.73444705  0.56470008  0.37899091  1
  Mg  Mg4  1  0.00000000  0.00000000  -0.00000000  1
  Mg  Mg5  1  0.50000000  0.00000000  0.50000000  1
  As  As6  1  0.06918333  0.21841373  0.37903281  1
  As  As7  1  0.93081667  0.78158627  0.62096719  1
  As  As8  1  0.43081667  0.78158627  0.87903281  1
  As  As9  1  0.56918333  0.21841373  0.12096719  1
  H  H10  1  -0.00027335  0.09967538  0.79252713  1
  H  H11  1  0.00027335  0.90032462  0.20747287  1
  H  H12  1  0.50027335  0.90032462  0.29252713  1
  H  H13  1  0.49972665  0.09967538  0.70747287  1
  H  H14  1  0.29758126  0.70013265  0.35051877  1
  H  H15  1  0.70241874  0.29986735  0.64948123  1
  H  H16  1  0.20241874  0.29986735  0.85051877  1
  H  H17  1  0.79758126  0.70013265  0.14948123  1
  O  O18  1  0.34354487  0.23716735  0.03578396  1
  O  O19  1  0.65645513  0.76283265  0.96421604  1
  O  O20  1  0.15645513  0.76283265  0.53578396  1
  O  O21  1  0.84354487  0.23716735  0.46421604  1
  O  O22  1  0.49617486  0.94456397  0.17661730  1
  O  O23  1  0.50382514  0.05543603  0.82338270  1
  O  O24  1  0.00382514  0.05543603  0.67661730  1
  O  O25  1  0.99617486  0.94456397  0.32338270  1
  O  O26  1  0.34329316  0.27852711  0.44610726  1
  O  O27  1  0.65670684  0.72147289  0.55389274  1
  O  O28  1  0.15670684  0.72147289  0.94610726  1
  O  O29  1  0.84329316  0.27852711  0.05389274  1
  O  O30  1  0.53551270  0.18326924  0.63761327  1
  O  O31  1  0.46448730  0.81673076  0.36238673  1
  O  O32  1  0.96448730  0.81673076  0.13761327  1
  O  O33  1  0.03551270  0.18326924  0.86238673  1
  O  O34  1  0.07889035  0.44770250  0.29479954  1
  O  O35  1  0.92110965  0.55229750  0.70520046  1
  O  O36  1  0.42110965  0.55229750  0.79479954  1
  O  O37  1  0.57889035  0.44770250  0.20520046  1
