# generated using pymatgen
data_MgGa4(WO6)2
_symmetry_space_group_name_H-M   'P 1'
_cell_length_a   4.75919000
_cell_length_b   4.75918500
_cell_length_c   9.24332600
_cell_angle_alpha   90.00033591
_cell_angle_beta   90.00050076
_cell_angle_gamma   89.99949436
_symmetry_Int_Tables_number   1
_chemical_formula_structural   MgGa4(WO6)2
_chemical_formula_sum   'Mg1 Ga4 W2 O12'
_cell_volume   209.36009214
_cell_formula_units_Z   1
loop_
 _symmetry_equiv_pos_site_id
 _symmetry_equiv_pos_as_xyz
  1  'x, y, z'
loop_
 _atom_site_type_symbol
 _atom_site_label
 _atom_site_symmetry_multiplicity
 _atom_site_fract_x
 _atom_site_fract_y
 _atom_site_fract_z
 _atom_site_occupancy
  Mg  Mg0  1  0.50000800  0.00001000  0.25001500  1
  Ga  Ga1  1  0.00001200  0.00000800  0.34811000  1
  Ga  Ga2  1  0.00001900  0.00002000  0.66845700  1
  Ga  Ga3  1  0.50003300  0.50001800  0.15188500  1
  Ga  Ga4  1  0.50003000  0.50003000  0.83154600  1
  W  W5  1  0.00003400  0.00003300  0.99207100  1
  W  W6  1  0.50001100  0.50001400  0.50792500  1
  O  O7  1  0.19335500  0.19711100  0.16797300  1
  O  O8  1  0.19266200  0.19589800  0.83238200  1
  O  O9  1  0.20836300  0.19653900  0.49737200  1
  O  O10  1  0.30348800  0.70836400  0.00262600  1
  O  O11  1  0.30291400  0.69332500  0.33202700  1
  O  O12  1  0.30412900  0.69263900  0.66761600  1
  O  O13  1  0.69711600  0.30670700  0.33202600  1
  O  O14  1  0.69590600  0.30739600  0.66761600  1
  O  O15  1  0.69657400  0.29170000  0.00262100  1
  O  O16  1  0.79166100  0.80348700  0.49737200  1
  O  O17  1  0.80669500  0.80295000  0.16797700  1
  O  O18  1  0.80738900  0.80415300  0.83238300  1
