# generated using pymatgen
data_Mn3(AsO4)4
_symmetry_space_group_name_H-M   'P 1'
_cell_length_a   5.04965801
_cell_length_b   8.18922934
_cell_length_c   14.90396192
_cell_angle_alpha   69.39848156
_cell_angle_beta   90.00000000
_cell_angle_gamma   90.00000000
_symmetry_Int_Tables_number   1
_chemical_formula_structural   Mn3(AsO4)4
_chemical_formula_sum   'Mn6 As8 O32'
_cell_volume   576.90709240
_cell_formula_units_Z   2
loop_
 _symmetry_equiv_pos_site_id
 _symmetry_equiv_pos_as_xyz
  1  'x, y, z'
loop_
 _atom_site_type_symbol
 _atom_site_label
 _atom_site_symmetry_multiplicity
 _atom_site_fract_x
 _atom_site_fract_y
 _atom_site_fract_z
 _atom_site_occupancy
  Mn  Mn0  1  0.45273582  0.22490079  0.62388367  1
  Mn  Mn1  1  0.54726418  0.77509921  0.37611633  1
  Mn  Mn2  1  0.95273582  0.77509921  0.87611633  1
  Mn  Mn3  1  0.04726418  0.22490079  0.12388367  1
  Mn  Mn4  1  -0.00000000  0.50000000  0.50000000  1
  Mn  Mn5  1  0.50000000  0.50000000  -0.00000000  1
  As  As6  1  0.04719770  0.04461636  0.35461224  1
  As  As7  1  0.46752457  0.42217992  0.38878429  1
  As  As8  1  0.96752457  0.57782008  0.11121571  1
  As  As9  1  0.03247543  0.42217992  0.88878429  1
  As  As10  1  0.95280230  0.95538364  0.64538776  1
  As  As11  1  0.53247543  0.57782008  0.61121571  1
  As  As12  1  0.45280230  0.04461636  0.85461224  1
  As  As13  1  0.54719770  0.95538364  0.14538776  1
  O  O14  1  0.48633211  0.79125938  0.25070980  1
  O  O15  1  0.90071529  0.73913844  0.00586407  1
  O  O16  1  0.43936067  0.37092715  0.29438374  1
  O  O17  1  0.37961767  0.13488619  0.14789594  1
  O  O18  1  0.56063933  0.62907285  0.70561626  1
  O  O19  1  0.01366789  0.79125938  0.75070980  1
  O  O20  1  0.93936067  0.62907285  0.20561626  1
  O  O21  1  0.75276548  0.54336608  0.89929029  1
  O  O22  1  0.55495959  0.12153959  0.94060662  1
  O  O23  1  0.51366789  0.20874062  0.74929020  1
  O  O24  1  0.12038233  0.13488619  0.64789594  1
  O  O25  1  0.24723452  0.45663392  0.10070971  1
  O  O26  1  0.26407828  0.59296772  0.40380589  1
  O  O27  1  0.44504041  0.87846041  0.05939338  1
  O  O28  1  0.63021211  0.02308510  0.63555351  1
  O  O29  1  0.13021211  0.97691490  0.86444649  1
  O  O30  1  0.76407828  0.40703228  0.09619411  1
  O  O31  1  0.06063933  0.37092715  0.79438374  1
  O  O32  1  0.05495959  0.87846041  0.55939338  1
  O  O33  1  0.25276548  0.45663392  0.60070971  1
  O  O34  1  0.86978789  0.02308510  0.13555351  1
  O  O35  1  0.36978789  0.97691490  0.36444649  1
  O  O36  1  0.09928471  0.26086156  -0.00586407  1
  O  O37  1  0.40071529  0.26086156  0.49413593  1
  O  O38  1  0.73592172  0.40703228  0.59619411  1
  O  O39  1  0.98633211  0.20874062  0.24929020  1
  O  O40  1  0.62038233  0.86511381  0.85210406  1
  O  O41  1  0.94504041  0.12153959  0.44060662  1
  O  O42  1  0.59928471  0.73913844  0.50586407  1
  O  O43  1  0.74723452  0.54336608  0.39929029  1
  O  O44  1  0.23592172  0.59296772  0.90380589  1
  O  O45  1  0.87961767  0.86511381  0.35210406  1
