# generated using pymatgen
data_Dy2(MoO4)3
_symmetry_space_group_name_H-M   'P 1'
_cell_length_a   7.34527211
_cell_length_b   7.34527211
_cell_length_c   10.54365914
_cell_angle_alpha   90.00000000
_cell_angle_beta   90.00000000
_cell_angle_gamma   90.00000000
_symmetry_Int_Tables_number   1
_chemical_formula_structural   Dy2(MoO4)3
_chemical_formula_sum   'Dy4 Mo6 O24'
_cell_volume   568.86227744
_cell_formula_units_Z   2
loop_
 _symmetry_equiv_pos_site_id
 _symmetry_equiv_pos_as_xyz
  1  'x, y, z'
loop_
 _atom_site_type_symbol
 _atom_site_label
 _atom_site_symmetry_multiplicity
 _atom_site_fract_x
 _atom_site_fract_y
 _atom_site_fract_z
 _atom_site_occupancy
  Dy  Dy0  1  0.18617241  0.68617241  0.73878069  1
  Dy  Dy1  1  0.81382759  0.31382759  0.73878069  1
  Dy  Dy2  1  0.68617241  0.81382759  0.26121931  1
  Dy  Dy3  1  0.31382759  0.18617241  0.26121931  1
  Mo  Mo4  1  0.20677933  0.70677933  0.35536628  1
  Mo  Mo5  1  0.79322067  0.29322067  0.35536628  1
  Mo  Mo6  1  0.70677933  0.79322067  0.64463372  1
  Mo  Mo7  1  0.29322067  0.20677933  0.64463372  1
  Mo  Mo8  1  -0.00000000  0.00000000  0.00000000  1
  Mo  Mo9  1  0.50000000  0.50000000  0.00000000  1
  O  O10  1  0.00483538  0.22480812  0.29541734  1
  O  O11  1  0.99516462  0.77519188  0.29541734  1
  O  O12  1  0.22480812  0.99516462  0.70458266  1
  O  O13  1  0.49516462  0.72480812  0.70458266  1
  O  O14  1  0.77519188  0.00483538  0.70458266  1
  O  O15  1  0.50483538  0.27519188  0.70458266  1
  O  O16  1  0.27519188  0.49516462  0.29541734  1
  O  O17  1  0.72480812  0.50483538  0.29541734  1
  O  O18  1  0.19096938  0.04017904  0.09675196  1
  O  O19  1  0.80903062  0.95982096  0.09675196  1
  O  O20  1  0.04017904  0.80903062  0.90324804  1
  O  O21  1  0.30903062  0.54017904  0.90324804  1
  O  O22  1  0.95982096  0.19096938  0.90324804  1
  O  O23  1  0.69096938  0.45982096  0.90324804  1
  O  O24  1  0.45982096  0.30903062  0.09675196  1
  O  O25  1  0.54017904  0.69096938  0.09675196  1
  O  O26  1  0.62617131  0.12617131  0.30961005  1
  O  O27  1  0.37382869  0.87382869  0.30961005  1
  O  O28  1  0.12617131  0.37382869  0.69038995  1
  O  O29  1  0.87382869  0.62617131  0.69038995  1
  O  O30  1  0.19425095  0.69425095  0.52098782  1
  O  O31  1  0.80574905  0.30574905  0.52098782  1
  O  O32  1  0.69425095  0.80574905  0.47901218  1
  O  O33  1  0.30574905  0.19425095  0.47901218  1
