# generated using pymatgen
data_CsTlS2
_symmetry_space_group_name_H-M   'P 1'
_cell_length_a   8.13227092
_cell_length_b   8.13227092
_cell_length_c   16.57946545
_cell_angle_alpha   82.90240836
_cell_angle_beta   82.90240836
_cell_angle_gamma   89.99712360
_symmetry_Int_Tables_number   1
_chemical_formula_structural   CsTlS2
_chemical_formula_sum   'Cs8 Tl8 S16'
_cell_volume   1079.59490921
_cell_formula_units_Z   8
loop_
 _symmetry_equiv_pos_site_id
 _symmetry_equiv_pos_as_xyz
  1  'x, y, z'
loop_
 _atom_site_type_symbol
 _atom_site_label
 _atom_site_symmetry_multiplicity
 _atom_site_fract_x
 _atom_site_fract_y
 _atom_site_fract_z
 _atom_site_occupancy
  Cs  Cs0  1  0.34675754  0.22353016  0.61088872  1
  Cs  Cs1  1  0.65324246  0.77646984  0.38911128  1
  Cs  Cs2  1  0.77646984  0.65324246  0.88911128  1
  Cs  Cs3  1  0.22353016  0.34675754  0.11088872  1
  Cs  Cs4  1  0.77530462  0.15205247  0.89157225  1
  Cs  Cs5  1  0.22469538  0.84794753  0.10842775  1
  Cs  Cs6  1  0.84794753  0.22469538  0.60842775  1
  Cs  Cs7  1  0.15205247  0.77530462  0.39157225  1
  Tl  Tl8  1  0.29031300  0.91423366  0.83653591  1
  Tl  Tl9  1  0.70968700  0.08576634  0.16346409  1
  Tl  Tl10  1  0.08576634  0.70968700  0.66346409  1
  Tl  Tl11  1  0.91423366  0.29031300  0.33653591  1
  Tl  Tl12  1  0.58184855  0.70955526  0.66315698  1
  Tl  Tl13  1  0.41815145  0.29044474  0.33684302  1
  Tl  Tl14  1  0.29044474  0.41815145  0.83684302  1
  Tl  Tl15  1  0.70955526  0.58184855  0.16315698  1
  S  S16  1  0.57126272  0.94743224  0.74951060  1
  S  S17  1  0.42873728  0.05256776  0.25048940  1
  S  S18  1  0.05256776  0.42873728  0.75048940  1
  S  S19  1  0.94743224  0.57126272  0.24951060  1
  S  S20  1  0.35766030  0.73295129  0.56796691  1
  S  S21  1  0.64233970  0.26704871  0.43203309  1
  S  S22  1  0.26704871  0.64233970  0.93203309  1
  S  S23  1  0.73295129  0.35766030  0.06796691  1
  S  S24  1  0.57143824  0.42856176  0.75000000  1
  S  S25  1  0.42856176  0.57143824  0.25000000  1
  S  S26  1  0.26794981  0.14251142  0.93033543  1
  S  S27  1  0.73205019  0.85748858  0.06966457  1
  S  S28  1  0.85748858  0.73205019  0.56966457  1
  S  S29  1  0.14251142  0.26794981  0.43033543  1
  S  S30  1  0.05261650  0.94738350  0.75000000  1
  S  S31  1  0.94738350  0.05261650  0.25000000  1
