# generated using pymatgen
data_KLaSmSbO6
_symmetry_space_group_name_H-M   'P 1'
_cell_length_a   8.37331474
_cell_length_b   8.49512031
_cell_length_c   8.47802903
_cell_angle_alpha   90.00000000
_cell_angle_beta   90.00000000
_cell_angle_gamma   90.00000000
_symmetry_Int_Tables_number   1
_chemical_formula_structural   KLaSmSbO6
_chemical_formula_sum   'K4 La4 Sm4 Sb4 O24'
_cell_volume   603.06184095
_cell_formula_units_Z   4
loop_
 _symmetry_equiv_pos_site_id
 _symmetry_equiv_pos_as_xyz
  1  'x, y, z'
loop_
 _atom_site_type_symbol
 _atom_site_label
 _atom_site_symmetry_multiplicity
 _atom_site_fract_x
 _atom_site_fract_y
 _atom_site_fract_z
 _atom_site_occupancy
  K  K0  1  0.50000000  0.00000000  0.50000000  1
  K  K1  1  0.50000000  0.50000000  0.00000000  1
  K  K2  1  0.00000000  0.50000000  0.00000000  1
  K  K3  1  0.00000000  -0.00000000  0.50000000  1
  La  La4  1  0.00000000  0.50000000  0.50000000  1
  La  La5  1  0.50000000  0.00000000  -0.00000000  1
  La  La6  1  0.00000000  0.00000000  0.00000000  1
  La  La7  1  0.50000000  0.50000000  0.50000000  1
  Sm  Sm8  1  0.25000000  0.25000000  0.25000000  1
  Sm  Sm9  1  0.75000000  0.75000000  0.25000000  1
  Sm  Sm10  1  0.75000000  0.25000000  0.75000000  1
  Sm  Sm11  1  0.25000000  0.75000000  0.75000000  1
  Sb  Sb12  1  0.75000000  0.75000000  0.75000000  1
  Sb  Sb13  1  0.25000000  0.25000000  0.75000000  1
  Sb  Sb14  1  0.25000000  0.75000000  0.25000000  1
  Sb  Sb15  1  0.75000000  0.25000000  0.25000000  1
  O  O16  1  0.98315607  0.21666319  0.27319350  1
  O  O17  1  0.01684393  0.78333681  0.27319350  1
  O  O18  1  0.01684393  0.21666319  0.72680650  1
  O  O19  1  0.98315607  0.78333681  0.72680650  1
  O  O20  1  0.28016232  0.98415318  0.19819275  1
  O  O21  1  0.28016232  0.01584682  0.80180725  1
  O  O22  1  0.71983768  0.01584682  0.19819275  1
  O  O23  1  0.71983768  0.98415318  0.80180725  1
  O  O24  1  0.21544965  0.26027364  0.98345927  1
  O  O25  1  0.78455035  0.26027364  0.01654073  1
  O  O26  1  0.21544965  0.73972636  0.01654073  1
  O  O27  1  0.78455035  0.73972636  0.98345927  1
  O  O28  1  0.51684393  0.28333681  0.22680650  1
  O  O29  1  0.48315607  0.71666319  0.22680650  1
  O  O30  1  0.48315607  0.28333681  0.77319350  1
  O  O31  1  0.51684393  0.71666319  0.77319350  1
  O  O32  1  0.21983768  0.51584682  0.30180725  1
  O  O33  1  0.21983768  0.48415318  0.69819275  1
  O  O34  1  0.78016232  0.48415318  0.30180725  1
  O  O35  1  0.78016232  0.51584682  0.69819275  1
  O  O36  1  0.28455035  0.23972636  0.51654073  1
  O  O37  1  0.71544965  0.23972636  0.48345927  1
  O  O38  1  0.28455035  0.76027364  0.48345927  1
  O  O39  1  0.71544965  0.76027364  0.51654073  1
