# generated using pymatgen
data_Cs4Co3F10
_symmetry_space_group_name_H-M   'P 1'
_cell_length_a   7.85111345
_cell_length_b   7.85111345
_cell_length_c   13.80303679
_cell_angle_alpha   90.00000000
_cell_angle_beta   90.00000000
_cell_angle_gamma   133.55594445
_symmetry_Int_Tables_number   1
_chemical_formula_structural   Cs4Co3F10
_chemical_formula_sum   'Cs8 Co6 F20'
_cell_volume   616.59011073
_cell_formula_units_Z   2
loop_
 _symmetry_equiv_pos_site_id
 _symmetry_equiv_pos_as_xyz
  1  'x, y, z'
loop_
 _atom_site_type_symbol
 _atom_site_label
 _atom_site_symmetry_multiplicity
 _atom_site_fract_x
 _atom_site_fract_y
 _atom_site_fract_z
 _atom_site_occupancy
  Cs  Cs0  1  0.04366990  0.95633010  0.63900284  1
  Cs  Cs1  1  0.95633010  0.04366990  0.36099716  1
  Cs  Cs2  1  0.45633010  0.54366990  0.13900284  1
  Cs  Cs3  1  0.54366990  0.45633010  0.86099716  1
  Cs  Cs4  1  0.74413446  0.25586554  0.61150400  1
  Cs  Cs5  1  0.25586554  0.74413446  0.38849600  1
  Cs  Cs6  1  0.75586554  0.24413446  0.11150400  1
  Cs  Cs7  1  0.24413446  0.75586554  0.88849600  1
  Co  Co8  1  0.50000000  0.50000000  0.50000000  1
  Co  Co9  1  -0.00000000  -0.00000000  0.00000000  1
  Co  Co10  1  0.38115906  0.61884094  0.65204705  1
  Co  Co11  1  0.61884094  0.38115906  0.34795295  1
  Co  Co12  1  0.11884094  0.88115906  0.15204705  1
  Co  Co13  1  0.88115906  0.11884094  0.84795295  1
  F  F14  1  0.63609112  0.86390888  0.75000000  1
  F  F15  1  0.86390888  0.63609112  0.25000000  1
  F  F16  1  0.36390888  0.13609112  0.25000000  1
  F  F17  1  0.13609112  0.36390888  0.75000000  1
  F  F18  1  0.24722753  0.75277247  0.64678519  1
  F  F19  1  0.75277247  0.24722753  0.35321481  1
  F  F20  1  0.25277247  0.74722753  0.14678519  1
  F  F21  1  0.74722753  0.25277247  0.85321481  1
  F  F22  1  0.52635015  0.47364985  0.64595343  1
  F  F23  1  0.47364985  0.52635015  0.35404657  1
  F  F24  1  0.97364985  0.02635015  0.14595343  1
  F  F25  1  0.02635015  0.97364985  0.85404657  1
  F  F26  1  0.61535901  0.81651150  0.53650856  1
  F  F27  1  0.81651150  0.61535901  0.46349144  1
  F  F28  1  0.31651150  0.11535901  0.03650856  1
  F  F29  1  0.11535901  0.31651150  0.96349144  1
  F  F30  1  0.38464099  0.18348850  0.46349144  1
  F  F31  1  0.18348850  0.38464099  0.53650856  1
  F  F32  1  0.68348850  0.88464099  0.96349144  1
  F  F33  1  0.88464099  0.68348850  0.03650856  1
