# generated using pymatgen
data_CaSm4Tm4O12
_symmetry_space_group_name_H-M   'P 1'
_cell_length_a   6.15719197
_cell_length_b   8.54094400
_cell_length_c   5.87282362
_cell_angle_alpha   90.00000000
_cell_angle_beta   90.73624521
_cell_angle_gamma   90.00000000
_symmetry_Int_Tables_number   1
_chemical_formula_structural   CaSm4Tm4O12
_chemical_formula_sum   'Ca1 Sm4 Tm4 O12'
_cell_volume   308.81591262
_cell_formula_units_Z   1
loop_
 _symmetry_equiv_pos_site_id
 _symmetry_equiv_pos_as_xyz
  1  'x, y, z'
loop_
 _atom_site_type_symbol
 _atom_site_label
 _atom_site_symmetry_multiplicity
 _atom_site_fract_x
 _atom_site_fract_y
 _atom_site_fract_z
 _atom_site_occupancy
  Ca  Ca0  1  0.74410700  0.25000000  0.08736100  1
  Sm  Sm1  1  0.17219200  0.25000000  0.91897800  1
  Sm  Sm2  1  0.42648200  0.75000000  0.45759400  1
  Sm  Sm3  1  0.55615900  0.25000000  0.56690500  1
  Sm  Sm4  1  0.94284200  0.75000000  0.01434200  1
  Tm  Tm5  1  0.98785800  0.99472300  0.50102500  1
  Tm  Tm6  1  0.98785800  0.50527700  0.50102500  1
  Tm  Tm7  1  0.48509400  0.96916200  0.98292800  1
  Tm  Tm8  1  0.48509400  0.53083800  0.98292800  1
  O  O9  1  0.05908600  0.75000000  0.63912900  1
  O  O10  1  0.19565000  0.58418000  0.19322500  1
  O  O11  1  0.19565000  0.91582000  0.19322500  1
  O  O12  1  0.30306400  0.45184700  0.67359800  1
  O  O13  1  0.30306400  0.04815300  0.67359800  1
  O  O14  1  0.40145800  0.25000000  0.20851800  1
  O  O15  1  0.56517100  0.75000000  0.83109400  1
  O  O16  1  0.69525100  0.92156000  0.28474300  1
  O  O17  1  0.69525100  0.57844000  0.28474300  1
  O  O18  1  0.81022200  0.05779800  0.82221400  1
  O  O19  1  0.81022200  0.44220200  0.82221400  1
  O  O20  1  0.91780800  0.25000000  0.42311300  1
