# generated using pymatgen
data_Li6Zn3(PS4)4
_symmetry_space_group_name_H-M   'P 1'
_cell_length_a   9.13935276
_cell_length_b   11.51425727
_cell_length_c   22.95385904
_cell_angle_alpha   89.96270468
_cell_angle_beta   89.99177193
_cell_angle_gamma   89.96755805
_symmetry_Int_Tables_number   1
_chemical_formula_structural   Li6Zn3(PS4)4
_chemical_formula_sum   'Li24 Zn12 P16 S64'
_cell_volume   2415.49928687
_cell_formula_units_Z   4
loop_
 _symmetry_equiv_pos_site_id
 _symmetry_equiv_pos_as_xyz
  1  'x, y, z'
loop_
 _atom_site_type_symbol
 _atom_site_label
 _atom_site_symmetry_multiplicity
 _atom_site_fract_x
 _atom_site_fract_y
 _atom_site_fract_z
 _atom_site_occupancy
  Li  Li0  1  0.74614352  0.50662159  0.12570122  1
  Li  Li1  1  0.74964441  0.99374226  0.12747456  1
  Li  Li2  1  0.24763784  0.24085263  0.24961003  1
  Li  Li3  1  0.24875648  0.24997396  -0.00003046  1
  Li  Li4  1  0.50335697  0.50068681  0.75015046  1
  Li  Li5  1  0.50065627  0.99761343  0.74892649  1
  Li  Li6  1  0.50085288  0.49870782  0.50089011  1
  Li  Li7  1  0.50624062  0.99687337  0.50174155  1
  Li  Li8  1  0.00340393  0.24992005  0.62520897  1
  Li  Li9  1  0.00615239  0.75241853  0.62383032  1
  Li  Li10  1  0.49236652  0.50327765  0.25156923  1
  Li  Li11  1  0.50062706  0.99700573  0.25012995  1
  Li  Li12  1  0.99506046  0.24810316  0.37855405  1
  Li  Li13  1  0.00484946  0.75001494  0.37605754  1
  Li  Li14  1  0.50068364  0.50349957  0.99961466  1
  Li  Li15  1  0.50143714  0.99803335  0.99561445  1
  Li  Li16  1  0.98806658  0.24804041  0.12407996  1
  Li  Li17  1  0.01976909  0.74820555  0.12750338  1
  Li  Li18  1  0.98656965  0.25181065  0.87128160  1
  Li  Li19  1  0.00529160  0.75274040  0.87375739  1
  Li  Li20  1  0.49920786  0.74807949  0.87507847  1
  Li  Li21  1  0.48221999  0.75150643  0.12400979  1
  Li  Li22  1  0.50563226  0.25161300  0.12598979  1
  Li  Li23  1  0.99744643  0.00021757  0.25299398  1
  Zn  Zn24  1  0.50328073  0.25055130  0.87159777  1
  Zn  Zn25  1  0.50197780  0.75073851  0.62585992  1
  Zn  Zn26  1  0.49701265  0.25009903  0.62496481  1
  Zn  Zn27  1  0.99876446  0.50180254  0.74818855  1
  Zn  Zn28  1  0.99729445  0.00001450  0.74996279  1
  Zn  Zn29  1  0.50081140  0.75105028  0.37432299  1
  Zn  Zn30  1  0.50664140  0.24900727  0.37830629  1
  Zn  Zn31  1  0.99912446  0.50112487  0.50107601  1
  Zn  Zn32  1  0.00096947  -0.00015929  0.50106079  1
  Zn  Zn33  1  0.00006694  0.50075006  0.25117816  1
  Zn  Zn34  1  0.99808507  0.49999583  0.99688393  1
  Zn  Zn35  1  0.00148677  0.99647117  0.99970306  1
  P  P36  1  0.75188641  0.74639501  0.74876578  1
  P  P37  1  0.74924011  0.25088687  0.74843956  1
  P  P38  1  0.75052942  0.74899885  0.49969895  1
  P  P39  1  0.75134127  0.24983582  0.50105403  1
  P  P40  1  0.25122363  0.50002378  0.62468537  1
  P  P41  1  0.25069806  0.00008199  0.62514734  1
  P  P42  1  0.74961591  0.75266314  0.25252263  1
  P  P43  1  0.74854831  0.25699060  0.24900867  1
  P  P44  1  0.24822296  0.49908221  0.37531000  1
  P  P45  1  0.25490215  0.00499451  0.37688672  1
  P  P46  1  0.75189538  0.74965749  0.00112226  1
  P  P47  1  0.74739237  0.24447407  0.99949926  1
  P  P48  1  0.24804035  0.49380975  0.12435653  1
  P  P49  1  0.25047336  0.00257719  0.12464310  1
  P  P50  1  0.25131027  0.49699038  0.87612076  1
  P  P51  1  0.24640815  0.00341077  0.87257359  1
  S  S52  1  0.87266045  0.64299566  0.94797341  1
  S  S53  1  0.87190202  0.14012994  0.94793645  1
  S  S54  1  0.87343722  0.64106454  0.69486104  1
  S  S55  1  0.86579031  0.13983746  0.69671177  1
  S  S56  1  0.36344942  0.38637502  0.82208161  1
  S  S57  1  0.36567716  0.89694375  0.82349937  1
  S  S58  1  0.86659187  0.63782052  0.44744838  1
  S  S59  1  0.86274930  0.13644274  0.44868832  1
  S  S60  1  0.36420117  0.38766796  0.57192967  1
  S  S61  1  0.36513829  0.88795437  0.57291647  1
  S  S62  1  0.87146650  0.64057885  0.19853590  1
  S  S63  1  0.86652296  0.14507495  0.19857258  1
  S  S64  1  0.36945928  0.38594203  0.32398853  1
  S  S65  1  0.36586740  0.89230326  0.32363735  1
  S  S66  1  0.36860397  0.38749677  0.07198125  1
  S  S67  1  0.37037234  0.90258057  0.07147087  1
  S  S68  1  0.63195877  0.35447909  0.69314123  1
  S  S69  1  0.63945569  0.85469015  0.69276181  1
  S  S70  1  0.64042398  0.35679026  0.44468272  1
  S  S71  1  0.63555479  0.85334111  0.44375243  1
  S  S72  1  0.13585683  0.10488504  0.56915260  1
  S  S73  1  0.13754769  0.60492388  0.56838438  1
  S  S74  1  0.62734615  0.36331757  0.19687883  1
  S  S75  1  0.62851889  0.85024285  0.19605426  1
  S  S76  1  0.13228548  0.10792857  0.32355964  1
  S  S77  1  0.13880759  0.60418197  0.31841516  1
  S  S78  1  0.63100430  0.35081794  0.94540152  1
  S  S79  1  0.64057521  0.85247804  0.94716056  1
  S  S80  1  0.12465198  0.11040863  0.06947901  1
  S  S81  1  0.12227087  0.59576006  0.07123762  1
  S  S82  1  0.12589851  0.10946829  0.81954497  1
  S  S83  1  0.13067424  0.59874555  0.82105144  1
  S  S84  1  0.86698413  0.85976779  0.80104256  1
  S  S85  1  0.86026262  0.36509397  0.80026904  1
  S  S86  1  0.86506381  0.86079652  0.55194146  1
  S  S87  1  0.86784378  0.36063639  0.55292034  1
  S  S88  1  0.36679199  0.61063071  0.67690990  1
  S  S89  1  0.36536624  0.11162882  0.67734013  1
  S  S90  1  0.86883258  0.85475996  0.30394124  1
  S  S91  1  0.87174558  0.35968153  0.30299944  1
  S  S92  1  0.36771254  0.60847345  0.42624887  1
  S  S93  1  0.37468519  0.11124618  0.43017009  1
  S  S94  1  0.87938138  0.85600232  0.05526660  1
  S  S95  1  0.86574078  0.35978702  0.05126530  1
  S  S96  1  0.36092128  0.60107582  0.17593301  1
  S  S97  1  0.37133873  0.11102653  0.17711030  1
  S  S98  1  0.36033897  0.60424153  0.92858783  1
  S  S99  1  0.36751422  0.11589479  0.92592445  1
  S  S100  1  0.63755092  0.64504086  0.80288630  1
  S  S101  1  0.63776229  0.14432127  0.80463575  1
  S  S102  1  0.63421795  0.64552089  0.55529070  1
  S  S103  1  0.63459059  0.14661497  0.55641121  1
  S  S104  1  0.13651792  0.39564869  0.68047211  1
  S  S105  1  0.13502200  0.89692208  0.68090599  1
  S  S106  1  0.62916646  0.64401941  0.30460672  1
  S  S107  1  0.62898743  0.15164580  0.30320732  1
  S  S108  1  0.13265398  0.39565778  0.43071178  1
  S  S109  1  0.13785286  0.89924317  0.43136628  1
  S  S110  1  0.63254294  0.64679537  0.05605835  1
  S  S111  1  0.62919555  0.14215389  0.05381082  1
  S  S112  1  0.12193552  0.38859170  0.17946294  1
  S  S113  1  0.12524313  0.90490354  0.17716160  1
  S  S114  1  0.12337335  0.38813849  0.92911520  1
  S  S115  1  0.13682289  0.89847949  0.93046109  1
