# generated using pymatgen
data_K2SiO3
_symmetry_space_group_name_H-M   'P 1'
_cell_length_a   12.75416335
_cell_length_b   6.26777253
_cell_length_c   15.72808792
_cell_angle_alpha   72.62456750
_cell_angle_beta   90.00000000
_cell_angle_gamma   90.00000000
_symmetry_Int_Tables_number   1
_chemical_formula_structural   K2SiO3
_chemical_formula_sum   'K24 Si12 O36'
_cell_volume   1199.93358861
_cell_formula_units_Z   12
loop_
 _symmetry_equiv_pos_site_id
 _symmetry_equiv_pos_as_xyz
  1  'x, y, z'
loop_
 _atom_site_type_symbol
 _atom_site_label
 _atom_site_symmetry_multiplicity
 _atom_site_fract_x
 _atom_site_fract_y
 _atom_site_fract_z
 _atom_site_occupancy
  K  K0  1  0.64119186  0.91865286  0.50174114  1
  K  K1  1  0.61539803  0.47433774  0.41865999  1
  K  K2  1  0.88460197  0.47433774  0.91865999  1
  K  K3  1  0.38460197  0.52566226  0.58134001  1
  K  K4  1  0.35880814  0.08134714  0.49825886  1
  K  K5  1  0.85880814  0.91865286  0.00174114  1
  K  K6  1  0.11539803  0.52566226  0.08134001  1
  K  K7  1  0.14119186  0.08134714  0.99825886  1
  K  K8  1  0.41526369  0.22814255  0.02869763  1
  K  K9  1  0.91526369  0.77185745  0.47130237  1
  K  K10  1  0.58473631  0.77185745  0.97130237  1
  K  K11  1  0.08473631  0.22814255  0.52869763  1
  K  K12  1  0.19821749  0.38671053  0.30076328  1
  K  K13  1  0.69821749  0.61328947  0.19923672  1
  K  K14  1  0.80178251  0.61328947  0.69923672  1
  K  K15  1  0.30178251  0.38671053  0.80076328  1
  K  K16  1  0.49593853  0.15783398  0.27906316  1
  K  K17  1  0.99593853  0.84216602  0.22093684  1
  K  K18  1  0.50406147  0.84216602  0.72093684  1
  K  K19  1  0.00406147  0.15783398  0.77906316  1
  K  K20  1  0.38352014  0.61138073  0.14049602  1
  K  K21  1  0.88352014  0.38861927  0.35950398  1
  K  K22  1  0.61647986  0.38861927  0.85950398  1
  K  K23  1  0.11647986  0.61138073  0.64049602  1
  Si  Si24  1  0.24646688  0.97136421  0.21379931  1
  Si  Si25  1  0.74646688  0.02863579  0.28620069  1
  Si  Si26  1  0.75353312  0.02863579  0.78620069  1
  Si  Si27  1  0.25353312  0.97136421  0.71379931  1
  Si  Si28  1  0.38268307  0.67470453  0.36384842  1
  Si  Si29  1  0.88268307  0.32529547  0.13615158  1
  Si  Si30  1  0.61731693  0.32529547  0.63615158  1
  Si  Si31  1  0.11731693  0.67470453  0.86384842  1
  Si  Si32  1  0.15237894  0.77334455  0.39847403  1
  Si  Si33  1  0.65237894  0.22665545  0.10152597  1
  Si  Si34  1  0.84762106  0.22665545  0.60152597  1
  Si  Si35  1  0.34762106  0.77334455  0.89847403  1
  O  O36  1  0.26884239  0.22601321  0.15743035  1
  O  O37  1  0.76884239  0.77398679  0.34256965  1
  O  O38  1  0.73115761  0.77398679  0.84256965  1
  O  O39  1  0.23115761  0.22601321  0.65743035  1
  O  O40  1  0.26634846  0.63320417  0.41623117  1
  O  O41  1  0.76634846  0.36679583  0.08376883  1
  O  O42  1  0.73365154  0.36679583  0.58376883  1
  O  O43  1  0.23365154  0.63320417  0.91623117  1
  O  O44  1  0.13131872  0.89317278  0.47315834  1
  O  O45  1  0.63131872  0.10682722  0.02684166  1
  O  O46  1  0.86868128  0.10682722  0.52684166  1
  O  O47  1  0.36868128  0.89317278  0.97315834  1
  O  O48  1  0.41659521  0.44022451  0.35084140  1
  O  O49  1  0.91659521  0.55977549  0.14915860  1
  O  O50  1  0.58340479  0.55977549  0.64915860  1
  O  O51  1  0.08340479  0.44022451  0.85084140  1
  O  O52  1  0.35778400  0.85344570  0.26292411  1
  O  O53  1  0.03830532  0.78665783  0.91769228  1
  O  O54  1  0.64221600  0.14655430  0.73707589  1
  O  O55  1  0.14221600  0.85344570  0.76292411  1
  O  O56  1  0.17040171  0.97112234  0.30072056  1
  O  O57  1  0.67040171  0.02887766  0.19927944  1
  O  O58  1  0.82959829  0.02887766  0.69927944  1
  O  O59  1  0.32959829  0.97112234  0.80072056  1
  O  O60  1  0.06381313  0.60094191  0.38653695  1
  O  O61  1  0.56381313  0.39905809  0.11346305  1
  O  O62  1  0.93618687  0.39905809  0.61346305  1
  O  O63  1  0.43618687  0.60094191  0.88653695  1
  O  O64  1  0.19623581  0.80886583  0.16277300  1
  O  O65  1  0.69623581  0.19113417  0.33722700  1
  O  O66  1  0.80376419  0.19113417  0.83722700  1
  O  O67  1  0.30376419  0.80886583  0.66277300  1
  O  O68  1  0.46169468  0.78665783  0.41769228  1
  O  O69  1  0.96169468  0.21334217  0.08230772  1
  O  O70  1  0.53830532  0.21334217  0.58230772  1
  O  O71  1  0.85778400  0.14655430  0.23707589  1
