# generated using pymatgen
data_CdPHO3
_symmetry_space_group_name_H-M   'P 1'
_cell_length_a   8.31661016
_cell_length_b   8.31661016
_cell_length_c   8.31660989
_cell_angle_alpha   109.23335980
_cell_angle_beta   109.23335979
_cell_angle_gamma   109.23336240
_symmetry_Int_Tables_number   1
_chemical_formula_structural   CdPHO3
_chemical_formula_sum   'Cd6 P6 H6 O18'
_cell_volume   446.66675773
_cell_formula_units_Z   6
loop_
 _symmetry_equiv_pos_site_id
 _symmetry_equiv_pos_as_xyz
  1  'x, y, z'
loop_
 _atom_site_type_symbol
 _atom_site_label
 _atom_site_symmetry_multiplicity
 _atom_site_fract_x
 _atom_site_fract_y
 _atom_site_fract_z
 _atom_site_occupancy
  Cd  Cd0  1  0.82164030  0.14178721  0.31576533  1
  Cd  Cd1  1  0.31576533  0.82164030  0.14178721  1
  Cd  Cd2  1  0.14178721  0.31576533  0.82164030  1
  Cd  Cd3  1  0.17835970  0.85821279  0.68423467  1
  Cd  Cd4  1  0.68423467  0.17835970  0.85821279  1
  Cd  Cd5  1  0.85821279  0.68423467  0.17835970  1
  P  P6  1  0.12145476  0.47331242  0.26497704  1
  P  P7  1  0.26497704  0.12145476  0.47331242  1
  P  P8  1  0.47331242  0.26497704  0.12145476  1
  P  P9  1  0.87854524  0.52668758  0.73502296  1
  P  P10  1  0.73502296  0.87854524  0.52668758  1
  P  P11  1  0.52668758  0.73502296  0.87854524  1
  H  H12  1  0.27057566  0.47210309  0.40461711  1
  H  H13  1  0.40461711  0.27057566  0.47210309  1
  H  H14  1  0.47210309  0.40461711  0.27057566  1
  H  H15  1  0.72942434  0.52789691  0.59538289  1
  H  H16  1  0.59538289  0.72942434  0.52789691  1
  H  H17  1  0.52789691  0.59538289  0.72942434  1
  O  O18  1  0.94292491  0.26966770  0.15439346  1
  O  O19  1  0.15439346  0.94292491  0.26966770  1
  O  O20  1  0.26966770  0.15439346  0.94292491  1
  O  O21  1  0.05707509  0.73033230  0.84560654  1
  O  O22  1  0.84560654  0.05707509  0.73033230  1
  O  O23  1  0.73033230  0.84560654  0.05707509  1
  O  O24  1  0.08446365  0.63074008  0.37640994  1
  O  O25  1  0.37640994  0.08446365  0.63074008  1
  O  O26  1  0.63074008  0.37640994  0.08446365  1
  O  O27  1  0.91553635  0.36925992  0.62359006  1
  O  O28  1  0.62359006  0.91553635  0.36925992  1
  O  O29  1  0.36925992  0.62359006  0.91553635  1
  O  O30  1  0.19134931  0.51879168  0.12869217  1
  O  O31  1  0.12869217  0.19134931  0.51879168  1
  O  O32  1  0.51879168  0.12869217  0.19134931  1
  O  O33  1  0.80865069  0.48120832  0.87130783  1
  O  O34  1  0.87130783  0.80865069  0.48120832  1
  O  O35  1  0.48120832  0.87130783  0.80865069  1
