# generated using pymatgen
data_Ca2CdP2
_symmetry_space_group_name_H-M   'P 1'
_cell_length_a   8.29689299
_cell_length_b   8.29689299
_cell_length_c   7.07489764
_cell_angle_alpha   90.00000000
_cell_angle_beta   90.00000000
_cell_angle_gamma   150.68276245
_symmetry_Int_Tables_number   1
_chemical_formula_structural   Ca2CdP2
_chemical_formula_sum   'Ca4 Cd2 P4'
_cell_volume   238.46919165
_cell_formula_units_Z   2
loop_
 _symmetry_equiv_pos_site_id
 _symmetry_equiv_pos_as_xyz
  1  'x, y, z'
loop_
 _atom_site_type_symbol
 _atom_site_label
 _atom_site_symmetry_multiplicity
 _atom_site_fract_x
 _atom_site_fract_y
 _atom_site_fract_z
 _atom_site_occupancy
  Ca  Ca0  1  0.29923592  0.70076408  0.92530569  1
  Ca  Ca1  1  0.70076408  0.29923592  0.42530569  1
  Ca  Ca2  1  0.46461887  0.53538113  0.26952148  1
  Ca  Ca3  1  0.53538113  0.46461887  0.76952148  1
  Cd  Cd4  1  0.09866881  0.90133119  0.10922703  1
  Cd  Cd5  1  0.90133119  0.09866881  0.60922703  1
  P  P6  1  0.06226481  0.93773519  0.47792326  1
  P  P7  1  0.93773519  0.06226481  0.97792326  1
  P  P8  1  0.32033545  0.67966455  0.50669255  1
  P  P9  1  0.67966455  0.32033545  0.00669255  1
