# generated using pymatgen
data_Na2Ti12O25
_symmetry_space_group_name_H-M   'P 1'
_cell_length_a   3.73428875
_cell_length_b   9.31057391
_cell_length_c   14.47910503
_cell_angle_alpha   73.81657875
_cell_angle_beta   90.00000000
_cell_angle_gamma   90.00000000
_symmetry_Int_Tables_number   1
_chemical_formula_structural   Na2Ti12O25
_chemical_formula_sum   'Na2 Ti12 O25'
_cell_volume   483.46677010
_cell_formula_units_Z   1
loop_
 _symmetry_equiv_pos_site_id
 _symmetry_equiv_pos_as_xyz
  1  'x, y, z'
loop_
 _atom_site_type_symbol
 _atom_site_label
 _atom_site_symmetry_multiplicity
 _atom_site_fract_x
 _atom_site_fract_y
 _atom_site_fract_z
 _atom_site_occupancy
  Na  Na0  1  0.50000000  0.29046139  0.95905844  1
  Na  Na1  1  0.50000000  0.70953861  0.04094156  1
  Ti  Ti2  1  0.50000000  0.36416980  0.59375055  1
  Ti  Ti3  1  0.50000000  0.63583020  0.40624945  1
  Ti  Ti4  1  0.00000000  0.99030390  0.87579686  1
  Ti  Ti5  1  0.00000000  0.00969610  0.12420314  1
  Ti  Ti6  1  0.50000000  0.31906692  0.35306243  1
  Ti  Ti7  1  0.50000000  0.68093308  0.64693757  1
  Ti  Ti8  1  0.50000000  0.03258828  0.29483284  1
  Ti  Ti9  1  0.50000000  0.96741172  0.70516716  1
  Ti  Ti10  1  0.00000000  0.39635228  0.75921214  1
  Ti  Ti11  1  0.00000000  0.60364772  0.24078786  1
  Ti  Ti12  1  -0.00000000  0.68491006  0.82550447  1
  Ti  Ti13  1  0.00000000  0.31508994  0.17449553  1
  O  O14  1  -0.00000000  0.47855416  0.86726457  1
  O  O15  1  -0.00000000  0.52144584  0.13273543  1
  O  O16  1  -0.00000000  0.37684621  0.62252157  1
  O  O17  1  0.00000000  0.62315379  0.37747843  1
  O  O18  1  0.50000000  0.28347680  0.21545333  1
  O  O19  1  0.50000000  0.71652320  0.78454667  1
  O  O20  1  0.50000000  0.16028102  0.64000468  1
  O  O21  1  0.50000000  0.83971898  0.35999532  1
  O  O22  1  -0.00000000  0.76052890  0.92695526  1
  O  O23  1  0.00000000  0.23947110  0.07304474  1
  O  O24  1  0.50000000  0.01261376  0.15572962  1
  O  O25  1  0.50000000  0.98738624  0.84427038  1
  O  O26  1  0.50000000  0.43364984  0.72300994  1
  O  O27  1  0.50000000  0.56635016  0.27699006  1
  O  O28  1  0.50000000  0.39318503  0.46099487  1
  O  O29  1  0.50000000  0.60681497  0.53900513  1
  O  O30  1  -0.00000000  0.92627324  0.74359509  1
  O  O31  1  0.00000000  0.07372676  0.25640491  1
  O  O32  1  0.50000000  0.12109630  0.39580312  1
  O  O33  1  0.50000000  0.87890370  0.60419688  1
  O  O34  1  0.00000000  0.20635609  0.82791533  1
  O  O35  1  -0.00000000  0.79364391  0.17208467  1
  O  O36  1  0.00000000  0.64214890  0.68442683  1
  O  O37  1  0.00000000  0.35785110  0.31557317  1
  O  O38  1  0.00000000  0.00000000  0.00000000  1
