# generated using pymatgen
data_LiPr6B3O14
_symmetry_space_group_name_H-M   'P 1'
_cell_length_a   16.10779224
_cell_length_b   8.75825570
_cell_length_c   12.44986106
_cell_angle_alpha   48.02686056
_cell_angle_beta   90.00000000
_cell_angle_gamma   90.00000000
_symmetry_Int_Tables_number   1
_chemical_formula_structural   LiPr6B3O14
_chemical_formula_sum   'Li4 Pr24 B12 O56'
_cell_volume   1305.79450951
_cell_formula_units_Z   4
loop_
 _symmetry_equiv_pos_site_id
 _symmetry_equiv_pos_as_xyz
  1  'x, y, z'
loop_
 _atom_site_type_symbol
 _atom_site_label
 _atom_site_symmetry_multiplicity
 _atom_site_fract_x
 _atom_site_fract_y
 _atom_site_fract_z
 _atom_site_occupancy
  Li  Li0  1  0.60850640  0.89133498  0.44071101  1
  Li  Li1  1  0.39149360  0.10866502  0.55928899  1
  Li  Li2  1  0.10850640  0.10866502  0.05928899  1
  Li  Li3  1  0.89149360  0.89133498  0.94071101  1
  Pr  Pr4  1  0.82329365  0.56027604  0.30302167  1
  Pr  Pr5  1  0.17670635  0.43972396  0.69697833  1
  Pr  Pr6  1  0.32329365  0.43972396  0.19697833  1
  Pr  Pr7  1  0.67670635  0.56027604  0.80302167  1
  Pr  Pr8  1  0.32441474  0.98335227  0.05294945  1
  Pr  Pr9  1  0.67558526  0.01664773  0.94705055  1
  Pr  Pr10  1  0.82441474  0.01664773  0.44705055  1
  Pr  Pr11  1  0.17558526  0.98335227  0.55294945  1
  Pr  Pr12  1  0.35777904  0.83891294  0.42565273  1
  Pr  Pr13  1  0.64222096  0.16108706  0.57434727  1
  Pr  Pr14  1  0.85777904  0.16108706  0.07434727  1
  Pr  Pr15  1  0.14222096  0.83891294  0.92565273  1
  Pr  Pr16  1  0.51519770  0.66456123  0.28348344  1
  Pr  Pr17  1  0.48480230  0.33543877  0.71651656  1
  Pr  Pr18  1  0.01519770  0.33543877  0.21651656  1
  Pr  Pr19  1  0.98480230  0.66456123  0.78348344  1
  Pr  Pr20  1  0.50534222  0.23291875  0.06514986  1
  Pr  Pr21  1  0.49465778  0.76708125  0.93485014  1
  Pr  Pr22  1  0.00534222  0.76708125  0.43485014  1
  Pr  Pr23  1  0.99465778  0.23291875  0.56514986  1
  Pr  Pr24  1  0.66489518  0.41213759  0.16817860  1
  Pr  Pr25  1  0.33510482  0.58786241  0.83182140  1
  Pr  Pr26  1  0.16489518  0.58786241  0.33182140  1
  Pr  Pr27  1  0.83510482  0.41213759  0.66817860  1
  B  B28  1  0.82812546  0.54679727  0.02522394  1
  B  B29  1  0.17187454  0.45320273  0.97477606  1
  B  B30  1  0.32812546  0.45320273  0.47477606  1
  B  B31  1  0.67187454  0.54679727  0.52522394  1
  B  B32  1  0.00045773  0.79847575  0.14227663  1
  B  B33  1  0.99954227  0.20152425  0.85772337  1
  B  B34  1  0.50045773  0.20152425  0.35772337  1
  B  B35  1  0.49954227  0.79847575  0.64227663  1
  B  B36  1  0.69502683  0.96035093  0.22321599  1
  B  B37  1  0.30497317  0.03964907  0.77678401  1
  B  B38  1  0.19502683  0.03964907  0.27678401  1
  B  B39  1  0.80497317  0.96035093  0.72321599  1
  O  O40  1  0.75219781  0.89215088  0.17842456  1
  O  O41  1  0.24780219  0.10784912  0.82157544  1
  O  O42  1  0.25219781  0.10784912  0.32157544  1
  O  O43  1  0.74780219  0.89215088  0.67842456  1
  O  O44  1  0.46655604  0.69478939  0.60291145  1
  O  O45  1  0.53344396  0.30521061  0.39708855  1
  O  O46  1  0.96655604  0.30521061  0.89708855  1
  O  O47  1  0.03344396  0.69478939  0.10291145  1
  O  O48  1  0.42177473  0.93146753  0.21924257  1
  O  O49  1  0.57822527  0.06853247  0.78075743  1
  O  O50  1  0.92177473  0.06853247  0.28075743  1
  O  O51  1  0.07822527  0.93146753  0.71924257  1
  O  O52  1  0.91854771  0.85993490  0.11350492  1
  O  O53  1  0.08145229  0.14006510  0.88649508  1
  O  O54  1  0.41854771  0.14006510  0.38649508  1
  O  O55  1  0.58145229  0.85993490  0.61350492  1
  O  O56  1  0.90971407  0.51246106  0.01251848  1
  O  O57  1  0.09028593  0.48753894  0.98748152  1
  O  O58  1  0.40971407  0.48753894  0.48748152  1
  O  O59  1  0.59028593  0.51246106  0.51251848  1
  O  O60  1  0.80269955  0.64828839  0.06867826  1
  O  O61  1  0.19730045  0.35171161  0.93132174  1
  O  O62  1  0.30269955  0.35171161  0.43132174  1
  O  O63  1  0.69730045  0.64828839  0.56867826  1
  O  O64  1  0.44876999  0.83558289  0.71190556  1
  O  O65  1  0.55123001  0.16441711  0.28809444  1
  O  O66  1  0.94876999  0.16441711  0.78809444  1
  O  O67  1  0.05123001  0.83558289  0.21190556  1
  O  O68  1  0.59886837  0.70487410  0.10429551  1
  O  O69  1  0.40113163  0.29512590  0.89570449  1
  O  O70  1  0.09886837  0.29512590  0.39570449  1
  O  O71  1  0.90113163  0.70487410  0.60429551  1
  O  O72  1  0.91192339  0.52932593  0.46341583  1
  O  O73  1  0.08807661  0.47067407  0.53658417  1
  O  O74  1  0.41192339  0.47067407  0.03658417  1
  O  O75  1  0.58807661  0.52932593  0.96341583  1
  O  O76  1  0.41442673  0.71540427  0.12125622  1
  O  O77  1  0.58557327  0.28459573  0.87874378  1
  O  O78  1  0.91442673  0.28459573  0.37874378  1
  O  O79  1  0.08557327  0.71540427  0.62125622  1
  O  O80  1  0.23317268  0.71661058  0.12180327  1
  O  O81  1  0.76682732  0.28338942  0.87819673  1
  O  O82  1  0.73317268  0.28338942  0.37819673  1
  O  O83  1  0.26682732  0.71661058  0.62180327  1
  O  O84  1  0.22488890  0.94549228  0.22922569  1
  O  O85  1  0.77511110  0.05450772  0.77077431  1
  O  O86  1  0.72488890  0.05450772  0.27077431  1
  O  O87  1  0.27511110  0.94549228  0.72922569  1
  O  O88  1  0.61194382  0.94409456  0.20618327  1
  O  O89  1  0.38805618  0.05590544  0.79381673  1
  O  O90  1  0.11194382  0.05590544  0.29381673  1
  O  O91  1  0.88805618  0.94409456  0.70618327  1
  O  O92  1  0.76772353  0.45800743  0.00255138  1
  O  O93  1  0.23227647  0.54199257  0.99744862  1
  O  O94  1  0.26772353  0.54199257  0.49744862  1
  O  O95  1  0.73227647  0.45800743  0.50255138  1
