# generated using pymatgen
data_Cs3LaBr6
_symmetry_space_group_name_H-M   'P 1'
_cell_length_a   8.83822233
_cell_length_b   13.90127149
_cell_length_c   14.86516032
_cell_angle_alpha   72.25843142
_cell_angle_beta   90.00000000
_cell_angle_gamma   90.00000000
_symmetry_Int_Tables_number   1
_chemical_formula_structural   Cs3LaBr6
_chemical_formula_sum   'Cs12 La4 Br24'
_cell_volume   1739.51015503
_cell_formula_units_Z   4
loop_
 _symmetry_equiv_pos_site_id
 _symmetry_equiv_pos_as_xyz
  1  'x, y, z'
loop_
 _atom_site_type_symbol
 _atom_site_label
 _atom_site_symmetry_multiplicity
 _atom_site_fract_x
 _atom_site_fract_y
 _atom_site_fract_z
 _atom_site_occupancy
  Cs  Cs0  1  0.43661448  0.73686648  0.31532321  1
  Cs  Cs1  1  0.56338552  0.26313352  0.68467679  1
  Cs  Cs2  1  0.93661448  0.76313352  0.68467679  1
  Cs  Cs3  1  0.06338552  0.23686648  0.31532321  1
  Cs  Cs4  1  0.95136138  0.64145893  0.09618769  1
  Cs  Cs5  1  0.04863862  0.35854107  0.90381231  1
  Cs  Cs6  1  0.45136138  0.85854107  0.90381231  1
  Cs  Cs7  1  0.54863862  0.14145893  0.09618769  1
  Cs  Cs8  1  0.93023851  0.88510607  0.31955592  1
  Cs  Cs9  1  0.06976149  0.11489393  0.68044408  1
  Cs  Cs10  1  0.43023851  0.61489393  0.68044408  1
  Cs  Cs11  1  0.56976149  0.38510607  0.31955592  1
  La  La12  1  0.00000000  0.50000000  0.50000000  1
  La  La13  1  0.50000000  0.00000000  0.50000000  1
  La  La14  1  0.00000000  0.00000000  -0.00000000  1
  La  La15  1  0.50000000  0.50000000  -0.00000000  1
  Br  Br16  1  0.50638943  0.62715023  0.12341088  1
  Br  Br17  1  0.49361057  0.37284977  0.87658912  1
  Br  Br18  1  0.00638943  0.87284977  0.87658912  1
  Br  Br19  1  0.99361057  0.12715023  0.12341088  1
  Br  Br20  1  0.29574674  0.99243022  0.34591127  1
  Br  Br21  1  0.70425326  0.00756978  0.65408873  1
  Br  Br22  1  0.79574674  0.50756978  0.65408873  1
  Br  Br23  1  0.20425326  0.49243022  0.34591127  1
  Br  Br24  1  0.79389592  0.60889440  0.34654742  1
  Br  Br25  1  0.20610408  0.39110560  0.65345258  1
  Br  Br26  1  0.29389592  0.89110560  0.65345258  1
  Br  Br27  1  0.70610408  0.10889440  0.34654742  1
  Br  Br28  1  0.64173640  0.80682288  0.50116170  1
  Br  Br29  1  0.35826360  0.19317712  0.49883830  1
  Br  Br30  1  0.14173640  0.69317712  0.49883830  1
  Br  Br31  1  0.85826360  0.30682288  0.50116170  1
  Br  Br32  1  0.18665681  0.84679838  0.13135745  1
  Br  Br33  1  0.81334319  0.15320162  0.86864255  1
  Br  Br34  1  0.68665681  0.65320162  0.86864255  1
  Br  Br35  1  0.31334319  0.34679838  0.13135745  1
  Br  Br36  1  0.72569129  0.89422774  0.09904506  1
  Br  Br37  1  0.27430871  0.10577226  0.90095494  1
  Br  Br38  1  0.22569129  0.60577226  0.90095494  1
  Br  Br39  1  0.77430871  0.39422774  0.09904506  1
