# generated using pymatgen
data_Cs2As2Pt
_symmetry_space_group_name_H-M   'P 1'
_cell_length_a   8.31081892
_cell_length_b   8.31081892
_cell_length_c   6.52594918
_cell_angle_alpha   90.00000000
_cell_angle_beta   90.00000000
_cell_angle_gamma   129.84510434
_symmetry_Int_Tables_number   1
_chemical_formula_structural   Cs2As2Pt
_chemical_formula_sum   'Cs4 As4 Pt2'
_cell_volume   346.07304179
_cell_formula_units_Z   2
loop_
 _symmetry_equiv_pos_site_id
 _symmetry_equiv_pos_as_xyz
  1  'x, y, z'
loop_
 _atom_site_type_symbol
 _atom_site_label
 _atom_site_symmetry_multiplicity
 _atom_site_fract_x
 _atom_site_fract_y
 _atom_site_fract_z
 _atom_site_occupancy
  Cs  Cs0  1  0.79371275  0.20628725  0.25000000  1
  Cs  Cs1  1  0.20628725  0.79371275  0.75000000  1
  Cs  Cs2  1  0.41403082  0.58596918  0.25000000  1
  Cs  Cs3  1  0.58596918  0.41403082  0.75000000  1
  As  As4  1  0.92633207  0.73024819  0.25000000  1
  As  As5  1  0.07366793  0.26975181  0.75000000  1
  As  As6  1  0.26975181  0.07366793  0.25000000  1
  As  As7  1  0.73024819  0.92633207  0.75000000  1
  Pt  Pt8  1  0.00000000  0.00000000  0.00000000  1
  Pt  Pt9  1  0.00000000  0.00000000  0.50000000  1
