# generated using pymatgen
data_Hf6CCl14
_symmetry_space_group_name_H-M   'P 1'
_cell_length_a   9.41557961
_cell_length_b   9.41557961
_cell_length_c   11.41257510
_cell_angle_alpha   90.00000000
_cell_angle_beta   90.00000000
_cell_angle_gamma   95.91449319
_symmetry_Int_Tables_number   1
_chemical_formula_structural   Hf6CCl14
_chemical_formula_sum   'Hf12 C2 Cl28'
_cell_volume   1006.37479101
_cell_formula_units_Z   2
loop_
 _symmetry_equiv_pos_site_id
 _symmetry_equiv_pos_as_xyz
  1  'x, y, z'
loop_
 _atom_site_type_symbol
 _atom_site_label
 _atom_site_symmetry_multiplicity
 _atom_site_fract_x
 _atom_site_fract_y
 _atom_site_fract_z
 _atom_site_occupancy
  Hf  Hf0  1  0.95360468  0.18297642  0.11693050  1
  Hf  Hf1  1  0.04639532  0.81702358  0.88306950  1
  Hf  Hf2  1  0.54639532  0.31702358  0.61693050  1
  Hf  Hf3  1  0.68297642  0.45360468  0.38306950  1
  Hf  Hf4  1  0.45360468  0.68297642  0.38306950  1
  Hf  Hf5  1  0.31702358  0.54639532  0.61693050  1
  Hf  Hf6  1  0.81702358  0.04639532  0.88306950  1
  Hf  Hf7  1  0.18297642  0.95360468  0.11693050  1
  Hf  Hf8  1  0.35433039  0.35433039  0.39540196  1
  Hf  Hf9  1  0.64566961  0.64566961  0.60459804  1
  Hf  Hf10  1  0.14566961  0.14566961  0.89540196  1
  Hf  Hf11  1  0.85433039  0.85433039  0.10459804  1
  C  C12  1  -0.00000000  0.00000000  -0.00000000  1
  C  C13  1  0.50000000  0.50000000  0.50000000  1
  Cl  Cl14  1  0.28705535  0.53388187  0.25162042  1
  Cl  Cl15  1  0.71294465  0.46611813  0.74837958  1
  Cl  Cl16  1  0.21294465  0.96611813  0.75162042  1
  Cl  Cl17  1  0.03388187  0.78705535  0.24837958  1
  Cl  Cl18  1  0.78705535  0.03388187  0.24837958  1
  Cl  Cl19  1  0.96611813  0.21294465  0.75162042  1
  Cl  Cl20  1  0.46611813  0.71294465  0.74837958  1
  Cl  Cl21  1  0.53388187  0.28705535  0.25162042  1
  Cl  Cl22  1  0.11662927  0.36515095  0.01003166  1
  Cl  Cl23  1  0.88337073  0.63484905  0.98996834  1
  Cl  Cl24  1  0.38337073  0.13484905  0.51003166  1
  Cl  Cl25  1  0.86515095  0.61662927  0.48996834  1
  Cl  Cl26  1  0.61662927  0.86515095  0.48996834  1
  Cl  Cl27  1  0.13484905  0.38337073  0.51003166  1
  Cl  Cl28  1  0.63484905  0.88337073  0.98996834  1
  Cl  Cl29  1  0.36515095  0.11662927  0.01003166  1
  Cl  Cl30  1  0.89957071  0.39957071  0.25000000  1
  Cl  Cl31  1  0.10042929  0.60042929  0.75000000  1
  Cl  Cl32  1  0.60042929  0.10042929  0.75000000  1
  Cl  Cl33  1  0.39957071  0.89957071  0.25000000  1
  Cl  Cl34  1  0.74986640  0.25013360  -0.00000000  1
  Cl  Cl35  1  0.25013360  0.74986640  -0.00000000  1
  Cl  Cl36  1  0.75013360  0.24986640  0.50000000  1
  Cl  Cl37  1  0.24986640  0.75013360  0.50000000  1
  Cl  Cl38  1  0.15591607  0.15591607  0.26379336  1
  Cl  Cl39  1  0.84408393  0.84408393  0.73620664  1
  Cl  Cl40  1  0.34408393  0.34408393  0.76379336  1
  Cl  Cl41  1  0.65591607  0.65591607  0.23620664  1
