# generated using pymatgen
data_Nd2GeO5
_symmetry_space_group_name_H-M   'P 1'
_cell_length_a   7.26451338
_cell_length_b   7.00874917
_cell_length_c   9.49265930
_cell_angle_alpha   73.69611753
_cell_angle_beta   90.00000000
_cell_angle_gamma   90.00000000
_symmetry_Int_Tables_number   1
_chemical_formula_structural   Nd2GeO5
_chemical_formula_sum   'Nd8 Ge4 O20'
_cell_volume   463.88408522
_cell_formula_units_Z   4
loop_
 _symmetry_equiv_pos_site_id
 _symmetry_equiv_pos_as_xyz
  1  'x, y, z'
loop_
 _atom_site_type_symbol
 _atom_site_label
 _atom_site_symmetry_multiplicity
 _atom_site_fract_x
 _atom_site_fract_y
 _atom_site_fract_z
 _atom_site_occupancy
  Nd  Nd0  1  0.63678574  0.06379598  0.12508292  1
  Nd  Nd1  1  0.13678574  0.43620402  0.87491708  1
  Nd  Nd2  1  0.36321426  0.93620402  0.87491708  1
  Nd  Nd3  1  0.86321426  0.56379598  0.12508292  1
  Nd  Nd4  1  0.12695740  0.26706536  0.52519535  1
  Nd  Nd5  1  0.62695740  0.23293464  0.47480465  1
  Nd  Nd6  1  0.87304260  0.73293464  0.47480465  1
  Nd  Nd7  1  0.37304260  0.76706536  0.52519535  1
  Ge  Ge8  1  0.08934751  0.03075284  0.19958009  1
  Ge  Ge9  1  0.58934751  0.46924716  0.80041991  1
  Ge  Ge10  1  0.91065249  0.96924716  0.80041991  1
  Ge  Ge11  1  0.41065249  0.53075284  0.19958009  1
  O  O12  1  0.91821874  0.84275109  0.21156478  1
  O  O13  1  0.41821874  0.65724891  0.78843522  1
  O  O14  1  0.08178126  0.15724891  0.78843522  1
  O  O15  1  0.58178126  0.34275109  0.21156478  1
  O  O16  1  0.94829517  0.23290116  0.11333279  1
  O  O17  1  0.44829517  0.26709884  0.88666721  1
  O  O18  1  0.05170483  0.76709884  0.88666721  1
  O  O19  1  0.55170483  0.73290116  0.11333279  1
  O  O20  1  0.13295746  0.99256150  0.38979422  1
  O  O21  1  0.63295746  0.50743850  0.61020578  1
  O  O22  1  0.86704254  0.00743850  0.61020578  1
  O  O23  1  0.36704254  0.49256150  0.38979422  1
  O  O24  1  0.28844353  0.01066027  0.10726232  1
  O  O25  1  0.78844353  0.48933973  0.89273768  1
  O  O26  1  0.71155647  0.98933973  0.89273768  1
  O  O27  1  0.21155647  0.51066027  0.10726232  1
  O  O28  1  0.88272992  0.44230950  0.38641073  1
  O  O29  1  0.38272992  0.05769050  0.61358927  1
  O  O30  1  0.11727008  0.55769050  0.61358927  1
  O  O31  1  0.61727008  0.94230950  0.38641073  1
