# generated using pymatgen
data_K(SiAs)3
_symmetry_space_group_name_H-M   'P 1'
_cell_length_a   3.68215929
_cell_length_b   10.08242067
_cell_length_c   19.29573373
_cell_angle_alpha   90.00000000
_cell_angle_beta   90.00000000
_cell_angle_gamma   90.00000000
_symmetry_Int_Tables_number   1
_chemical_formula_structural   K(SiAs)3
_chemical_formula_sum   'K4 Si12 As12'
_cell_volume   716.35563785
_cell_formula_units_Z   4
loop_
 _symmetry_equiv_pos_site_id
 _symmetry_equiv_pos_as_xyz
  1  'x, y, z'
loop_
 _atom_site_type_symbol
 _atom_site_label
 _atom_site_symmetry_multiplicity
 _atom_site_fract_x
 _atom_site_fract_y
 _atom_site_fract_z
 _atom_site_occupancy
  K  K0  1  0.00000000  0.30696590  0.30410402  1
  K  K1  1  -0.00000000  0.69303410  0.69589598  1
  K  K2  1  0.00000000  0.19303410  0.80410402  1
  K  K3  1  0.00000000  0.80696590  0.19589598  1
  Si  Si4  1  0.50000000  0.40701284  0.03575015  1
  Si  Si5  1  0.50000000  0.59298716  0.96424985  1
  Si  Si6  1  0.50000000  0.09298716  0.53575015  1
  Si  Si7  1  0.50000000  0.90701284  0.46424985  1
  Si  Si8  1  -0.00000000  0.11180804  0.01477773  1
  Si  Si9  1  -0.00000000  0.88819196  0.98522227  1
  Si  Si10  1  0.00000000  0.38819196  0.51477773  1
  Si  Si11  1  -0.00000000  0.61180804  0.48522227  1
  Si  Si12  1  -0.00000000  0.17348301  0.13166628  1
  Si  Si13  1  0.00000000  0.82651699  0.86833372  1
  Si  Si14  1  0.00000000  0.32651699  0.63166628  1
  Si  Si15  1  -0.00000000  0.67348301  0.36833372  1
  As  As16  1  0.50000000  0.10176092  0.19639484  1
  As  As17  1  0.50000000  0.89823908  0.80360516  1
  As  As18  1  0.50000000  0.39823908  0.69639484  1
  As  As19  1  0.50000000  0.60176092  0.30360516  1
  As  As20  1  0.50000000  0.28179892  0.45931710  1
  As  As21  1  0.50000000  0.71820108  0.54068290  1
  As  As22  1  0.50000000  0.21820108  0.95931710  1
  As  As23  1  0.50000000  0.78179892  0.04068290  1
  As  As24  1  0.00000000  0.41210844  0.11369734  1
  As  As25  1  0.00000000  0.58789156  0.88630266  1
  As  As26  1  0.00000000  0.08789156  0.61369734  1
  As  As27  1  -0.00000000  0.91210844  0.38630266  1
