# generated using pymatgen
data_Ga3Te3Cl
_symmetry_space_group_name_H-M   'P 1'
_cell_length_a   4.11480966
_cell_length_b   10.96321157
_cell_length_c   19.20803090
_cell_angle_alpha   90.00000000
_cell_angle_beta   90.00000000
_cell_angle_gamma   90.00000000
_symmetry_Int_Tables_number   1
_chemical_formula_structural   Ga3Te3Cl
_chemical_formula_sum   'Ga12 Te12 Cl4'
_cell_volume   866.50364054
_cell_formula_units_Z   4
loop_
 _symmetry_equiv_pos_site_id
 _symmetry_equiv_pos_as_xyz
  1  'x, y, z'
loop_
 _atom_site_type_symbol
 _atom_site_label
 _atom_site_symmetry_multiplicity
 _atom_site_fract_x
 _atom_site_fract_y
 _atom_site_fract_z
 _atom_site_occupancy
  Ga  Ga0  1  0.75000000  0.82287186  0.50551782  1
  Ga  Ga1  1  0.25000000  0.17712814  0.49448218  1
  Ga  Ga2  1  0.25000000  0.67712814  0.00551782  1
  Ga  Ga3  1  0.75000000  0.32287186  0.99448218  1
  Ga  Ga4  1  0.75000000  0.94018652  0.39812811  1
  Ga  Ga5  1  0.25000000  0.05981348  0.60187189  1
  Ga  Ga6  1  0.25000000  0.55981348  0.89812811  1
  Ga  Ga7  1  0.75000000  0.44018652  0.10187189  1
  Ga  Ga8  1  0.75000000  0.84704888  0.86304855  1
  Ga  Ga9  1  0.25000000  0.15295112  0.13695145  1
  Ga  Ga10  1  0.25000000  0.65295112  0.36304855  1
  Ga  Ga11  1  0.75000000  0.34704888  0.63695145  1
  Te  Te12  1  0.75000000  0.76329353  0.30207047  1
  Te  Te13  1  0.25000000  0.23670647  0.69792953  1
  Te  Te14  1  0.25000000  0.73670647  0.80207047  1
  Te  Te15  1  0.75000000  0.26329353  0.19792953  1
  Te  Te16  1  0.75000000  0.83470748  0.00059301  1
  Te  Te17  1  0.25000000  0.16529252  0.99940699  1
  Te  Te18  1  0.25000000  0.66529252  0.50059301  1
  Te  Te19  1  0.75000000  0.33470748  0.49940699  1
  Te  Te20  1  0.75000000  0.91408741  0.63330882  1
  Te  Te21  1  0.25000000  0.08591259  0.36669118  1
  Te  Te22  1  0.25000000  0.58591259  0.13330882  1
  Te  Te23  1  0.75000000  0.41408741  0.86669118  1
  Cl  Cl24  1  0.75000000  0.53940345  0.66799326  1
  Cl  Cl25  1  0.25000000  0.46059655  0.33200674  1
  Cl  Cl26  1  0.25000000  0.96059655  0.16799326  1
  Cl  Cl27  1  0.75000000  0.03940345  0.83200674  1
