# generated using pymatgen
data_MgTlCl3
_symmetry_space_group_name_H-M   'P 1'
_cell_length_a   7.02457848
_cell_length_b   7.00641041
_cell_length_c   9.98633726
_cell_angle_alpha   90.00000000
_cell_angle_beta   90.00000000
_cell_angle_gamma   90.00000000
_symmetry_Int_Tables_number   1
_chemical_formula_structural   MgTlCl3
_chemical_formula_sum   'Mg4 Tl4 Cl12'
_cell_volume   491.49835772
_cell_formula_units_Z   4
loop_
 _symmetry_equiv_pos_site_id
 _symmetry_equiv_pos_as_xyz
  1  'x, y, z'
loop_
 _atom_site_type_symbol
 _atom_site_label
 _atom_site_symmetry_multiplicity
 _atom_site_fract_x
 _atom_site_fract_y
 _atom_site_fract_z
 _atom_site_occupancy
  Mg  Mg0  1  0.00000000  -0.00000000  0.00000000  1
  Mg  Mg1  1  0.50000000  0.50000000  0.00000000  1
  Mg  Mg2  1  0.00000000  -0.00000000  0.50000000  1
  Mg  Mg3  1  0.50000000  0.50000000  0.50000000  1
  Tl  Tl4  1  0.00214292  0.48218387  0.25000000  1
  Tl  Tl5  1  0.99785708  0.51781613  0.75000000  1
  Tl  Tl6  1  0.50214292  0.01781613  0.75000000  1
  Tl  Tl7  1  0.49785708  0.98218387  0.25000000  1
  Cl  Cl8  1  0.27655501  0.22370575  0.01642279  1
  Cl  Cl9  1  0.72344499  0.77629425  0.98357721  1
  Cl  Cl10  1  0.77655501  0.27629425  0.98357721  1
  Cl  Cl11  1  0.72344499  0.77629425  0.51642279  1
  Cl  Cl12  1  0.22344499  0.72370575  0.01642279  1
  Cl  Cl13  1  0.27655501  0.22370575  0.48357721  1
  Cl  Cl14  1  0.22344499  0.72370575  0.48357721  1
  Cl  Cl15  1  0.77655501  0.27629425  0.51642279  1
  Cl  Cl16  1  0.53246581  0.49958149  0.25000000  1
  Cl  Cl17  1  0.46753419  0.50041851  0.75000000  1
  Cl  Cl18  1  0.03246581  0.00041851  0.75000000  1
  Cl  Cl19  1  0.96753419  -0.00041851  0.25000000  1
