# generated using pymatgen
data_Hg(PO3)2
_symmetry_space_group_name_H-M   'P 1'
_cell_length_a   7.13918621
_cell_length_b   9.81935138
_cell_length_c   13.80801360
_cell_angle_alpha   90.00004792
_cell_angle_beta   90.00000818
_cell_angle_gamma   89.99996440
_symmetry_Int_Tables_number   1
_chemical_formula_structural   Hg(PO3)2
_chemical_formula_sum   'Hg8 P16 O48'
_cell_volume   967.97182671
_cell_formula_units_Z   8
loop_
 _symmetry_equiv_pos_site_id
 _symmetry_equiv_pos_as_xyz
  1  'x, y, z'
loop_
 _atom_site_type_symbol
 _atom_site_label
 _atom_site_symmetry_multiplicity
 _atom_site_fract_x
 _atom_site_fract_y
 _atom_site_fract_z
 _atom_site_occupancy
  Hg  Hg0  1  0.54584624  0.99419108  0.29485966  1
  Hg  Hg1  1  0.04583993  0.50580237  0.70514678  1
  Hg  Hg2  1  0.45415038  0.49419717  0.20514010  1
  Hg  Hg3  1  0.95415434  0.00580113  0.79485338  1
  Hg  Hg4  1  0.45415464  0.00580187  0.70514677  1
  Hg  Hg5  1  0.95415000  0.49419655  0.29486026  1
  Hg  Hg6  1  0.54583982  0.50580217  0.79485321  1
  Hg  Hg7  1  0.04584634  0.99419115  0.20514031  1
  P  P8  1  0.07884732  0.29911597  0.09722668  1
  P  P9  1  0.57883669  0.20088555  0.90277271  1
  P  P10  1  0.92115394  0.79912546  0.40277874  1
  P  P11  1  0.42116701  0.70089671  0.59722414  1
  P  P12  1  0.92116663  0.70089663  0.90277595  1
  P  P13  1  0.42115400  0.79912517  0.09722106  1
  P  P14  1  0.07883633  0.20088573  0.59722759  1
  P  P15  1  0.57884691  0.29911609  0.40277372  1
  P  P16  1  0.68212778  0.21264860  0.10335211  1
  P  P17  1  0.18211341  0.28733363  0.89665256  1
  P  P18  1  0.31787732  0.71265620  0.39665100  1
  P  P19  1  0.81787937  0.78734917  0.60335177  1
  P  P20  1  0.31787858  0.78734935  0.89664816  1
  P  P21  1  0.81787737  0.71265571  0.10334904  1
  P  P22  1  0.68211232  0.28733323  0.60334755  1
  P  P23  1  0.18212709  0.21264882  0.39664801  1
  O  O24  1  0.65500582  0.13779586  0.00124295  1
  O  O25  1  0.15498961  0.36220538  0.99874974  1
  O  O26  1  0.34500201  0.63779294  0.49875614  1
  O  O27  1  0.84501097  0.86221304  0.50125396  1
  O  O28  1  0.34501119  0.86221294  0.99874598  1
  O  O29  1  0.84500221  0.63779264  0.00124371  1
  O  O30  1  0.65498949  0.36220533  0.50125074  1
  O  O31  1  0.15500585  0.13779543  0.49875691  1
  O  O32  1  0.85691321  0.31112800  0.08628588  1
  O  O33  1  0.35691069  0.18886880  0.91372362  1
  O  O34  1  0.14308924  0.81113216  0.41372130  1
  O  O35  1  0.64309032  0.68887582  0.58627398  1
  O  O36  1  0.14308951  0.68887644  0.91372586  1
  O  O37  1  0.64308922  0.81113205  0.08627823  1
  O  O38  1  0.85690987  0.18886815  0.58627628  1
  O  O39  1  0.35691288  0.31112808  0.41371428  1
  O  O40  1  0.13743410  0.15411933  0.10256617  1
  O  O41  1  0.13394459  0.39699671  0.17564760  1
  O  O42  1  0.63741855  0.34589228  0.89743331  1
  O  O43  1  0.36257982  0.84588831  0.60256116  1
  O  O44  1  0.86257791  0.84588784  0.89743860  1
  O  O45  1  0.36256979  0.65411773  0.10255728  1
  O  O46  1  0.13741751  0.34589303  0.60256652  1
  O  O47  1  0.63743420  0.15411946  0.39743314  1
  O  O48  1  0.01537574  0.29841477  0.37815542  1
  O  O49  1  0.51538505  0.20157332  0.62183422  1
  O  O50  1  0.98462217  0.79841112  0.12184351  1
  O  O51  1  0.48462211  0.70158280  0.87815433  1
  O  O52  1  0.98462233  0.70158298  0.62184561  1
  O  O53  1  0.48462032  0.79841155  0.37815596  1
  O  O54  1  0.01538545  0.20157334  0.87816580  1
  O  O55  1  0.51537594  0.29841464  0.12184522  1
  O  O56  1  0.23496397  0.10464602  0.32526939  1
  O  O57  1  0.73495506  0.39533102  0.67473945  1
  O  O58  1  0.76503020  0.60464906  0.17473315  1
  O  O59  1  0.26503391  0.89533649  0.82526379  1
  O  O60  1  0.76503412  0.89533683  0.67473637  1
  O  O61  1  0.26502944  0.60464892  0.32526670  1
  O  O62  1  0.23495539  0.39533075  0.82526091  1
  O  O63  1  0.73496436  0.10464634  0.17473015  1
  O  O64  1  0.63394241  0.39699914  0.32435429  1
  O  O65  1  0.13393399  0.10301545  0.67564920  1
  O  O66  1  0.36605864  0.89699313  0.17564463  1
  O  O67  1  0.86607162  0.60301574  0.82434921  1
  O  O68  1  0.36607172  0.60301608  0.67565086  1
  O  O69  1  0.86605829  0.89699308  0.32435550  1
  O  O70  1  0.63393381  0.10301538  0.82435113  1
  O  O71  1  0.86256967  0.65411778  0.39744259  1
