# generated using pymatgen
data_BaN6
_symmetry_space_group_name_H-M   'P 1'
_cell_length_a   4.41020549
_cell_length_b   5.47417902
_cell_length_c   9.66030524
_cell_angle_alpha   99.24314907
_cell_angle_beta   90.00000000
_cell_angle_gamma   90.00000000
_symmetry_Int_Tables_number   1
_chemical_formula_structural   BaN6
_chemical_formula_sum   'Ba2 N12'
_cell_volume   230.19329970
_cell_formula_units_Z   2
loop_
 _symmetry_equiv_pos_site_id
 _symmetry_equiv_pos_as_xyz
  1  'x, y, z'
loop_
 _atom_site_type_symbol
 _atom_site_label
 _atom_site_symmetry_multiplicity
 _atom_site_fract_x
 _atom_site_fract_y
 _atom_site_fract_z
 _atom_site_occupancy
  Ba  Ba0  1  0.75000000  0.82938751  0.78263653  1
  Ba  Ba1  1  0.25000000  0.17061249  0.21736347  1
  N  N2  1  0.75000000  0.29312320  0.66622512  1
  N  N3  1  0.25000000  0.70687680  0.33377488  1
  N  N4  1  0.25000000  0.13972989  0.90370970  1
  N  N5  1  0.75000000  0.86027011  0.09629030  1
  N  N6  1  0.25000000  0.35192795  0.89241853  1
  N  N7  1  0.75000000  0.64807205  0.10758147  1
  N  N8  1  0.25000000  0.56277884  0.88367557  1
  N  N9  1  0.75000000  0.43722116  0.11632443  1
  N  N10  1  0.25000000  0.77778671  0.58130380  1
  N  N11  1  0.75000000  0.22221329  0.41869620  1
  N  N12  1  0.25000000  0.74247135  0.45746662  1
  N  N13  1  0.75000000  0.25752865  0.54253338  1
