# generated using pymatgen
data_MgFe6Sb10(IO3)6
_symmetry_space_group_name_H-M   'P 1'
_cell_length_a   8.07762195
_cell_length_b   9.69662205
_cell_length_c   12.62551898
_cell_angle_alpha   78.77117278
_cell_angle_beta   86.62398538
_cell_angle_gamma   72.22833870
_symmetry_Int_Tables_number   1
_chemical_formula_structural   MgFe6Sb10(IO3)6
_chemical_formula_sum   'Mg1 Fe6 Sb10 I6 O18'
_cell_volume   923.68494920
_cell_formula_units_Z   1
loop_
 _symmetry_equiv_pos_site_id
 _symmetry_equiv_pos_as_xyz
  1  'x, y, z'
loop_
 _atom_site_type_symbol
 _atom_site_label
 _atom_site_symmetry_multiplicity
 _atom_site_fract_x
 _atom_site_fract_y
 _atom_site_fract_z
 _atom_site_occupancy
  Mg  Mg0  1  0.89575010  0.58774914  0.55299399  1
  Fe  Fe1  1  0.71612080  0.99079161  0.34817370  1
  Fe  Fe2  1  0.25864840  0.00104797  0.65585291  1
  Fe  Fe3  1  0.01917211  0.97556323  0.12293962  1
  Fe  Fe4  1  0.96502053  0.04837267  0.87549441  1
  Fe  Fe5  1  0.61213178  0.08886472  0.05877567  1
  Fe  Fe6  1  0.37803118  0.92427326  0.94548267  1
  Sb  Sb7  1  0.91485214  0.15703204  0.49489127  1
  Sb  Sb8  1  0.10766502  0.77784311  0.50661564  1
  Sb  Sb9  1  0.25554131  0.14188948  0.26219177  1
  Sb  Sb10  1  0.73055708  0.86822842  0.74160041  1
  Sb  Sb11  1  0.51661126  0.20470681  0.76037891  1
  Sb  Sb12  1  0.46156234  0.79834953  0.23860600  1
  Sb  Sb13  1  0.18696810  0.26125690  0.99197371  1
  Sb  Sb14  1  0.80164212  0.75161238  0.01182136  1
  Sb  Sb15  1  0.79541839  0.29704167  0.20218531  1
  Sb  Sb16  1  0.19965371  0.71409989  0.80675615  1
  I  I17  1  0.71203051  0.34242477  0.93005534  1
  I  I18  1  0.26868183  0.65919185  0.07203392  1
  I  I19  1  0.89594703  0.66475166  0.31567407  1
  I  I20  1  0.08264582  0.32908064  0.69490763  1
  I  I21  1  0.50155513  0.28202263  0.39687318  1
  I  I22  1  0.55655484  0.62400266  0.60524748  1
  O  O23  1  0.13633100  0.07100844  0.98376190  1
  O  O24  1  0.84742068  0.94456015  0.01597493  1
  O  O25  1  0.87965384  0.96008565  0.47261398  1
  O  O26  1  0.16586387  0.07404694  0.50923285  1
  O  O27  1  0.78711773  0.09298373  0.19338176  1
  O  O28  1  0.21575454  0.91255256  0.82146161  1
  O  O29  1  0.43512582  0.13417786  0.90916189  1
  O  O30  1  0.55518224  0.86749394  0.08885859  1
  O  O31  1  0.76781567  0.05776822  0.77578566  1
  O  O32  1  0.22050218  0.95227478  0.21978187  1
  O  O33  1  0.48412994  0.03254970  0.70248768  1
  O  O34  1  0.50462221  0.96128624  0.29843202  1
  O  O35  1  0.04092775  0.25204975  0.13756109  1
  O  O36  1  0.95130512  0.76116212  0.85659033  1
  O  O37  1  0.12881041  0.83203634  0.65569520  1
  O  O38  1  0.94217716  0.22054421  0.33642565  1
  O  O39  1  0.62465671  0.81578821  0.88901520  1
  O  O40  1  0.37046660  0.18886214  0.10996066  1
