# generated using pymatgen
data_CsEr3Se5
_symmetry_space_group_name_H-M   'P 1'
_cell_length_a   4.10020931
_cell_length_b   12.33559180
_cell_length_c   21.99361423
_cell_angle_alpha   90.00000000
_cell_angle_beta   90.00000000
_cell_angle_gamma   90.00000000
_symmetry_Int_Tables_number   1
_chemical_formula_structural   CsEr3Se5
_chemical_formula_sum   'Cs4 Er12 Se20'
_cell_volume   1112.40420082
_cell_formula_units_Z   4
loop_
 _symmetry_equiv_pos_site_id
 _symmetry_equiv_pos_as_xyz
  1  'x, y, z'
loop_
 _atom_site_type_symbol
 _atom_site_label
 _atom_site_symmetry_multiplicity
 _atom_site_fract_x
 _atom_site_fract_y
 _atom_site_fract_z
 _atom_site_occupancy
  Cs  Cs0  1  0.25000000  0.85351572  0.09204470  1
  Cs  Cs1  1  0.75000000  0.14648428  0.90795530  1
  Cs  Cs2  1  0.75000000  0.35351572  0.40795530  1
  Cs  Cs3  1  0.25000000  0.64648428  0.59204470  1
  Er  Er4  1  0.75000000  0.79747764  0.82534534  1
  Er  Er5  1  0.25000000  0.20252236  0.17465466  1
  Er  Er6  1  0.25000000  0.29747764  0.67465466  1
  Er  Er7  1  0.75000000  0.70252236  0.32534534  1
  Er  Er8  1  0.25000000  0.95689866  0.69798202  1
  Er  Er9  1  0.75000000  0.04310134  0.30201798  1
  Er  Er10  1  0.75000000  0.45689866  0.80201798  1
  Er  Er11  1  0.25000000  0.54310134  0.19798202  1
  Er  Er12  1  0.75000000  0.39173101  0.05393120  1
  Er  Er13  1  0.25000000  0.60826899  0.94606880  1
  Er  Er14  1  0.25000000  0.89173101  0.44606880  1
  Er  Er15  1  0.75000000  0.10826899  0.55393120  1
  Se  Se16  1  0.25000000  0.94851819  0.56899163  1
  Se  Se17  1  0.75000000  0.05148181  0.43100837  1
  Se  Se18  1  0.75000000  0.44851819  0.93100837  1
  Se  Se19  1  0.25000000  0.55148181  0.06899163  1
  Se  Se20  1  0.75000000  0.76425096  0.95222970  1
  Se  Se21  1  0.25000000  0.23574904  0.04777030  1
  Se  Se22  1  0.25000000  0.26425096  0.54777030  1
  Se  Se23  1  0.75000000  0.73574904  0.45222970  1
  Se  Se24  1  0.25000000  0.94951550  0.82534622  1
  Se  Se25  1  0.75000000  0.05048450  0.17465378  1
  Se  Se26  1  0.75000000  0.44951550  0.67465378  1
  Se  Se27  1  0.25000000  0.55048450  0.32534622  1
  Se  Se28  1  0.75000000  0.12595386  0.68450047  1
  Se  Se29  1  0.25000000  0.87404614  0.31549953  1
  Se  Se30  1  0.25000000  0.62595386  0.81549953  1
  Se  Se31  1  0.75000000  0.37404614  0.18450047  1
  Se  Se32  1  0.75000000  0.69391401  0.19812829  1
  Se  Se33  1  0.25000000  0.30608599  0.80187171  1
  Se  Se34  1  0.25000000  0.19391401  0.30187171  1
  Se  Se35  1  0.75000000  0.80608599  0.69812829  1
