# generated using pymatgen
data_MgCrO2
_symmetry_space_group_name_H-M   'P 1'
_cell_length_a   2.91672651
_cell_length_b   7.51213782
_cell_length_c   7.75449150
_cell_angle_alpha   82.26330613
_cell_angle_beta   90.00000000
_cell_angle_gamma   90.00000000
_symmetry_Int_Tables_number   1
_chemical_formula_structural   MgCrO2
_chemical_formula_sum   'Mg4 Cr4 O8'
_cell_volume   168.36087579
_cell_formula_units_Z   4
loop_
 _symmetry_equiv_pos_site_id
 _symmetry_equiv_pos_as_xyz
  1  'x, y, z'
loop_
 _atom_site_type_symbol
 _atom_site_label
 _atom_site_symmetry_multiplicity
 _atom_site_fract_x
 _atom_site_fract_y
 _atom_site_fract_z
 _atom_site_occupancy
  Mg  Mg0  1  0.25000000  0.46000341  0.16942373  1
  Mg  Mg1  1  0.75000000  0.53999659  0.83057627  1
  Mg  Mg2  1  0.75000000  0.81566694  0.06465878  1
  Mg  Mg3  1  0.25000000  0.18433306  0.93534122  1
  Cr  Cr4  1  0.75000000  0.31014768  0.56257270  1
  Cr  Cr5  1  0.75000000  0.09913221  0.28226067  1
  Cr  Cr6  1  0.25000000  0.90086779  0.71773933  1
  Cr  Cr7  1  0.25000000  0.68985232  0.43742730  1
  O  O8  1  0.75000000  0.75045663  0.61132646  1
  O  O9  1  0.75000000  0.02234737  0.83798305  1
  O  O10  1  0.25000000  0.97765263  0.16201695  1
  O  O11  1  0.25000000  0.24954337  0.38867354  1
  O  O12  1  0.25000000  0.38568003  0.71750347  1
  O  O13  1  0.75000000  0.33055563  0.04399802  1
  O  O14  1  0.75000000  0.61431997  0.28249653  1
  O  O15  1  0.25000000  0.66944437  0.95600198  1
