# generated using pymatgen
data_Bi2H18C3(IN)9
_symmetry_space_group_name_H-M   'P 1'
_cell_length_a   9.06782066
_cell_length_b   9.06782066
_cell_length_c   21.02369114
_cell_angle_alpha   90.00000000
_cell_angle_beta   90.00000000
_cell_angle_gamma   108.31456714
_symmetry_Int_Tables_number   1
_chemical_formula_structural   Bi2H18C3(IN)9
_chemical_formula_sum   'Bi4 H36 C6 I18 N18'
_cell_volume   1641.11555450
_cell_formula_units_Z   2
loop_
 _symmetry_equiv_pos_site_id
 _symmetry_equiv_pos_as_xyz
  1  'x, y, z'
loop_
 _atom_site_type_symbol
 _atom_site_label
 _atom_site_symmetry_multiplicity
 _atom_site_fract_x
 _atom_site_fract_y
 _atom_site_fract_z
 _atom_site_occupancy
  Bi  Bi0  1  0.72793337  0.27206663  0.35119592  1
  Bi  Bi1  1  0.27206663  0.72793337  0.64880408  1
  Bi  Bi2  1  0.72793337  0.27206663  0.14880408  1
  Bi  Bi3  1  0.27206663  0.72793337  0.85119592  1
  H  H4  1  0.31456611  0.84983538  0.25000000  1
  H  H5  1  0.84983538  0.31456611  0.75000000  1
  H  H6  1  0.68543389  0.15016462  0.75000000  1
  H  H7  1  0.15016462  0.68543389  0.25000000  1
  H  H8  1  0.55453784  0.82657769  0.41392326  1
  H  H9  1  0.82657769  0.55453784  0.58607674  1
  H  H10  1  0.55453784  0.82657769  0.08607674  1
  H  H11  1  0.82657769  0.55453784  0.91392326  1
  H  H12  1  0.44546216  0.17342231  0.58607674  1
  H  H13  1  0.17342231  0.44546216  0.41392326  1
  H  H14  1  0.44546216  0.17342231  0.91392326  1
  H  H15  1  0.17342231  0.44546216  0.08607674  1
  H  H16  1  0.56940859  0.65289713  0.38743749  1
  H  H17  1  0.65289713  0.56940859  0.61256251  1
  H  H18  1  0.56940859  0.65289713  0.11256251  1
  H  H19  1  0.65289713  0.56940859  0.88743749  1
  H  H20  1  0.43059141  0.34710287  0.61256251  1
  H  H21  1  0.34710287  0.43059141  0.38743749  1
  H  H22  1  0.43059141  0.34710287  0.88743749  1
  H  H23  1  0.34710287  0.43059141  0.11256251  1
  H  H24  1  0.15091581  0.68557359  0.44244251  1
  H  H25  1  0.68557359  0.15091581  0.55755749  1
  H  H26  1  0.15091581  0.68557359  0.05755749  1
  H  H27  1  0.68557359  0.15091581  0.94244251  1
  H  H28  1  0.84908419  0.31442641  0.55755749  1
  H  H29  1  0.31442641  0.84908419  0.44244251  1
  H  H30  1  0.84908419  0.31442641  0.94244251  1
  H  H31  1  0.31442641  0.84908419  0.05755749  1
  H  H32  1  0.90377692  0.71304508  0.25000000  1
  H  H33  1  0.71304508  0.90377692  0.75000000  1
  H  H34  1  0.09622308  0.28695492  0.75000000  1
  H  H35  1  0.28695492  0.09622308  0.25000000  1
  H  H36  1  0.88142628  0.89521852  0.25000000  1
  H  H37  1  0.89521852  0.88142628  0.75000000  1
  H  H38  1  0.11857372  0.10478148  0.75000000  1
  H  H39  1  0.10478148  0.11857372  0.25000000  1
  C  C40  1  0.34997853  0.65002147  0.41129686  1
  C  C41  1  0.65002147  0.34997853  0.58870314  1
  C  C42  1  0.34997853  0.65002147  0.08870314  1
  C  C43  1  0.65002147  0.34997853  0.91129686  1
  C  C44  1  0.10689336  0.89310664  0.25000000  1
  C  C45  1  0.89310664  0.10689336  0.75000000  1
  I  I46  1  0.01220124  0.38193844  0.25000000  1
  I  I47  1  0.38193844  0.01220124  0.75000000  1
  I  I48  1  0.98779876  0.61806156  0.75000000  1
  I  I49  1  0.61806156  0.98779876  0.25000000  1
  I  I50  1  0.55716974  0.44283026  0.25000000  1
  I  I51  1  0.44283026  0.55716974  0.75000000  1
  I  I52  1  0.43084226  0.16042742  0.42390857  1
  I  I53  1  0.16042742  0.43084226  0.57609143  1
  I  I54  1  0.43084226  0.16042742  0.07609143  1
  I  I55  1  0.16042742  0.43084226  0.92390857  1
  I  I56  1  0.56915774  0.83957258  0.57609143  1
  I  I57  1  0.83957258  0.56915774  0.42390857  1
  I  I58  1  0.56915774  0.83957258  0.92390857  1
  I  I59  1  0.83957258  0.56915774  0.07609143  1
  I  I60  1  0.89931303  0.10068697  0.42480269  1
  I  I61  1  0.10068697  0.89931303  0.57519731  1
  I  I62  1  0.89931303  0.10068697  0.07519731  1
  I  I63  1  0.10068697  0.89931303  0.92480269  1
  N  N64  1  0.19744342  0.80255658  0.25000000  1
  N  N65  1  0.80255658  0.19744342  0.75000000  1
  N  N66  1  0.50024844  0.71767901  0.39827521  1
  N  N67  1  0.71767901  0.50024844  0.60172479  1
  N  N68  1  0.50024844  0.71767901  0.10172479  1
  N  N69  1  0.71767901  0.50024844  0.89827521  1
  N  N70  1  0.49975156  0.28232099  0.60172479  1
  N  N71  1  0.28232099  0.49975156  0.39827521  1
  N  N72  1  0.49975156  0.28232099  0.89827521  1
  N  N73  1  0.28232099  0.49975156  0.10172479  1
  N  N74  1  0.26638728  0.73361272  0.43502220  1
  N  N75  1  0.73361272  0.26638728  0.56497780  1
  N  N76  1  0.26638728  0.73361272  0.06497780  1
  N  N77  1  0.73361272  0.26638728  0.93502220  1
  N  N78  1  0.95315869  0.82945106  0.25000000  1
  N  N79  1  0.82945106  0.95315869  0.75000000  1
  N  N80  1  0.04684131  0.17054894  0.75000000  1
  N  N81  1  0.17054894  0.04684131  0.25000000  1
