# generated using pymatgen
data_MgFe4(PO4)4
_symmetry_space_group_name_H-M   'P 1'
_cell_length_a   8.62073030
_cell_length_b   9.15979920
_cell_length_c   5.21534024
_cell_angle_alpha   87.53839837
_cell_angle_beta   108.18879723
_cell_angle_gamma   90.76690558
_symmetry_Int_Tables_number   1
_chemical_formula_structural   MgFe4(PO4)4
_chemical_formula_sum   'Mg1 Fe4 P4 O16'
_cell_volume   390.88630688
_cell_formula_units_Z   1
loop_
 _symmetry_equiv_pos_site_id
 _symmetry_equiv_pos_as_xyz
  1  'x, y, z'
loop_
 _atom_site_type_symbol
 _atom_site_label
 _atom_site_symmetry_multiplicity
 _atom_site_fract_x
 _atom_site_fract_y
 _atom_site_fract_z
 _atom_site_occupancy
  Mg  Mg0  1  0.60415600  0.65827700  0.84998500  1
  Fe  Fe1  1  0.20755300  0.47594700  0.46642100  1
  Fe  Fe2  1  0.29369100  0.98880900  0.04405300  1
  Fe  Fe3  1  0.69649000  0.03726800  0.84764800  1
  Fe  Fe4  1  0.84558200  0.51793400  0.62074800  1
  P  P5  1  0.22959500  0.65175000  0.91042100  1
  P  P6  1  0.29855700  0.14874300  0.60833000  1
  P  P7  1  0.65210800  0.84439200  0.35997700  1
  P  P8  1  0.82528500  0.35762700  0.14372200  1
  O  O9  1  0.08652100  0.56355400  0.70765300  1
  O  O10  1  0.16504700  0.12123000  0.74491500  1
  O  O11  1  0.17884300  0.81178500  0.89212700  1
  O  O12  1  0.24986400  0.09288900  0.32167800  1
  O  O13  1  0.36928700  0.62080200  0.78806000  1
  O  O14  1  0.27078800  0.58642400  0.19903300  1
  O  O15  1  0.34521800  0.31326800  0.60219100  1
  O  O16  1  0.44720300  0.06106200  0.81148300  1
  O  O17  1  0.46823700  0.87665400  0.29429700  1
  O  O18  1  0.68173100  0.69371100  0.52446500  1
  O  O19  1  0.75018600  0.48763800  0.93368600  1
  O  O20  1  0.75021400  0.36375400  0.37390300  1
  O  O21  1  0.75376600  0.96279100  0.53480600  1
  O  O22  1  0.80049500  0.21394800  0.00478700  1
  O  O23  1  0.69245900  0.82833900  0.08868700  1
  O  O24  1  0.01212400  0.39283400  0.25192400  1
