# generated using pymatgen
data_Ca(SiO2)6
_symmetry_space_group_name_H-M   'P 1'
_cell_length_a   5.37026148
_cell_length_b   10.04109096
_cell_length_c   7.69397834
_cell_angle_alpha   78.82632052
_cell_angle_beta   66.37708790
_cell_angle_gamma   50.72324771
_symmetry_Int_Tables_number   1
_chemical_formula_structural   Ca(SiO2)6
_chemical_formula_sum   'Ca1 Si6 O12'
_cell_volume   293.19730787
_cell_formula_units_Z   1
loop_
 _symmetry_equiv_pos_site_id
 _symmetry_equiv_pos_as_xyz
  1  'x, y, z'
loop_
 _atom_site_type_symbol
 _atom_site_label
 _atom_site_symmetry_multiplicity
 _atom_site_fract_x
 _atom_site_fract_y
 _atom_site_fract_z
 _atom_site_occupancy
  Ca  Ca0  1  0.00000000  0.00000000  0.00000000  1
  Si  Si1  1  0.46920900  0.30982500  0.29396700  1
  Si  Si2  1  0.26508900  0.17006000  0.05969400  1
  Si  Si3  1  0.53079100  0.69017500  0.70603300  1
  Si  Si4  1  0.73491100  0.82994000  0.94030600  1
  Si  Si5  1  0.08698600  0.29251800  0.72061500  1
  Si  Si6  1  0.91301400  0.70748200  0.27938500  1
  O  O7  1  0.72242900  0.49021500  0.74271200  1
  O  O8  1  0.04211600  0.14789500  0.75688800  1
  O  O9  1  0.27757100  0.50978500  0.25728800  1
  O  O10  1  0.95788400  0.85210500  0.24311200  1
  O  O11  1  0.37215200  0.27474500  0.51400200  1
  O  O12  1  0.22180900  0.29174500  0.88332400  1
  O  O13  1  0.10366700  0.79667400  0.80505400  1
  O  O14  1  0.60033900  0.78168200  0.82175800  1
  O  O15  1  0.89633300  0.20332500  0.19494600  1
  O  O16  1  0.39966100  0.21831800  0.17824200  1
  O  O17  1  0.77819100  0.70825500  0.11667600  1
  O  O18  1  0.62784800  0.72525500  0.48599800  1
