# generated using pymatgen
data_CaCoF6
_symmetry_space_group_name_H-M   'P 1'
_cell_length_a   5.62041083
_cell_length_b   5.62028298
_cell_length_c   5.62002302
_cell_angle_alpha   55.60110175
_cell_angle_beta   55.60340407
_cell_angle_gamma   55.60143088
_symmetry_Int_Tables_number   1
_chemical_formula_structural   CaCoF6
_chemical_formula_sum   'Ca1 Co1 F6'
_cell_volume   112.71773403
_cell_formula_units_Z   1
loop_
 _symmetry_equiv_pos_site_id
 _symmetry_equiv_pos_as_xyz
  1  'x, y, z'
loop_
 _atom_site_type_symbol
 _atom_site_label
 _atom_site_symmetry_multiplicity
 _atom_site_fract_x
 _atom_site_fract_y
 _atom_site_fract_z
 _atom_site_occupancy
  Ca  Ca0  1  0.50000000  0.50000000  0.50000000  1
  Co  Co1  1  -0.00000000  0.00000000  0.00000000  1
  F  F2  1  0.64034094  0.91941142  0.21495030  1
  F  F3  1  0.91942113  0.21498455  0.64029088  1
  F  F4  1  0.78502380  0.35968034  0.08058924  1
  F  F5  1  0.08057887  0.78501545  0.35970912  1
  F  F6  1  0.35965906  0.08058858  0.78504970  1
  F  F7  1  0.21497620  0.64031966  0.91941076  1
