# generated using pymatgen
data_K2MgMn2P6(HO10)2
_symmetry_space_group_name_H-M   'P 1'
_cell_length_a   7.17896001
_cell_length_b   7.25919768
_cell_length_c   9.94635171
_cell_angle_alpha   71.80782083
_cell_angle_beta   74.28416594
_cell_angle_gamma   69.51351069
_symmetry_Int_Tables_number   1
_chemical_formula_structural   K2MgMn2P6(HO10)2
_chemical_formula_sum   'K2 Mg1 Mn2 P6 H2 O20'
_cell_volume   453.61706895
_cell_formula_units_Z   1
loop_
 _symmetry_equiv_pos_site_id
 _symmetry_equiv_pos_as_xyz
  1  'x, y, z'
loop_
 _atom_site_type_symbol
 _atom_site_label
 _atom_site_symmetry_multiplicity
 _atom_site_fract_x
 _atom_site_fract_y
 _atom_site_fract_z
 _atom_site_occupancy
  K  K0  1  0.41064200  0.58890200  0.33854800  1
  K  K1  1  0.58935800  0.41109800  0.66145200  1
  Mg  Mg2  1  0.50000000  0.50000000  0.00000000  1
  Mn  Mn3  1  0.00000000  0.50000000  0.00000000  1
  Mn  Mn4  1  0.50000000  0.00000000  0.50000000  1
  P  P5  1  0.27924000  0.13990400  0.19133400  1
  P  P6  1  0.15032000  0.30041900  0.70186400  1
  P  P7  1  0.17335200  0.85706000  0.78699900  1
  P  P8  1  0.82664800  0.14294000  0.21300100  1
  P  P9  1  0.84968000  0.69958100  0.29813600  1
  P  P10  1  0.72076000  0.86009600  0.80866600  1
  H  H11  1  0.00000000  0.50000000  0.50000000  1
  H  H12  1  0.50000000  0.00000000  0.00000000  1
  O  O13  1  0.04263800  0.18081500  0.17789100  1
  O  O14  1  0.96683100  0.40397500  0.62438000  1
  O  O15  1  0.30447500  0.34536200  0.09394800  1
  O  O16  1  0.11639400  0.08254200  0.80254700  1
  O  O17  1  0.29332800  0.09911700  0.34557200  1
  O  O18  1  0.15412300  0.40195400  0.81286600  1
  O  O19  1  0.34720700  0.26332300  0.59335200  1
  O  O20  1  0.26937700  0.71017000  0.91351800  1
  O  O21  1  0.40372500  0.96227800  0.12056100  1
  O  O22  1  0.70990300  0.16825200  0.35928600  1
  O  O23  1  0.29009700  0.83174800  0.64071400  1
  O  O24  1  0.59627500  0.03772200  0.87943900  1
  O  O25  1  0.73062300  0.28983000  0.08648200  1
  O  O26  1  0.65279300  0.73667700  0.40664800  1
  O  O27  1  0.84587700  0.59804600  0.18713400  1
  O  O28  1  0.70667200  0.90088300  0.65442800  1
  O  O29  1  0.88360600  0.91745800  0.19745300  1
  O  O30  1  0.69552500  0.65463800  0.90605200  1
  O  O31  1  0.03316900  0.59602500  0.37562000  1
  O  O32  1  0.95736200  0.81918500  0.82210900  1
