# generated using pymatgen
data_P
_symmetry_space_group_name_H-M   'P 1'
_cell_length_a   3.28372772
_cell_length_b   34.85703099
_cell_length_c   4.63208471
_cell_angle_alpha   90.00000000
_cell_angle_beta   90.00000000
_cell_angle_gamma   90.00000000
_symmetry_Int_Tables_number   1
_chemical_formula_structural   P
_chemical_formula_sum   P4
_cell_volume   530.19304289
_cell_formula_units_Z   4
loop_
 _symmetry_equiv_pos_site_id
 _symmetry_equiv_pos_as_xyz
  1  'x, y, z'
loop_
 _atom_site_type_symbol
 _atom_site_label
 _atom_site_symmetry_multiplicity
 _atom_site_fract_x
 _atom_site_fract_y
 _atom_site_fract_z
 _atom_site_occupancy
  P  P0  1  0.00000000  0.11816593  0.59215072  1
  P  P1  1  -0.00000000  0.17764307  0.40784928  1
  P  P2  1  0.50000000  0.17764307  0.09215072  1
  P  P3  1  0.50000000  0.11816593  0.90784928  1
