# generated using pymatgen
data_Nd2SiTeO4
_symmetry_space_group_name_H-M   'P 1'
_cell_length_a   6.31573760
_cell_length_b   7.19320191
_cell_length_c   11.21327110
_cell_angle_alpha   90.00000000
_cell_angle_beta   90.00000000
_cell_angle_gamma   90.00000000
_symmetry_Int_Tables_number   1
_chemical_formula_structural   Nd2SiTeO4
_chemical_formula_sum   'Nd8 Si4 Te4 O16'
_cell_volume   509.42311965
_cell_formula_units_Z   4
loop_
 _symmetry_equiv_pos_site_id
 _symmetry_equiv_pos_as_xyz
  1  'x, y, z'
loop_
 _atom_site_type_symbol
 _atom_site_label
 _atom_site_symmetry_multiplicity
 _atom_site_fract_x
 _atom_site_fract_y
 _atom_site_fract_z
 _atom_site_occupancy
  Nd  Nd0  1  0.38815683  0.75000000  0.50000000  1
  Nd  Nd1  1  0.38815683  0.75000000  -0.00000000  1
  Nd  Nd2  1  0.61184317  0.25000000  0.50000000  1
  Nd  Nd3  1  0.61184317  0.25000000  -0.00000000  1
  Nd  Nd4  1  0.88772610  0.96172949  0.75000000  1
  Nd  Nd5  1  0.88772610  0.53827051  0.25000000  1
  Nd  Nd6  1  0.11227390  0.46172949  0.75000000  1
  Nd  Nd7  1  0.11227390  0.03827051  0.25000000  1
  Si  Si8  1  0.11300022  0.25000000  -0.00000000  1
  Si  Si9  1  0.88699978  0.75000000  -0.00000000  1
  Si  Si10  1  0.88699978  0.75000000  0.50000000  1
  Si  Si11  1  0.11300022  0.25000000  0.50000000  1
  Te  Te12  1  0.59749334  0.57685315  0.75000000  1
  Te  Te13  1  0.59749334  0.92314685  0.25000000  1
  Te  Te14  1  0.40250666  0.07685315  0.75000000  1
  Te  Te15  1  0.40250666  0.42314685  0.25000000  1
  O  O16  1  0.26756706  0.07711360  0.46463406  1
  O  O17  1  0.26756706  0.42288640  0.53536594  1
  O  O18  1  0.73243294  0.57711360  0.03536594  1
  O  O19  1  0.73243294  0.92288640  0.96463406  1
  O  O20  1  0.73243294  0.92288640  0.53536594  1
  O  O21  1  0.73243294  0.57711360  0.46463406  1
  O  O22  1  0.26756706  0.42288640  0.96463406  1
  O  O23  1  0.26756706  0.07711360  0.03536594  1
  O  O24  1  0.04790145  0.76956665  0.38508969  1
  O  O25  1  0.04790145  0.76956665  0.11491031  1
  O  O26  1  0.95209855  0.26956665  0.11491031  1
  O  O27  1  0.95209855  0.23043335  0.88508969  1
  O  O28  1  0.95209855  0.23043335  0.61491031  1
  O  O29  1  0.95209855  0.26956665  0.38508969  1
  O  O30  1  0.04790145  0.73043335  0.88508969  1
  O  O31  1  0.04790145  0.73043335  0.61491031  1
