# generated using pymatgen
data_CaSc4(Si2O7)2
_symmetry_space_group_name_H-M   'P 1'
_cell_length_a   8.29472324
_cell_length_b   8.29472325
_cell_length_c   8.29472305
_cell_angle_alpha   45.27796435
_cell_angle_beta   45.27796436
_cell_angle_gamma   45.27796326
_symmetry_Int_Tables_number   1
_chemical_formula_structural   CaSc4(Si2O7)2
_chemical_formula_sum   'Ca1 Sc4 Si4 O14'
_cell_volume   262.39319394
_cell_formula_units_Z   1
loop_
 _symmetry_equiv_pos_site_id
 _symmetry_equiv_pos_as_xyz
  1  'x, y, z'
loop_
 _atom_site_type_symbol
 _atom_site_label
 _atom_site_symmetry_multiplicity
 _atom_site_fract_x
 _atom_site_fract_y
 _atom_site_fract_z
 _atom_site_occupancy
  Ca  Ca0  1  0.25103987  0.25103987  0.25103987  1
  Sc  Sc1  1  0.97119270  0.50425760  0.97119271  1
  Sc  Sc2  1  0.50425760  0.97119270  0.97119271  1
  Sc  Sc3  1  0.97119270  0.97119270  0.50425760  1
  Sc  Sc4  1  0.01337101  0.01337101  0.01337101  1
  Si  Si5  1  0.52876164  0.03651417  0.52876164  1
  Si  Si6  1  0.03651417  0.52876164  0.52876164  1
  Si  Si7  1  0.52876164  0.52876164  0.03651417  1
  Si  Si8  1  0.49539078  0.49539078  0.49539078  1
  O  O9  1  0.42701246  0.81860486  0.81860486  1
  O  O10  1  0.16456689  0.57522225  0.57522225  1
  O  O11  1  0.81860486  0.42701246  0.81860486  1
  O  O12  1  0.81860486  0.81860486  0.42701246  1
  O  O13  1  0.38129588  0.38129588  0.82003297  1
  O  O14  1  0.38129588  0.82003297  0.38129588  1
  O  O15  1  0.20758890  0.59282565  0.20758890  1
  O  O16  1  0.57522225  0.16456689  0.57522225  1
  O  O17  1  0.10149317  0.10149317  0.10149317  1
  O  O18  1  0.86816297  0.86816297  0.86816297  1
  O  O19  1  0.82003297  0.38129588  0.38129588  1
  O  O20  1  0.57522225  0.57522225  0.16456689  1
  O  O21  1  0.20758890  0.20758890  0.59282565  1
  O  O22  1  0.59282565  0.20758890  0.20758890  1
