# generated using pymatgen
data_Na6MnO4
_symmetry_space_group_name_H-M   'P 1'
_cell_length_a   5.84267088
_cell_length_b   7.60764136
_cell_length_c   13.17972950
_cell_angle_alpha   90.00000000
_cell_angle_beta   90.00000000
_cell_angle_gamma   90.00000000
_symmetry_Int_Tables_number   1
_chemical_formula_structural   Na6MnO4
_chemical_formula_sum   'Na24 Mn4 O16'
_cell_volume   585.82506691
_cell_formula_units_Z   4
loop_
 _symmetry_equiv_pos_site_id
 _symmetry_equiv_pos_as_xyz
  1  'x, y, z'
loop_
 _atom_site_type_symbol
 _atom_site_label
 _atom_site_symmetry_multiplicity
 _atom_site_fract_x
 _atom_site_fract_y
 _atom_site_fract_z
 _atom_site_occupancy
  Na  Na0  1  0.14233934  0.50000000  0.03791294  1
  Na  Na1  1  0.14233934  0.00000000  0.53791294  1
  Na  Na2  1  0.64255034  0.19322041  0.26933760  1
  Na  Na3  1  0.64255034  0.69322041  0.76933760  1
  Na  Na4  1  0.14255034  0.69322041  0.23066240  1
  Na  Na5  1  0.14255034  0.19322041  0.73066240  1
  Na  Na6  1  0.14255034  0.30677959  0.23066240  1
  Na  Na7  1  0.14255034  0.80677959  0.73066240  1
  Na  Na8  1  0.64255034  0.80677959  0.26933760  1
  Na  Na9  1  0.64255034  0.30677959  0.76933760  1
  Na  Na10  1  0.64233934  0.00000000  0.46208706  1
  Na  Na11  1  0.64233934  0.50000000  0.96208706  1
  Na  Na12  1  0.97373786  0.71002783  0.43008235  1
  Na  Na13  1  0.97373786  0.21002783  0.93008235  1
  Na  Na14  1  0.47373786  0.21002783  0.06991765  1
  Na  Na15  1  0.47373786  0.71002783  0.56991765  1
  Na  Na16  1  0.47412023  0.50000000  0.35935849  1
  Na  Na17  1  0.47412023  0.00000000  0.85935849  1
  Na  Na18  1  0.47373786  0.78997217  0.06991765  1
  Na  Na19  1  0.47373786  0.28997217  0.56991765  1
  Na  Na20  1  0.97373786  0.28997217  0.43008235  1
  Na  Na21  1  0.97373786  0.78997217  0.93008235  1
  Na  Na22  1  0.97412023  0.00000000  0.14064151  1
  Na  Na23  1  0.97412023  0.50000000  0.64064151  1
  Mn  Mn24  1  0.74780009  0.00000000  0.66684632  1
  Mn  Mn25  1  0.24780009  0.50000000  0.83315368  1
  Mn  Mn26  1  0.74780009  0.50000000  0.16684632  1
  Mn  Mn27  1  0.24780009  0.00000000  0.33315368  1
  O  O28  1  0.40542009  0.50000000  0.16667491  1
  O  O29  1  0.40542009  0.00000000  0.66667491  1
  O  O30  1  0.90542009  0.00000000  0.33332509  1
  O  O31  1  0.90542009  0.50000000  0.83332509  1
  O  O32  1  0.36393385  0.78066658  0.40635333  1
  O  O33  1  0.36393385  0.28066658  0.90635333  1
  O  O34  1  0.86393385  0.28066658  0.09364667  1
  O  O35  1  0.86393385  0.78066658  0.59364667  1
  O  O36  1  0.86415414  0.50000000  0.31297783  1
  O  O37  1  0.86415414  0.00000000  0.81297783  1
  O  O38  1  0.36415414  0.00000000  0.18702217  1
  O  O39  1  0.36415414  0.50000000  0.68702217  1
  O  O40  1  0.36393385  0.21933342  0.40635333  1
  O  O41  1  0.36393385  0.71933342  0.90635333  1
  O  O42  1  0.86393385  0.71933342  0.09364667  1
  O  O43  1  0.86393385  0.21933342  0.59364667  1
