# generated using pymatgen
data_KNa2Li3Fe2(Si2O5)6
_symmetry_space_group_name_H-M   'P 1'
_cell_length_a   10.18883170
_cell_length_b   10.18883170
_cell_length_c   14.33817400
_cell_angle_alpha   90.00000000
_cell_angle_beta   90.00000000
_cell_angle_gamma   119.99999805
_symmetry_Int_Tables_number   1
_chemical_formula_structural   KNa2Li3Fe2(Si2O5)6
_chemical_formula_sum   'K2 Na4 Li6 Fe4 Si24 O60'
_cell_volume   1289.06039034
_cell_formula_units_Z   2
loop_
 _symmetry_equiv_pos_site_id
 _symmetry_equiv_pos_as_xyz
  1  'x, y, z'
loop_
 _atom_site_type_symbol
 _atom_site_label
 _atom_site_symmetry_multiplicity
 _atom_site_fract_x
 _atom_site_fract_y
 _atom_site_fract_z
 _atom_site_occupancy
  K  K0  1  0.00000000  0.00000000  0.25000000  1
  K  K1  1  0.00000000  0.00000000  0.75000000  1
  Na  Na2  1  0.66666700  0.33333300  0.50000000  1
  Na  Na3  1  0.66666700  0.33333300  0.00000000  1
  Na  Na4  1  0.33333300  0.66666700  0.00000000  1
  Na  Na5  1  0.33333300  0.66666700  0.50000000  1
  Li  Li6  1  0.50000000  0.00000000  0.25000000  1
  Li  Li7  1  0.00000000  0.50000000  0.75000000  1
  Li  Li8  1  0.50000000  0.50000000  0.75000000  1
  Li  Li9  1  0.50000000  0.00000000  0.75000000  1
  Li  Li10  1  0.00000000  0.50000000  0.25000000  1
  Li  Li11  1  0.50000000  0.50000000  0.25000000  1
  Fe  Fe12  1  0.33333300  0.66666700  0.75000000  1
  Fe  Fe13  1  0.66666700  0.33333300  0.75000000  1
  Fe  Fe14  1  0.66666700  0.33333300  0.25000000  1
  Fe  Fe15  1  0.33333300  0.66666700  0.25000000  1
  Si  Si16  1  0.35543200  0.11897700  0.38840700  1
  Si  Si17  1  0.76354500  0.64456800  0.61159300  1
  Si  Si18  1  0.35543200  0.11897700  0.61159300  1
  Si  Si19  1  0.64456800  0.76354500  0.88840700  1
  Si  Si20  1  0.11897700  0.35543200  0.88840700  1
  Si  Si21  1  0.88102300  0.64456800  0.88840700  1
  Si  Si22  1  0.35543200  0.23645500  0.88840700  1
  Si  Si23  1  0.23645500  0.88102300  0.88840700  1
  Si  Si24  1  0.76354500  0.64456800  0.38840700  1
  Si  Si25  1  0.76354500  0.11897700  0.88840700  1
  Si  Si26  1  0.88102300  0.23645500  0.38840700  1
  Si  Si27  1  0.11897700  0.76354500  0.38840700  1
  Si  Si28  1  0.23645500  0.88102300  0.11159300  1
  Si  Si29  1  0.88102300  0.23645500  0.61159300  1
  Si  Si30  1  0.64456800  0.88102300  0.38840700  1
  Si  Si31  1  0.35543200  0.23645500  0.11159300  1
  Si  Si32  1  0.88102300  0.64456800  0.11159300  1
  Si  Si33  1  0.11897700  0.35543200  0.11159300  1
  Si  Si34  1  0.64456800  0.76354500  0.11159300  1
  Si  Si35  1  0.76354500  0.11897700  0.11159300  1
  Si  Si36  1  0.11897700  0.76354500  0.61159300  1
  Si  Si37  1  0.64456800  0.88102300  0.61159300  1
  Si  Si38  1  0.23645500  0.35543200  0.61159300  1
  Si  Si39  1  0.23645500  0.35543200  0.38840700  1
  O  O40  1  0.13938000  0.73787700  0.50000000  1
  O  O41  1  0.49435500  0.65802700  0.82975200  1
  O  O42  1  0.16367200  0.50564500  0.82975200  1
  O  O43  1  0.83632800  0.49435500  0.82975200  1
  O  O44  1  0.34197300  0.50564500  0.67024800  1
  O  O45  1  0.65802700  0.49435500  0.67024800  1
  O  O46  1  0.65802700  0.16367200  0.82975200  1
  O  O47  1  0.83632800  0.34197300  0.67024800  1
  O  O48  1  0.16367200  0.65802700  0.67024800  1
  O  O49  1  0.49435500  0.83632800  0.67024800  1
  O  O50  1  0.50564500  0.34197300  0.82975200  1
  O  O51  1  0.34197300  0.83632800  0.82975200  1
  O  O52  1  0.65802700  0.49435500  0.32975200  1
  O  O53  1  0.50564500  0.16367200  0.32975200  1
  O  O54  1  0.83632800  0.34197300  0.32975200  1
  O  O55  1  0.16367200  0.65802700  0.32975200  1
  O  O56  1  0.34197300  0.83632800  0.17024800  1
  O  O57  1  0.34197300  0.50564500  0.32975200  1
  O  O58  1  0.49435500  0.83632800  0.32975200  1
  O  O59  1  0.50564500  0.34197300  0.17024800  1
  O  O60  1  0.83632800  0.49435500  0.17024800  1
  O  O61  1  0.16367200  0.50564500  0.17024800  1
  O  O62  1  0.49435500  0.65802700  0.17024800  1
  O  O63  1  0.65802700  0.16367200  0.17024800  1
  O  O64  1  0.27581100  0.05469600  0.86583400  1
  O  O65  1  0.72418900  0.77888400  0.63416600  1
  O  O66  1  0.22111600  0.94530400  0.63416600  1
  O  O67  1  0.77888400  0.05469600  0.63416600  1
  O  O68  1  0.94530400  0.22111600  0.86583400  1
  O  O69  1  0.94530400  0.72418900  0.63416600  1
  O  O70  1  0.27581100  0.22111600  0.63416600  1
  O  O71  1  0.72418900  0.94530400  0.86583400  1
  O  O72  1  0.22111600  0.27581100  0.86583400  1
  O  O73  1  0.77888400  0.72418900  0.86583400  1
  O  O74  1  0.73787700  0.13938000  0.00000000  1
  O  O75  1  0.59849600  0.73787700  0.00000000  1
  O  O76  1  0.13938000  0.40150400  0.00000000  1
  O  O77  1  0.86062000  0.59849600  0.00000000  1
  O  O78  1  0.40150400  0.26212300  0.00000000  1
  O  O79  1  0.59849600  0.86062000  0.50000000  1
  O  O80  1  0.26212300  0.40150400  0.50000000  1
  O  O81  1  0.26212300  0.86062000  0.00000000  1
  O  O82  1  0.50564500  0.16367200  0.67024800  1
  O  O83  1  0.86062000  0.26212300  0.50000000  1
  O  O84  1  0.40150400  0.13938000  0.50000000  1
  O  O85  1  0.73787700  0.59849600  0.50000000  1
  O  O86  1  0.94530400  0.22111600  0.13416600  1
  O  O87  1  0.72418900  0.94530400  0.13416600  1
  O  O88  1  0.22111600  0.27581100  0.13416600  1
  O  O89  1  0.77888400  0.72418900  0.13416600  1
  O  O90  1  0.27581100  0.05469600  0.13416600  1
  O  O91  1  0.72418900  0.77888400  0.36583400  1
  O  O92  1  0.05469600  0.27581100  0.36583400  1
  O  O93  1  0.05469600  0.77888400  0.13416600  1
  O  O94  1  0.22111600  0.94530400  0.36583400  1
  O  O95  1  0.77888400  0.05469600  0.36583400  1
  O  O96  1  0.27581100  0.22111600  0.36583400  1
  O  O97  1  0.94530400  0.72418900  0.36583400  1
  O  O98  1  0.05469600  0.77888400  0.86583400  1
  O  O99  1  0.05469600  0.27581100  0.63416600  1
