# generated using pymatgen
data_Rb2Ti(Si2O5)3
_symmetry_space_group_name_H-M   'P 1'
_cell_length_a   7.35417706
_cell_length_b   7.35417706
_cell_length_c   15.13259140
_cell_angle_alpha   76.94472557
_cell_angle_beta   76.94472557
_cell_angle_gamma   59.86055979
_symmetry_Int_Tables_number   1
_chemical_formula_structural   Rb2Ti(Si2O5)3
_chemical_formula_sum   'Rb4 Ti2 Si12 O30'
_cell_volume   683.31671258
_cell_formula_units_Z   2
loop_
 _symmetry_equiv_pos_site_id
 _symmetry_equiv_pos_as_xyz
  1  'x, y, z'
loop_
 _atom_site_type_symbol
 _atom_site_label
 _atom_site_symmetry_multiplicity
 _atom_site_fract_x
 _atom_site_fract_y
 _atom_site_fract_z
 _atom_site_occupancy
  Rb  Rb0  1  0.40959714  0.14408029  0.69082970  1
  Rb  Rb1  1  0.14408029  0.40959714  0.19082970  1
  Rb  Rb2  1  0.63671151  0.88261035  0.02330404  1
  Rb  Rb3  1  0.88261035  0.63671151  0.52330404  1
  Ti  Ti4  1  0.78401203  0.30290338  0.09525398  1
  Ti  Ti5  1  0.30290338  0.78401203  0.59525398  1
  Si  Si6  1  0.54993335  0.41465358  0.46139033  1
  Si  Si7  1  0.41465358  0.54993335  0.96139033  1
  Si  Si8  1  0.63693719  -0.00199399  0.25541228  1
  Si  Si9  1  -0.00199399  0.63693719  0.75541228  1
  Si  Si10  1  0.35657096  0.15635898  0.44497930  1
  Si  Si11  1  0.15635898  0.35657096  0.94497930  1
  Si  Si12  1  0.53243732  0.63550308  0.25636067  1
  Si  Si13  1  0.63550308  0.53243732  0.75636067  1
  Si  Si14  1  0.07510389  0.01742796  0.93239638  1
  Si  Si15  1  0.01742796  0.07510389  0.43239638  1
  Si  Si16  1  0.06940962  0.92068452  0.24519306  1
  Si  Si17  1  0.92068452  0.06940962  0.74519306  1
  O  O18  1  0.95927136  0.43549010  0.02355574  1
  O  O19  1  0.43549010  0.95927136  0.52355574  1
  O  O20  1  0.71404051  0.47880758  0.18891605  1
  O  O21  1  0.47880758  0.71404051  0.68891605  1
  O  O22  1  0.03903049  0.07726657  0.15128710  1
  O  O23  1  0.07726657  0.03903049  0.65128710  1
  O  O24  1  0.53699679  0.52411323  0.04127105  1
  O  O25  1  0.52411323  0.53699679  0.54127105  1
  O  O26  1  0.76492114  0.18551976  0.46763366  1
  O  O27  1  0.18551976  0.76492114  0.96763366  1
  O  O28  1  0.61657838  0.17224377  0.16813800  1
  O  O29  1  0.17224377  0.61657838  0.66813800  1
  O  O30  1  0.88531272  0.84414775  0.27257874  1
  O  O31  1  0.84414775  0.88531272  0.77257874  1
  O  O32  1  0.35513476  0.35960425  0.47237111  1
  O  O33  1  0.35960425  0.35513476  0.97237111  1
  O  O34  1  0.50154015  0.10794516  0.34633135  1
  O  O35  1  0.10794516  0.50154015  0.84633135  1
  O  O36  1  0.85676648  0.13746029  -0.00413846  1
  O  O37  1  0.13746029  0.85676648  0.49586154  1
  O  O38  1  0.69815428  0.29236605  0.74281044  1
  O  O39  1  0.29236605  0.69815428  0.24281044  1
  O  O40  1  0.54481112  0.57038581  0.86176923  1
  O  O41  1  0.57038581  0.54481112  0.36176923  1
  O  O42  1  0.04155922  0.05445620  0.82610325  1
  O  O43  1  0.05445620  0.04155922  0.32610325  1
  O  O44  1  0.11047489  0.23825662  0.43111509  1
  O  O45  1  0.23825662  0.11047489  0.93111509  1
  O  O46  1  0.85870273  0.54170068  0.73403991  1
  O  O47  1  0.54170068  0.85870273  0.23403991  1
