# generated using pymatgen
data_MgTl2Pb16(Br9O4)2
_symmetry_space_group_name_H-M   'P 1'
_cell_length_a   8.46530995
_cell_length_b   12.63120090
_cell_length_c   12.96016600
_cell_angle_alpha   92.08331273
_cell_angle_beta   89.60227302
_cell_angle_gamma   90.65523732
_symmetry_Int_Tables_number   1
_chemical_formula_structural   MgTl2Pb16(Br9O4)2
_chemical_formula_sum   'Mg1 Tl2 Pb16 Br18 O8'
_cell_volume   1384.75600328
_cell_formula_units_Z   1
loop_
 _symmetry_equiv_pos_site_id
 _symmetry_equiv_pos_as_xyz
  1  'x, y, z'
loop_
 _atom_site_type_symbol
 _atom_site_label
 _atom_site_symmetry_multiplicity
 _atom_site_fract_x
 _atom_site_fract_y
 _atom_site_fract_z
 _atom_site_occupancy
  Mg  Mg0  1  0.09914881  0.58093952  0.46408438  1
  Tl  Tl1  1  0.65479674  0.76478260  0.75558650  1
  Tl  Tl2  1  0.34512167  0.23787011  0.24706046  1
  Pb  Pb3  1  0.82603355  0.33139871  0.97758297  1
  Pb  Pb4  1  0.35383217  0.18565588  0.62197090  1
  Pb  Pb5  1  0.17241454  0.67361599  0.01980285  1
  Pb  Pb6  1  0.64558559  0.38228829  0.69748615  1
  Pb  Pb7  1  0.64761510  0.10955793  0.80129892  1
  Pb  Pb8  1  0.66006202  0.81001129  0.37274595  1
  Pb  Pb9  1  0.18350120  0.83241322  0.46038889  1
  Pb  Pb10  1  0.83158318  0.98292457  0.15682390  1
  Pb  Pb11  1  0.35483796  0.61429404  0.28956833  1
  Pb  Pb12  1  0.17677324  0.47057389  0.70239008  1
  Pb  Pb13  1  0.81873811  0.16139437  0.52059671  1
  Pb  Pb14  1  0.36475675  0.89124483  0.19363061  1
  Pb  Pb15  1  0.36679254  0.30000898  0.89356693  1
  Pb  Pb16  1  0.17811564  0.01526619  0.83363791  1
  Pb  Pb17  1  0.64919835  0.69502482  0.10898438  1
  Pb  Pb18  1  0.81858897  0.51139759  0.31079192  1
  Br  Br19  1  0.87820322  0.87090959  0.95091710  1
  Br  Br20  1  0.11872675  0.13681880  0.03335929  1
  Br  Br21  1  0.10634124  0.47343971  0.13802419  1
  Br  Br22  1  0.59567805  0.43255352  0.12048727  1
  Br  Br23  1  0.39524360  0.56629482  0.87112753  1
  Br  Br24  1  0.36660164  0.62062816  0.57337783  1
  Br  Br25  1  0.11888493  0.37327693  0.47720110  1
  Br  Br26  1  0.10733344  0.04762458  0.35456439  1
  Br  Br27  1  0.60115598  0.06866019  0.36770578  1
  Br  Br28  1  0.00514669  0.77993102  0.22051304  1
  Br  Br29  1  0.88512113  0.96319712  0.62773300  1
  Br  Br30  1  0.39490817  0.92655768  0.63543356  1
  Br  Br31  1  0.88329350  0.53518754  0.87561311  1
  Br  Br32  1  0.61265817  0.36789745  0.43619259  1
  Br  Br33  1  0.38622288  0.87038362  0.93635122  1
  Br  Br34  1  0.85944971  0.62128200  0.58111921  1
  Br  Br35  1  0.60177403  0.13512198  0.06373741  1
  Br  Br36  1  0.00270284  0.24840428  0.75259135  1
  O  O37  1  0.62603429  0.19801723  0.64404997  1
  O  O38  1  0.37460686  0.13790014  0.79846009  1
  O  O39  1  0.37317224  0.70802951  0.13672340  1
  O  O40  1  0.65017450  0.64667598  0.28433483  1
  O  O41  1  0.63559185  0.86100045  0.19812057  1
  O  O42  1  0.37471058  0.35107989  0.71510386  1
  O  O43  1  0.63474072  0.29341733  0.85640096  1
  O  O44  1  0.38902688  0.79838066  0.34984157  1
