# generated using pymatgen
data_Ho2MgS4
_symmetry_space_group_name_H-M   'P 1'
_cell_length_a   13.36230698
_cell_length_b   7.82653515
_cell_length_c   6.48833551
_cell_angle_alpha   90.00000000
_cell_angle_beta   90.00000000
_cell_angle_gamma   90.00000000
_symmetry_Int_Tables_number   1
_chemical_formula_structural   Ho2MgS4
_chemical_formula_sum   'Ho8 Mg4 S16'
_cell_volume   678.55379526
_cell_formula_units_Z   4
loop_
 _symmetry_equiv_pos_site_id
 _symmetry_equiv_pos_as_xyz
  1  'x, y, z'
loop_
 _atom_site_type_symbol
 _atom_site_label
 _atom_site_symmetry_multiplicity
 _atom_site_fract_x
 _atom_site_fract_y
 _atom_site_fract_z
 _atom_site_occupancy
  Ho  Ho0  1  0.00000000  -0.00000000  0.50000000  1
  Ho  Ho1  1  0.50000000  -0.00000000  -0.00000000  1
  Ho  Ho2  1  0.50000000  0.50000000  -0.00000000  1
  Ho  Ho3  1  0.00000000  0.50000000  0.50000000  1
  Ho  Ho4  1  0.23109063  0.75000000  0.99137841  1
  Ho  Ho5  1  0.76890937  0.25000000  0.00862159  1
  Ho  Ho6  1  0.26890937  0.25000000  0.49137841  1
  Ho  Ho7  1  0.73109063  0.75000000  0.50862159  1
  Mg  Mg8  1  0.09658182  0.25000000  0.92038754  1
  Mg  Mg9  1  0.90341818  0.75000000  0.07961246  1
  Mg  Mg10  1  0.40341818  0.75000000  0.42038754  1
  Mg  Mg11  1  0.59658182  0.25000000  0.57961246  1
  S  S12  1  0.17059523  0.00846495  0.73465198  1
  S  S13  1  0.82940477  0.99153505  0.26534802  1
  S  S14  1  0.32940477  0.99153505  0.23465198  1
  S  S15  1  0.67059523  0.00846495  0.76534802  1
  S  S16  1  0.67059523  0.49153505  0.76534802  1
  S  S17  1  0.32940477  0.50846495  0.23465198  1
  S  S18  1  0.82940477  0.50846495  0.26534802  1
  S  S19  1  0.17059523  0.49153505  0.73465198  1
  S  S20  1  0.06989466  0.75000000  0.24427365  1
  S  S21  1  0.93010534  0.25000000  0.75572635  1
  S  S22  1  0.43010534  0.25000000  0.74427365  1
  S  S23  1  0.56989466  0.75000000  0.25572635  1
  S  S24  1  0.09006313  0.25000000  0.28717948  1
  S  S25  1  0.90993687  0.75000000  0.71282052  1
  S  S26  1  0.40993687  0.75000000  0.78717948  1
  S  S27  1  0.59006313  0.25000000  0.21282052  1
