# generated using pymatgen
data_Nd2CO5
_symmetry_space_group_name_H-M   'P 1'
_cell_length_a   4.03349494
_cell_length_b   4.03349514
_cell_length_c   15.68822464
_cell_angle_alpha   90.00000000
_cell_angle_beta   90.00000000
_cell_angle_gamma   121.82390851
_symmetry_Int_Tables_number   1
_chemical_formula_structural   Nd2CO5
_chemical_formula_sum   'Nd4 C2 O10'
_cell_volume   216.86453415
_cell_formula_units_Z   2
loop_
 _symmetry_equiv_pos_site_id
 _symmetry_equiv_pos_as_xyz
  1  'x, y, z'
loop_
 _atom_site_type_symbol
 _atom_site_label
 _atom_site_symmetry_multiplicity
 _atom_site_fract_x
 _atom_site_fract_y
 _atom_site_fract_z
 _atom_site_occupancy
  Nd  Nd0  1  0.33563989  0.66436011  0.40509948  1
  Nd  Nd1  1  0.33563989  0.66436011  0.09490052  1
  Nd  Nd2  1  0.66436011  0.33563989  0.90509948  1
  Nd  Nd3  1  0.66436011  0.33563989  0.59490052  1
  C  C4  1  0.07255816  0.92744184  0.25000000  1
  C  C5  1  0.92744184  0.07255816  0.75000000  1
  O  O6  1  0.01414941  0.98585059  0.67723219  1
  O  O7  1  0.25380144  0.74619856  0.25000000  1
  O  O8  1  0.98585059  0.01414941  0.32276781  1
  O  O9  1  0.01414941  0.98585059  0.82276781  1
  O  O10  1  0.33549065  0.66450935  0.94221438  1
  O  O11  1  0.33549065  0.66450935  0.55778562  1
  O  O12  1  0.66450935  0.33549065  0.44221438  1
  O  O13  1  0.66450935  0.33549065  0.05778562  1
  O  O14  1  0.98585059  0.01414941  0.17723219  1
  O  O15  1  0.74619856  0.25380144  0.75000000  1
