# generated using pymatgen
data_Cs10P4PdSe16
_symmetry_space_group_name_H-M   'P 1'
_cell_length_a   11.94830588
_cell_length_b   14.27525111
_cell_length_c   14.27525111
_cell_angle_alpha   90.00000000
_cell_angle_beta   90.00000000
_cell_angle_gamma   90.00000000
_symmetry_Int_Tables_number   1
_chemical_formula_structural   Cs10P4PdSe16
_chemical_formula_sum   'Cs20 P8 Pd2 Se32'
_cell_volume   2434.85915882
_cell_formula_units_Z   2
loop_
 _symmetry_equiv_pos_site_id
 _symmetry_equiv_pos_as_xyz
  1  'x, y, z'
loop_
 _atom_site_type_symbol
 _atom_site_label
 _atom_site_symmetry_multiplicity
 _atom_site_fract_x
 _atom_site_fract_y
 _atom_site_fract_z
 _atom_site_occupancy
  Cs  Cs0  1  0.75000000  0.50000000  0.35355729  1
  Cs  Cs1  1  0.75000000  0.50000000  0.64644271  1
  Cs  Cs2  1  0.25000000  0.35355729  0.50000000  1
  Cs  Cs3  1  0.25000000  0.64644271  0.50000000  1
  Cs  Cs4  1  0.55221746  0.00000000  0.50000000  1
  Cs  Cs5  1  0.94778254  0.00000000  0.50000000  1
  Cs  Cs6  1  0.44778254  0.50000000  -0.00000000  1
  Cs  Cs7  1  0.05221746  0.50000000  -0.00000000  1
  Cs  Cs8  1  0.49819601  0.25805197  0.25948449  1
  Cs  Cs9  1  0.49819601  0.74194803  0.74051551  1
  Cs  Cs10  1  0.00180399  0.25805197  0.74051551  1
  Cs  Cs11  1  0.00180399  0.74194803  0.25948449  1
  Cs  Cs12  1  0.50180399  0.25948449  0.74194803  1
  Cs  Cs13  1  0.50180399  0.74051551  0.25805197  1
  Cs  Cs14  1  0.99819601  0.74051551  0.74194803  1
  Cs  Cs15  1  0.99819601  0.25948449  0.25805197  1
  Cs  Cs16  1  0.75000000  0.00000000  0.15846793  1
  Cs  Cs17  1  0.75000000  0.00000000  0.84153207  1
  Cs  Cs18  1  0.25000000  0.15846793  -0.00000000  1
  Cs  Cs19  1  0.25000000  0.84153207  -0.00000000  1
  P  P20  1  0.75000000  0.26369851  -0.00000000  1
  P  P21  1  0.75000000  0.73630149  -0.00000000  1
  P  P22  1  0.25000000  0.00000000  0.73630149  1
  P  P23  1  0.25000000  0.00000000  0.26369851  1
  P  P24  1  0.75000000  0.24127859  0.50000000  1
  P  P25  1  0.75000000  0.75872141  0.50000000  1
  P  P26  1  0.25000000  0.50000000  0.75872141  1
  P  P27  1  0.25000000  0.50000000  0.24127859  1
  Pd  Pd28  1  0.75000000  0.50000000  -0.00000000  1
  Pd  Pd29  1  0.25000000  0.00000000  0.50000000  1
  Se  Se30  1  0.74835834  0.37155735  0.11752651  1
  Se  Se31  1  0.74835834  0.62844265  0.88247349  1
  Se  Se32  1  0.75164166  0.37155735  0.88247349  1
  Se  Se33  1  0.75164166  0.62844265  0.11752651  1
  Se  Se34  1  0.25164166  0.11752651  0.62844265  1
  Se  Se35  1  0.25164166  0.88247349  0.37155735  1
  Se  Se36  1  0.24835834  0.88247349  0.62844265  1
  Se  Se37  1  0.24835834  0.11752651  0.37155735  1
  Se  Se38  1  0.59810240  0.17850418  0.99909300  1
  Se  Se39  1  0.59810240  0.82149582  0.00090700  1
  Se  Se40  1  0.90189760  0.17850418  0.00090700  1
  Se  Se41  1  0.90189760  0.82149582  0.99909300  1
  Se  Se42  1  0.40189760  0.99909300  0.82149582  1
  Se  Se43  1  0.40189760  0.00090700  0.17850418  1
  Se  Se44  1  0.09810240  0.00090700  0.82149582  1
  Se  Se45  1  0.09810240  0.99909300  0.17850418  1
  Se  Se46  1  0.74956089  0.15106242  0.37106814  1
  Se  Se47  1  0.74956089  0.84893758  0.62893186  1
  Se  Se48  1  0.75043911  0.15106242  0.62893186  1
  Se  Se49  1  0.75043911  0.84893758  0.37106814  1
  Se  Se50  1  0.25043911  0.37106814  0.84893758  1
  Se  Se51  1  0.25043911  0.62893186  0.15106242  1
  Se  Se52  1  0.24956089  0.62893186  0.84893758  1
  Se  Se53  1  0.24956089  0.37106814  0.15106242  1
  Se  Se54  1  0.59676769  0.32949740  0.50014440  1
  Se  Se55  1  0.59676769  0.67050260  0.49985560  1
  Se  Se56  1  0.90323231  0.32949740  0.49985560  1
  Se  Se57  1  0.90323231  0.67050260  0.50014440  1
  Se  Se58  1  0.40323231  0.50014440  0.67050260  1
  Se  Se59  1  0.40323231  0.49985560  0.32949740  1
  Se  Se60  1  0.09676769  0.49985560  0.67050260  1
  Se  Se61  1  0.09676769  0.50014440  0.32949740  1
