# generated using pymatgen
data_Mg3Fe2H4(Se3O10)2
_symmetry_space_group_name_H-M   'P 1'
_cell_length_a   6.50455934
_cell_length_b   7.98903509
_cell_length_c   8.75257207
_cell_angle_alpha   85.78032201
_cell_angle_beta   79.05589844
_cell_angle_gamma   76.46124719
_symmetry_Int_Tables_number   1
_chemical_formula_structural   Mg3Fe2H4(Se3O10)2
_chemical_formula_sum   'Mg3 Fe2 H4 Se6 O20'
_cell_volume   433.94541395
_cell_formula_units_Z   1
loop_
 _symmetry_equiv_pos_site_id
 _symmetry_equiv_pos_as_xyz
  1  'x, y, z'
loop_
 _atom_site_type_symbol
 _atom_site_label
 _atom_site_symmetry_multiplicity
 _atom_site_fract_x
 _atom_site_fract_y
 _atom_site_fract_z
 _atom_site_occupancy
  Mg  Mg0  1  0.50000000  -0.00000000  0.00000000  1
  Mg  Mg1  1  0.30978051  0.67515763  0.26997950  1
  Mg  Mg2  1  0.69021949  0.32484237  0.73002050  1
  Fe  Fe3  1  0.13618521  0.39613170  0.12001326  1
  Fe  Fe4  1  0.86381479  0.60386830  0.87998674  1
  H  H5  1  0.32011790  0.46821301  0.54835881  1
  H  H6  1  0.67988210  0.53178699  0.45164119  1
  H  H7  1  0.13421423  0.63464765  0.56288518  1
  H  H8  1  0.86578677  0.36535235  0.43711482  1
  Se  Se9  1  0.23808411  0.07502518  0.37429772  1
  Se  Se10  1  0.76191589  0.92497482  0.62570228  1
  Se  Se11  1  0.66841396  0.29182077  0.13374494  1
  Se  Se12  1  0.33158604  0.70817923  0.86625506  1
  Se  Se13  1  0.20051192  0.21504625  0.77211326  1
  Se  Se14  1  0.79948808  0.78495375  0.22788674  1
  O  O15  1  0.33207735  0.79691821  0.03598786  1
  O  O16  1  0.66792265  0.20308179  0.96401214  1
  O  O17  1  0.45337535  0.05379461  0.22567633  1
  O  O18  1  0.54662465  0.94620539  0.77432367  1
  O  O19  1  0.13463960  0.90737572  0.35264034  1
  O  O20  1  0.86536040  0.09262428  0.64735966  1
  O  O21  1  0.06477860  0.24777172  0.29735135  1
  O  O22  1  0.93522140  0.75222828  0.70264865  1
  O  O23  1  0.22990446  0.20307807  0.96823554  1
  O  O24  1  0.77009554  0.79692193  0.03176446  1
  O  O25  1  0.83063839  0.43866058  0.07239465  1
  O  O26  1  0.16936161  0.56133942  0.92760535  1
  O  O27  1  0.41734112  0.43220852  0.16406205  1
  O  O28  1  0.58265888  0.56779148  0.83593795  1
  O  O29  1  0.39765111  0.31170195  0.68600259  1
  O  O30  1  0.60234889  0.68829805  0.31399741  1
  O  O31  1  0.25884872  0.57255476  0.49108199  1
  O  O32  1  0.74115128  0.42744524  0.50891801  1
  O  O33  1  0.02277610  0.61899868  0.23555755  1
  O  O34  1  0.97722390  0.38100132  0.76444245  1
