# generated using pymatgen
data_K2PdSe2
_symmetry_space_group_name_H-M   'P 1'
_cell_length_a   3.77128991
_cell_length_b   6.38770914
_cell_length_c   6.38770914
_cell_angle_alpha   71.22643778
_cell_angle_beta   72.83051872
_cell_angle_gamma   72.83051872
_symmetry_Int_Tables_number   1
_chemical_formula_structural   K2PdSe2
_chemical_formula_sum   'K2 Pd1 Se2'
_cell_volume   135.74832023
_cell_formula_units_Z   1
loop_
 _symmetry_equiv_pos_site_id
 _symmetry_equiv_pos_as_xyz
  1  'x, y, z'
loop_
 _atom_site_type_symbol
 _atom_site_label
 _atom_site_symmetry_multiplicity
 _atom_site_fract_x
 _atom_site_fract_y
 _atom_site_fract_z
 _atom_site_occupancy
  K  K0  1  0.19568941  0.30431059  0.30431059  1
  K  K1  1  0.80431059  0.69568941  0.69568941  1
  Pd  Pd2  1  0.00000000  0.00000000  -0.00000000  1
  Se  Se3  1  0.50000000  0.22031071  0.77968929  1
  Se  Se4  1  0.50000000  0.77968929  0.22031071  1
