# generated using pymatgen
data_MgZnH20PtC4(NO3)4
_symmetry_space_group_name_H-M   'P 1'
_cell_length_a   7.56571141
_cell_length_b   7.98841125
_cell_length_c   9.17091800
_cell_angle_alpha   115.84836212
_cell_angle_beta   114.33542772
_cell_angle_gamma   90.14022507
_symmetry_Int_Tables_number   1
_chemical_formula_structural   MgZnH20PtC4(NO3)4
_chemical_formula_sum   'Mg1 Zn1 H20 Pt1 C4 N4 O12'
_cell_volume   443.14681901
_cell_formula_units_Z   1
loop_
 _symmetry_equiv_pos_site_id
 _symmetry_equiv_pos_as_xyz
  1  'x, y, z'
loop_
 _atom_site_type_symbol
 _atom_site_label
 _atom_site_symmetry_multiplicity
 _atom_site_fract_x
 _atom_site_fract_y
 _atom_site_fract_z
 _atom_site_occupancy
  Mg  Mg0  1  0.39165522  0.89107387  0.78274766  1
  Zn  Zn1  1  0.00804219  0.50849462  0.01625498  1
  H  H2  1  0.45413245  0.74726776  0.12817994  1
  H  H3  1  0.67518247  0.38348193  0.13024839  1
  H  H4  1  0.29225538  0.23485962  0.80381747  1
  H  H5  1  0.51013352  0.56555467  0.80010535  1
  H  H6  1  0.65652037  0.88881735  0.31117611  1
  H  H7  1  0.65617986  0.42439236  0.31295918  1
  H  H8  1  0.30190272  0.11384631  0.61442422  1
  H  H9  1  0.30886861  0.50008261  0.61269612  1
  H  H10  1  0.67472101  0.74781682  0.12764802  1
  H  H11  1  0.45422682  0.38245766  0.13002056  1
  H  H12  1  0.50776735  0.23386311  0.79845327  1
  H  H13  1  0.29087775  0.56359530  0.79809259  1
  H  H14  1  0.94813842  0.78896487  0.89809760  1
  H  H15  1  0.95036890  0.10946263  0.89849048  1
  H  H16  1  0.05915052  0.20956220  0.11562617  1
  H  H17  1  0.05629269  0.90673991  0.11527777  1
  H  H18  1  0.92354539  0.81752741  0.63528415  1
  H  H19  1  0.71207597  0.81805379  0.63524629  1
  H  H20  1  0.29222819  0.18435390  0.36984105  1
  H  H21  1  0.07771969  0.18428363  0.36966823  1
  Pt  Pt22  1  0.56789667  0.06837879  0.13548684  1
  C  C23  1  0.92689238  0.32106938  0.64394914  1
  C  C24  1  0.71708213  0.32063689  0.64362682  1
  C  C25  1  0.30096748  0.69780725  0.39470095  1
  C  C26  1  0.09391250  0.69674692  0.39458300  1
  N  N27  1  0.58644807  0.83204422  0.17187072  1
  N  N28  1  0.58654023  0.34196969  0.17357900  1
  N  N29  1  0.37305124  0.14803458  0.74910284  1
  N  N30  1  0.37518480  0.59973076  0.74786364  1
  O  O31  1  0.07984083  0.40304898  0.80277852  1
  O  O32  1  0.72262599  0.39922551  0.80224929  1
  O  O33  1  0.30082773  0.62193027  0.24133087  1
  O  O34  1  0.94056398  0.62016682  0.24108081  1
  O  O35  1  0.93322816  0.24454384  0.49539683  1
  O  O36  1  0.56225638  0.24676118  0.49482254  1
  O  O37  1  0.45286087  0.77547055  0.55017024  1
  O  O38  1  0.09745585  0.77359703  0.54992538  1
  O  O39  1  0.00174937  0.77575226  0.00995431  1
  O  O40  1  0.00810188  0.23493066  0.01037627  1
  O  O41  1  0.85788673  0.85788640  0.71528739  1
  O  O42  1  0.14597422  0.14607272  0.29179497  1
