# generated using pymatgen
data_Cs3P6N11
_symmetry_space_group_name_H-M   'P 1'
_cell_length_a   10.66454506
_cell_length_b   10.66454506
_cell_length_c   10.66454506
_cell_angle_alpha   90.00000000
_cell_angle_beta   90.00000000
_cell_angle_gamma   90.00000000
_symmetry_Int_Tables_number   1
_chemical_formula_structural   Cs3P6N11
_chemical_formula_sum   'Cs12 P24 N44'
_cell_volume   1212.90559858
_cell_formula_units_Z   4
loop_
 _symmetry_equiv_pos_site_id
 _symmetry_equiv_pos_as_xyz
  1  'x, y, z'
loop_
 _atom_site_type_symbol
 _atom_site_label
 _atom_site_symmetry_multiplicity
 _atom_site_fract_x
 _atom_site_fract_y
 _atom_site_fract_z
 _atom_site_occupancy
  Cs  Cs0  1  0.97849796  0.97849796  0.97849796  1
  Cs  Cs1  1  0.22849796  0.27150204  0.72849796  1
  Cs  Cs2  1  0.27150204  0.72849796  0.22849796  1
  Cs  Cs3  1  0.72849796  0.22849796  0.27150204  1
  Cs  Cs4  1  0.47849796  0.52150204  0.02150204  1
  Cs  Cs5  1  0.52150204  0.02150204  0.47849796  1
  Cs  Cs6  1  0.02150204  0.47849796  0.52150204  1
  Cs  Cs7  1  0.77150204  0.77150204  0.77150204  1
  Cs  Cs8  1  0.87500000  0.12500000  0.62500000  1
  Cs  Cs9  1  0.12500000  0.62500000  0.87500000  1
  Cs  Cs10  1  0.62500000  0.87500000  0.12500000  1
  Cs  Cs11  1  0.37500000  0.37500000  0.37500000  1
  P  P12  1  0.68154032  0.45766405  0.54978585  1
  P  P13  1  0.18154032  0.04233595  0.45021415  1
  P  P14  1  0.45766405  0.54978585  0.68154032  1
  P  P15  1  0.54233595  0.04978585  0.81845968  1
  P  P16  1  0.54978585  0.68154032  0.45766405  1
  P  P17  1  0.95021415  0.31845968  0.95766405  1
  P  P18  1  0.43154032  0.79978585  0.79233595  1
  P  P19  1  0.93154032  0.70021415  0.20766405  1
  P  P20  1  0.56845968  0.29978585  0.70766405  1
  P  P21  1  0.70021415  0.20766405  0.93154032  1
  P  P22  1  0.70766405  0.56845968  0.29978585  1
  P  P23  1  0.20766405  0.93154032  0.70021415  1
  P  P24  1  0.79978585  0.79233595  0.43154032  1
  P  P25  1  0.79233595  0.43154032  0.79978585  1
  P  P26  1  0.29978585  0.70766405  0.56845968  1
  P  P27  1  0.20021415  0.29233595  0.06845968  1
  P  P28  1  0.29233595  0.06845968  0.20021415  1
  P  P29  1  0.45021415  0.18154032  0.04233595  1
  P  P30  1  0.04978585  0.81845968  0.54233595  1
  P  P31  1  0.95766405  0.95021415  0.31845968  1
  P  P32  1  0.04233595  0.45021415  0.18154032  1
  P  P33  1  0.81845968  0.54233595  0.04978585  1
  P  P34  1  0.31845968  0.95766405  0.95021415  1
  P  P35  1  0.06845968  0.20021415  0.29233595  1
  N  N36  1  0.55689209  0.55689209  0.55689209  1
  N  N37  1  0.80689209  0.69310791  0.30689209  1
  N  N38  1  0.69310791  0.30689209  0.80689209  1
  N  N39  1  0.30689209  0.80689209  0.69310791  1
  N  N40  1  0.05689209  0.94310791  0.44310791  1
  N  N41  1  0.94310791  0.44310791  0.05689209  1
  N  N42  1  0.44310791  0.05689209  0.94310791  1
  N  N43  1  0.19310791  0.19310791  0.19310791  1
  N  N44  1  0.62500000  0.31725769  0.56725769  1
  N  N45  1  0.68274231  0.06725769  0.87500000  1
  N  N46  1  0.56725769  0.62500000  0.31725769  1
  N  N47  1  0.93274231  0.37500000  0.81725769  1
  N  N48  1  0.31725769  0.56725769  0.62500000  1
  N  N49  1  0.43274231  0.12500000  0.18274231  1
  N  N50  1  0.06725769  0.87500000  0.68274231  1
  N  N51  1  0.81725769  0.93274231  0.37500000  1
  N  N52  1  0.18274231  0.43274231  0.12500000  1
  N  N53  1  0.87500000  0.68274231  0.06725769  1
  N  N54  1  0.37500000  0.81725769  0.93274231  1
  N  N55  1  0.27430240  0.00779513  0.33526804  1
  N  N56  1  0.12500000  0.18274231  0.43274231  1
  N  N57  1  0.24220487  0.02430240  0.58526804  1
  N  N58  1  0.47569760  0.41473196  0.74220487  1
  N  N59  1  0.52430240  0.91473196  0.75779513  1
  N  N60  1  0.41473196  0.74220487  0.47569760  1
  N  N61  1  0.08526804  0.25779513  0.97569760  1
  N  N62  1  0.49220487  0.66473196  0.77430240  1
  N  N63  1  0.99220487  0.83526804  0.22569760  1
  N  N64  1  0.50779513  0.16473196  0.72569760  1
  N  N65  1  0.83526804  0.22569760  0.99220487  1
  N  N66  1  0.72569760  0.50779513  0.16473196  1
  N  N67  1  0.22569760  0.99220487  0.83526804  1
  N  N68  1  0.66473196  0.77430240  0.49220487  1
  N  N69  1  0.77430240  0.49220487  0.66473196  1
  N  N70  1  0.16473196  0.72569760  0.50779513  1
  N  N71  1  0.33526804  0.27430240  0.00779513  1
  N  N72  1  0.00779513  0.33526804  0.27430240  1
  N  N73  1  0.25779513  0.97569760  0.08526804  1
  N  N74  1  0.75779513  0.52430240  0.91473196  1
  N  N75  1  0.02430240  0.58526804  0.24220487  1
  N  N76  1  0.97569760  0.08526804  0.25779513  1
  N  N77  1  0.91473196  0.75779513  0.52430240  1
  N  N78  1  0.58526804  0.24220487  0.02430240  1
  N  N79  1  0.74220487  0.47569760  0.41473196  1
