# generated using pymatgen
data_Cs8Mg(Sn2O3)4
_symmetry_space_group_name_H-M   'P 1'
_cell_length_a   6.25716715
_cell_length_b   9.51060436
_cell_length_c   14.40188876
_cell_angle_alpha   86.23874000
_cell_angle_beta   92.78376695
_cell_angle_gamma   91.74221439
_symmetry_Int_Tables_number   1
_chemical_formula_structural   Cs8Mg(Sn2O3)4
_chemical_formula_sum   'Cs8 Mg1 Sn8 O12'
_cell_volume   853.87457060
_cell_formula_units_Z   1
loop_
 _symmetry_equiv_pos_site_id
 _symmetry_equiv_pos_as_xyz
  1  'x, y, z'
loop_
 _atom_site_type_symbol
 _atom_site_label
 _atom_site_symmetry_multiplicity
 _atom_site_fract_x
 _atom_site_fract_y
 _atom_site_fract_z
 _atom_site_occupancy
  Cs  Cs0  1  0.22626409  0.55416458  0.38104425  1
  Cs  Cs1  1  0.73070333  0.45917740  0.62406423  1
  Cs  Cs2  1  0.73945062  0.01626155  0.13735035  1
  Cs  Cs3  1  0.25680174  0.93524067  0.85914773  1
  Cs  Cs4  1  0.42988835  0.31415454  0.05264135  1
  Cs  Cs5  1  0.78069811  0.63049804  0.89904914  1
  Cs  Cs6  1  0.74864468  0.85981896  0.41155286  1
  Cs  Cs7  1  0.22108724  0.15012813  0.59056145  1
  Mg  Mg8  1  0.97510708  0.39143876  0.15448715  1
  Sn  Sn9  1  0.21206503  0.80736628  0.15714782  1
  Sn  Sn10  1  0.75207800  0.18296276  0.84176935  1
  Sn  Sn11  1  0.74253895  0.29443662  0.36220419  1
  Sn  Sn12  1  0.23420697  0.70443868  0.63824285  1
  Sn  Sn13  1  0.24598366  0.11373581  0.30129771  1
  Sn  Sn14  1  0.74128612  0.88428557  0.69120525  1
  Sn  Sn15  1  0.68967277  0.62490119  0.21338224  1
  Sn  Sn16  1  0.25040530  0.37981702  0.78715658  1
  O  O17  1  0.00340102  0.27363222  0.27261102  1
  O  O18  1  0.49438115  0.74152331  0.73011275  1
  O  O19  1  0.95354732  0.76139634  0.24396062  1
  O  O20  1  0.48656789  0.23973298  0.75240696  1
  O  O21  1  0.99043535  0.74213016  0.72804206  1
  O  O22  1  0.51390864  0.23584747  0.26216537  1
  O  O23  1  0.99235112  0.24438484  0.75106717  1
  O  O24  1  0.46317922  0.76595679  0.25652399  1
  O  O25  1  0.21900427  0.02775723  0.17282416  1
  O  O26  1  0.75511936  0.96741836  0.82177012  1
  O  O27  1  0.71902567  0.51271285  0.34449940  1
  O  O28  1  0.23427993  0.48468090  0.65430487  1
