# generated using pymatgen
data_NaSrPH18SO12
_symmetry_space_group_name_H-M   'P 1'
_cell_length_a   10.80322605
_cell_length_b   10.80322605
_cell_length_c   10.80322605
_cell_angle_alpha   90.00000000
_cell_angle_beta   90.00000000
_cell_angle_gamma   90.00000000
_symmetry_Int_Tables_number   1
_chemical_formula_structural   NaSrPH18SO12
_chemical_formula_sum   'Na4 Sr4 P4 H72 S4 O48'
_cell_volume   1260.84119665
_cell_formula_units_Z   4
loop_
 _symmetry_equiv_pos_site_id
 _symmetry_equiv_pos_as_xyz
  1  'x, y, z'
loop_
 _atom_site_type_symbol
 _atom_site_label
 _atom_site_symmetry_multiplicity
 _atom_site_fract_x
 _atom_site_fract_y
 _atom_site_fract_z
 _atom_site_occupancy
  Na  Na0  1  0.43815534  0.93815534  0.56184466  1
  Na  Na1  1  0.93815534  0.56184466  0.43815534  1
  Na  Na2  1  0.56184466  0.43815534  0.93815534  1
  Na  Na3  1  0.06184466  0.06184466  0.06184466  1
  Sr  Sr4  1  0.18888870  0.81111130  0.31111130  1
  Sr  Sr5  1  0.68888870  0.68888870  0.68888870  1
  Sr  Sr6  1  0.31111130  0.18888870  0.81111130  1
  Sr  Sr7  1  0.81111130  0.31111130  0.18888870  1
  P  P8  1  0.69330861  0.80669139  0.19330861  1
  P  P9  1  0.80669139  0.19330861  0.69330861  1
  P  P10  1  0.30669139  0.30669139  0.30669139  1
  P  P11  1  0.19330861  0.69330861  0.80669139  1
  H  H12  1  0.26919770  0.82939420  0.01847717  1
  H  H13  1  0.98152283  0.76919770  0.67060580  1
  H  H14  1  0.32939420  0.48152283  0.73080230  1
  H  H15  1  0.76919770  0.67060580  0.98152283  1
  H  H16  1  0.48152283  0.73080230  0.32939420  1
  H  H17  1  0.82939420  0.01847717  0.26919770  1
  H  H18  1  0.73080230  0.32939420  0.48152283  1
  H  H19  1  0.01847717  0.26919770  0.82939420  1
  H  H20  1  0.67060580  0.98152283  0.76919770  1
  H  H21  1  0.23080230  0.17060580  0.51847717  1
  H  H22  1  0.51847717  0.23080230  0.17060580  1
  H  H23  1  0.17060580  0.51847717  0.23080230  1
  H  H24  1  0.39057296  0.85239678  0.09783792  1
  H  H25  1  0.90216208  0.89057296  0.64760322  1
  H  H26  1  0.35239678  0.40216208  0.60942704  1
  H  H27  1  0.89057296  0.64760322  0.90216208  1
  H  H28  1  0.40216208  0.60942704  0.35239678  1
  H  H29  1  0.85239678  0.09783792  0.39057296  1
  H  H30  1  0.60942704  0.35239678  0.40216208  1
  H  H31  1  0.09783792  0.39057296  0.85239678  1
  H  H32  1  0.64760322  0.90216208  0.89057296  1
  H  H33  1  0.10942704  0.14760322  0.59783792  1
  H  H34  1  0.59783792  0.10942704  0.14760322  1
  H  H35  1  0.14760322  0.59783792  0.10942704  1
  H  H36  1  0.40046501  0.68438074  0.66234928  1
  H  H37  1  0.33765072  0.90046501  0.81561926  1
  H  H38  1  0.18438074  0.83765072  0.59953499  1
  H  H39  1  0.90046501  0.81561926  0.33765072  1
  H  H40  1  0.83765072  0.59953499  0.18438074  1
  H  H41  1  0.68438074  0.66234928  0.40046501  1
  H  H42  1  0.59953499  0.18438074  0.83765072  1
  H  H43  1  0.66234928  0.40046501  0.68438074  1
  H  H44  1  0.81561926  0.33765072  0.90046501  1
  H  H45  1  0.09953499  0.31561926  0.16234928  1
  H  H46  1  0.16234928  0.09953499  0.31561926  1
  H  H47  1  0.31561926  0.16234928  0.09953499  1
  H  H48  1  0.43523735  0.70092604  0.52041147  1
  H  H49  1  0.47958853  0.93523735  0.79907396  1
  H  H50  1  0.20092604  0.97958853  0.56476265  1
  H  H51  1  0.93523735  0.79907396  0.47958853  1
  H  H52  1  0.97958853  0.56476265  0.20092604  1
  H  H53  1  0.70092604  0.52041147  0.43523735  1
  H  H54  1  0.56476265  0.20092604  0.97958853  1
  H  H55  1  0.52041147  0.43523735  0.70092604  1
  H  H56  1  0.79907396  0.47958853  0.93523735  1
  H  H57  1  0.06476265  0.29907396  0.02041147  1
  H  H58  1  0.02041147  0.06476265  0.29907396  1
  H  H59  1  0.29907396  0.02041147  0.06476265  1
  H  H60  1  0.03594603  0.77996553  0.04456493  1
  H  H61  1  0.95543507  0.53594603  0.72003447  1
  H  H62  1  0.27996553  0.45543507  0.96405397  1
  H  H63  1  0.53594603  0.72003447  0.95543507  1
  H  H64  1  0.45543507  0.96405397  0.27996553  1
  H  H65  1  0.77996553  0.04456493  0.03594603  1
  H  H66  1  0.96405397  0.27996553  0.45543507  1
  H  H67  1  0.04456493  0.03594603  0.77996553  1
  H  H68  1  0.72003447  0.95543507  0.53594603  1
  H  H69  1  0.46405397  0.22003447  0.54456493  1
  H  H70  1  0.54456493  0.46405397  0.22003447  1
  H  H71  1  0.22003447  0.54456493  0.46405397  1
  H  H72  1  0.94443543  0.84659601  0.13778959  1
  H  H73  1  0.86221041  0.44443543  0.65340399  1
  H  H74  1  0.34659601  0.36221041  0.05556457  1
  H  H75  1  0.44443543  0.65340399  0.86221041  1
  H  H76  1  0.36221041  0.05556457  0.34659601  1
  H  H77  1  0.84659601  0.13778959  0.94443543  1
  H  H78  1  0.05556457  0.34659601  0.36221041  1
  H  H79  1  0.13778959  0.94443543  0.84659601  1
  H  H80  1  0.65340399  0.86221041  0.44443543  1
  H  H81  1  0.55556457  0.15340399  0.63778959  1
  H  H82  1  0.63778959  0.55556457  0.15340399  1
  H  H83  1  0.15340399  0.63778959  0.55556457  1
  S  S84  1  0.58380155  0.91619845  0.08380155  1
  S  S85  1  0.91619845  0.08380155  0.58380155  1
  S  S86  1  0.41619845  0.41619845  0.41619845  1
  S  S87  1  0.08380155  0.58380155  0.91619845  1
  O  O88  1  0.29985878  0.85585975  0.10128658  1
  O  O89  1  0.89871342  0.79985878  0.64414025  1
  O  O90  1  0.35585975  0.39871342  0.70014122  1
  O  O91  1  0.79985878  0.64414025  0.89871342  1
  O  O92  1  0.39871342  0.70014122  0.35585975  1
  O  O93  1  0.85585975  0.10128658  0.29985878  1
  O  O94  1  0.70014122  0.35585975  0.39871342  1
  O  O95  1  0.10128658  0.29985878  0.85585975  1
  O  O96  1  0.64414025  0.89871342  0.79985878  1
  O  O97  1  0.20014122  0.14414025  0.60128658  1
  O  O98  1  0.60128658  0.20014122  0.14414025  1
  O  O99  1  0.14414025  0.60128658  0.20014122  1
  O  O100  1  0.46298975  0.71866864  0.60510988  1
  O  O101  1  0.39489012  0.96298975  0.78133136  1
  O  O102  1  0.21866864  0.89489012  0.53701025  1
  O  O103  1  0.96298975  0.78133136  0.39489012  1
  O  O104  1  0.89489012  0.53701025  0.21866864  1
  O  O105  1  0.71866864  0.60510988  0.46298975  1
  O  O106  1  0.53701025  0.21866864  0.89489012  1
  O  O107  1  0.60510988  0.46298975  0.71866864  1
  O  O108  1  0.78133136  0.39489012  0.96298975  1
  O  O109  1  0.03701025  0.28133136  0.10510988  1
  O  O110  1  0.10510988  0.03701025  0.28133136  1
  O  O111  1  0.28133136  0.10510988  0.03701025  1
  O  O112  1  0.03098704  0.84397578  0.10754469  1
  O  O113  1  0.89245531  0.53098704  0.65602422  1
  O  O114  1  0.34397578  0.39245531  0.96901296  1
  O  O115  1  0.53098704  0.65602422  0.89245531  1
  O  O116  1  0.39245531  0.96901296  0.34397578  1
  O  O117  1  0.84397578  0.10754469  0.03098704  1
  O  O118  1  0.96901296  0.34397578  0.39245531  1
  O  O119  1  0.10754469  0.03098704  0.84397578  1
  O  O120  1  0.65602422  0.89245531  0.53098704  1
  O  O121  1  0.46901296  0.15602422  0.60754469  1
  O  O122  1  0.60754469  0.46901296  0.15602422  1
  O  O123  1  0.15602422  0.60754469  0.46901296  1
  O  O124  1  0.22009113  0.81455427  0.87555448  1
  O  O125  1  0.12444552  0.72009113  0.68544573  1
  O  O126  1  0.31455427  0.62444552  0.77990887  1
  O  O127  1  0.72009113  0.68544573  0.12444552  1
  O  O128  1  0.62444552  0.77990887  0.31455427  1
  O  O129  1  0.81455427  0.87555448  0.22009113  1
  O  O130  1  0.77990887  0.31455427  0.62444552  1
  O  O131  1  0.87555448  0.22009113  0.81455427  1
  O  O132  1  0.68544573  0.12444552  0.72009113  1
  O  O133  1  0.27990887  0.18544573  0.37555448  1
  O  O134  1  0.37555448  0.27990887  0.18544573  1
  O  O135  1  0.18544573  0.37555448  0.27990887  1
