# generated using pymatgen
data_Cs3GeTe3
_symmetry_space_group_name_H-M   'P 1'
_cell_length_a   11.29156550
_cell_length_b   11.29125502
_cell_length_c   10.32095740
_cell_angle_alpha   84.93446083
_cell_angle_beta   84.93561419
_cell_angle_gamma   80.14734363
_symmetry_Int_Tables_number   1
_chemical_formula_structural   Cs3GeTe3
_chemical_formula_sum   'Cs12 Ge4 Te12'
_cell_volume   1287.81489136
_cell_formula_units_Z   4
loop_
 _symmetry_equiv_pos_site_id
 _symmetry_equiv_pos_as_xyz
  1  'x, y, z'
loop_
 _atom_site_type_symbol
 _atom_site_label
 _atom_site_symmetry_multiplicity
 _atom_site_fract_x
 _atom_site_fract_y
 _atom_site_fract_z
 _atom_site_occupancy
  Cs  Cs0  1  0.39720618  0.60278927  0.75000055  1
  Cs  Cs1  1  0.60279062  0.39720898  0.25000237  1
  Cs  Cs2  1  0.75681017  0.80998805  0.68726326  1
  Cs  Cs3  1  0.19001683  0.24319200  0.81274298  1
  Cs  Cs4  1  0.24319328  0.19001629  0.31274525  1
  Cs  Cs5  1  0.80998297  0.75681214  0.18726485  1
  Cs  Cs6  1  0.08285632  0.91714807  0.75000755  1
  Cs  Cs7  1  0.91715022  0.08285189  0.25000293  1
  Cs  Cs8  1  0.40082755  0.78374533  0.37145195  1
  Cs  Cs9  1  0.21625285  0.59917513  0.12855596  1
  Cs  Cs10  1  0.59917845  0.21625644  0.62855487  1
  Cs  Cs11  1  0.78374161  0.40082536  0.87145311  1
  Ge  Ge12  1  0.43951230  0.92475420  0.96073221  1
  Ge  Ge13  1  0.07524601  0.56049828  0.53925366  1
  Ge  Ge14  1  0.56049346  0.07524965  0.03927478  1
  Ge  Ge15  1  0.92474820  0.43950550  0.46073724  1
  Te  Te16  1  0.42237394  0.95444118  0.70796584  1
  Te  Te17  1  0.04553869  0.57761198  0.79201709  1
  Te  Te18  1  0.57761560  0.04557811  0.29202912  1
  Te  Te19  1  0.95441637  0.42234826  0.20798356  1
  Te  Te20  1  0.70407984  0.54566196  0.52203005  1
  Te  Te21  1  0.45433287  0.29591130  0.97797525  1
  Te  Te22  1  0.29589883  0.45431955  0.47798605  1
  Te  Te23  1  0.54567573  0.70407135  0.02198919  1
  Te  Te24  1  0.22372027  0.95092476  0.07477207  1
  Te  Te25  1  0.04916267  0.77629463  0.42521965  1
  Te  Te26  1  0.77628574  0.04911581  0.92521812  1
  Te  Te27  1  0.95089241  0.22370751  0.57476948  1
