# generated using pymatgen
data_Li2MnSnS4
_symmetry_space_group_name_H-M   'P 1'
_cell_length_a   6.42421065
_cell_length_b   7.97614211
_cell_length_c   13.66477446
_cell_angle_alpha   90.00000000
_cell_angle_beta   90.00000000
_cell_angle_gamma   90.00000000
_symmetry_Int_Tables_number   1
_chemical_formula_structural   Li2MnSnS4
_chemical_formula_sum   'Li8 Mn4 Sn4 S16'
_cell_volume   700.18874276
_cell_formula_units_Z   4
loop_
 _symmetry_equiv_pos_site_id
 _symmetry_equiv_pos_as_xyz
  1  'x, y, z'
loop_
 _atom_site_type_symbol
 _atom_site_label
 _atom_site_symmetry_multiplicity
 _atom_site_fract_x
 _atom_site_fract_y
 _atom_site_fract_z
 _atom_site_occupancy
  Li  Li0  1  0.63883566  0.49942155  0.66460619  1
  Li  Li1  1  0.13883566  0.50057845  0.33539381  1
  Li  Li2  1  0.13883566  0.99942155  0.83539381  1
  Li  Li3  1  0.63883566  0.00057845  0.16460619  1
  Li  Li4  1  0.64080110  0.25471567  0.42035137  1
  Li  Li5  1  0.14080010  0.74528433  0.57964863  1
  Li  Li6  1  0.14080110  0.75471567  0.07964863  1
  Li  Li7  1  0.64080010  0.24528433  0.92035137  1
  Mn  Mn8  1  0.13623914  0.49286606  0.83431167  1
  Mn  Mn9  1  0.63623814  0.50713294  0.16568833  1
  Mn  Mn10  1  0.63623914  0.99286606  0.66568833  1
  Mn  Mn11  1  0.13623814  0.00713294  0.33431167  1
  Sn  Sn12  1  0.13560677  0.24357706  0.58578813  1
  Sn  Sn13  1  0.63560677  0.75642294  0.41421087  1
  Sn  Sn14  1  0.63560677  0.74357706  0.91421187  1
  Sn  Sn15  1  0.13560677  0.25642294  0.08578913  1
  S  S16  1  0.25966322  0.25157065  0.42000134  1
  S  S17  1  0.75966322  0.74842935  0.57999766  1
  S  S18  1  0.75966322  0.75157065  0.07999866  1
  S  S19  1  0.25966322  0.24842935  0.92000234  1
  S  S20  1  0.76069586  0.24435107  0.58920630  1
  S  S21  1  0.26069586  0.75564993  0.41079370  1
  S  S22  1  0.26069586  0.74435107  0.91079370  1
  S  S23  1  0.76069586  0.25564993  0.08920630  1
  S  S24  1  0.26115036  0.99652955  0.66727892  1
  S  S25  1  0.76115036  0.00347045  0.33272108  1
  S  S26  1  0.76115036  0.49652955  0.83272108  1
  S  S27  1  0.26115036  0.50347045  0.16727892  1
  S  S28  1  0.25906789  0.49185680  0.66731974  1
  S  S29  1  0.75906789  0.50814320  0.33268026  1
  S  S30  1  0.75906789  0.99185680  0.83268026  1
  S  S31  1  0.25906789  0.00814320  0.16731974  1
