# generated using pymatgen
data_Cs4ZnO3
_symmetry_space_group_name_H-M   'P 1'
_cell_length_a   18.65876235
_cell_length_b   7.06937847
_cell_length_c   7.17065473
_cell_angle_alpha   64.30404948
_cell_angle_beta   90.00000000
_cell_angle_gamma   90.00000000
_symmetry_Int_Tables_number   1
_chemical_formula_structural   Cs4ZnO3
_chemical_formula_sum   'Cs16 Zn4 O12'
_cell_volume   852.31388453
_cell_formula_units_Z   4
loop_
 _symmetry_equiv_pos_site_id
 _symmetry_equiv_pos_as_xyz
  1  'x, y, z'
loop_
 _atom_site_type_symbol
 _atom_site_label
 _atom_site_symmetry_multiplicity
 _atom_site_fract_x
 _atom_site_fract_y
 _atom_site_fract_z
 _atom_site_occupancy
  Cs  Cs0  1  0.07538762  0.34515996  0.15390482  1
  Cs  Cs1  1  0.57538762  0.15484004  0.84609518  1
  Cs  Cs2  1  0.92461238  0.65484004  0.84609518  1
  Cs  Cs3  1  0.42461238  0.84515996  0.15390482  1
  Cs  Cs4  1  0.69597074  0.32255674  0.21163687  1
  Cs  Cs5  1  0.19597074  0.17744326  0.78836313  1
  Cs  Cs6  1  0.30402926  0.67744326  0.78836313  1
  Cs  Cs7  1  0.80402926  0.82255674  0.21163687  1
  Cs  Cs8  1  0.50064508  0.29228966  0.29327805  1
  Cs  Cs9  1  0.00064508  0.20771034  0.70672195  1
  Cs  Cs10  1  0.49935492  0.70771034  0.70672195  1
  Cs  Cs11  1  0.99935492  0.79228966  0.29327805  1
  Cs  Cs12  1  0.80508099  0.28379487  0.67259170  1
  Cs  Cs13  1  0.30508099  0.21620513  0.32740830  1
  Cs  Cs14  1  0.19491901  0.71620513  0.32740830  1
  Cs  Cs15  1  0.69491901  0.78379487  0.67259170  1
  Zn  Zn16  1  0.88331932  0.21162933  0.28649164  1
  Zn  Zn17  1  0.38331932  0.28837067  0.71350836  1
  Zn  Zn18  1  0.11668068  0.78837067  0.71350836  1
  Zn  Zn19  1  0.61668068  0.71162933  0.28649164  1
  O  O20  1  0.90715080  0.18920382  0.03881204  1
  O  O21  1  0.40715080  0.31079618  0.96118796  1
  O  O22  1  0.09284920  0.81079618  0.96118796  1
  O  O23  1  0.59284920  0.68920382  0.03881204  1
  O  O24  1  0.90146422  0.46631433  0.30934235  1
  O  O25  1  0.40146422  0.03368567  0.69065765  1
  O  O26  1  0.09853578  0.53368567  0.69065765  1
  O  O27  1  0.59853578  0.96631433  0.30934235  1
  O  O28  1  0.66397970  0.48398404  0.50706764  1
  O  O29  1  0.16397970  0.01601596  0.49293236  1
  O  O30  1  0.33602030  0.51601596  0.49293236  1
  O  O31  1  0.83602030  0.98398404  0.50706764  1
