# generated using pymatgen
data_Rb2PrBr5
_symmetry_space_group_name_H-M   'P 1'
_cell_length_a   8.68664953
_cell_length_b   9.38185434
_cell_length_c   13.85452643
_cell_angle_alpha   90.00000000
_cell_angle_beta   90.00000000
_cell_angle_gamma   90.00000000
_symmetry_Int_Tables_number   1
_chemical_formula_structural   Rb2PrBr5
_chemical_formula_sum   'Rb8 Pr4 Br20'
_cell_volume   1129.10068614
_cell_formula_units_Z   4
loop_
 _symmetry_equiv_pos_site_id
 _symmetry_equiv_pos_as_xyz
  1  'x, y, z'
loop_
 _atom_site_type_symbol
 _atom_site_label
 _atom_site_symmetry_multiplicity
 _atom_site_fract_x
 _atom_site_fract_y
 _atom_site_fract_z
 _atom_site_occupancy
  Rb  Rb0  1  0.94584486  0.00434041  0.82760970  1
  Rb  Rb1  1  0.05415514  0.99565959  0.17239030  1
  Rb  Rb2  1  0.44584486  0.99565959  0.67239030  1
  Rb  Rb3  1  0.05415514  0.50434041  0.17239030  1
  Rb  Rb4  1  0.55415514  0.00434041  0.32760970  1
  Rb  Rb5  1  0.94584486  0.49565959  0.82760970  1
  Rb  Rb6  1  0.55415514  0.49565959  0.32760970  1
  Rb  Rb7  1  0.44584486  0.50434041  0.67239030  1
  Pr  Pr8  1  0.92407655  0.75000000  0.50518275  1
  Pr  Pr9  1  0.07592345  0.25000000  0.49481725  1
  Pr  Pr10  1  0.42407655  0.25000000  0.99481725  1
  Pr  Pr11  1  0.57592345  0.75000000  0.00518275  1
  Br  Br12  1  0.12466389  0.75000000  0.67701473  1
  Br  Br13  1  0.87533611  0.25000000  0.32298527  1
  Br  Br14  1  0.62466389  0.25000000  0.82298527  1
  Br  Br15  1  0.37533611  0.75000000  0.17701473  1
  Br  Br16  1  0.83525103  0.04400198  0.57546900  1
  Br  Br17  1  0.16474897  0.95599802  0.42453100  1
  Br  Br18  1  0.33525103  0.95599802  0.92453100  1
  Br  Br19  1  0.16474897  0.54400198  0.42453100  1
  Br  Br20  1  0.66474897  0.04400198  0.07546900  1
  Br  Br21  1  0.83525103  0.45599802  0.57546900  1
  Br  Br22  1  0.66474897  0.45599802  0.07546900  1
  Br  Br23  1  0.33525103  0.54400198  0.92453100  1
  Br  Br24  1  0.58172427  0.75000000  0.50978546  1
  Br  Br25  1  0.41827573  0.25000000  0.49021454  1
  Br  Br26  1  0.08172427  0.25000000  0.99021454  1
  Br  Br27  1  0.91827573  0.75000000  0.00978546  1
  Br  Br28  1  0.66069162  0.75000000  0.79799095  1
  Br  Br29  1  0.33930838  0.25000000  0.20200905  1
  Br  Br30  1  0.16069162  0.25000000  0.70200905  1
  Br  Br31  1  0.83930838  0.75000000  0.29799095  1
