# generated using pymatgen
data_K4NaCl5
_symmetry_space_group_name_H-M   'P 1'
_cell_length_a   11.57124989
_cell_length_b   11.57124989
_cell_length_c   11.57124989
_cell_angle_alpha   158.41323315
_cell_angle_beta   148.89192267
_cell_angle_gamma   38.18157289
_symmetry_Int_Tables_number   1
_chemical_formula_structural   K4NaCl5
_chemical_formula_sum   'K4 Na1 Cl5'
_cell_volume   294.08286543
_cell_formula_units_Z   1
loop_
 _symmetry_equiv_pos_site_id
 _symmetry_equiv_pos_as_xyz
  1  'x, y, z'
loop_
 _atom_site_type_symbol
 _atom_site_label
 _atom_site_symmetry_multiplicity
 _atom_site_fract_x
 _atom_site_fract_y
 _atom_site_fract_z
 _atom_site_occupancy
  K  K0  1  0.59819631  0.59819631  -0.00000000  1
  K  K1  1  0.19494496  0.19494496  -0.00000000  1
  K  K2  1  0.80505504  0.80505504  0.00000000  1
  K  K3  1  0.40180369  0.40180369  0.00000000  1
  Na  Na4  1  -0.00000000  -0.00000000  -0.00000000  1
  Cl  Cl5  1  0.29843802  0.79843802  0.50000000  1
  Cl  Cl6  1  0.91110053  0.41110053  0.50000000  1
  Cl  Cl7  1  0.50000000  -0.00000000  0.50000000  1
  Cl  Cl8  1  0.08889947  0.58889947  0.50000000  1
  Cl  Cl9  1  0.70156198  0.20156198  0.50000000  1
