# generated using pymatgen
data_NbP4Se3Cl5
_symmetry_space_group_name_H-M   'P 1'
_cell_length_a   12.21697753
_cell_length_b   13.21414676
_cell_length_c   18.86494649
_cell_angle_alpha   90.00000000
_cell_angle_beta   90.00000000
_cell_angle_gamma   90.00000000
_symmetry_Int_Tables_number   1
_chemical_formula_structural   NbP4Se3Cl5
_chemical_formula_sum   'Nb8 P32 Se24 Cl40'
_cell_volume   3045.49912227
_cell_formula_units_Z   8
loop_
 _symmetry_equiv_pos_site_id
 _symmetry_equiv_pos_as_xyz
  1  'x, y, z'
loop_
 _atom_site_type_symbol
 _atom_site_label
 _atom_site_symmetry_multiplicity
 _atom_site_fract_x
 _atom_site_fract_y
 _atom_site_fract_z
 _atom_site_occupancy
  Nb  Nb0  1  0.83600062  0.92691425  0.76140389  1
  Nb  Nb1  1  0.16399938  0.57308575  0.26140389  1
  Nb  Nb2  1  0.16399938  0.07308575  0.23859611  1
  Nb  Nb3  1  0.83600062  0.42691425  0.73859611  1
  Nb  Nb4  1  0.66399938  0.92691425  0.26140389  1
  Nb  Nb5  1  0.33600062  0.57308575  0.76140389  1
  Nb  Nb6  1  0.33600062  0.07308575  0.73859611  1
  Nb  Nb7  1  0.66399938  0.42691425  0.23859611  1
  P  P8  1  0.90767013  0.84394972  0.89082989  1
  P  P9  1  0.09232987  0.65605028  0.39082989  1
  P  P10  1  0.09232987  0.15605028  0.10917011  1
  P  P11  1  0.90767013  0.34394972  0.60917011  1
  P  P12  1  0.07812868  0.83148343  0.92831800  1
  P  P13  1  0.92187132  0.66851657  0.42831800  1
  P  P14  1  0.92187132  0.16851657  0.07168200  1
  P  P15  1  0.07812868  0.33148343  0.57168200  1
  P  P16  1  0.98274680  0.69227232  0.89985524  1
  P  P17  1  0.01725320  0.80772768  0.39985524  1
  P  P18  1  0.01725320  0.30772768  0.10014476  1
  P  P19  1  0.98274680  0.19227232  0.60014476  1
  P  P20  1  0.89460786  0.78009971  0.06348629  1
  P  P21  1  0.10539214  0.71990029  0.56348629  1
  P  P22  1  0.10539214  0.21990029  0.93651371  1
  P  P23  1  0.89460786  0.28009971  0.43651371  1
  P  P24  1  0.59232987  0.84394972  0.39082989  1
  P  P25  1  0.40767013  0.65605028  0.89082989  1
  P  P26  1  0.40767013  0.15605028  0.60917011  1
  P  P27  1  0.59232987  0.34394972  0.10917011  1
  P  P28  1  0.42187132  0.83148343  0.42831800  1
  P  P29  1  0.57812868  0.66851657  0.92831800  1
  P  P30  1  0.57812868  0.16851657  0.57168200  1
  P  P31  1  0.42187132  0.33148343  0.07168200  1
  P  P32  1  0.51725320  0.69227232  0.39985524  1
  P  P33  1  0.48274680  0.80772768  0.89985524  1
  P  P34  1  0.48274680  0.30772768  0.60014476  1
  P  P35  1  0.51725320  0.19227232  0.10014476  1
  P  P36  1  0.60539214  0.78009971  0.56348629  1
  P  P37  1  0.39460786  0.71990029  0.06348629  1
  P  P38  1  0.39460786  0.21990029  0.43651371  1
  P  P39  1  0.60539214  0.28009971  0.93651371  1
  Se  Se40  1  0.79711238  0.86927795  0.98350362  1
  Se  Se41  1  0.20288762  0.63072205  0.48350362  1
  Se  Se42  1  0.20288762  0.13072205  0.01649638  1
  Se  Se43  1  0.79711238  0.36927795  0.51649638  1
  Se  Se44  1  0.06214501  0.84931128  0.04584088  1
  Se  Se45  1  0.93785499  0.65068872  0.54584088  1
  Se  Se46  1  0.93785499  0.15068872  0.95415912  1
  Se  Se47  1  0.06214501  0.34931128  0.45415912  1
  Se  Se48  1  0.91564585  0.63372179  0.00281572  1
  Se  Se49  1  0.08435415  0.86627821  0.50281572  1
  Se  Se50  1  0.08435415  0.36627821  0.99718428  1
  Se  Se51  1  0.91564585  0.13372179  0.49718428  1
  Se  Se52  1  0.70288762  0.86927795  0.48350362  1
  Se  Se53  1  0.29711238  0.63072205  0.98350362  1
  Se  Se54  1  0.29711238  0.13072205  0.51649638  1
  Se  Se55  1  0.70288762  0.36927795  0.01649638  1
  Se  Se56  1  0.43785499  0.84931128  0.54584088  1
  Se  Se57  1  0.56214501  0.65068872  0.04584088  1
  Se  Se58  1  0.56214501  0.15068872  0.45415912  1
  Se  Se59  1  0.43785499  0.34931128  0.95415912  1
  Se  Se60  1  0.58435415  0.63372179  0.50281572  1
  Se  Se61  1  0.41564585  0.86627821  0.00281572  1
  Se  Se62  1  0.41564585  0.36627821  0.49718428  1
  Se  Se63  1  0.58435415  0.13372179  0.99718428  1
  Cl  Cl64  1  0.77541358  0.98891833  0.65490233  1
  Cl  Cl65  1  0.22458642  0.51108167  0.15490233  1
  Cl  Cl66  1  0.22458642  0.01108167  0.34509767  1
  Cl  Cl67  1  0.77541358  0.48891833  0.84509767  1
  Cl  Cl68  1  0.96709693  0.05170907  0.78535292  1
  Cl  Cl69  1  0.03290307  0.44829093  0.28535292  1
  Cl  Cl70  1  0.03290307  0.94829093  0.21464708  1
  Cl  Cl71  1  0.96709693  0.55170907  0.71464708  1
  Cl  Cl72  1  0.71271503  0.01155379  0.83658502  1
  Cl  Cl73  1  0.28728497  0.48844621  0.33658502  1
  Cl  Cl74  1  0.28728497  0.98844621  0.16341498  1
  Cl  Cl75  1  0.71271503  0.51155379  0.66341498  1
  Cl  Cl76  1  0.72490826  0.78257515  0.76648785  1
  Cl  Cl77  1  0.27509174  0.71742485  0.26648785  1
  Cl  Cl78  1  0.27509174  0.21742485  0.23351215  1
  Cl  Cl79  1  0.72490826  0.28257515  0.73351215  1
  Cl  Cl80  1  0.97858144  0.82487557  0.71892796  1
  Cl  Cl81  1  0.02141856  0.67512443  0.21892796  1
  Cl  Cl82  1  0.02141856  0.17512443  0.28107204  1
  Cl  Cl83  1  0.97858144  0.32487557  0.78107204  1
  Cl  Cl84  1  0.72458642  0.98891833  0.15490233  1
  Cl  Cl85  1  0.27541358  0.51108167  0.65490233  1
  Cl  Cl86  1  0.27541358  0.01108167  0.84509767  1
  Cl  Cl87  1  0.72458642  0.48891833  0.34509767  1
  Cl  Cl88  1  0.53290307  0.05170907  0.28535292  1
  Cl  Cl89  1  0.46709693  0.44829093  0.78535292  1
  Cl  Cl90  1  0.46709693  0.94829093  0.71464708  1
  Cl  Cl91  1  0.53290307  0.55170907  0.21464708  1
  Cl  Cl92  1  0.78728497  0.01155379  0.33658502  1
  Cl  Cl93  1  0.21271503  0.48844621  0.83658502  1
  Cl  Cl94  1  0.21271503  0.98844621  0.66341498  1
  Cl  Cl95  1  0.78728497  0.51155379  0.16341498  1
  Cl  Cl96  1  0.77509174  0.78257515  0.26648785  1
  Cl  Cl97  1  0.22490826  0.71742485  0.76648785  1
  Cl  Cl98  1  0.22490826  0.21742485  0.73351215  1
  Cl  Cl99  1  0.77509174  0.28257515  0.23351215  1
  Cl  Cl100  1  0.52141856  0.82487557  0.21892796  1
  Cl  Cl101  1  0.47858144  0.67512443  0.71892796  1
  Cl  Cl102  1  0.47858144  0.17512443  0.78107204  1
  Cl  Cl103  1  0.52141856  0.32487557  0.28107204  1
