# generated using pymatgen
data_CCl
_symmetry_space_group_name_H-M   'P 1'
_cell_length_a   8.85910315
_cell_length_b   10.28176547
_cell_length_c   15.00147860
_cell_angle_alpha   98.97974670
_cell_angle_beta   100.12364226
_cell_angle_gamma   96.38241547
_symmetry_Int_Tables_number   1
_chemical_formula_structural   CCl
_chemical_formula_sum   'C32 Cl32'
_cell_volume   1315.11469365
_cell_formula_units_Z   32
loop_
 _symmetry_equiv_pos_site_id
 _symmetry_equiv_pos_as_xyz
  1  'x, y, z'
loop_
 _atom_site_type_symbol
 _atom_site_label
 _atom_site_symmetry_multiplicity
 _atom_site_fract_x
 _atom_site_fract_y
 _atom_site_fract_z
 _atom_site_occupancy
  C  C0  1  0.14132508  0.28840095  0.11670922  1
  C  C1  1  0.85867492  0.71159905  0.88329078  1
  C  C2  1  0.02570630  0.23479388  0.24904910  1
  C  C3  1  0.97429370  0.76520612  0.75095090  1
  C  C4  1  0.59962454  0.38370923  0.43471057  1
  C  C5  1  0.40037546  0.61629077  0.56528943  1
  C  C6  1  0.27011079  0.26419508  0.08390872  1
  C  C7  1  0.72988921  0.73580492  0.91609128  1
  C  C8  1  0.49522985  0.14885665  0.13403001  1
  C  C9  1  0.50477015  0.85114335  0.86596999  1
  C  C10  1  0.32551420  0.74442631  0.35507883  1
  C  C11  1  0.67448580  0.25557369  0.64492117  1
  C  C12  1  0.07936605  0.19505992  0.17128890  1
  C  C13  1  0.92063395  0.80494008  0.82871110  1
  C  C14  1  0.59335139  0.28916790  0.48820922  1
  C  C15  1  0.40664861  0.71083210  0.51179078  1
  C  C16  1  0.44832435  0.28255451  0.72097576  1
  C  C17  1  0.55167565  0.71744549  0.27902424  1
  C  C18  1  0.34093002  0.14733575  0.10603554  1
  C  C19  1  0.65906998  0.85266425  0.89396446  1
  C  C20  1  0.45634731  0.18979067  0.48010895  1
  C  C21  1  0.54365269  0.81020933  0.51989105  1
  C  C22  1  0.41338443  0.16329198  0.55839005  1
  C  C23  1  0.58661557  0.83670802  0.44160995  1
  C  C24  1  0.22408239  0.03244309  0.10352645  1
  C  C25  1  0.77591761  0.96755691  0.89647355  1
  C  C26  1  0.28361239  0.71742378  0.43343418  1
  C  C27  1  0.71638761  0.28257622  0.56656582  1
  C  C28  1  0.50781451  0.23379595  0.64716079  1
  C  C29  1  0.49218549  0.76620405  0.35283921  1
  C  C30  1  0.09502312  0.05592537  0.13636116  1
  C  C31  1  0.90497688  0.94407463  0.86363884  1
  Cl  Cl32  1  0.33586649  0.35088789  0.00620541  1
  Cl  Cl33  1  0.66413351  0.64911211  0.99379459  1
  Cl  Cl34  1  0.36797016  0.09908927  0.37462474  1
  Cl  Cl35  1  0.63202984  0.90091073  0.62537526  1
  Cl  Cl36  1  0.19143837  0.77233959  0.26567173  1
  Cl  Cl37  1  0.80856163  0.22766041  0.73432827  1
  Cl  Cl38  1  0.96047208  0.12861478  0.31466907  1
  Cl  Cl39  1  0.03952792  0.87138522  0.68533093  1
  Cl  Cl40  1  0.24278775  0.87844021  0.04806662  1
  Cl  Cl41  1  0.75721225  0.12155979  0.95193338  1
  Cl  Cl42  1  0.24652994  0.49447232  0.54982536  1
  Cl  Cl43  1  0.75347006  0.50552768  0.45017464  1
  Cl  Cl44  1  0.02595030  0.39778580  0.29380034  1
  Cl  Cl45  1  0.97404970  0.60221420  0.70619966  1
  Cl  Cl46  1  0.05455684  0.06972296  0.87385760  1
  Cl  Cl47  1  0.94544316  0.93027704  0.12614240  1
  Cl  Cl48  1  0.26515968  0.03905313  0.55440356  1
  Cl  Cl49  1  0.73484032  0.96094687  0.44559644  1
  Cl  Cl50  1  0.62811623  0.28684355  0.14581447  1
  Cl  Cl51  1  0.37188377  0.71315645  0.85418553  1
  Cl  Cl52  1  0.09494884  0.71160793  0.44685516  1
  Cl  Cl53  1  0.90505116  0.28839207  0.55314484  1
  Cl  Cl54  1  0.57376455  0.01602146  0.16686887  1
  Cl  Cl55  1  0.42623545  0.98397854  0.83313113  1
  Cl  Cl56  1  0.03875127  0.41070305  0.08444388  1
  Cl  Cl57  1  0.96124873  0.58929695  0.91555612  1
  Cl  Cl58  1  0.25521076  0.26445325  0.72282375  1
  Cl  Cl59  1  0.74478924  0.73554675  0.27717625  1
  Cl  Cl60  1  0.45039436  0.39816152  0.34968660  1
  Cl  Cl61  1  0.54960564  0.60183848  0.65031340  1
  Cl  Cl62  1  0.44167466  0.62388081  0.18070911  1
  Cl  Cl63  1  0.55832534  0.37611919  0.81929089  1
