# generated using pymatgen
data_La16(Mo3O8)7
_symmetry_space_group_name_H-M   'P 1'
_cell_length_a   13.73438593
_cell_length_b   13.73117000
_cell_length_c   13.77346368
_cell_angle_alpha   90.00000000
_cell_angle_beta   100.14674999
_cell_angle_gamma   90.00000000
_symmetry_Int_Tables_number   1
_chemical_formula_structural   La16(Mo3O8)7
_chemical_formula_sum   'La32 Mo42 O112'
_cell_volume   2556.90040625
_cell_formula_units_Z   2
loop_
 _symmetry_equiv_pos_site_id
 _symmetry_equiv_pos_as_xyz
  1  'x, y, z'
loop_
 _atom_site_type_symbol
 _atom_site_label
 _atom_site_symmetry_multiplicity
 _atom_site_fract_x
 _atom_site_fract_y
 _atom_site_fract_z
 _atom_site_occupancy
  La  La0  1  0.21891100  0.61664000  0.63451600  1
  La  La1  1  0.28108900  0.11664000  0.36548400  1
  La  La2  1  0.78108900  0.38336000  0.36548400  1
  La  La3  1  0.71891100  0.88336000  0.63451600  1
  La  La4  1  0.22655400  0.80627900  0.86101000  1
  La  La5  1  0.27344600  0.30627900  0.13899000  1
  La  La6  1  0.77344600  0.19372100  0.13899000  1
  La  La7  1  0.72655400  0.69372100  0.86101000  1
  La  La8  1  0.42576900  0.81292200  0.67131000  1
  La  La9  1  0.07423100  0.31292200  0.32869000  1
  La  La10  1  0.57423100  0.18707800  0.32869000  1
  La  La11  1  0.92576900  0.68707800  0.67131000  1
  La  La12  1  0.45006200  0.60855700  0.88815400  1
  La  La13  1  0.04993800  0.10855700  0.11184600  1
  La  La14  1  0.54993800  0.39144300  0.11184600  1
  La  La15  1  0.95006200  0.89144300  0.88815400  1
  La  La16  1  0.85821500  0.66761200  0.35802400  1
  La  La17  1  0.64178500  0.16761200  0.64197600  1
  La  La18  1  0.14178500  0.33238800  0.64197600  1
  La  La19  1  0.35821500  0.83238800  0.35802400  1
  La  La20  1  0.36757500  0.59327300  0.15199800  1
  La  La21  1  0.13242500  0.09327300  0.84800200  1
  La  La22  1  0.63242500  0.40672700  0.84800200  1
  La  La23  1  0.86757500  0.90672700  0.15199800  1
  La  La24  1  0.36253800  0.32819900  0.87365800  1
  La  La25  1  0.13746200  0.82819900  0.12634200  1
  La  La26  1  0.63746200  0.67180100  0.12634200  1
  La  La27  1  0.86253800  0.17180100  0.87365800  1
  La  La28  1  0.14540600  0.62372100  0.32166400  1
  La  La29  1  0.35459400  0.12372100  0.67833600  1
  La  La30  1  0.85459400  0.37627900  0.67833600  1
  La  La31  1  0.64540600  0.87627900  0.32166400  1
  Mo  Mo32  1  0.28216300  0.42427800  0.47708500  1
  Mo  Mo33  1  0.21783700  0.92427800  0.52291500  1
  Mo  Mo34  1  0.71783700  0.57572200  0.52291500  1
  Mo  Mo35  1  0.78216300  0.07572200  0.47708500  1
  Mo  Mo36  1  0.07443700  0.78578700  0.48602700  1
  Mo  Mo37  1  0.42556300  0.28578700  0.51397300  1
  Mo  Mo38  1  0.92556300  0.21421300  0.51397300  1
  Mo  Mo39  1  0.57443700  0.71421300  0.48602700  1
  Mo  Mo40  1  0.43055500  0.43547400  0.64886300  1
  Mo  Mo41  1  0.06944500  0.93547400  0.35113700  1
  Mo  Mo42  1  0.56944500  0.56452600  0.35113700  1
  Mo  Mo43  1  0.93055500  0.06452600  0.64886300  1
  Mo  Mo44  1  0.58623200  0.59029900  0.64764400  1
  Mo  Mo45  1  0.91376800  0.09029900  0.35235600  1
  Mo  Mo46  1  0.41376800  0.40970100  0.35235600  1
  Mo  Mo47  1  0.08623200  0.90970100  0.64764400  1
  Mo  Mo48  1  0.57400600  0.43054600  0.51341100  1
  Mo  Mo49  1  0.92599400  0.93054600  0.48658900  1
  Mo  Mo50  1  0.42599400  0.56945400  0.48658900  1
  Mo  Mo51  1  0.07400600  0.06945400  0.51341100  1
  Mo  Mo52  1  0.21730700  0.49703500  0.95912400  1
  Mo  Mo53  1  0.28269300  0.99703500  0.04087600  1
  Mo  Mo54  1  0.78269300  0.50296500  0.04087600  1
  Mo  Mo55  1  0.71730700  0.00296500  0.95912400  1
  Mo  Mo56  1  0.07469000  0.50602500  0.79962000  1
  Mo  Mo57  1  0.42531000  0.00602500  0.20038000  1
  Mo  Mo58  1  0.92531000  0.49397500  0.20038000  1
  Mo  Mo59  1  0.57469000  0.99397500  0.79962000  1
  Mo  Mo60  1  0.93474700  0.64885200  0.07147600  1
  Mo  Mo61  1  0.56525300  0.14885200  0.92852400  1
  Mo  Mo62  1  0.06525300  0.35114800  0.92852400  1
  Mo  Mo63  1  0.43474700  0.85114800  0.07147600  1
  Mo  Mo64  1  0.08169500  0.64327500  0.94778200  1
  Mo  Mo65  1  0.41830500  0.14327500  0.05221800  1
  Mo  Mo66  1  0.91830500  0.35672500  0.05221800  1
  Mo  Mo67  1  0.58169500  0.85672500  0.94778200  1
  Mo  Mo68  1  0.07450200  0.48998100  0.08464100  1
  Mo  Mo69  1  0.42549800  0.98998100  0.91535900  1
  Mo  Mo70  1  0.92549800  0.51001900  0.91535900  1
  Mo  Mo71  1  0.57450200  0.01001900  0.08464100  1
  Mo  Mo72  1  0.00000000  0.50000000  0.50000000  1
  Mo  Mo73  1  0.50000000  0.00000000  0.50000000  1
  O  O74  1  0.73486900  0.58924300  0.67007800  1
  O  O75  1  0.76513100  0.08924300  0.32992200  1
  O  O76  1  0.26513100  0.41075700  0.32992200  1
  O  O77  1  0.23486900  0.91075700  0.67007800  1
  O  O78  1  0.27678500  0.44103000  0.62532100  1
  O  O79  1  0.22321500  0.94103000  0.37467900  1
  O  O80  1  0.72321500  0.55897000  0.37467900  1
  O  O81  1  0.77678500  0.05897000  0.62532100  1
  O  O82  1  0.22790300  0.07330900  0.52990800  1
  O  O83  1  0.27209700  0.57330900  0.47009200  1
  O  O84  1  0.77209700  0.92669100  0.47009200  1
  O  O85  1  0.72790300  0.42669100  0.52990800  1
  O  O86  1  0.22431400  0.77588100  0.51153100  1
  O  O87  1  0.27568600  0.27588100  0.48846900  1
  O  O88  1  0.77568600  0.22411900  0.48846900  1
  O  O89  1  0.72431400  0.72411900  0.51153100  1
  O  O90  1  0.87667000  0.58186700  0.53847800  1
  O  O91  1  0.62333000  0.08186700  0.46152200  1
  O  O92  1  0.12333000  0.41813300  0.46152200  1
  O  O93  1  0.37667000  0.91813300  0.53847800  1
  O  O94  1  0.08651700  0.76203000  0.63629300  1
  O  O95  1  0.41348300  0.26203000  0.36370600  1
  O  O96  1  0.91348300  0.23797000  0.36370600  1
  O  O97  1  0.58651700  0.73797000  0.63629300  1
  O  O98  1  0.93411200  0.21619700  0.66092800  1
  O  O99  1  0.56588800  0.71619700  0.33907200  1
  O  O100  1  0.06588800  0.78380300  0.33907200  1
  O  O101  1  0.43411200  0.28380300  0.66092800  1
  O  O102  1  0.07264000  0.22106800  0.51560500  1
  O  O103  1  0.42736000  0.72106800  0.48439500  1
  O  O104  1  0.92736000  0.77893200  0.48439500  1
  O  O105  1  0.57264000  0.27893200  0.51560500  1
  O  O106  1  0.93199400  0.36656500  0.53505600  1
  O  O107  1  0.56800600  0.86656500  0.46494400  1
  O  O108  1  0.06800600  0.63343500  0.46494400  1
  O  O109  1  0.43199400  0.13343500  0.53505600  1
  O  O110  1  0.93055000  0.90676600  0.63767000  1
  O  O111  1  0.56945000  0.40676600  0.36233000  1
  O  O112  1  0.06945000  0.09323400  0.36233000  1
  O  O113  1  0.43055000  0.59323400  0.63767000  1
  O  O114  1  0.09035500  0.06258400  0.66740000  1
  O  O115  1  0.40964500  0.56258400  0.33260000  1
  O  O116  1  0.90964500  0.93741600  0.33260000  1
  O  O117  1  0.59035500  0.43741600  0.66740000  1
  O  O118  1  0.95131100  0.05163200  0.80152300  1
  O  O119  1  0.54868900  0.55163200  0.19847700  1
  O  O120  1  0.04868900  0.94836800  0.19847700  1
  O  O121  1  0.45131100  0.44836800  0.80152300  1
  O  O122  1  0.08934300  0.90510200  0.79676400  1
  O  O123  1  0.41065700  0.40510200  0.20323600  1
  O  O124  1  0.91065700  0.09489800  0.20323600  1
  O  O125  1  0.58934300  0.59489800  0.79676400  1
  O  O126  1  0.23787700  0.64026100  0.97123300  1
  O  O127  1  0.26212300  0.14026100  0.02876700  1
  O  O128  1  0.76212300  0.35973900  0.02876700  1
  O  O129  1  0.73787700  0.85973900  0.97123300  1
  O  O130  1  0.21858500  0.34564600  0.95757200  1
  O  O131  1  0.28141500  0.84564600  0.04242800  1
  O  O132  1  0.78141500  0.65435400  0.04242800  1
  O  O133  1  0.71858500  0.15435400  0.95757200  1
  O  O134  1  0.27223600  0.98174500  0.89057100  1
  O  O135  1  0.22776400  0.48174500  0.10942900  1
  O  O136  1  0.72776400  0.01825500  0.10942900  1
  O  O137  1  0.77223600  0.51825500  0.89057100  1
  O  O138  1  0.22351400  0.49104500  0.81410400  1
  O  O139  1  0.27648600  0.99104500  0.18589600  1
  O  O140  1  0.77648600  0.50895500  0.18589600  1
  O  O141  1  0.72351400  0.00895500  0.81410400  1
  O  O142  1  0.87925400  0.00419400  0.98812800  1
  O  O143  1  0.62074600  0.50419400  0.01187200  1
  O  O144  1  0.12074600  0.99580600  0.01187200  1
  O  O145  1  0.37925400  0.49580600  0.98812800  1
  O  O146  1  0.08162500  0.65473600  0.79743400  1
  O  O147  1  0.41837500  0.15473600  0.20256600  1
  O  O148  1  0.91837500  0.34526400  0.20256600  1
  O  O149  1  0.58162500  0.84526400  0.79743400  1
  O  O150  1  0.05197100  0.36191400  0.77343100  1
  O  O151  1  0.44802900  0.86191400  0.22656900  1
  O  O152  1  0.94802900  0.63808600  0.22656900  1
  O  O153  1  0.55197100  0.13808600  0.77343100  1
  O  O154  1  0.92423300  0.52355300  0.76153600  1
  O  O155  1  0.57576700  0.02355300  0.23846400  1
  O  O156  1  0.07576700  0.47644700  0.23846400  1
  O  O157  1  0.42423300  0.97644700  0.76153600  1
  O  O158  1  0.08247000  0.51437500  0.64627800  1
  O  O159  1  0.41753000  0.01437500  0.35372200  1
  O  O160  1  0.91753000  0.48562500  0.35372200  1
  O  O161  1  0.58247000  0.98562500  0.64627800  1
  O  O162  1  0.92237000  0.66286700  0.91424500  1
  O  O163  1  0.57763000  0.16286700  0.08575500  1
  O  O164  1  0.07763000  0.33713300  0.08575500  1
  O  O165  1  0.42237000  0.83713300  0.91424500  1
  O  O166  1  0.90663200  0.35684300  0.89287100  1
  O  O167  1  0.59336800  0.85684300  0.10712900  1
  O  O168  1  0.09336800  0.64315700  0.10712900  1
  O  O169  1  0.40663200  0.14315700  0.89287100  1
  O  O170  1  0.04704400  0.20304100  0.92553200  1
  O  O171  1  0.45295600  0.70304100  0.07446800  1
  O  O172  1  0.95295600  0.79695900  0.07446800  1
  O  O173  1  0.54704400  0.29695900  0.92553200  1
  O  O174  1  0.09187000  0.78900000  0.95461800  1
  O  O175  1  0.40813000  0.28900000  0.04538200  1
  O  O176  1  0.90813000  0.21100000  0.04538200  1
  O  O177  1  0.59187000  0.71100000  0.95461800  1
  O  O178  1  0.74543100  0.27425000  0.74679700  1
  O  O179  1  0.75456900  0.77425000  0.25320300  1
  O  O180  1  0.25456900  0.72575000  0.25320300  1
  O  O181  1  0.24543100  0.22575000  0.74679700  1
  O  O182  1  0.82362000  0.79125100  0.75634000  1
  O  O183  1  0.67638000  0.29125100  0.24366000  1
  O  O184  1  0.17638000  0.20874900  0.24366000  1
  O  O185  1  0.32362000  0.70874900  0.75634000  1
