# generated using pymatgen
data_CrWO6
_symmetry_space_group_name_H-M   'P 1'
_cell_length_a   5.34483271
_cell_length_b   5.34483271
_cell_length_c   5.40890737
_cell_angle_alpha   60.21845202
_cell_angle_beta   60.21845202
_cell_angle_gamma   60.14382865
_symmetry_Int_Tables_number   1
_chemical_formula_structural   CrWO6
_chemical_formula_sum   'Cr1 W1 O6'
_cell_volume   109.73921809
_cell_formula_units_Z   1
loop_
 _symmetry_equiv_pos_site_id
 _symmetry_equiv_pos_as_xyz
  1  'x, y, z'
loop_
 _atom_site_type_symbol
 _atom_site_label
 _atom_site_symmetry_multiplicity
 _atom_site_fract_x
 _atom_site_fract_y
 _atom_site_fract_z
 _atom_site_occupancy
  Cr  Cr0  1  0.48265100  0.48265100  0.51634300  1
  W  W1  1  0.98237300  0.98237300  0.01229600  1
  O  O2  1  0.74640300  0.74640300  0.19466900  1
  O  O3  1  0.26315700  0.26315700  0.68973600  1
  O  O4  1  0.25982900  0.74300100  0.20252400  1
  O  O5  1  0.74300100  0.25982900  0.20252400  1
  O  O6  1  0.26214200  0.75014000  0.68490800  1
  O  O7  1  0.75014000  0.26214200  0.68490800  1
