# generated using pymatgen
data_KIO3
_symmetry_space_group_name_H-M   'P 1'
_cell_length_a   8.89642848
_cell_length_b   8.89642847
_cell_length_c   8.89642796
_cell_angle_alpha   89.66984356
_cell_angle_beta   89.66985025
_cell_angle_gamma   89.66984473
_symmetry_Int_Tables_number   1
_chemical_formula_structural   KIO3
_chemical_formula_sum   'K8 I8 O24'
_cell_volume   704.08566357
_cell_formula_units_Z   8
loop_
 _symmetry_equiv_pos_site_id
 _symmetry_equiv_pos_as_xyz
  1  'x, y, z'
loop_
 _atom_site_type_symbol
 _atom_site_label
 _atom_site_symmetry_multiplicity
 _atom_site_fract_x
 _atom_site_fract_y
 _atom_site_fract_z
 _atom_site_occupancy
  K  K0  1  0.46222663  0.49160338  0.98945351  1
  K  K1  1  0.49160338  0.98945351  0.46222663  1
  K  K2  1  0.98945351  0.46222663  0.49160338  1
  K  K3  1  0.96288380  0.99038713  0.49055959  1
  K  K4  1  0.99038713  0.49055959  0.96288380  1
  K  K5  1  0.49055959  0.96288380  0.99038713  1
  K  K6  1  0.48123483  0.48123483  0.48123483  1
  K  K7  1  0.98138016  0.98138016  0.98138016  1
  I  I8  1  0.22787836  0.22787836  0.22787836  1
  I  I9  1  0.72667491  0.72667491  0.72667491  1
  I  I10  1  0.23881547  0.22140914  0.72986246  1
  I  I11  1  0.22140914  0.72986246  0.23881547  1
  I  I12  1  0.72986246  0.23881547  0.22140914  1
  I  I13  1  0.72015707  0.22806061  0.73970574  1
  I  I14  1  0.22806061  0.73970574  0.72015707  1
  I  I15  1  0.73970574  0.72015707  0.22806061  1
  O  O16  1  0.27271788  0.02606389  0.77888731  1
  O  O17  1  0.02606389  0.77888731  0.27271788  1
  O  O18  1  0.77888731  0.27271788  0.02606389  1
  O  O19  1  0.52492602  0.27309814  0.77931371  1
  O  O20  1  0.27309814  0.77931371  0.52492602  1
  O  O21  1  0.77931371  0.52492602  0.27309814  1
  O  O22  1  0.03493543  0.21697209  0.71428266  1
  O  O23  1  0.21697209  0.71428266  0.03493543  1
  O  O24  1  0.71428266  0.03493543  0.21697209  1
  O  O25  1  0.71225744  0.21627797  0.53575271  1
  O  O26  1  0.21627797  0.53575271  0.71225744  1
  O  O27  1  0.53575271  0.71225744  0.21627797  1
  O  O28  1  0.28665679  0.21919324  0.53109281  1
  O  O29  1  0.21919324  0.53109281  0.28665679  1
  O  O30  1  0.53109281  0.28665679  0.21919324  1
  O  O31  1  0.72130461  0.02846009  0.78368687  1
  O  O32  1  0.02846009  0.78368687  0.72130461  1
  O  O33  1  0.78368687  0.72130461  0.02846009  1
  O  O34  1  0.52872185  0.71056400  0.77436530  1
  O  O35  1  0.71056400  0.77436530  0.52872185  1
  O  O36  1  0.77436530  0.52872185  0.71056400  1
  O  O37  1  0.03068472  0.20960491  0.27765577  1
  O  O38  1  0.20960491  0.27765577  0.03068472  1
  O  O39  1  0.27765577  0.03068472  0.20960491  1
