# generated using pymatgen
data_GdCrO3
_symmetry_space_group_name_H-M   'P 1'
_cell_length_a   5.31706381
_cell_length_b   5.54613965
_cell_length_c   7.61618941
_cell_angle_alpha   90.00000000
_cell_angle_beta   90.00000000
_cell_angle_gamma   90.00000000
_symmetry_Int_Tables_number   1
_chemical_formula_structural   GdCrO3
_chemical_formula_sum   'Gd4 Cr4 O12'
_cell_volume   224.59516838
_cell_formula_units_Z   4
loop_
 _symmetry_equiv_pos_site_id
 _symmetry_equiv_pos_as_xyz
  1  'x, y, z'
loop_
 _atom_site_type_symbol
 _atom_site_label
 _atom_site_symmetry_multiplicity
 _atom_site_fract_x
 _atom_site_fract_y
 _atom_site_fract_z
 _atom_site_occupancy
  Gd  Gd0  1  0.01530836  0.93884302  0.75000000  1
  Gd  Gd1  1  0.51530836  0.56115698  0.25000000  1
  Gd  Gd2  1  0.48469164  0.43884302  0.75000000  1
  Gd  Gd3  1  0.98469164  0.06115698  0.25000000  1
  Cr  Cr4  1  -0.00000000  0.50000000  0.50000000  1
  Cr  Cr5  1  0.50000000  0.00000000  0.50000000  1
  Cr  Cr6  1  0.50000000  0.00000000  0.00000000  1
  Cr  Cr7  1  -0.00000000  0.50000000  0.00000000  1
  O  O8  1  0.69775912  0.29892311  0.44923243  1
  O  O9  1  0.19775912  0.20107689  0.55076757  1
  O  O10  1  0.80224088  0.79892311  0.05076757  1
  O  O11  1  0.30224088  0.70107689  0.94923243  1
  O  O12  1  0.30224088  0.70107689  0.55076757  1
  O  O13  1  0.80224088  0.79892311  0.44923243  1
  O  O14  1  0.19775912  0.20107689  0.94923243  1
  O  O15  1  0.69775912  0.29892311  0.05076757  1
  O  O16  1  0.09819724  0.46976512  0.25000000  1
  O  O17  1  0.59819724  0.03023488  0.75000000  1
  O  O18  1  0.40180276  0.96976512  0.25000000  1
  O  O19  1  0.90180276  0.53023488  0.75000000  1
