# generated using pymatgen
data_Ca4SnN4
_symmetry_space_group_name_H-M   'P 1'
_cell_length_a   6.09172274
_cell_length_b   6.10242890
_cell_length_c   9.28209222
_cell_angle_alpha   69.80849125
_cell_angle_beta   80.61949724
_cell_angle_gamma   68.68230689
_symmetry_Int_Tables_number   1
_chemical_formula_structural   Ca4SnN4
_chemical_formula_sum   'Ca8 Sn2 N8'
_cell_volume   301.41376818
_cell_formula_units_Z   2
loop_
 _symmetry_equiv_pos_site_id
 _symmetry_equiv_pos_as_xyz
  1  'x, y, z'
loop_
 _atom_site_type_symbol
 _atom_site_label
 _atom_site_symmetry_multiplicity
 _atom_site_fract_x
 _atom_site_fract_y
 _atom_site_fract_z
 _atom_site_occupancy
  Ca  Ca0  1  0.73181754  0.61980843  0.19361657  1
  Ca  Ca1  1  0.26818246  0.38019157  0.80638343  1
  Ca  Ca2  1  0.75174415  0.24640414  0.99420059  1
  Ca  Ca3  1  0.24825585  0.75359586  0.00579941  1
  Ca  Ca4  1  0.73761072  0.47704824  0.57512527  1
  Ca  Ca5  1  0.26238928  0.52295176  0.42487473  1
  Ca  Ca6  1  0.24826728  0.94366346  0.59435410  1
  Ca  Ca7  1  0.75173272  0.05633654  0.40564590  1
  Sn  Sn8  1  0.71894160  0.84148692  0.76185468  1
  Sn  Sn9  1  0.28105840  0.15851308  0.23814532  1
  N  N10  1  0.99106492  0.69273053  0.61200752  1
  N  N11  1  0.00893508  0.30726947  0.38799248  1
  N  N12  1  0.85013184  0.86188864  0.94574429  1
  N  N13  1  0.14986816  0.13811136  0.05425571  1
  N  N14  1  0.50789578  0.61199632  0.80227741  1
  N  N15  1  0.49210422  0.38800368  0.19772259  1
  N  N16  1  0.49756092  0.81644758  0.38138802  1
  N  N17  1  0.50244008  0.18355242  0.61861198  1
