# generated using pymatgen
data_CeSe2
_symmetry_space_group_name_H-M   'P 1'
_cell_length_a   12.11569386
_cell_length_b   12.11569386
_cell_length_c   12.10025312
_cell_angle_alpha   104.45620109
_cell_angle_beta   104.45620109
_cell_angle_gamma   119.79335395
_symmetry_Int_Tables_number   1
_chemical_formula_structural   CeSe2
_chemical_formula_sum   'Ce8 Se16'
_cell_volume   1336.93043225
_cell_formula_units_Z   8
loop_
 _symmetry_equiv_pos_site_id
 _symmetry_equiv_pos_as_xyz
  1  'x, y, z'
loop_
 _atom_site_type_symbol
 _atom_site_label
 _atom_site_symmetry_multiplicity
 _atom_site_fract_x
 _atom_site_fract_y
 _atom_site_fract_z
 _atom_site_occupancy
  Ce  Ce0  1  0.03309528  0.25093250  0.57347722  1
  Ce  Ce1  1  0.74906750  0.96690472  0.92652278  1
  Ce  Ce2  1  0.96690472  0.74906750  0.42652278  1
  Ce  Ce3  1  0.25093250  0.03309528  0.07347722  1
  Ce  Ce4  1  0.34758311  0.66371931  0.03892233  1
  Ce  Ce5  1  0.33628069  0.65241689  0.46107767  1
  Ce  Ce6  1  0.65241689  0.33628069  0.96107767  1
  Ce  Ce7  1  0.66371931  0.34758311  0.53892233  1
  Se  Se8  1  0.00000000  0.00000000  0.50000000  1
  Se  Se9  1  0.00000000  0.00000000  0.00000000  1
  Se  Se10  1  0.38276222  0.61723778  0.25000000  1
  Se  Se11  1  0.61723778  0.38276222  0.75000000  1
  Se  Se12  1  0.14319217  0.39418060  0.44260064  1
  Se  Se13  1  0.60581940  0.85680783  0.05739936  1
  Se  Se14  1  0.85680783  0.60581940  0.55739936  1
  Se  Se15  1  0.39418060  0.14319217  0.94260064  1
  Se  Se16  1  0.20465181  0.41217706  0.82861001  1
  Se  Se17  1  0.58782294  0.79534819  0.67138999  1
  Se  Se18  1  0.79534819  0.58782294  0.17138999  1
  Se  Se19  1  0.41217706  0.20465181  0.32861001  1
  Se  Se20  1  0.79865921  0.22324060  0.97237286  1
  Se  Se21  1  0.77675940  0.20134079  0.52762714  1
  Se  Se22  1  0.20134079  0.77675940  0.02762714  1
  Se  Se23  1  0.22324060  0.79865921  0.47237286  1
