# generated using pymatgen
data_MgSe2O5
_symmetry_space_group_name_H-M   'P 1'
_cell_length_a   6.01840721
_cell_length_b   6.82559561
_cell_length_c   10.39516732
_cell_angle_alpha   90.00000000
_cell_angle_beta   90.00000000
_cell_angle_gamma   90.00000000
_symmetry_Int_Tables_number   1
_chemical_formula_structural   MgSe2O5
_chemical_formula_sum   'Mg4 Se8 O20'
_cell_volume   427.02530116
_cell_formula_units_Z   4
loop_
 _symmetry_equiv_pos_site_id
 _symmetry_equiv_pos_as_xyz
  1  'x, y, z'
loop_
 _atom_site_type_symbol
 _atom_site_label
 _atom_site_symmetry_multiplicity
 _atom_site_fract_x
 _atom_site_fract_y
 _atom_site_fract_z
 _atom_site_occupancy
  Mg  Mg0  1  0.75000000  0.00000000  0.56052409  1
  Mg  Mg1  1  0.25000000  0.50000000  0.93947591  1
  Mg  Mg2  1  0.25000000  0.00000000  0.43947591  1
  Mg  Mg3  1  0.75000000  0.50000000  0.06052409  1
  Se  Se4  1  0.52911861  0.13264142  0.84565791  1
  Se  Se5  1  0.02911861  0.36735858  0.65434209  1
  Se  Se6  1  0.47088139  0.63264142  0.65434209  1
  Se  Se7  1  0.97088139  0.86735858  0.84565791  1
  Se  Se8  1  0.47088139  0.86735858  0.15434209  1
  Se  Se9  1  0.97088139  0.63264142  0.34565791  1
  Se  Se10  1  0.52911861  0.36735858  0.34565791  1
  Se  Se11  1  0.02911861  0.13264142  0.15434209  1
  O  O12  1  0.25000000  0.50000000  0.56827318  1
  O  O13  1  0.75000000  0.00000000  0.93172682  1
  O  O14  1  0.75000000  0.50000000  0.43172682  1
  O  O15  1  0.25000000  0.00000000  0.06827318  1
  O  O16  1  0.65793168  0.19184155  0.70845445  1
  O  O17  1  0.15793168  0.30815845  0.79154555  1
  O  O18  1  0.34206832  0.69184155  0.79154555  1
  O  O19  1  0.84206832  0.80815845  0.70845445  1
  O  O20  1  0.34206832  0.80815845  0.29154555  1
  O  O21  1  0.84206832  0.69184155  0.20845445  1
  O  O22  1  0.65793168  0.30815845  0.20845445  1
  O  O23  1  0.15793168  0.19184155  0.29154555  1
  O  O24  1  0.04735691  0.34233094  0.06741466  1
  O  O25  1  0.54735691  0.15766906  0.43258534  1
  O  O26  1  0.95264309  0.84233094  0.43258534  1
  O  O27  1  0.45264309  0.65766906  0.06741466  1
  O  O28  1  0.95264309  0.65766906  0.93258534  1
  O  O29  1  0.45264309  0.84233094  0.56741466  1
  O  O30  1  0.04735691  0.15766906  0.56741466  1
  O  O31  1  0.54735691  0.34233094  0.93258534  1
