# generated using pymatgen
data_CsPbCl3
_symmetry_space_group_name_H-M   'P 1'
_cell_length_a   5.75527897
_cell_length_b   11.13722107
_cell_length_c   7.87552861
_cell_angle_alpha   45.00235759
_cell_angle_beta   90.00000000
_cell_angle_gamma   90.00000000
_symmetry_Int_Tables_number   1
_chemical_formula_structural   CsPbCl3
_chemical_formula_sum   'Cs2 Pb2 Cl6'
_cell_volume   356.96513866
_cell_formula_units_Z   2
loop_
 _symmetry_equiv_pos_site_id
 _symmetry_equiv_pos_as_xyz
  1  'x, y, z'
loop_
 _atom_site_type_symbol
 _atom_site_label
 _atom_site_symmetry_multiplicity
 _atom_site_fract_x
 _atom_site_fract_y
 _atom_site_fract_z
 _atom_site_occupancy
  Cs  Cs0  1  0.50000000  0.49256470  0.50000000  1
  Cs  Cs1  1  0.50000000  0.99429358  0.50000000  1
  Pb  Pb2  1  0.00000000  0.99267719  0.00024590  1
  Pb  Pb3  1  -0.00000000  0.49292508  0.99975410  1
  Cl  Cl4  1  -0.00000000  0.18360954  0.11842785  1
  Cl  Cl5  1  0.50000000  0.49216286  0.00085613  1
  Cl  Cl6  1  0.50000000  0.99301898  0.99914387  1
  Cl  Cl7  1  0.00000000  0.30127665  0.50000000  1
  Cl  Cl8  1  0.00000000  0.68343302  0.50000000  1
  Cl  Cl9  1  0.00000000  0.80203739  0.88157215  1
