# generated using pymatgen
data_Er2Mo4O15
_symmetry_space_group_name_H-M   'P 1'
_cell_length_a   9.52580896
_cell_length_b   6.76209548
_cell_length_c   10.48993798
_cell_angle_alpha   74.79044511
_cell_angle_beta   90.00000000
_cell_angle_gamma   90.00000000
_symmetry_Int_Tables_number   1
_chemical_formula_structural   Er2Mo4O15
_chemical_formula_sum   'Er4 Mo8 O30'
_cell_volume   652.03534682
_cell_formula_units_Z   2
loop_
 _symmetry_equiv_pos_site_id
 _symmetry_equiv_pos_as_xyz
  1  'x, y, z'
loop_
 _atom_site_type_symbol
 _atom_site_label
 _atom_site_symmetry_multiplicity
 _atom_site_fract_x
 _atom_site_fract_y
 _atom_site_fract_z
 _atom_site_occupancy
  Er  Er0  1  0.52286266  0.71187933  0.22402001  1
  Er  Er1  1  0.47713734  0.28812067  0.77597999  1
  Er  Er2  1  0.02286266  0.28812067  0.27597999  1
  Er  Er3  1  0.97713734  0.71187933  0.72402001  1
  Mo  Mo4  1  0.74346137  0.41939860  0.01077255  1
  Mo  Mo5  1  0.25653863  0.58060140  0.98922745  1
  Mo  Mo6  1  0.24346137  0.58060140  0.48922745  1
  Mo  Mo7  1  0.75653863  0.41939860  0.51077255  1
  Mo  Mo8  1  0.90406831  0.87974860  0.15693731  1
  Mo  Mo9  1  0.09593169  0.12025140  0.84306269  1
  Mo  Mo10  1  0.40406831  0.12025140  0.34306269  1
  Mo  Mo11  1  0.59593169  0.87974860  0.65693731  1
  O  O12  1  0.72167858  0.88775771  0.14782224  1
  O  O13  1  0.27832142  0.11224229  0.85217776  1
  O  O14  1  0.22167858  0.11224229  0.35217776  1
  O  O15  1  0.77832142  0.88775771  0.64782224  1
  O  O16  1  0.62549115  0.52346867  0.10342567  1
  O  O17  1  0.37450885  0.47653133  0.89657433  1
  O  O18  1  0.12549115  0.47653133  0.39657433  1
  O  O19  1  0.87450885  0.52346867  0.60342567  1
  O  O20  1  0.34761777  0.72023366  0.08255530  1
  O  O21  1  0.65238223  0.27976634  0.91744470  1
  O  O22  1  0.84761777  0.27976634  0.41744470  1
  O  O23  1  0.15238223  0.72023366  0.58255530  1
  O  O24  1  -0.00000000  -0.00000000  0.00000000  1
  O  O25  1  0.50000000  -0.00000000  0.50000000  1
  O  O26  1  0.66622956  0.61967143  0.39983509  1
  O  O27  1  0.33377044  0.38032857  0.60016491  1
  O  O28  1  0.16622956  0.38032857  0.10016491  1
  O  O29  1  0.83377044  0.61967143  0.89983509  1
  O  O30  1  0.97177893  0.94756593  0.29440523  1
  O  O31  1  0.02822107  0.05243407  0.70559477  1
  O  O32  1  0.47177893  0.05243407  0.20559477  1
  O  O33  1  0.52822107  0.94756593  0.79440523  1
  O  O34  1  0.94411229  0.62097128  0.18319873  1
  O  O35  1  0.05588771  0.37902872  0.81680127  1
  O  O36  1  0.44411229  0.37902872  0.31680127  1
  O  O37  1  0.55588771  0.62097128  0.68319873  1
  O  O38  1  0.86499890  0.25470176  0.11807717  1
  O  O39  1  0.13500110  0.74529824  0.88192283  1
  O  O40  1  0.36499890  0.74529824  0.38192283  1
  O  O41  1  0.63500110  0.25470176  0.61807717  1
