# generated using pymatgen
data_K3PS4
_symmetry_space_group_name_H-M   'P 1'
_cell_length_a   9.03364584
_cell_length_b   9.14753482
_cell_length_c   10.52464203
_cell_angle_alpha   90.00000000
_cell_angle_beta   90.00000000
_cell_angle_gamma   90.00000000
_symmetry_Int_Tables_number   1
_chemical_formula_structural   K3PS4
_chemical_formula_sum   'K12 P4 S16'
_cell_volume   869.71000235
_cell_formula_units_Z   4
loop_
 _symmetry_equiv_pos_site_id
 _symmetry_equiv_pos_as_xyz
  1  'x, y, z'
loop_
 _atom_site_type_symbol
 _atom_site_label
 _atom_site_symmetry_multiplicity
 _atom_site_fract_x
 _atom_site_fract_y
 _atom_site_fract_z
 _atom_site_occupancy
  K  K0  1  0.64379985  0.42003162  0.25000000  1
  K  K1  1  0.85620015  0.92003162  0.75000000  1
  K  K2  1  0.14379985  0.07996838  0.25000000  1
  K  K3  1  0.35620015  0.57996838  0.75000000  1
  K  K4  1  0.44726862  0.79771140  0.04232301  1
  K  K5  1  0.05273138  0.29771140  0.95767699  1
  K  K6  1  0.94726862  0.70228860  0.45767699  1
  K  K7  1  0.55273138  0.20228860  0.54232301  1
  K  K8  1  0.55273138  0.20228860  0.95767699  1
  K  K9  1  0.94726862  0.70228860  0.04232301  1
  K  K10  1  0.05273138  0.29771140  0.54232301  1
  K  K11  1  0.44726862  0.79771140  0.45767699  1
  P  P12  1  0.72084305  0.97980365  0.25000000  1
  P  P13  1  0.77915695  0.47980365  0.75000000  1
  P  P14  1  0.22084305  0.52019635  0.25000000  1
  P  P15  1  0.27915695  0.02019635  0.75000000  1
  S  S16  1  0.69486600  0.75774964  0.25000000  1
  S  S17  1  0.80513400  0.25774964  0.75000000  1
  S  S18  1  0.19486600  0.74225036  0.25000000  1
  S  S19  1  0.30513400  0.24225036  0.75000000  1
  S  S20  1  0.51649410  0.07910329  0.25000000  1
  S  S21  1  0.98350590  0.57910329  0.75000000  1
  S  S22  1  0.01649410  0.42089671  0.25000000  1
  S  S23  1  0.48350590  0.92089671  0.75000000  1
  S  S24  1  0.83315601  0.03884258  0.08955740  1
  S  S25  1  0.66684399  0.53884258  0.91044260  1
  S  S26  1  0.33315601  0.46115742  0.41044260  1
  S  S27  1  0.16684399  0.96115742  0.58955740  1
  S  S28  1  0.16684399  0.96115742  0.91044260  1
  S  S29  1  0.33315601  0.46115742  0.08955740  1
  S  S30  1  0.66684399  0.53884258  0.58955740  1
  S  S31  1  0.83315601  0.03884258  0.41044260  1
