# generated using pymatgen
data_Na2Si2S5
_symmetry_space_group_name_H-M   'P 1'
_cell_length_a   8.99536991
_cell_length_b   8.99536991
_cell_length_c   10.41154439
_cell_angle_alpha   90.00000000
_cell_angle_beta   90.00000000
_cell_angle_gamma   89.96569804
_symmetry_Int_Tables_number   1
_chemical_formula_structural   Na2Si2S5
_chemical_formula_sum   'Na8 Si8 S20'
_cell_volume   842.46745213
_cell_formula_units_Z   4
loop_
 _symmetry_equiv_pos_site_id
 _symmetry_equiv_pos_as_xyz
  1  'x, y, z'
loop_
 _atom_site_type_symbol
 _atom_site_label
 _atom_site_symmetry_multiplicity
 _atom_site_fract_x
 _atom_site_fract_y
 _atom_site_fract_z
 _atom_site_occupancy
  Na  Na0  1  0.90371224  0.41957935  0.25000000  1
  Na  Na1  1  0.84837480  0.84837480  -0.00000000  1
  Na  Na2  1  0.84837480  0.84837480  0.50000000  1
  Na  Na3  1  0.15162520  0.15162520  -0.00000000  1
  Na  Na4  1  0.58042065  0.09628776  0.25000000  1
  Na  Na5  1  0.41957935  0.90371224  0.75000000  1
  Na  Na6  1  0.09628776  0.58042065  0.75000000  1
  Na  Na7  1  0.15162520  0.15162520  0.50000000  1
  Si  Si8  1  0.68871468  0.58244165  0.75000000  1
  Si  Si9  1  0.41755835  0.31128532  0.75000000  1
  Si  Si10  1  0.58244165  0.68871468  0.25000000  1
  Si  Si11  1  0.25261175  0.74738825  0.08401813  1
  Si  Si12  1  0.74738825  0.25261175  0.58401813  1
  Si  Si13  1  0.74738825  0.25261175  0.91598187  1
  Si  Si14  1  0.31128532  0.41755835  0.25000000  1
  Si  Si15  1  0.25261175  0.74738825  0.41598187  1
  S  S16  1  0.48812801  0.79149060  0.08177238  1
  S  S17  1  0.79149060  0.48812801  0.91822762  1
  S  S18  1  0.20850940  0.51187199  0.41822762  1
  S  S19  1  0.84563168  0.15436832  0.75000000  1
  S  S20  1  0.15908366  0.84091634  0.57732231  1
  S  S21  1  0.84091634  0.15908366  0.07732231  1
  S  S22  1  0.84091634  0.15908366  0.42267769  1
  S  S23  1  0.15908366  0.84091634  0.92267769  1
  S  S24  1  0.80627118  0.72841936  0.25000000  1
  S  S25  1  0.19372882  0.27158064  0.75000000  1
  S  S26  1  0.72841936  0.80627118  0.75000000  1
  S  S27  1  0.27158064  0.19372882  0.25000000  1
  S  S28  1  0.51187199  0.20850940  0.58177238  1
  S  S29  1  0.20850940  0.51187199  0.08177238  1
  S  S30  1  0.79149060  0.48812801  0.58177238  1
  S  S31  1  0.51187199  0.20850940  0.91822762  1
  S  S32  1  0.48812801  0.79149060  0.41822762  1
  S  S33  1  0.45438508  0.54561492  0.75000000  1
  S  S34  1  0.54561492  0.45438508  0.25000000  1
  S  S35  1  0.15436832  0.84563168  0.25000000  1
