# generated using pymatgen
data_Gd2Si2O7
_symmetry_space_group_name_H-M   'P 1'
_cell_length_a   5.06655996
_cell_length_b   8.28860406
_cell_length_c   13.87056412
_cell_angle_alpha   90.00000000
_cell_angle_beta   90.00000000
_cell_angle_gamma   90.00000000
_symmetry_Int_Tables_number   1
_chemical_formula_structural   Gd2Si2O7
_chemical_formula_sum   'Gd8 Si8 O28'
_cell_volume   582.49031019
_cell_formula_units_Z   4
loop_
 _symmetry_equiv_pos_site_id
 _symmetry_equiv_pos_as_xyz
  1  'x, y, z'
loop_
 _atom_site_type_symbol
 _atom_site_label
 _atom_site_symmetry_multiplicity
 _atom_site_fract_x
 _atom_site_fract_y
 _atom_site_fract_z
 _atom_site_occupancy
  Gd  Gd0  1  0.83917249  0.00826254  0.12548517  1
  Gd  Gd1  1  0.16082751  0.50826254  0.87451483  1
  Gd  Gd2  1  0.66082751  0.00826254  0.62548517  1
  Gd  Gd3  1  0.33917249  0.50826254  0.37451483  1
  Gd  Gd4  1  0.83917249  0.49173746  0.12548517  1
  Gd  Gd5  1  0.16082751  0.99173746  0.87451483  1
  Gd  Gd6  1  0.66082751  0.49173746  0.62548517  1
  Gd  Gd7  1  0.33917249  0.99173746  0.37451483  1
  Si  Si8  1  0.12335955  0.75000000  0.53908508  1
  Si  Si9  1  0.87664045  0.25000000  0.46091492  1
  Si  Si10  1  0.37664045  0.75000000  0.03908508  1
  Si  Si11  1  0.62335955  0.25000000  0.96091492  1
  Si  Si12  1  0.87778919  0.75000000  0.32000041  1
  Si  Si13  1  0.12221081  0.25000000  0.67999959  1
  Si  Si14  1  0.62221081  0.75000000  0.82000041  1
  Si  Si15  1  0.37778919  0.25000000  0.17999959  1
  O  O16  1  0.84973114  0.75000000  0.59893796  1
  O  O17  1  0.15026886  0.25000000  0.40106204  1
  O  O18  1  0.65026886  0.75000000  0.09893796  1
  O  O19  1  0.34973114  0.25000000  0.90106204  1
  O  O20  1  0.28896451  0.91621485  0.54717758  1
  O  O21  1  0.71103549  0.41621485  0.45282242  1
  O  O22  1  0.21103549  0.91621485  0.04717758  1
  O  O23  1  0.78896451  0.41621485  0.95282242  1
  O  O24  1  0.28896451  0.58378515  0.54717758  1
  O  O25  1  0.71103549  0.08378515  0.45282242  1
  O  O26  1  0.21103549  0.58378515  0.04717758  1
  O  O27  1  0.78896451  0.08378515  0.95282242  1
  O  O28  1  0.05865326  0.75000000  0.42045757  1
  O  O29  1  0.94134674  0.25000000  0.57954243  1
  O  O30  1  0.44134674  0.75000000  0.92045757  1
  O  O31  1  0.55865326  0.25000000  0.07954243  1
  O  O32  1  0.48531463  0.08816997  0.23164858  1
  O  O33  1  0.51468537  0.58816997  0.76835142  1
  O  O34  1  0.01468537  0.08816997  0.73164858  1
  O  O35  1  0.98531463  0.58816997  0.26835142  1
  O  O36  1  0.48531463  0.41183003  0.23164858  1
  O  O37  1  0.51468537  0.91183003  0.76835142  1
  O  O38  1  0.01468537  0.41183003  0.73164858  1
  O  O39  1  0.98531463  0.91183003  0.26835142  1
  O  O40  1  0.06803741  0.25000000  0.15461109  1
  O  O41  1  0.93196259  0.75000000  0.84538891  1
  O  O42  1  0.43196259  0.25000000  0.65461109  1
  O  O43  1  0.56803741  0.75000000  0.34538891  1
