# generated using pymatgen
data_K3SbO3
_symmetry_space_group_name_H-M   'P 1'
_cell_length_a   8.36735302
_cell_length_b   8.36735302
_cell_length_c   8.36735302
_cell_angle_alpha   90.00000000
_cell_angle_beta   90.00000000
_cell_angle_gamma   90.00000000
_symmetry_Int_Tables_number   1
_chemical_formula_structural   K3SbO3
_chemical_formula_sum   'K12 Sb4 O12'
_cell_volume   585.82011128
_cell_formula_units_Z   4
loop_
 _symmetry_equiv_pos_site_id
 _symmetry_equiv_pos_as_xyz
  1  'x, y, z'
loop_
 _atom_site_type_symbol
 _atom_site_label
 _atom_site_symmetry_multiplicity
 _atom_site_fract_x
 _atom_site_fract_y
 _atom_site_fract_z
 _atom_site_occupancy
  K  K0  1  0.02391567  0.02391567  0.02391567  1
  K  K1  1  0.47608433  0.97608433  0.52391567  1
  K  K2  1  0.52391567  0.47608433  0.97608433  1
  K  K3  1  0.97608433  0.52391567  0.47608433  1
  K  K4  1  0.21520082  0.71520082  0.78479918  1
  K  K5  1  0.28479918  0.28479918  0.28479918  1
  K  K6  1  0.21076934  0.28923066  0.71076934  1
  K  K7  1  0.28923066  0.71076934  0.21076934  1
  K  K8  1  0.71076934  0.21076934  0.28923066  1
  K  K9  1  0.78923066  0.78923066  0.78923066  1
  K  K10  1  0.71520082  0.78479918  0.21520082  1
  K  K11  1  0.78479918  0.21520082  0.71520082  1
  Sb  Sb12  1  0.48551603  0.01448397  0.98551603  1
  Sb  Sb13  1  0.01448397  0.98551603  0.48551603  1
  Sb  Sb14  1  0.98551603  0.48551603  0.01448397  1
  Sb  Sb15  1  0.51448397  0.51448397  0.51448397  1
  O  O16  1  0.49449776  0.78622899  0.94116931  1
  O  O17  1  0.99449776  0.71377101  0.05883069  1
  O  O18  1  0.50550224  0.28622899  0.55883069  1
  O  O19  1  0.71377101  0.05883069  0.99449776  1
  O  O20  1  0.78622899  0.94116931  0.49449776  1
  O  O21  1  0.94116931  0.49449776  0.78622899  1
  O  O22  1  0.28622899  0.55883069  0.50550224  1
  O  O23  1  0.21377101  0.44116931  0.00550224  1
  O  O24  1  0.44116931  0.00550224  0.21377101  1
  O  O25  1  0.00550224  0.21377101  0.44116931  1
  O  O26  1  0.55883069  0.50550224  0.28622899  1
  O  O27  1  0.05883069  0.99449776  0.71377101  1
