# generated using pymatgen
data_Ho2MgS4
_symmetry_space_group_name_H-M   'P 1'
_cell_length_a   7.83928131
_cell_length_b   7.83928243
_cell_length_c   7.83928089
_cell_angle_alpha   59.99933154
_cell_angle_beta   59.99931560
_cell_angle_gamma   59.99932148
_symmetry_Int_Tables_number   1
_chemical_formula_structural   Ho2MgS4
_chemical_formula_sum   'Ho4 Mg2 S8'
_cell_volume   340.64900247
_cell_formula_units_Z   2
loop_
 _symmetry_equiv_pos_site_id
 _symmetry_equiv_pos_as_xyz
  1  'x, y, z'
loop_
 _atom_site_type_symbol
 _atom_site_label
 _atom_site_symmetry_multiplicity
 _atom_site_fract_x
 _atom_site_fract_y
 _atom_site_fract_z
 _atom_site_occupancy
  Ho  Ho0  1  0.62500000  0.12500049  0.62499943  1
  Ho  Ho1  1  0.62500015  0.62499988  0.12500010  1
  Ho  Ho2  1  0.12499992  0.62500058  0.62499999  1
  Ho  Ho3  1  0.62499979  0.62500030  0.62500043  1
  Mg  Mg4  1  0.00000146  0.00000133  0.00000160  1
  Mg  Mg5  1  0.24999863  0.24999836  0.24999836  1
  S  S6  1  0.37990402  0.37990354  0.37990345  1
  S  S7  1  0.86029161  0.37990306  0.37990297  1
  S  S8  1  0.37990313  0.86029185  0.37990309  1
  S  S9  1  0.37990282  0.37990333  0.86029187  1
  S  S10  1  0.87010324  0.87010285  0.38968951  1
  S  S11  1  0.87010311  0.38968933  0.87010333  1
  S  S12  1  0.38968943  0.87010292  0.87010322  1
  S  S13  1  0.87010268  0.87010219  0.87010264  1
