# generated using pymatgen
data_BaNa4Ti2Si10(BO15)2
_symmetry_space_group_name_H-M   'P 1'
_cell_length_a   7.18847572
_cell_length_b   9.73772058
_cell_length_c   9.73885087
_cell_angle_alpha   119.53268464
_cell_angle_beta   91.92363935
_cell_angle_gamma   91.51812002
_symmetry_Int_Tables_number   1
_chemical_formula_structural   BaNa4Ti2Si10(BO15)2
_chemical_formula_sum   'Ba1 Na4 Ti2 Si10 B2 O30'
_cell_volume   592.08075564
_cell_formula_units_Z   1
loop_
 _symmetry_equiv_pos_site_id
 _symmetry_equiv_pos_as_xyz
  1  'x, y, z'
loop_
 _atom_site_type_symbol
 _atom_site_label
 _atom_site_symmetry_multiplicity
 _atom_site_fract_x
 _atom_site_fract_y
 _atom_site_fract_z
 _atom_site_occupancy
  Ba  Ba0  1  -0.00000000  -0.00000000  -0.00000000  1
  Na  Na1  1  0.51203055  0.27129811  0.71444123  1
  Na  Na2  1  0.48796945  0.72870189  0.28555877  1
  Na  Na3  1  0.50699604  0.70241352  0.70233357  1
  Na  Na4  1  0.49300396  0.29758648  0.29766643  1
  Ti  Ti5  1  0.50309442  0.91523194  0.08681923  1
  Ti  Ti6  1  0.49690558  0.08476806  0.91318077  1
  Si  Si7  1  0.80742625  0.62096288  0.92556184  1
  Si  Si8  1  0.81100844  0.93642545  0.62770506  1
  Si  Si9  1  0.19257375  0.37903712  0.07443816  1
  Si  Si10  1  0.18899156  0.06357455  0.37229494  1
  Si  Si11  1  0.23444774  0.58973146  0.92454774  1
  Si  Si12  1  0.23612495  0.90890800  0.58105954  1
  Si  Si13  1  0.76555226  0.41026854  0.07545226  1
  Si  Si14  1  0.76387505  0.09109200  0.41894046  1
  Si  Si15  1  0.80031155  0.58863049  0.42599935  1
  Si  Si16  1  0.19968845  0.41136951  0.57400065  1
  B  B17  1  0.78572068  0.42295942  0.59480451  1
  B  B18  1  0.21427932  0.57704058  0.40519549  1
  O  O19  1  0.78379859  0.56888501  0.05976101  1
  O  O20  1  0.78569177  0.06928133  0.57539856  1
  O  O21  1  0.21620141  0.43111499  0.94023899  1
  O  O22  1  0.21430823  0.93071867  0.42460144  1
  O  O23  1  0.98315755  0.41191214  0.58746428  1
  O  O24  1  0.01684245  0.58808786  0.41253572  1
  O  O25  1  0.73087207  0.47444233  0.75695002  1
  O  O26  1  0.73124188  0.76647085  0.47930145  1
  O  O27  1  0.26912793  0.52555767  0.24304998  1
  O  O28  1  0.26875812  0.23352915  0.52069855  1
  O  O29  1  0.03161583  0.66454744  0.92987628  1
  O  O30  1  0.03400302  0.92637325  0.66128054  1
  O  O31  1  0.96838417  0.33545256  0.07012372  1
  O  O32  1  0.96599698  0.07362675  0.33871946  1
  O  O33  1  0.68970984  0.26780913  0.48488887  1
  O  O34  1  0.69247129  0.47308392  0.25385868  1
  O  O35  1  0.31029016  0.73219087  0.51511113  1
  O  O36  1  0.30752871  0.52691608  0.74614132  1
  O  O37  1  0.72157821  0.53859489  0.54877557  1
  O  O38  1  0.27842179  0.46140511  0.45122443  1
  O  O39  1  0.37216362  0.90692200  0.90746334  1
  O  O40  1  0.62783638  0.09307800  0.09253666  1
  O  O41  1  0.70858442  0.78200603  0.96645753  1
  O  O42  1  0.71337599  0.96831393  0.78501918  1
  O  O43  1  0.29141558  0.21799397  0.03354247  1
  O  O44  1  0.28662401  0.03168607  0.21498082  1
  O  O45  1  0.37924428  0.71676642  0.05429120  1
  O  O46  1  0.38088462  0.04134647  0.70851442  1
  O  O47  1  0.62075572  0.28323358  0.94570880  1
  O  O48  1  0.61911538  0.95865353  0.29148558  1
