# generated using pymatgen
data_Ba2V2O7
_symmetry_space_group_name_H-M   'P 1'
_cell_length_a   7.36338542
_cell_length_b   7.36468262
_cell_length_c   13.63877895
_cell_angle_alpha   80.69613862
_cell_angle_beta   87.53891391
_cell_angle_gamma   89.63615060
_symmetry_Int_Tables_number   1
_chemical_formula_structural   Ba2V2O7
_chemical_formula_sum   'Ba8 V8 O28'
_cell_volume   729.21413413
_cell_formula_units_Z   4
loop_
 _symmetry_equiv_pos_site_id
 _symmetry_equiv_pos_as_xyz
  1  'x, y, z'
loop_
 _atom_site_type_symbol
 _atom_site_label
 _atom_site_symmetry_multiplicity
 _atom_site_fract_x
 _atom_site_fract_y
 _atom_site_fract_z
 _atom_site_occupancy
  Ba  Ba0  1  0.58614151  0.33041232  0.15794874  1
  Ba  Ba1  1  0.41385849  0.66958768  0.84205126  1
  Ba  Ba2  1  0.17065564  0.71608526  0.14205313  1
  Ba  Ba3  1  0.82934436  0.28391474  0.85794687  1
  Ba  Ba4  1  0.27056411  0.25776884  0.65559143  1
  Ba  Ba5  1  0.72943589  0.74223116  0.34440857  1
  Ba  Ba6  1  0.86081957  0.86890956  0.64183691  1
  Ba  Ba7  1  0.13918043  0.13109044  0.35816309  1
  V  V8  1  0.34184778  0.19061349  0.91636858  1
  V  V9  1  0.65815222  0.80938651  0.08363142  1
  V  V10  1  0.06649105  0.19727226  0.10569758  1
  V  V11  1  0.93350895  0.80272774  0.89430242  1
  V  V12  1  0.32887239  0.80331447  0.58608331  1
  V  V13  1  0.67112761  0.19668553  0.41391669  1
  V  V14  1  0.27056329  0.59968654  0.39660914  1
  V  V15  1  0.72943671  0.40031346  0.60339086  1
  O  O16  1  0.79894704  0.66750825  0.83636987  1
  O  O17  1  0.20105296  0.33249175  0.16363013  1
  O  O18  1  0.79825245  0.92375213  0.97789198  1
  O  O19  1  0.20174755  0.07624787  0.02210802  1
  O  O20  1  0.55530559  0.95160815  0.15331563  1
  O  O21  1  0.44469441  0.04839185  0.84668437  1
  O  O22  1  0.18576272  0.98296181  0.55187260  1
  O  O23  1  0.81423728  0.01703819  0.44812740  1
  O  O24  1  0.40646354  0.55694682  0.29886881  1
  O  O25  1  0.59353646  0.44305318  0.70113119  1
  O  O26  1  0.81408911  0.59681585  0.53849068  1
  O  O27  1  0.18591089  0.40318415  0.46150932  1
  O  O28  1  0.20495826  0.64584212  0.66392352  1
  O  O29  1  0.79504174  0.35415788  0.33607648  1
  O  O30  1  0.79238520  0.66269876  0.15799426  1
  O  O31  1  0.20761480  0.33730124  0.84200574  1
  O  O32  1  0.97794124  0.03283934  0.19599920  1
  O  O33  1  0.02205876  0.96716066  0.80400080  1
  O  O34  1  0.50748931  0.11868220  0.34800823  1
  O  O35  1  0.49251069  0.88131780  0.65199177  1
  O  O36  1  0.89632492  0.25778793  0.65337528  1
  O  O37  1  0.10367508  0.74221207  0.34662472  1
  O  O38  1  0.58934384  0.28564708  0.52500305  1
  O  O39  1  0.41065616  0.71435292  0.47499695  1
  O  O40  1  0.50383579  0.32388709  0.95485089  1
  O  O41  1  0.49616421  0.67611291  0.04514911  1
  O  O42  1  0.89731819  0.31829375  0.04727564  1
  O  O43  1  0.10268181  0.68170625  0.95272436  1
