# generated using pymatgen
data_Mn4Be3Si3SeO12
_symmetry_space_group_name_H-M   'P 1'
_cell_length_a   8.33403105
_cell_length_b   8.33403105
_cell_length_c   8.33403105
_cell_angle_alpha   90.00000000
_cell_angle_beta   90.00000000
_cell_angle_gamma   90.00000000
_symmetry_Int_Tables_number   1
_chemical_formula_structural   Mn4Be3Si3SeO12
_chemical_formula_sum   'Mn8 Be6 Si6 Se2 O24'
_cell_volume   578.84907351
_cell_formula_units_Z   2
loop_
 _symmetry_equiv_pos_site_id
 _symmetry_equiv_pos_as_xyz
  1  'x, y, z'
loop_
 _atom_site_type_symbol
 _atom_site_label
 _atom_site_symmetry_multiplicity
 _atom_site_fract_x
 _atom_site_fract_y
 _atom_site_fract_z
 _atom_site_occupancy
  Mn  Mn0  1  0.67655749  0.67655749  0.67655749  1
  Mn  Mn1  1  0.17655749  0.17655749  0.17655749  1
  Mn  Mn2  1  0.32344251  0.67655749  0.32344251  1
  Mn  Mn3  1  0.32344251  0.32344251  0.67655749  1
  Mn  Mn4  1  0.67655749  0.32344251  0.32344251  1
  Mn  Mn5  1  0.82344251  0.17655749  0.82344251  1
  Mn  Mn6  1  0.17655749  0.82344251  0.82344251  1
  Mn  Mn7  1  0.82344251  0.82344251  0.17655749  1
  Be  Be8  1  0.25000000  0.50000000  -0.00000000  1
  Be  Be9  1  0.50000000  0.00000000  0.75000000  1
  Be  Be10  1  0.50000000  0.00000000  0.25000000  1
  Be  Be11  1  -0.00000000  0.25000000  0.50000000  1
  Be  Be12  1  -0.00000000  0.75000000  0.50000000  1
  Be  Be13  1  0.75000000  0.50000000  -0.00000000  1
  Si  Si14  1  0.75000000  0.00000000  0.50000000  1
  Si  Si15  1  0.25000000  0.00000000  0.50000000  1
  Si  Si16  1  -0.00000000  0.50000000  0.75000000  1
  Si  Si17  1  -0.00000000  0.50000000  0.25000000  1
  Si  Si18  1  0.50000000  0.25000000  -0.00000000  1
  Si  Si19  1  0.50000000  0.75000000  -0.00000000  1
  Se  Se20  1  -0.00000000  0.00000000  -0.00000000  1
  Se  Se21  1  0.50000000  0.50000000  0.50000000  1
  O  O22  1  0.14181694  0.85852588  0.58093085  1
  O  O23  1  0.64181694  0.08093085  0.35852588  1
  O  O24  1  0.91906915  0.64147412  0.64181694  1
  O  O25  1  0.08093085  0.64147412  0.35818306  1
  O  O26  1  0.64147412  0.64181694  0.91906915  1
  O  O27  1  0.35852588  0.35818306  0.91906915  1
  O  O28  1  0.85818306  0.85852588  0.41906915  1
  O  O29  1  0.85818306  0.14147412  0.58093085  1
  O  O30  1  0.64181694  0.91906915  0.64147412  1
  O  O31  1  0.14147412  0.58093085  0.85818306  1
  O  O32  1  0.58093085  0.14181694  0.85852588  1
  O  O33  1  0.58093085  0.85818306  0.14147412  1
  O  O34  1  0.85852588  0.41906915  0.85818306  1
  O  O35  1  0.41906915  0.85818306  0.85852588  1
  O  O36  1  0.14181694  0.14147412  0.41906915  1
  O  O37  1  0.35818306  0.91906915  0.35852588  1
  O  O38  1  0.35818306  0.08093085  0.64147412  1
  O  O39  1  0.85852588  0.58093085  0.14181694  1
  O  O40  1  0.91906915  0.35852588  0.35818306  1
  O  O41  1  0.64147412  0.35818306  0.08093085  1
  O  O42  1  0.35852588  0.64181694  0.08093085  1
  O  O43  1  0.41906915  0.14181694  0.14147412  1
  O  O44  1  0.14147412  0.41906915  0.14181694  1
  O  O45  1  0.08093085  0.35852588  0.64181694  1
