# generated using pymatgen
data_Cs4Zn3F10
_symmetry_space_group_name_H-M   'P 1'
_cell_length_a   7.88433575
_cell_length_b   7.88433575
_cell_length_c   13.80332949
_cell_angle_alpha   90.00000000
_cell_angle_beta   90.00000000
_cell_angle_gamma   133.74934808
_symmetry_Int_Tables_number   1
_chemical_formula_structural   Cs4Zn3F10
_chemical_formula_sum   'Cs8 Zn6 F20'
_cell_volume   619.83325990
_cell_formula_units_Z   2
loop_
 _symmetry_equiv_pos_site_id
 _symmetry_equiv_pos_as_xyz
  1  'x, y, z'
loop_
 _atom_site_type_symbol
 _atom_site_label
 _atom_site_symmetry_multiplicity
 _atom_site_fract_x
 _atom_site_fract_y
 _atom_site_fract_z
 _atom_site_occupancy
  Cs  Cs0  1  0.25631929  0.74368071  0.60983103  1
  Cs  Cs1  1  0.74368071  0.25631929  0.39016897  1
  Cs  Cs2  1  0.24368071  0.75631929  0.10983103  1
  Cs  Cs3  1  0.75631929  0.24368071  0.89016897  1
  Cs  Cs4  1  0.95537991  0.04462009  0.63876952  1
  Cs  Cs5  1  0.04462009  0.95537991  0.36123048  1
  Cs  Cs6  1  0.54462009  0.45537991  0.13876952  1
  Cs  Cs7  1  0.45537991  0.54462009  0.86123048  1
  Zn  Zn8  1  0.62101750  0.37898250  0.65588935  1
  Zn  Zn9  1  0.37898250  0.62101750  0.34411065  1
  Zn  Zn10  1  0.87898250  0.12101750  0.15588935  1
  Zn  Zn11  1  0.12101750  0.87898250  0.84411065  1
  Zn  Zn12  1  0.50000000  0.50000000  0.50000000  1
  Zn  Zn13  1  0.00000000  -0.00000000  0.00000000  1
  F  F14  1  0.61471976  0.81497100  0.46247938  1
  F  F15  1  0.81497100  0.61471976  0.53752062  1
  F  F16  1  0.88528024  0.68502900  0.96247938  1
  F  F17  1  0.68502900  0.88528024  0.03752062  1
  F  F18  1  0.38528024  0.18502900  0.53752062  1
  F  F19  1  0.18502900  0.38528024  0.46247938  1
  F  F20  1  0.11471976  0.31497100  0.03752062  1
  F  F21  1  0.31497100  0.11471976  0.96247938  1
  F  F22  1  0.47462296  0.52537704  0.64507091  1
  F  F23  1  0.52537704  0.47462296  0.35492909  1
  F  F24  1  0.02537704  0.97462296  0.14507091  1
  F  F25  1  0.97462296  0.02537704  0.85492909  1
  F  F26  1  0.75439090  0.24560910  0.64994962  1
  F  F27  1  0.24560910  0.75439090  0.35005038  1
  F  F28  1  0.36198706  0.13801294  0.75000000  1
  F  F29  1  0.13801294  0.36198706  0.25000000  1
  F  F30  1  0.63801294  0.86198706  0.25000000  1
  F  F31  1  0.86198706  0.63801294  0.75000000  1
  F  F32  1  0.25439090  0.74560910  0.85005038  1
  F  F33  1  0.74560910  0.25439090  0.14994962  1
