# generated using pymatgen
data_CdH8(NO5)2
_symmetry_space_group_name_H-M   'P 1'
_cell_length_a   14.00985003
_cell_length_b   13.20266597
_cell_length_c   6.25899106
_cell_angle_alpha   84.02301893
_cell_angle_beta   69.59664075
_cell_angle_gamma   26.38034032
_symmetry_Int_Tables_number   1
_chemical_formula_structural   CdH8(NO5)2
_chemical_formula_sum   'Cd2 H16 N4 O20'
_cell_volume   417.55790095
_cell_formula_units_Z   2
loop_
 _symmetry_equiv_pos_site_id
 _symmetry_equiv_pos_as_xyz
  1  'x, y, z'
loop_
 _atom_site_type_symbol
 _atom_site_label
 _atom_site_symmetry_multiplicity
 _atom_site_fract_x
 _atom_site_fract_y
 _atom_site_fract_z
 _atom_site_occupancy
  Cd  Cd0  1  0.26043300  0.23956700  0.26043300  1
  Cd  Cd1  1  0.01043300  0.98956700  0.01043300  1
  H  H2  1  0.49480100  0.62374400  0.90009800  1
  H  H3  1  0.88999100  0.99860900  0.49991300  1
  H  H4  1  0.26864300  0.34990200  0.62625600  1
  H  H5  1  0.62625600  0.75519900  0.26864300  1
  H  H6  1  0.49857000  0.49999700  0.95183800  1
  H  H7  1  0.95183800  0.04959500  0.49857000  1
  H  H8  1  0.20040500  0.29816200  0.75000300  1
  H  H9  1  0.75000300  0.75143000  0.20040500  1
  H  H10  1  0.15346700  0.17905900  0.04048100  1
  H  H11  1  0.04048100  0.62699300  0.15346700  1
  H  H12  1  0.62300700  0.20951900  0.07094100  1
  H  H13  1  0.07094100  0.09653300  0.62300700  1
  H  H14  1  0.43865800  0.96204500  0.83765000  1
  H  H15  1  0.83765000  0.76164700  0.43865800  1
  H  H16  1  0.48835300  0.41235000  0.28795500  1
  H  H17  1  0.28795500  0.81134200  0.48835300  1
  N  N18  1  0.83208700  0.49057400  0.67104700  1
  N  N19  1  0.67104700  0.00629300  0.83208700  1
  N  N20  1  0.24370700  0.57895300  0.75942600  1
  N  N21  1  0.75942600  0.41791300  0.24370700  1
  O  O22  1  0.78588300  0.62076000  0.59819000  1
  O  O23  1  0.59819000  0.99516700  0.78588300  1
  O  O24  1  0.25483300  0.65181000  0.62924000  1
  O  O25  1  0.62924000  0.46411700  0.25483300  1
  O  O26  1  0.07142700  0.24009700  0.54841500  1
  O  O27  1  0.54841500  0.14006100  0.07142700  1
  O  O28  1  0.10993900  0.70158500  0.00990300  1
  O  O29  1  0.00990300  0.17857300  0.10993900  1
  O  O30  1  0.64787800  0.60669600  0.85870300  1
  O  O31  1  0.85870300  0.88672300  0.64787800  1
  O  O32  1  0.36327700  0.39129700  0.64330400  1
  O  O33  1  0.64330400  0.60212200  0.36327700  1
  O  O34  1  0.43789600  0.61214200  0.88085600  1
  O  O35  1  0.88064200  0.07750100  0.43677400  1
  O  O36  1  0.18089400  0.36914400  0.63785800  1
  O  O37  1  0.64491700  0.81322600  0.17249900  1
  O  O38  1  0.25121600  0.15456700  0.96493600  1
  O  O39  1  0.96493600  0.62928100  0.25121600  1
  O  O40  1  0.62071900  0.28506400  0.09543300  1
  O  O41  1  0.09543300  0.99878400  0.62071900  1
