# generated using pymatgen
data_Dy4Te3N2
_symmetry_space_group_name_H-M   'P 1'
_cell_length_a   11.70571872
_cell_length_b   7.24802000
_cell_length_c   13.03054511
_cell_angle_alpha   57.79736454
_cell_angle_beta   90.00000000
_cell_angle_gamma   90.00000000
_symmetry_Int_Tables_number   1
_chemical_formula_structural   Dy4Te3N2
_chemical_formula_sum   'Dy16 Te12 N8'
_cell_volume   935.48533678
_cell_formula_units_Z   4
loop_
 _symmetry_equiv_pos_site_id
 _symmetry_equiv_pos_as_xyz
  1  'x, y, z'
loop_
 _atom_site_type_symbol
 _atom_site_label
 _atom_site_symmetry_multiplicity
 _atom_site_fract_x
 _atom_site_fract_y
 _atom_site_fract_z
 _atom_site_occupancy
  Dy  Dy0  1  0.86149412  0.22505806  0.14047521  1
  Dy  Dy1  1  0.63850588  0.22505806  0.64047521  1
  Dy  Dy2  1  0.13850588  0.77494194  0.85952479  1
  Dy  Dy3  1  0.36149412  0.77494194  0.35952479  1
  Dy  Dy4  1  0.65895047  0.93959164  0.38682081  1
  Dy  Dy5  1  0.84104953  0.93959164  0.88682081  1
  Dy  Dy6  1  0.34104953  0.06040836  0.61317919  1
  Dy  Dy7  1  0.15895047  0.06040836  0.11317919  1
  Dy  Dy8  1  0.60511950  0.86742630  0.16453282  1
  Dy  Dy9  1  0.89488050  0.86742630  0.66453282  1
  Dy  Dy10  1  0.39488050  0.13257370  0.83546718  1
  Dy  Dy11  1  0.10511950  0.13257370  0.33546718  1
  Dy  Dy12  1  0.91608444  0.70574378  0.31410384  1
  Dy  Dy13  1  0.58391556  0.70574378  0.81410384  1
  Dy  Dy14  1  0.08391556  0.29425622  0.68589616  1
  Dy  Dy15  1  0.41608444  0.29425622  0.18589616  1
  Te  Te16  1  0.48259850  0.64617801  0.60315281  1
  Te  Te17  1  0.01740150  0.64617801  0.10315281  1
  Te  Te18  1  0.51740150  0.35382199  0.39684719  1
  Te  Te19  1  0.98259850  0.35382199  0.89684719  1
  Te  Te20  1  0.65263832  0.22180779  0.89803207  1
  Te  Te21  1  0.84736168  0.22180779  0.39803207  1
  Te  Te22  1  0.34736168  0.77819221  0.10196793  1
  Te  Te23  1  0.15263832  0.77819221  0.60196793  1
  Te  Te24  1  0.83629289  0.55694953  0.57108291  1
  Te  Te25  1  0.66370711  0.55694953  0.07108291  1
  Te  Te26  1  0.16370711  0.44305047  0.42891709  1
  Te  Te27  1  0.33629289  0.44305047  0.92891709  1
  N  N28  1  0.51208929  0.98175344  0.26876316  1
  N  N29  1  0.98791071  0.98175344  0.76876316  1
  N  N30  1  0.48791071  0.01824656  0.73123684  1
  N  N31  1  0.01208929  0.01824656  0.23123684  1
  N  N32  1  0.76084703  0.91533165  0.24534163  1
  N  N33  1  0.73915297  0.91533165  0.74534163  1
  N  N34  1  0.23915297  0.08466835  0.75465837  1
  N  N35  1  0.26084703  0.08466835  0.25465837  1
