# generated using pymatgen
data_P4S3
_symmetry_space_group_name_H-M   'P 1'
_cell_length_a   6.82756940
_cell_length_b   9.93302569
_cell_length_c   11.11081821
_cell_angle_alpha   90.00000000
_cell_angle_beta   90.00000000
_cell_angle_gamma   90.00000000
_symmetry_Int_Tables_number   1
_chemical_formula_structural   P4S3
_chemical_formula_sum   'P16 S12'
_cell_volume   753.51816091
_cell_formula_units_Z   4
loop_
 _symmetry_equiv_pos_site_id
 _symmetry_equiv_pos_as_xyz
  1  'x, y, z'
loop_
 _atom_site_type_symbol
 _atom_site_label
 _atom_site_symmetry_multiplicity
 _atom_site_fract_x
 _atom_site_fract_y
 _atom_site_fract_z
 _atom_site_occupancy
  P  P0  1  0.75678157  0.86277997  0.07759175  1
  P  P1  1  0.25678157  0.13722003  0.42240825  1
  P  P2  1  0.24321843  0.36277997  0.92240925  1
  P  P3  1  0.74321843  0.63722003  0.57759075  1
  P  P4  1  0.84508338  0.25000000  0.30869972  1
  P  P5  1  0.34508338  0.75000000  0.19130028  1
  P  P6  1  0.15491662  0.75000000  0.69130028  1
  P  P7  1  0.65491662  0.25000000  0.80869972  1
  P  P8  1  0.08975556  0.25000000  0.56275018  1
  P  P9  1  0.58975556  0.75000000  0.93724982  1
  P  P10  1  0.91024444  0.75000000  0.43724982  1
  P  P11  1  0.41024444  0.25000000  0.06275018  1
  P  P12  1  0.24321843  0.13722003  0.92240925  1
  P  P13  1  0.74321843  0.86277997  0.57759075  1
  P  P14  1  0.25678157  0.36277997  0.42240825  1
  P  P15  1  0.75678157  0.63722003  0.07759175  1
  S  S16  1  0.95640550  0.91165039  0.70588929  1
  S  S17  1  0.45640550  0.41165039  0.79411071  1
  S  S18  1  0.04359450  0.08834961  0.29411071  1
  S  S19  1  0.54359450  0.91165039  0.20588929  1
  S  S20  1  0.45640550  0.08834961  0.79411071  1
  S  S21  1  0.95640550  0.58834961  0.70588929  1
  S  S22  1  0.54359450  0.58834961  0.20588929  1
  S  S23  1  0.04359450  0.41165039  0.29411071  1
  S  S24  1  0.69720065  0.25000000  0.99609584  1
  S  S25  1  0.19720065  0.75000000  0.50390416  1
  S  S26  1  0.30279935  0.75000000  0.00390416  1
  S  S27  1  0.80279935  0.25000000  0.49609584  1
