# generated using pymatgen
data_NbTlV2O8
_symmetry_space_group_name_H-M   'P 1'
_cell_length_a   5.62139632
_cell_length_b   8.83070225
_cell_length_c   15.05576891
_cell_angle_alpha   90.00000000
_cell_angle_beta   90.00000000
_cell_angle_gamma   90.00000000
_symmetry_Int_Tables_number   1
_chemical_formula_structural   NbTlV2O8
_chemical_formula_sum   'Nb4 Tl4 V8 O32'
_cell_volume   747.38157458
_cell_formula_units_Z   4
loop_
 _symmetry_equiv_pos_site_id
 _symmetry_equiv_pos_as_xyz
  1  'x, y, z'
loop_
 _atom_site_type_symbol
 _atom_site_label
 _atom_site_symmetry_multiplicity
 _atom_site_fract_x
 _atom_site_fract_y
 _atom_site_fract_z
 _atom_site_occupancy
  Nb  Nb0  1  0.25000000  0.82449845  0.62311310  1
  Nb  Nb1  1  0.25000000  0.67550155  0.12311310  1
  Nb  Nb2  1  0.75000000  0.17550155  0.37688690  1
  Nb  Nb3  1  0.75000000  0.32449845  0.87688690  1
  Tl  Tl4  1  0.25000000  0.92919606  0.88093841  1
  Tl  Tl5  1  0.25000000  0.57080394  0.38093841  1
  Tl  Tl6  1  0.75000000  0.07080394  0.11906159  1
  Tl  Tl7  1  0.75000000  0.42919606  0.61906159  1
  V  V8  1  0.25000000  0.51996132  0.78478088  1
  V  V9  1  0.25000000  0.98003868  0.28478088  1
  V  V10  1  0.75000000  0.48003868  0.21521912  1
  V  V11  1  0.75000000  0.01996132  0.71521912  1
  V  V12  1  0.25000000  0.20927567  0.52502131  1
  V  V13  1  0.25000000  0.29072433  0.02502131  1
  V  V14  1  0.75000000  0.79072433  0.47497869  1
  V  V15  1  0.75000000  0.70927567  0.97497869  1
  O  O16  1  0.00618053  0.90834108  0.70863634  1
  O  O17  1  0.49381947  0.59165892  0.20863634  1
  O  O18  1  0.50618053  0.09165892  0.29136366  1
  O  O19  1  0.99381947  0.40834108  0.79136366  1
  O  O20  1  0.99381947  0.09165892  0.29136366  1
  O  O21  1  0.50618053  0.40834108  0.79136366  1
  O  O22  1  0.49381947  0.90834108  0.70863634  1
  O  O23  1  0.00618053  0.59165892  0.20863634  1
  O  O24  1  0.99952195  0.75224043  0.54171370  1
  O  O25  1  0.50047805  0.74775957  0.04171370  1
  O  O26  1  0.49952195  0.24775957  0.45828630  1
  O  O27  1  0.00047805  0.25224043  0.95828630  1
  O  O28  1  0.00047805  0.24775957  0.45828630  1
  O  O29  1  0.49952195  0.25224043  0.95828630  1
  O  O30  1  0.50047805  0.75224043  0.54171370  1
  O  O31  1  0.99952195  0.74775957  0.04171370  1
  O  O32  1  0.25000000  0.63132765  0.68814826  1
  O  O33  1  0.25000000  0.86867235  0.18814826  1
  O  O34  1  0.75000000  0.36867235  0.31185174  1
  O  O35  1  0.75000000  0.13132765  0.81185174  1
  O  O36  1  0.25000000  0.02459495  0.56249354  1
  O  O37  1  0.25000000  0.47540405  0.06249354  1
  O  O38  1  0.75000000  0.97540505  0.43750646  1
  O  O39  1  0.75000000  0.52459495  0.93750646  1
  O  O40  1  0.25000000  0.63568901  0.86926597  1
  O  O41  1  0.25000000  0.86431099  0.36926597  1
  O  O42  1  0.75000000  0.36431099  0.13073403  1
  O  O43  1  0.75000000  0.13568901  0.63073403  1
  O  O44  1  0.75000000  0.82936157  0.89241985  1
  O  O45  1  0.75000000  0.67063843  0.39241985  1
  O  O46  1  0.25000000  0.17063843  0.10758015  1
  O  O47  1  0.25000000  0.32936157  0.60758015  1
