# generated using pymatgen
data_Rb2FeO4
_symmetry_space_group_name_H-M   'P 1'
_cell_length_a   7.98602705
_cell_length_b   5.99860527
_cell_length_c   10.61574516
_cell_angle_alpha   90.00000000
_cell_angle_beta   90.00000000
_cell_angle_gamma   90.00000000
_symmetry_Int_Tables_number   1
_chemical_formula_structural   Rb2FeO4
_chemical_formula_sum   'Rb8 Fe4 O16'
_cell_volume   508.54752612
_cell_formula_units_Z   4
loop_
 _symmetry_equiv_pos_site_id
 _symmetry_equiv_pos_as_xyz
  1  'x, y, z'
loop_
 _atom_site_type_symbol
 _atom_site_label
 _atom_site_symmetry_multiplicity
 _atom_site_fract_x
 _atom_site_fract_y
 _atom_site_fract_z
 _atom_site_occupancy
  Rb  Rb0  1  0.01489693  0.75000000  0.19543973  1
  Rb  Rb1  1  0.16310240  0.25000000  0.40957084  1
  Rb  Rb2  1  0.33689760  0.75000000  0.90957084  1
  Rb  Rb3  1  0.48510307  0.25000000  0.69543973  1
  Rb  Rb4  1  0.51489693  0.75000000  0.30456027  1
  Rb  Rb5  1  0.66310240  0.25000000  0.09042916  1
  Rb  Rb6  1  0.83689760  0.75000000  0.59042916  1
  Rb  Rb7  1  0.98510307  0.25000000  0.80456027  1
  Fe  Fe8  1  0.23329732  0.25000000  0.07965295  1
  Fe  Fe9  1  0.26670268  0.75000000  0.57965295  1
  Fe  Fe10  1  0.73329732  0.25000000  0.42034705  1
  Fe  Fe11  1  0.76670268  0.75000000  0.92034705  1
  O  O12  1  0.02820713  0.25000000  0.08625195  1
  O  O13  1  0.19211404  0.52638891  0.64973355  1
  O  O14  1  0.19211404  0.97361109  0.64973355  1
  O  O15  1  0.20090008  0.75000000  0.43231978  1
  O  O16  1  0.29909992  0.25000000  0.93231978  1
  O  O17  1  0.30788596  0.02638891  0.14973355  1
  O  O18  1  0.30788596  0.47361109  0.14973355  1
  O  O19  1  0.47179287  0.75000000  0.58625195  1
  O  O20  1  0.52820713  0.25000000  0.41374805  1
  O  O21  1  0.69211404  0.52638891  0.85026645  1
  O  O22  1  0.69211404  0.97361109  0.85026645  1
  O  O23  1  0.70090008  0.75000000  0.06768022  1
  O  O24  1  0.79909992  0.25000000  0.56768022  1
  O  O25  1  0.80788596  0.02638891  0.35026645  1
  O  O26  1  0.80788596  0.47361109  0.35026645  1
  O  O27  1  0.97179287  0.75000000  0.91374805  1
