# generated using pymatgen
data_Nb9PO25
_symmetry_space_group_name_H-M   'P 1'
_cell_length_a   11.32323111
_cell_length_b   11.32322933
_cell_length_c   15.77730543
_cell_angle_alpha   45.83486710
_cell_angle_beta   45.83486344
_cell_angle_gamma   19.67289555
_symmetry_Int_Tables_number   1
_chemical_formula_structural   Nb9PO25
_chemical_formula_sum   'Nb9 P1 O25'
_cell_volume   481.53343366
_cell_formula_units_Z   1
loop_
 _symmetry_equiv_pos_site_id
 _symmetry_equiv_pos_as_xyz
  1  'x, y, z'
loop_
 _atom_site_type_symbol
 _atom_site_label
 _atom_site_symmetry_multiplicity
 _atom_site_fract_x
 _atom_site_fract_y
 _atom_site_fract_z
 _atom_site_occupancy
  Nb  Nb0  1  0.66583691  0.67343035  0.44325325  1
  Nb  Nb1  1  0.32656987  0.33416298  0.55674587  1
  Nb  Nb2  1  0.89258077  0.88171790  0.78254742  1
  Nb  Nb3  1  0.11827983  0.10741926  0.21745463  1
  Nb  Nb4  1  0.95761512  0.04238454  -0.00000030  1
  Nb  Nb5  1  0.89756579  0.88295872  0.32799044  1
  Nb  Nb6  1  0.11704094  0.10243562  0.67200789  1
  Nb  Nb7  1  0.77662963  0.78670464  0.10862270  1
  Nb  Nb8  1  0.21329157  0.22337442  0.89137789  1
  P  P9  1  0.75062763  0.24937380  0.50000004  1
  O  O10  1  0.85492304  0.83580012  0.51014958  1
  O  O11  1  0.16419997  0.14507723  0.48985055  1
  O  O12  1  0.63647347  0.65241690  0.20089753  1
  O  O13  1  0.34758501  0.36352601  0.79910221  1
  O  O14  1  0.70922313  0.72871272  0.29093547  1
  O  O15  1  0.27128764  0.29077730  0.70906451  1
  O  O16  1  0.00174737  0.97849407  0.72886638  1
  O  O17  1  0.02150914  0.99825091  0.27113363  1
  O  O18  1  0.58263725  0.51577681  0.51564091  1
  O  O19  1  0.48422309  0.41736320  0.48435854  1
  O  O20  1  0.90300835  0.96730819  0.61406742  1
  O  O21  1  0.03269300  0.09699013  0.38593278  1
  O  O22  1  0.62256135  0.60365276  0.63470417  1
  O  O23  1  0.39634682  0.37743790  0.36529555  1
  O  O24  1  0.74448520  0.75993772  0.86087264  1
  O  O25  1  0.24006600  0.25551185  0.13912794  1
  O  O26  1  0.79816415  0.76033408  0.39568310  1
  O  O27  1  0.23966500  0.20183384  0.60431818  1
  O  O28  1  0.80808250  0.84197784  0.95421213  1
  O  O29  1  0.15802257  0.19191926  0.04578704  1
  O  O30  1  0.94566499  0.94892728  0.16878260  1
  O  O31  1  0.05107262  0.05433458  0.83121726  1
  O  O32  1  0.87917509  0.88853719  0.06344063  1
  O  O33  1  0.11146209  0.12082494  0.93655968  1
  O  O34  1  0.48668307  0.51331796  -0.00000027  1
