# generated using pymatgen
data_Ho2Si2O7
_symmetry_space_group_name_H-M   'P 1'
_cell_length_a   6.55790475
_cell_length_b   6.58078074
_cell_length_c   11.94625571
_cell_angle_alpha   94.26528690
_cell_angle_beta   91.43934441
_cell_angle_gamma   92.11186294
_symmetry_Int_Tables_number   1
_chemical_formula_structural   Ho2Si2O7
_chemical_formula_sum   'Ho8 Si8 O28'
_cell_volume   513.57630656
_cell_formula_units_Z   4
loop_
 _symmetry_equiv_pos_site_id
 _symmetry_equiv_pos_as_xyz
  1  'x, y, z'
loop_
 _atom_site_type_symbol
 _atom_site_label
 _atom_site_symmetry_multiplicity
 _atom_site_fract_x
 _atom_site_fract_y
 _atom_site_fract_z
 _atom_site_occupancy
  Ho  Ho0  1  0.67410993  0.17363089  0.89034960  1
  Ho  Ho1  1  0.32587253  0.82637798  0.10965151  1
  Ho  Ho2  1  0.36886083  0.21429431  0.63398646  1
  Ho  Ho3  1  0.63114139  0.78572779  0.36601057  1
  Ho  Ho4  1  0.88265744  0.91068402  0.64309509  1
  Ho  Ho5  1  0.11734149  0.08931454  0.35690412  1
  Ho  Ho6  1  0.95004844  0.67297403  0.88551011  1
  Ho  Ho7  1  0.04995548  0.32702492  0.11448823  1
  Si  Si8  1  0.14336299  0.62381231  0.37810160  1
  Si  Si9  1  0.85663836  0.37618583  0.62190110  1
  Si  Si10  1  0.37737909  0.72311079  0.59429167  1
  Si  Si11  1  0.62261857  0.27689440  0.40570819  1
  Si  Si12  1  0.48694263  0.66503777  0.82543059  1
  Si  Si13  1  0.51305749  0.33496412  0.17456883  1
  Si  Si14  1  0.15595113  0.14846554  0.88474737  1
  Si  Si15  1  0.84404819  0.85152832  0.11525205  1
  O  O16  1  0.00187533  0.98448941  0.81394891  1
  O  O17  1  0.99812913  0.01550390  0.18605093  1
  O  O18  1  0.00068446  0.33385129  0.91763465  1
  O  O19  1  -0.00068047  0.66614399  0.08236822  1
  O  O20  1  0.35087617  0.21067383  0.81485882  1
  O  O21  1  0.64911723  0.78932542  0.18513685  1
  O  O22  1  0.23012597  0.08295963  0.00577945  1
  O  O23  1  0.76989039  0.91703283  0.99421899  1
  O  O24  1  0.07405452  0.41277176  0.30914026  1
  O  O25  1  0.92594823  0.58722503  0.69086341  1
  O  O26  1  0.96106292  0.77064765  0.41997306  1
  O  O27  1  0.03893533  0.22935122  0.58002557  1
  O  O28  1  0.28872152  0.78102671  0.31149694  1
  O  O29  1  0.71128499  0.21897338  0.68850989  1
  O  O30  1  0.28381920  0.57199097  0.48855162  1
  O  O31  1  0.71617584  0.42800467  0.51145282  1
  O  O32  1  0.35304204  0.48780278  0.12478683  1
  O  O33  1  0.64695499  0.51219511  0.87521183  1
  O  O34  1  0.38545030  0.13569527  0.21234721  1
  O  O35  1  0.61455102  0.86430347  0.78765038  1
  O  O36  1  0.70109601  0.29481848  0.09319780  1
  O  O37  1  0.29890503  0.70518303  0.90680179  1
  O  O38  1  0.59937640  0.43493509  0.30535948  1
  O  O39  1  0.40062155  0.56506468  0.69463974  1
  O  O40  1  0.41325528  0.17308724  0.44747756  1
  O  O41  1  0.58674257  0.82691174  0.55251943  1
  O  O42  1  0.77420601  0.09714984  0.37729035  1
  O  O43  1  0.22579204  0.90285401  0.62271008  1
