# generated using pymatgen
data_AlGaAs2
_symmetry_space_group_name_H-M   'P 1'
_cell_length_a   6.94349286
_cell_length_b   6.94349286
_cell_length_c   6.94349273
_cell_angle_alpha   33.57881129
_cell_angle_beta   33.57881129
_cell_angle_gamma   33.57882360
_symmetry_Int_Tables_number   1
_chemical_formula_structural   AlGaAs2
_chemical_formula_sum   'Al1 Ga1 As2'
_cell_volume   91.21657145
_cell_formula_units_Z   1
loop_
 _symmetry_equiv_pos_site_id
 _symmetry_equiv_pos_as_xyz
  1  'x, y, z'
loop_
 _atom_site_type_symbol
 _atom_site_label
 _atom_site_symmetry_multiplicity
 _atom_site_fract_x
 _atom_site_fract_y
 _atom_site_fract_z
 _atom_site_occupancy
  Al  Al0  1  0.99975888  0.99975888  0.99975888  1
  Ga  Ga1  1  0.50012895  0.50012895  0.50012895  1
  As  As2  1  0.12484424  0.12484424  0.12484424  1
  As  As3  1  0.62526893  0.62526893  0.62526893  1
