# generated using pymatgen
data_MoSeS
_symmetry_space_group_name_H-M   'P 1'
_cell_length_a   3.24993478
_cell_length_b   3.24968015
_cell_length_c   22.18203533
_cell_angle_alpha   90.00419115
_cell_angle_beta   89.99973481
_cell_angle_gamma   120.00261764
_symmetry_Int_Tables_number   1
_chemical_formula_structural   MoSeS
_chemical_formula_sum   'Mo2 Se2 S2'
_cell_volume   202.87840880
_cell_formula_units_Z   2
loop_
 _symmetry_equiv_pos_site_id
 _symmetry_equiv_pos_as_xyz
  1  'x, y, z'
loop_
 _atom_site_type_symbol
 _atom_site_label
 _atom_site_symmetry_multiplicity
 _atom_site_fract_x
 _atom_site_fract_y
 _atom_site_fract_z
 _atom_site_occupancy
  Mo  Mo0  1  0.33348941  0.66697315  0.15159088  1
  Mo  Mo1  1  0.66646277  0.33292985  0.45028040  1
  Se  Se2  1  0.33323374  0.66648200  0.52593652  1
  Se  Se3  1  0.33314184  0.66628198  0.37456760  1
  S  S4  1  0.66684432  0.33368139  0.08254398  1
  S  S5  1  0.66682791  0.33365263  0.22068462  1
