# generated using pymatgen
data_KMg3Cu(AsO4)3
_symmetry_space_group_name_H-M   'P 1'
_cell_length_a   8.81260748
_cell_length_b   8.81260748
_cell_length_c   6.75208327
_cell_angle_alpha   74.53057962
_cell_angle_beta   74.53057962
_cell_angle_gamma   92.91518525
_symmetry_Int_Tables_number   1
_chemical_formula_structural   KMg3Cu(AsO4)3
_chemical_formula_sum   'K2 Mg6 Cu2 As6 O24'
_cell_volume   482.85573480
_cell_formula_units_Z   2
loop_
 _symmetry_equiv_pos_site_id
 _symmetry_equiv_pos_as_xyz
  1  'x, y, z'
loop_
 _atom_site_type_symbol
 _atom_site_label
 _atom_site_symmetry_multiplicity
 _atom_site_fract_x
 _atom_site_fract_y
 _atom_site_fract_z
 _atom_site_occupancy
  K  K0  1  0.51537982  0.48462018  0.25000000  1
  K  K1  1  0.48462018  0.51537982  0.75000000  1
  Mg  Mg2  1  0.24355316  0.75644684  0.25000000  1
  Mg  Mg3  1  0.75644684  0.24355316  0.75000000  1
  Mg  Mg4  1  0.56049735  0.87625998  0.37198304  1
  Mg  Mg5  1  0.43950265  0.12374002  0.62801696  1
  Mg  Mg6  1  0.12374002  0.43950265  0.12801696  1
  Mg  Mg7  1  0.87625998  0.56049735  0.87198304  1
  Cu  Cu8  1  0.99894375  0.00105625  0.25000000  1
  Cu  Cu9  1  0.00105625  0.99894375  0.75000000  1
  As  As10  1  0.78641521  0.21358479  0.25000000  1
  As  As11  1  0.21358479  0.78641521  0.75000000  1
  As  As12  1  0.37797802  0.14714891  0.12750003  1
  As  As13  1  0.62202198  0.85285109  0.87249997  1
  As  As14  1  0.85285109  0.62202198  0.37249997  1
  As  As15  1  0.14714891  0.37797802  0.62750003  1
  O  O16  1  0.49161664  0.83175522  0.11797959  1
  O  O17  1  0.50838336  0.16824478  0.88202041  1
  O  O18  1  0.16824478  0.50838336  0.38202041  1
  O  O19  1  0.83175522  0.49161664  0.61797959  1
  O  O20  1  0.67597375  0.24969510  0.47602729  1
  O  O21  1  0.32402625  0.75030490  0.52397271  1
  O  O22  1  0.75030490  0.32402625  0.02397271  1
  O  O23  1  0.24969510  0.67597375  0.97602729  1
  O  O24  1  0.67648355  0.68575166  0.37726041  1
  O  O25  1  0.32351645  0.31424834  0.62273959  1
  O  O26  1  0.31424834  0.32351645  0.12273959  1
  O  O27  1  0.68575166  0.67648355  0.87726041  1
  O  O28  1  0.77595546  0.01493137  0.26292194  1
  O  O29  1  0.22404454  0.98506863  0.73707806  1
  O  O30  1  0.98506863  0.22404454  0.23707806  1
  O  O31  1  0.01493137  0.77595546  0.76292194  1
  O  O32  1  0.22461995  -0.00051337  0.18569855  1
  O  O33  1  0.77538005  0.00051337  0.81430145  1
  O  O34  1  0.00051337  0.77538005  0.31430145  1
  O  O35  1  -0.00051337  0.22461995  0.68569855  1
  O  O36  1  0.47108552  0.09460622  0.32095933  1
  O  O37  1  0.52891448  0.90539378  0.67904067  1
  O  O38  1  0.90539378  0.52891448  0.17904067  1
  O  O39  1  0.09460622  0.47108552  0.82095933  1
