# generated using pymatgen
data_MgCr8Fe3O16
_symmetry_space_group_name_H-M   'P 1'
_cell_length_a   6.05259600
_cell_length_b   6.05259600
_cell_length_c   8.51046900
_cell_angle_alpha   90.00000000
_cell_angle_beta   90.00000000
_cell_angle_gamma   90.00000000
_symmetry_Int_Tables_number   1
_chemical_formula_structural   MgCr8Fe3O16
_chemical_formula_sum   'Mg1 Cr8 Fe3 O16'
_cell_volume   311.77182637
_cell_formula_units_Z   1
loop_
 _symmetry_equiv_pos_site_id
 _symmetry_equiv_pos_as_xyz
  1  'x, y, z'
loop_
 _atom_site_type_symbol
 _atom_site_label
 _atom_site_symmetry_multiplicity
 _atom_site_fract_x
 _atom_site_fract_y
 _atom_site_fract_z
 _atom_site_occupancy
  Mg  Mg0  1  0.50000000  0.50000000  0.50000000  1
  Cr  Cr1  1  0.25092400  0.00000000  0.37518300  1
  Cr  Cr2  1  0.74981800  0.50000000  0.87470000  1
  Cr  Cr3  1  0.74907600  0.00000000  0.37518300  1
  Cr  Cr4  1  0.25018200  0.50000000  0.87470000  1
  Cr  Cr5  1  0.50000000  0.25018200  0.12530000  1
  Cr  Cr6  1  0.00000000  0.74907600  0.62481700  1
  Cr  Cr7  1  0.50000000  0.74981800  0.12530000  1
  Cr  Cr8  1  0.00000000  0.25092400  0.62481700  1
  Fe  Fe9  1  0.00000000  0.00000000  0.00000000  1
  Fe  Fe10  1  0.50000000  0.00000000  0.74995400  1
  Fe  Fe11  1  0.00000000  0.50000000  0.25004600  1
  O  O12  1  0.72359900  0.00000000  0.13765600  1
  O  O13  1  0.22734400  0.50000000  0.63596600  1
  O  O14  1  0.27640100  0.00000000  0.13765600  1
  O  O15  1  0.77265600  0.50000000  0.63596600  1
  O  O16  1  0.50000000  0.77265600  0.36403400  1
  O  O17  1  0.00000000  0.27640100  0.86234400  1
  O  O18  1  0.50000000  0.22734400  0.36403400  1
  O  O19  1  0.00000000  0.72359900  0.86234400  1
  O  O20  1  0.27660300  0.50000000  0.11289800  1
  O  O21  1  0.77676300  0.00000000  0.61316500  1
  O  O22  1  0.72339700  0.50000000  0.11289800  1
  O  O23  1  0.22323700  0.00000000  0.61316500  1
  O  O24  1  0.50000000  0.72339700  0.88710200  1
  O  O25  1  0.00000000  0.22323700  0.38683500  1
  O  O26  1  0.50000000  0.27660300  0.88710200  1
  O  O27  1  0.00000000  0.77676300  0.38683500  1
