# generated using pymatgen
data_Cs2Sb2Pt
_symmetry_space_group_name_H-M   'P 1'
_cell_length_a   7.01087764
_cell_length_b   7.65161058
_cell_length_c   8.43261961
_cell_angle_alpha   116.98075112
_cell_angle_beta   90.00000000
_cell_angle_gamma   90.00000000
_symmetry_Int_Tables_number   1
_chemical_formula_structural   Cs2Sb2Pt
_chemical_formula_sum   'Cs4 Sb4 Pt2'
_cell_volume   403.12798842
_cell_formula_units_Z   2
loop_
 _symmetry_equiv_pos_site_id
 _symmetry_equiv_pos_as_xyz
  1  'x, y, z'
loop_
 _atom_site_type_symbol
 _atom_site_label
 _atom_site_symmetry_multiplicity
 _atom_site_fract_x
 _atom_site_fract_y
 _atom_site_fract_z
 _atom_site_occupancy
  Cs  Cs0  1  0.75000000  0.39692936  0.79385771  1
  Cs  Cs1  1  0.25000000  0.60307064  0.20614229  1
  Cs  Cs2  1  0.75000000  0.80238291  0.60476482  1
  Cs  Cs3  1  0.25000000  0.19761709  0.39523518  1
  Sb  Sb4  1  0.75000000  0.27969015  0.19205072  1
  Sb  Sb5  1  0.25000000  0.08764143  0.80794928  1
  Sb  Sb6  1  0.25000000  0.72030985  0.80794928  1
  Sb  Sb7  1  0.75000000  0.91235857  0.19205072  1
  Pt  Pt8  1  0.50000000  -0.00000000  -0.00000000  1
  Pt  Pt9  1  0.00000000  -0.00000000  -0.00000000  1
