# generated using pymatgen
data_Na3Sb3(PO7)2
_symmetry_space_group_name_H-M   'P 1'
_cell_length_a   7.22311634
_cell_length_b   6.29898197
_cell_length_c   12.41012327
_cell_angle_alpha   71.65474831
_cell_angle_beta   90.00000000
_cell_angle_gamma   90.00000000
_symmetry_Int_Tables_number   1
_chemical_formula_structural   Na3Sb3(PO7)2
_chemical_formula_sum   'Na6 Sb6 P4 O28'
_cell_volume   535.94270690
_cell_formula_units_Z   2
loop_
 _symmetry_equiv_pos_site_id
 _symmetry_equiv_pos_as_xyz
  1  'x, y, z'
loop_
 _atom_site_type_symbol
 _atom_site_label
 _atom_site_symmetry_multiplicity
 _atom_site_fract_x
 _atom_site_fract_y
 _atom_site_fract_z
 _atom_site_occupancy
  Na  Na0  1  0.20151364  0.51720774  0.56742224  1
  Na  Na1  1  0.79848636  0.48279226  0.43257776  1
  Na  Na2  1  0.70151364  0.48279226  0.93257776  1
  Na  Na3  1  0.29848636  0.51720774  0.06742224  1
  Na  Na4  1  0.50000000  0.00000000  0.00000000  1
  Na  Na5  1  -0.00000000  0.00000000  0.50000000  1
  Sb  Sb6  1  0.24239480  0.97001128  0.75706241  1
  Sb  Sb7  1  0.75760520  0.02998872  0.24293759  1
  Sb  Sb8  1  0.74239480  0.02998872  0.74293759  1
  Sb  Sb9  1  0.25760520  0.97001128  0.25706241  1
  Sb  Sb10  1  0.50000000  0.00000000  0.50000000  1
  Sb  Sb11  1  -0.00000000  0.00000000  0.00000000  1
  P  P12  1  0.23576081  0.41373210  0.83676611  1
  P  P13  1  0.76423919  0.58626790  0.16323389  1
  P  P14  1  0.73576081  0.58626790  0.66323389  1
  P  P15  1  0.26423919  0.41373210  0.33676611  1
  O  O16  1  0.79971904  0.96199562  0.90354636  1
  O  O17  1  0.20028096  0.03800438  0.09645364  1
  O  O18  1  0.29971904  0.03800438  0.59645364  1
  O  O19  1  0.70028096  0.96199562  0.40354636  1
  O  O20  1  0.49832823  0.92811911  0.80458908  1
  O  O21  1  0.50167177  0.07188089  0.19541092  1
  O  O22  1  0.99832823  0.07188089  0.69541092  1
  O  O23  1  0.00167177  0.92811911  0.30458908  1
  O  O24  1  0.27535246  0.29451102  0.74733997  1
  O  O25  1  0.72464754  0.70548898  0.25266003  1
  O  O26  1  0.77535246  0.70548898  0.75266003  1
  O  O27  1  0.22464754  0.29451102  0.24733997  1
  O  O28  1  0.89202250  0.60815169  0.58156206  1
  O  O29  1  0.10797750  0.39184831  0.41843794  1
  O  O30  1  0.39202250  0.39184831  0.91843794  1
  O  O31  1  0.60797750  0.60815169  0.08156206  1
  O  O32  1  0.95014824  0.68040398  0.10117998  1
  O  O33  1  0.04985176  0.31959602  0.89882002  1
  O  O34  1  0.45014824  0.31959602  0.39882002  1
  O  O35  1  0.54985176  0.68040398  0.60117998  1
  O  O36  1  0.18889229  0.87891125  0.92159448  1
  O  O37  1  0.81110771  0.12108875  0.07840552  1
  O  O38  1  0.68889229  0.12108875  0.57840552  1
  O  O39  1  0.31110771  0.87891125  0.42159448  1
  O  O40  1  0.19410873  0.65514464  0.76150037  1
  O  O41  1  0.80589127  0.34485536  0.23849963  1
  O  O42  1  0.69410873  0.34485536  0.73849963  1
  O  O43  1  0.30589127  0.65514464  0.26150037  1
