# generated using pymatgen
data_Na2Lu3Te4(IO4)3
_symmetry_space_group_name_H-M   'P 1'
_cell_length_a   5.48956433
_cell_length_b   9.21935123
_cell_length_c   16.52273675
_cell_angle_alpha   89.99646913
_cell_angle_beta   90.00000000
_cell_angle_gamma   90.00000000
_symmetry_Int_Tables_number   1
_chemical_formula_structural   Na2Lu3Te4(IO4)3
_chemical_formula_sum   'Na4 Lu6 Te8 I6 O24'
_cell_volume   836.21936823
_cell_formula_units_Z   2
loop_
 _symmetry_equiv_pos_site_id
 _symmetry_equiv_pos_as_xyz
  1  'x, y, z'
loop_
 _atom_site_type_symbol
 _atom_site_label
 _atom_site_symmetry_multiplicity
 _atom_site_fract_x
 _atom_site_fract_y
 _atom_site_fract_z
 _atom_site_occupancy
  Na  Na0  1  0.26213328  0.70560079  0.08667499  1
  Na  Na1  1  0.26213328  0.29439921  0.41332501  1
  Na  Na2  1  0.73786672  0.29439921  0.91332501  1
  Na  Na3  1  0.73786672  0.70560079  0.58667499  1
  Lu  Lu4  1  0.24585399  -0.00000000  0.25000000  1
  Lu  Lu5  1  0.75414601  -0.00000000  0.75000000  1
  Lu  Lu6  1  0.25397787  -0.00099990  0.91541094  1
  Lu  Lu7  1  0.25397787  0.00099990  0.58458906  1
  Lu  Lu8  1  0.74602213  0.00099990  0.08458906  1
  Lu  Lu9  1  0.74602213  -0.00099990  0.41541094  1
  Te  Te10  1  0.20929053  0.75193919  0.73283627  1
  Te  Te11  1  0.20929053  0.24806081  0.76716373  1
  Te  Te12  1  0.79070947  0.24806081  0.26716373  1
  Te  Te13  1  0.79070947  0.75193919  0.23283627  1
  Te  Te14  1  0.28645285  0.75543214  0.43363812  1
  Te  Te15  1  0.28645285  0.24456786  0.06636188  1
  Te  Te16  1  0.71354715  0.24456786  0.56636188  1
  Te  Te17  1  0.71354715  0.75543214  0.93363812  1
  I  I18  1  0.25628527  0.50000000  0.25000000  1
  I  I19  1  0.74371473  0.50000000  0.75000000  1
  I  I20  1  0.24415092  0.50484646  0.91737328  1
  I  I21  1  0.24415092  0.49515354  0.58262672  1
  I  I22  1  0.75584908  0.49515354  0.08262672  1
  I  I23  1  0.75584908  0.50484646  0.41737328  1
  O  O24  1  0.45995578  0.86757120  0.68755744  1
  O  O25  1  0.45995578  0.13242880  0.81244256  1
  O  O26  1  0.54004422  0.13242880  0.31244256  1
  O  O27  1  0.54004422  0.86757120  0.18755744  1
  O  O28  1  0.07624210  0.87348375  0.81439228  1
  O  O29  1  0.07624210  0.12651625  0.68560772  1
  O  O30  1  0.92375790  0.12651625  0.18560772  1
  O  O31  1  0.92375790  0.87348375  0.31439228  1
  O  O32  1  0.00637819  0.84396524  0.15875778  1
  O  O33  1  0.00637819  0.15603476  0.34124222  1
  O  O34  1  0.99362181  0.15603476  0.84124222  1
  O  O35  1  0.99362181  0.84396524  0.65875778  1
  O  O36  1  0.04120244  0.87337234  0.47894042  1
  O  O37  1  0.04120244  0.12662766  0.02105958  1
  O  O38  1  0.95879756  0.12662766  0.52105958  1
  O  O39  1  0.95879756  0.87337234  0.97894042  1
  O  O40  1  0.41795484  0.88062598  0.35426448  1
  O  O41  1  0.41795484  0.11937402  0.14573552  1
  O  O42  1  0.58204516  0.11937402  0.64573552  1
  O  O43  1  0.58204516  0.88062598  0.85426448  1
  O  O44  1  0.49393135  0.84856217  0.00670019  1
  O  O45  1  0.49393135  0.15143783  0.49329981  1
  O  O46  1  0.50606865  0.15143783  0.99329981  1
  O  O47  1  0.50606865  0.84856217  0.50670019  1
