# generated using pymatgen
data_BaGaH5
_symmetry_space_group_name_H-M   'P 1'
_cell_length_a   4.58579920
_cell_length_b   5.01101533
_cell_length_c   8.66552817
_cell_angle_alpha   90.00459811
_cell_angle_beta   90.00000000
_cell_angle_gamma   90.00000000
_symmetry_Int_Tables_number   1
_chemical_formula_structural   BaGaH5
_chemical_formula_sum   'Ba2 Ga2 H10'
_cell_volume   199.12959123
_cell_formula_units_Z   2
loop_
 _symmetry_equiv_pos_site_id
 _symmetry_equiv_pos_as_xyz
  1  'x, y, z'
loop_
 _atom_site_type_symbol
 _atom_site_label
 _atom_site_symmetry_multiplicity
 _atom_site_fract_x
 _atom_site_fract_y
 _atom_site_fract_z
 _atom_site_occupancy
  Ba  Ba0  1  0.25919551  0.75013341  0.66277817  1
  Ba  Ba1  1  0.75919551  0.24986659  0.33722183  1
  Ga  Ga2  1  0.66986887  0.25024455  0.85802042  1
  Ga  Ga3  1  0.16986887  0.74975545  0.14197958  1
  H  H4  1  0.32465779  0.25027198  0.84011679  1
  H  H5  1  0.82465779  0.74972802  0.15988321  1
  H  H6  1  0.77499448  0.99431066  0.76425635  1
  H  H7  1  0.27499448  0.00568934  0.23574365  1
  H  H8  1  0.77504210  0.50686318  0.76495583  1
  H  H9  1  0.27504210  0.49313682  0.23504417  1
  H  H10  1  0.78424339  0.24950412  0.02761316  1
  H  H11  1  0.28424339  0.75049588  0.97238684  1
  H  H12  1  0.26350686  0.25013209  0.51604064  1
  H  H13  1  0.76350686  0.74986791  0.48395936  1
