# generated using pymatgen
data_Gd3InS6
_symmetry_space_group_name_H-M   'P 1'
_cell_length_a   3.88600080
_cell_length_b   13.60234353
_cell_length_c   16.56249925
_cell_angle_alpha   90.00000000
_cell_angle_beta   90.00000000
_cell_angle_gamma   90.00000000
_symmetry_Int_Tables_number   1
_chemical_formula_structural   Gd3InS6
_chemical_formula_sum   'Gd12 In4 S24'
_cell_volume   875.47247457
_cell_formula_units_Z   4
loop_
 _symmetry_equiv_pos_site_id
 _symmetry_equiv_pos_as_xyz
  1  'x, y, z'
loop_
 _atom_site_type_symbol
 _atom_site_label
 _atom_site_symmetry_multiplicity
 _atom_site_fract_x
 _atom_site_fract_y
 _atom_site_fract_z
 _atom_site_occupancy
  Gd  Gd0  1  0.50000000  0.04002351  0.27648789  1
  Gd  Gd1  1  0.50000000  0.95997649  0.72351211  1
  Gd  Gd2  1  -0.00000000  0.54002351  0.22351211  1
  Gd  Gd3  1  -0.00000000  0.45997649  0.77648789  1
  Gd  Gd4  1  0.50000000  0.81139847  0.14584707  1
  Gd  Gd5  1  0.50000000  0.18860153  0.85415293  1
  Gd  Gd6  1  -0.00000000  0.31139847  0.35415293  1
  Gd  Gd7  1  -0.00000000  0.68860153  0.64584707  1
  Gd  Gd8  1  0.50000000  0.25153510  0.10664269  1
  Gd  Gd9  1  0.50000000  0.74846490  0.89335731  1
  Gd  Gd10  1  0.00000000  0.75153510  0.39335731  1
  Gd  Gd11  1  -0.00000000  0.24846490  0.60664269  1
  In  In12  1  0.50000000  0.50000000  0.50000000  1
  In  In13  1  0.00000000  -0.00000000  0.00000000  1
  In  In14  1  0.50000000  0.50000000  0.00000000  1
  In  In15  1  -0.00000000  -0.00000000  0.50000000  1
  S  S16  1  0.50000000  0.61235460  0.11613900  1
  S  S17  1  0.50000000  0.38764540  0.88386100  1
  S  S18  1  -0.00000000  0.11235460  0.38386100  1
  S  S19  1  0.00000000  0.88764540  0.61613900  1
  S  S20  1  0.50000000  0.90470075  0.41486234  1
  S  S21  1  0.50000000  0.09529925  0.58513766  1
  S  S22  1  -0.00000000  0.40470075  0.08513766  1
  S  S23  1  -0.00000000  0.59529925  0.91486234  1
  S  S24  1  0.50000000  0.68223017  0.28683059  1
  S  S25  1  0.50000000  0.31776983  0.71316941  1
  S  S26  1  0.00000000  0.18223017  0.21316941  1
  S  S27  1  0.00000000  0.81776983  0.78683059  1
  S  S28  1  0.50000000  0.30901720  0.47945361  1
  S  S29  1  0.50000000  0.69098280  0.52054639  1
  S  S30  1  -0.00000000  0.80901720  0.02054639  1
  S  S31  1  -0.00000000  0.19098280  0.97945361  1
  S  S32  1  0.50000000  0.02078878  0.10407652  1
  S  S33  1  0.50000000  0.97921122  0.89592348  1
  S  S34  1  0.00000000  0.52078878  0.39592348  1
  S  S35  1  0.00000000  0.47921122  0.60407652  1
  S  S36  1  0.50000000  0.38877953  0.25369799  1
  S  S37  1  0.50000000  0.61122047  0.74630201  1
  S  S38  1  0.00000000  0.88877953  0.24630201  1
  S  S39  1  0.00000000  0.11122047  0.75369799  1
