# generated using pymatgen
data_NaAs
_symmetry_space_group_name_H-M   'P 1'
_cell_length_a   5.90028481
_cell_length_b   6.21911285
_cell_length_c   10.45051733
_cell_angle_alpha   90.00000000
_cell_angle_beta   90.00000000
_cell_angle_gamma   90.00000000
_symmetry_Int_Tables_number   1
_chemical_formula_structural   NaAs
_chemical_formula_sum   'Na8 As8'
_cell_volume   383.47689568
_cell_formula_units_Z   8
loop_
 _symmetry_equiv_pos_site_id
 _symmetry_equiv_pos_as_xyz
  1  'x, y, z'
loop_
 _atom_site_type_symbol
 _atom_site_label
 _atom_site_symmetry_multiplicity
 _atom_site_fract_x
 _atom_site_fract_y
 _atom_site_fract_z
 _atom_site_occupancy
  Na  Na0  1  0.59740387  0.40815099  0.54509209  1
  Na  Na1  1  0.40259613  0.09184901  0.04509209  1
  Na  Na2  1  0.90259613  0.90815099  0.45490791  1
  Na  Na3  1  0.09740387  0.59184901  0.95490791  1
  Na  Na4  1  0.86347348  0.14908173  0.82812978  1
  Na  Na5  1  0.13652652  0.35091827  0.32812978  1
  Na  Na6  1  0.63652652  0.64908173  0.17187022  1
  Na  Na7  1  0.36347348  0.85091827  0.67187022  1
  As  As8  1  0.36566335  0.28741710  0.79022719  1
  As  As9  1  0.63433665  0.21258290  0.29022719  1
  As  As10  1  0.13433665  0.78741710  0.20977281  1
  As  As11  1  0.86566335  0.71258290  0.70977281  1
  As  As12  1  0.09699070  0.41812740  0.62312715  1
  As  As13  1  0.90300930  0.08187260  0.12312715  1
  As  As14  1  0.40300930  0.91812740  0.37687285  1
  As  As15  1  0.59699070  0.58187260  0.87687285  1
