# generated using pymatgen
data_La2ThSe5
_symmetry_space_group_name_H-M   'P 1'
_cell_length_a   7.98034265
_cell_length_b   8.69623077
_cell_length_c   12.68504303
_cell_angle_alpha   90.00000000
_cell_angle_beta   90.00000000
_cell_angle_gamma   90.00000000
_symmetry_Int_Tables_number   1
_chemical_formula_structural   La2ThSe5
_chemical_formula_sum   'La8 Th4 Se20'
_cell_volume   880.32804933
_cell_formula_units_Z   4
loop_
 _symmetry_equiv_pos_site_id
 _symmetry_equiv_pos_as_xyz
  1  'x, y, z'
loop_
 _atom_site_type_symbol
 _atom_site_label
 _atom_site_symmetry_multiplicity
 _atom_site_fract_x
 _atom_site_fract_y
 _atom_site_fract_z
 _atom_site_occupancy
  La  La0  1  0.52436636  0.50011805  0.32248936  1
  La  La1  1  0.97563364  0.99988195  0.82248936  1
  La  La2  1  0.47563364  0.00011805  0.67751064  1
  La  La3  1  0.02436636  0.49988195  0.17751064  1
  La  La4  1  0.47563364  0.49988195  0.67751064  1
  La  La5  1  0.02436636  0.00011805  0.17751064  1
  La  La6  1  0.52436636  0.99988195  0.32248936  1
  La  La7  1  0.97563364  0.50011805  0.82248936  1
  Th  Th8  1  0.07437508  0.75000000  0.49156882  1
  Th  Th9  1  0.42562492  0.75000000  0.99156882  1
  Th  Th10  1  0.92562492  0.25000000  0.50843118  1
  Th  Th11  1  0.57437508  0.25000000  0.00843118  1
  Se  Se12  1  0.83478844  0.95768071  0.59700393  1
  Se  Se13  1  0.66521156  0.54231929  0.09700393  1
  Se  Se14  1  0.16521156  0.45768071  0.40299607  1
  Se  Se15  1  0.33478844  0.04231929  0.90299607  1
  Se  Se16  1  0.16521156  0.04231929  0.40299607  1
  Se  Se17  1  0.33478844  0.45768071  0.90299607  1
  Se  Se18  1  0.83478844  0.54231929  0.59700393  1
  Se  Se19  1  0.66521156  0.95768071  0.09700393  1
  Se  Se20  1  0.83173166  0.75000000  0.31320755  1
  Se  Se21  1  0.66826834  0.75000000  0.81320755  1
  Se  Se22  1  0.16826834  0.25000000  0.68679245  1
  Se  Se23  1  0.33173166  0.25000000  0.18679245  1
  Se  Se24  1  0.45662860  0.75000000  0.49848544  1
  Se  Se25  1  0.04337140  0.75000000  0.99848544  1
  Se  Se26  1  0.54337140  0.25000000  0.50151456  1
  Se  Se27  1  0.95662860  0.25000000  0.00151456  1
  Se  Se28  1  0.19507867  0.75000000  0.71588501  1
  Se  Se29  1  0.30492133  0.75000000  0.21588501  1
  Se  Se30  1  0.80492133  0.25000000  0.28411499  1
  Se  Se31  1  0.69507867  0.25000000  0.78411499  1
