# generated using pymatgen
data_MoWO6
_symmetry_space_group_name_H-M   'P 1'
_cell_length_a   3.90506041
_cell_length_b   3.90506041
_cell_length_c   7.39552926
_cell_angle_alpha   89.99409125
_cell_angle_beta   90.00590875
_cell_angle_gamma   90.51262440
_symmetry_Int_Tables_number   1
_chemical_formula_structural   MoWO6
_chemical_formula_sum   'Mo1 W1 O6'
_cell_volume   112.77358481
_cell_formula_units_Z   1
loop_
 _symmetry_equiv_pos_site_id
 _symmetry_equiv_pos_as_xyz
  1  'x, y, z'
loop_
 _atom_site_type_symbol
 _atom_site_label
 _atom_site_symmetry_multiplicity
 _atom_site_fract_x
 _atom_site_fract_y
 _atom_site_fract_z
 _atom_site_occupancy
  Mo  Mo0  1  0.92458499  0.07541501  0.74293058  1
  W  W1  1  0.06524684  0.93475316  0.24285904  1
  O  O2  1  0.02493161  0.48019398  0.24118170  1
  O  O3  1  0.51980602  0.97506839  0.24118170  1
  O  O4  1  0.97451346  0.51419199  0.74130759  1
  O  O5  1  0.48580801  0.02548654  0.74130759  1
  O  O6  1  0.00322635  0.99677365  0.49336769  1
  O  O7  1  0.00188371  0.99811629  0.98986509  1
