# generated using pymatgen
data_Pm2(WO4)3
_symmetry_space_group_name_H-M   'P 1'
_cell_length_a   6.95941762
_cell_length_b   6.95941762
_cell_length_c   11.55193490
_cell_angle_alpha   79.03381092
_cell_angle_beta   79.03381092
_cell_angle_gamma   112.15938355
_symmetry_Int_Tables_number   1
_chemical_formula_structural   Pm2(WO4)3
_chemical_formula_sum   'Pm4 W6 O24'
_cell_volume   487.13793147
_cell_formula_units_Z   2
loop_
 _symmetry_equiv_pos_site_id
 _symmetry_equiv_pos_as_xyz
  1  'x, y, z'
loop_
 _atom_site_type_symbol
 _atom_site_label
 _atom_site_symmetry_multiplicity
 _atom_site_fract_x
 _atom_site_fract_y
 _atom_site_fract_z
 _atom_site_occupancy
  Pm  Pm0  1  0.19448781  0.44736655  0.59413877  1
  Pm  Pm1  1  0.80551219  0.55263345  0.40586123  1
  Pm  Pm2  1  0.55263345  0.80551219  0.90586123  1
  Pm  Pm3  1  0.44736655  0.19448781  0.09413877  1
  W  W4  1  0.01116206  0.29881664  0.95084026  1
  W  W5  1  0.98883794  0.70118336  0.04915974  1
  W  W6  1  0.70118336  0.98883794  0.54915974  1
  W  W7  1  0.29881664  0.01116206  0.45084026  1
  W  W8  1  0.61728969  0.38271031  0.75000000  1
  W  W9  1  0.38271031  0.61728969  0.25000000  1
  O  O10  1  0.55332102  0.47250060  0.60977675  1
  O  O11  1  0.44667898  0.52749940  0.39022325  1
  O  O12  1  0.52749940  0.44667898  0.89022325  1
  O  O13  1  0.47250060  0.55332102  0.10977675  1
  O  O14  1  0.51138170  0.09800975  0.78030688  1
  O  O15  1  0.48861830  0.90199025  0.21969312  1
  O  O16  1  0.90199025  0.48861830  0.71969312  1
  O  O17  1  0.09800975  0.51138170  0.28030688  1
  O  O18  1  0.72744141  0.12937592  0.95946115  1
  O  O19  1  0.27255859  0.87062408  0.04053885  1
  O  O20  1  0.87062408  0.27255859  0.54053885  1
  O  O21  1  0.12937592  0.72744141  0.45946115  1
  O  O22  1  0.40058000  0.82613602  0.57543333  1
  O  O23  1  0.59942000  0.17386398  0.42456667  1
  O  O24  1  0.17386398  0.59942000  0.92456667  1
  O  O25  1  0.82613602  0.40058000  0.07543333  1
  O  O26  1  0.15394252  0.29791037  0.80415204  1
  O  O27  1  0.84605748  0.70208963  0.19584796  1
  O  O28  1  0.70208963  0.84605748  0.69584796  1
  O  O29  1  0.29791037  0.15394252  0.30415204  1
  O  O30  1  0.89785331  0.82917112  0.93987441  1
  O  O31  1  0.10214669  0.17082888  0.06012559  1
  O  O32  1  0.17082888  0.10214669  0.56012559  1
  O  O33  1  0.82917112  0.89785331  0.43987441  1
