# generated using pymatgen
data_NaSiSbO5
_symmetry_space_group_name_H-M   'P 1'
_cell_length_a   6.41377900
_cell_length_b   10.74717900
_cell_length_c   12.98715200
_cell_angle_alpha   90.00000000
_cell_angle_beta   90.00000000
_cell_angle_gamma   90.00000000
_symmetry_Int_Tables_number   1
_chemical_formula_structural   NaSiSbO5
_chemical_formula_sum   'Na8 Si8 Sb8 O40'
_cell_volume   895.20478969
_cell_formula_units_Z   8
loop_
 _symmetry_equiv_pos_site_id
 _symmetry_equiv_pos_as_xyz
  1  'x, y, z'
loop_
 _atom_site_type_symbol
 _atom_site_label
 _atom_site_symmetry_multiplicity
 _atom_site_fract_x
 _atom_site_fract_y
 _atom_site_fract_z
 _atom_site_occupancy
  Na  Na0  1  0.24600400  0.57387200  0.39406500  1
  Na  Na1  1  0.75399600  0.07387200  0.60593500  1
  Na  Na2  1  0.25399600  0.57387200  0.89406500  1
  Na  Na3  1  0.74600400  0.07387200  0.10593500  1
  Na  Na4  1  0.28983100  0.77603200  0.15494900  1
  Na  Na5  1  0.71016900  0.27603200  0.84505100  1
  Na  Na6  1  0.21016900  0.77603200  0.65494900  1
  Na  Na7  1  0.78983100  0.27603200  0.34505100  1
  Si  Si8  1  0.02470500  0.99559900  0.31561700  1
  Si  Si9  1  0.97529500  0.49559900  0.68438300  1
  Si  Si10  1  0.47529500  0.99559900  0.81561700  1
  Si  Si11  1  0.52470500  0.49559900  0.18438300  1
  Si  Si12  1  0.82592700  0.75787300  0.01424200  1
  Si  Si13  1  0.17407300  0.25787300  0.98575800  1
  Si  Si14  1  0.67407300  0.75787300  0.51424200  1
  Si  Si15  1  0.32592700  0.25787300  0.48575800  1
  Sb  Sb16  1  0.76865500  0.73729100  0.26723000  1
  Sb  Sb17  1  0.23134500  0.23729100  0.73277000  1
  Sb  Sb18  1  0.73134500  0.73729100  0.76723000  1
  Sb  Sb19  1  0.26865500  0.23729100  0.23277000  1
  Sb  Sb20  1  0.02009400  0.50283700  0.11796600  1
  Sb  Sb21  1  0.97990600  0.00283700  0.88203400  1
  Sb  Sb22  1  0.47990600  0.50283700  0.61796600  1
  Sb  Sb23  1  0.52009400  0.00283700  0.38203400  1
  O  O24  1  0.53571100  0.85757700  0.28834800  1
  O  O25  1  0.46428900  0.35757700  0.71165200  1
  O  O26  1  0.96428900  0.85757700  0.78834800  1
  O  O27  1  0.03571100  0.35757700  0.21165200  1
  O  O28  1  0.50105700  0.11670600  0.25886600  1
  O  O29  1  0.49894300  0.61670600  0.74113400  1
  O  O30  1  0.99894300  0.11670600  0.75886600  1
  O  O31  1  0.00105700  0.61670600  0.24113400  1
  O  O32  1  0.98561900  0.86819400  0.24847000  1
  O  O33  1  0.01438100  0.36819400  0.75153000  1
  O  O34  1  0.51438100  0.86819400  0.74847000  1
  O  O35  1  0.48561900  0.36819400  0.25153000  1
  O  O36  1  0.05739000  0.10126800  0.22455300  1
  O  O37  1  0.94261000  0.60126800  0.77544700  1
  O  O38  1  0.44261000  0.10126800  0.72455300  1
  O  O39  1  0.66954600  0.72673400  0.91730900  1
  O  O40  1  0.55739000  0.60126800  0.27544700  1
  O  O41  1  0.78246700  0.47940300  0.60375100  1
  O  O42  1  0.28246700  0.97940300  0.89624900  1
  O  O43  1  0.71753300  0.47940300  0.10375100  1
  O  O44  1  0.82556900  0.03818200  0.38591900  1
  O  O45  1  0.17443100  0.53818200  0.61408100  1
  O  O46  1  0.67443100  0.03818200  0.88591900  1
  O  O47  1  0.32556900  0.53818200  0.11408100  1
  O  O48  1  0.51744600  0.15517700  0.47508400  1
  O  O49  1  0.48255400  0.65517700  0.52491600  1
  O  O50  1  0.98255400  0.15517700  0.97508400  1
  O  O51  1  0.01744600  0.65517700  0.02491600  1
  O  O52  1  0.43378800  0.39756100  0.49314200  1
  O  O53  1  0.56621200  0.89756100  0.50685800  1
  O  O54  1  0.06621200  0.39756100  0.99314200  1
  O  O55  1  0.93378800  0.89756100  0.00685800  1
  O  O56  1  0.18090500  0.25659500  0.38168600  1
  O  O57  1  0.81909500  0.75659500  0.61831400  1
  O  O58  1  0.31909500  0.25659500  0.88168600  1
  O  O59  1  0.68090500  0.75659500  0.11831400  1
  O  O60  1  0.16954600  0.22673400  0.58269100  1
  O  O61  1  0.83045400  0.72673400  0.41730900  1
  O  O62  1  0.33045400  0.22673400  0.08269100  1
  O  O63  1  0.21753300  0.97940300  0.39624900  1
