# generated using pymatgen
data_CsMnH4Cl3O2
_symmetry_space_group_name_H-M   'P 1'
_cell_length_a   7.28662763
_cell_length_b   9.01038164
_cell_length_c   11.42503940
_cell_angle_alpha   90.00000000
_cell_angle_beta   90.00000000
_cell_angle_gamma   90.00000000
_symmetry_Int_Tables_number   1
_chemical_formula_structural   CsMnH4Cl3O2
_chemical_formula_sum   'Cs4 Mn4 H16 Cl12 O8'
_cell_volume   750.11434150
_cell_formula_units_Z   4
loop_
 _symmetry_equiv_pos_site_id
 _symmetry_equiv_pos_as_xyz
  1  'x, y, z'
loop_
 _atom_site_type_symbol
 _atom_site_label
 _atom_site_symmetry_multiplicity
 _atom_site_fract_x
 _atom_site_fract_y
 _atom_site_fract_z
 _atom_site_occupancy
  Cs  Cs0  1  -0.00000000  0.75000000  0.64760515  1
  Cs  Cs1  1  -0.00000000  0.25000000  0.85239485  1
  Cs  Cs2  1  -0.00000000  0.25000000  0.35239485  1
  Cs  Cs3  1  -0.00000000  0.75000000  0.14760515  1
  Mn  Mn4  1  0.52797505  0.50000000  0.75000000  1
  Mn  Mn5  1  0.47202495  -0.00000000  0.75000000  1
  Mn  Mn6  1  0.47202495  0.50000000  0.25000000  1
  Mn  Mn7  1  0.52797505  0.00000000  0.25000000  1
  H  H8  1  0.30768345  0.52225628  0.94797473  1
  H  H9  1  0.69231655  0.97774372  0.94797473  1
  H  H10  1  0.69231655  0.02225628  0.55202527  1
  H  H11  1  0.30768345  0.47774372  0.55202527  1
  H  H12  1  0.69231655  0.47774372  0.05202527  1
  H  H13  1  0.30768345  0.02225628  0.05202527  1
  H  H14  1  0.30768345  0.97774372  0.44797473  1
  H  H15  1  0.69231655  0.52225628  0.44797473  1
  H  H16  1  0.30058266  0.67758408  0.88515544  1
  H  H17  1  0.69941734  0.82241592  0.88515544  1
  H  H18  1  0.69941734  0.17758408  0.61484456  1
  H  H19  1  0.30058266  0.32241592  0.61484456  1
  H  H20  1  0.69941734  0.32241592  0.11484456  1
  H  H21  1  0.30058266  0.17758408  0.11484456  1
  H  H22  1  0.30058266  0.82241592  0.38515544  1
  H  H23  1  0.69941734  0.67758408  0.38515544  1
  Cl  Cl24  1  0.50000000  0.75000000  0.64972627  1
  Cl  Cl25  1  0.50000000  0.25000000  0.85027373  1
  Cl  Cl26  1  0.50000000  0.25000000  0.35027373  1
  Cl  Cl27  1  0.50000000  0.75000000  0.14972627  1
  Cl  Cl28  1  0.77338787  0.59010930  0.89106149  1
  Cl  Cl29  1  0.22661213  0.90989070  0.89106149  1
  Cl  Cl30  1  0.22661213  0.09010930  0.60893851  1
  Cl  Cl31  1  0.77338787  0.40989070  0.60893851  1
  Cl  Cl32  1  0.22661213  0.40989070  0.10893851  1
  Cl  Cl33  1  0.77338787  0.09010930  0.10893851  1
  Cl  Cl34  1  0.77338787  0.90989070  0.39106149  1
  Cl  Cl35  1  0.22661213  0.59010930  0.39106149  1
  O  O36  1  0.31391480  0.57071909  0.87125700  1
  O  O37  1  0.68608520  0.92928091  0.87125700  1
  O  O38  1  0.68608520  0.07071909  0.62874300  1
  O  O39  1  0.31391480  0.42928091  0.62874300  1
  O  O40  1  0.68608520  0.42928091  0.12874300  1
  O  O41  1  0.31391480  0.07071909  0.12874300  1
  O  O42  1  0.31391480  0.92928091  0.37125700  1
  O  O43  1  0.68608520  0.57071909  0.37125700  1
