# generated using pymatgen
data_Ba6CaNb2Ir(ClO6)2
_symmetry_space_group_name_H-M   'P 1'
_cell_length_a   6.21388798
_cell_length_b   6.20506902
_cell_length_c   16.26256548
_cell_angle_alpha   97.42150682
_cell_angle_beta   82.58070261
_cell_angle_gamma   122.06421578
_symmetry_Int_Tables_number   1
_chemical_formula_structural   Ba6CaNb2Ir(ClO6)2
_chemical_formula_sum   'Ba6 Ca1 Nb2 Ir1 Cl2 O12'
_cell_volume   525.57043875
_cell_formula_units_Z   1
loop_
 _symmetry_equiv_pos_site_id
 _symmetry_equiv_pos_as_xyz
  1  'x, y, z'
loop_
 _atom_site_type_symbol
 _atom_site_label
 _atom_site_symmetry_multiplicity
 _atom_site_fract_x
 _atom_site_fract_y
 _atom_site_fract_z
 _atom_site_occupancy
  Ba  Ba0  1  0.30196280  0.69806170  0.37345772  1
  Ba  Ba1  1  0.29467001  0.70653332  0.76516672  1
  Ba  Ba2  1  0.66983896  0.33042751  0.62483761  1
  Ba  Ba3  1  0.58070028  0.41955546  0.87448983  1
  Ba  Ba4  1  0.34880526  0.64813061  0.13462683  1
  Ba  Ba5  1  0.66057884  0.34301866  0.23170081  1
  Ca  Ca6  1  0.85292720  0.15023498  0.98822086  1
  Nb  Nb7  1  0.96203626  0.03831258  0.79032797  1
  Nb  Nb8  1  0.00740488  0.99453695  0.20101252  1
  Ir  Ir9  1  0.12133814  0.87461769  0.00846698  1
  Cl  Cl10  1  0.67438723  0.32430096  0.42665553  1
  Cl  Cl11  1  0.32531108  0.67572485  0.56790370  1
  O  O12  1  0.11405299  0.33714993  0.87654368  1
  O  O13  1  0.31585329  0.15584511  0.74410607  1
  O  O14  1  0.20020543  0.32399731  0.25900558  1
  O  O15  1  0.84515945  0.68426132  0.74421189  1
  O  O16  1  0.83858215  0.16062708  0.72086149  1
  O  O17  1  0.90959767  0.67844865  0.10761163  1
  O  O18  1  0.15164891  0.83228351  0.25931351  1
  O  O19  1  0.32151752  0.07916213  0.10799088  1
  O  O20  1  0.87997276  0.14130852  0.12636628  1
  O  O21  1  0.66390232  0.88753186  0.87665031  1
  O  O22  1  0.67498009  0.81251936  0.25784171  1
  O  O23  1  0.11789950  0.88049294  0.89691590  1
