# generated using pymatgen
data_K3TaS4
_symmetry_space_group_name_H-M   'P 1'
_cell_length_a   9.31281233
_cell_length_b   9.47018223
_cell_length_c   10.75642669
_cell_angle_alpha   90.00000000
_cell_angle_beta   90.00000000
_cell_angle_gamma   90.00000000
_symmetry_Int_Tables_number   1
_chemical_formula_structural   K3TaS4
_chemical_formula_sum   'K12 Ta4 S16'
_cell_volume   948.65261646
_cell_formula_units_Z   4
loop_
 _symmetry_equiv_pos_site_id
 _symmetry_equiv_pos_as_xyz
  1  'x, y, z'
loop_
 _atom_site_type_symbol
 _atom_site_label
 _atom_site_symmetry_multiplicity
 _atom_site_fract_x
 _atom_site_fract_y
 _atom_site_fract_z
 _atom_site_occupancy
  K  K0  1  0.55961569  0.28699590  0.04447328  1
  K  K1  1  0.13394656  0.42227355  0.75000000  1
  K  K2  1  0.86605344  0.57772645  0.25000000  1
  K  K3  1  0.36605344  0.92227355  0.25000000  1
  K  K4  1  0.44038431  0.71300410  0.95552672  1
  K  K5  1  0.94038431  0.78699590  0.54447328  1
  K  K6  1  0.05961569  0.21300410  0.04447328  1
  K  K7  1  0.55961569  0.28699590  0.45552672  1
  K  K8  1  0.44038431  0.71300410  0.54447328  1
  K  K9  1  0.05961569  0.21300410  0.45552672  1
  K  K10  1  0.94038431  0.78699590  0.95552672  1
  K  K11  1  0.63394656  0.07772645  0.75000000  1
  Ta  Ta12  1  0.71282337  0.51230889  0.75000000  1
  Ta  Ta13  1  0.21282337  0.98769111  0.75000000  1
  Ta  Ta14  1  0.78717663  0.01230889  0.25000000  1
  Ta  Ta15  1  0.28717663  0.48769111  0.25000000  1
  S  S16  1  0.16653746  0.55194649  0.07550576  1
  S  S17  1  0.66653746  0.94805351  0.42449424  1
  S  S18  1  0.33346254  0.05194649  0.92449424  1
  S  S19  1  0.83346254  0.44805351  0.57550576  1
  S  S20  1  0.83346254  0.44805351  0.92449424  1
  S  S21  1  0.33346254  0.05194649  0.57550576  1
  S  S22  1  0.66653746  0.94805351  0.07550576  1
  S  S23  1  0.16653746  0.55194649  0.42449424  1
  S  S24  1  0.68852296  0.75135840  0.75000000  1
  S  S25  1  0.18852296  0.74864160  0.75000000  1
  S  S26  1  0.81147704  0.25135840  0.25000000  1
  S  S27  1  0.31147704  0.24864160  0.25000000  1
  S  S28  1  0.49040376  0.41206622  0.75000000  1
  S  S29  1  0.50959624  0.58793378  0.25000000  1
  S  S30  1  0.00959624  0.91206622  0.25000000  1
  S  S31  1  0.99040376  0.08793378  0.75000000  1
