# generated using pymatgen
data_Ho4Mg(WO4)6
_symmetry_space_group_name_H-M   'P 1'
_cell_length_a   6.79743450
_cell_length_b   6.79743450
_cell_length_c   11.15611934
_cell_angle_alpha   79.32505831
_cell_angle_beta   100.67494169
_cell_angle_gamma   69.48172728
_symmetry_Int_Tables_number   1
_chemical_formula_structural   Ho4Mg(WO4)6
_chemical_formula_sum   'Ho4 Mg1 W6 O24'
_cell_volume   456.55217003
_cell_formula_units_Z   1
loop_
 _symmetry_equiv_pos_site_id
 _symmetry_equiv_pos_as_xyz
  1  'x, y, z'
loop_
 _atom_site_type_symbol
 _atom_site_label
 _atom_site_symmetry_multiplicity
 _atom_site_fract_x
 _atom_site_fract_y
 _atom_site_fract_z
 _atom_site_occupancy
  Ho  Ho0  1  0.30077900  0.93525600  0.57979000  1
  Ho  Ho1  1  0.03607100  0.71885000  0.09873100  1
  Ho  Ho2  1  0.93525600  0.30077900  0.92021000  1
  Ho  Ho3  1  0.71885000  0.03607100  0.40126900  1
  Mg  Mg4  1  0.58966400  0.58966400  0.25000000  1
  W  W5  1  0.47777900  0.81934000  0.93856200  1
  W  W6  1  0.20077900  0.50079100  0.42551800  1
  W  W7  1  0.87927000  0.87927000  0.75000000  1
  W  W8  1  0.15595800  0.15595800  0.25000000  1
  W  W9  1  0.81934000  0.47777900  0.56143800  1
  W  W10  1  0.50079100  0.20077900  0.07448200  1
  O  O11  1  0.31850700  0.80483100  0.79213400  1
  O  O12  1  0.58554900  0.98584800  0.72270600  1
  O  O13  1  0.97009500  0.94415800  0.89892200  1
  O  O14  1  0.32839800  0.59929200  0.54447600  1
  O  O15  1  0.76625500  0.63680000  0.95288200  1
  O  O16  1  0.11713200  0.31052400  0.57004900  1
  O  O17  1  0.27838800  0.63274500  0.28585400  1
  O  O18  1  0.31052400  0.11713200  0.92995100  1
  O  O19  1  0.63680000  0.76625500  0.54711800  1
  O  O20  1  0.59929200  0.32839800  0.95552400  1
  O  O21  1  0.94415800  0.97009500  0.60107800  1
  O  O22  1  0.97940300  0.45614600  0.25414700  1
  O  O23  1  0.98584800  0.58554900  0.77729400  1
  O  O24  1  0.06459300  0.02369800  0.38462300  1
  O  O25  1  0.39193500  0.68554300  0.06276900  1
  O  O26  1  0.36706800  0.19960500  0.42044400  1
  O  O27  1  0.67859100  0.89924800  0.08092800  1
  O  O28  1  0.80483100  0.31850700  0.70786600  1
  O  O29  1  0.89924800  0.67859100  0.41907200  1
  O  O30  1  0.19960500  0.36706800  0.07955600  1
  O  O31  1  0.68554300  0.39193500  0.43723100  1
  O  O32  1  0.02369800  0.06459300  0.11537700  1
  O  O33  1  0.45614600  0.97940300  0.24585300  1
  O  O34  1  0.63274500  0.27838800  0.21414600  1
