# generated using pymatgen
data_KNaMg30O31
_symmetry_space_group_name_H-M   'P 1'
_cell_length_a   8.61809938
_cell_length_b   8.65251451
_cell_length_c   8.62975251
_cell_angle_alpha   90.00000000
_cell_angle_beta   90.00000000
_cell_angle_gamma   90.00000000
_symmetry_Int_Tables_number   1
_chemical_formula_structural   KNaMg30O31
_chemical_formula_sum   'K1 Na1 Mg30 O31'
_cell_volume   643.50536944
_cell_formula_units_Z   1
loop_
 _symmetry_equiv_pos_site_id
 _symmetry_equiv_pos_as_xyz
  1  'x, y, z'
loop_
 _atom_site_type_symbol
 _atom_site_label
 _atom_site_symmetry_multiplicity
 _atom_site_fract_x
 _atom_site_fract_y
 _atom_site_fract_z
 _atom_site_occupancy
  K  K0  1  0.99544803  0.00000000  -0.00000000  1
  Na  Na1  1  0.99707486  0.50000000  0.50000000  1
  Mg  Mg2  1  0.97916937  0.00000000  0.50000000  1
  Mg  Mg3  1  0.99852763  0.50000000  -0.00000000  1
  Mg  Mg4  1  0.49987429  0.00000000  -0.00000000  1
  Mg  Mg5  1  0.51972470  0.00000000  0.50000000  1
  Mg  Mg6  1  0.50112393  0.50000000  -0.00000000  1
  Mg  Mg7  1  0.50102671  0.50000000  0.50000000  1
  Mg  Mg8  1  0.00163271  0.25369288  0.25240658  1
  Mg  Mg9  1  0.00163271  0.25369288  0.74759342  1
  Mg  Mg10  1  0.00163271  0.74630712  0.25240658  1
  Mg  Mg11  1  0.00163271  0.74630712  0.74759342  1
  Mg  Mg12  1  0.49909297  0.25044649  0.25055908  1
  Mg  Mg13  1  0.49909297  0.25044649  0.74944092  1
  Mg  Mg14  1  0.49909297  0.74955351  0.25055908  1
  Mg  Mg15  1  0.49909297  0.74955351  0.74944092  1
  Mg  Mg16  1  0.24924546  0.00000000  0.22879751  1
  Mg  Mg17  1  0.24924546  0.00000000  0.77120249  1
  Mg  Mg18  1  0.24831628  0.50000000  0.24717138  1
  Mg  Mg19  1  0.24831628  0.50000000  0.75282862  1
  Mg  Mg20  1  0.74861857  0.00000000  0.24827782  1
  Mg  Mg21  1  0.74861857  0.00000000  0.75172218  1
  Mg  Mg22  1  0.75227468  0.50000000  0.24989234  1
  Mg  Mg23  1  0.75227468  0.50000000  0.75010766  1
  Mg  Mg24  1  0.25007289  0.25623403  -0.00000000  1
  Mg  Mg25  1  0.24563345  0.27327941  0.50000000  1
  Mg  Mg26  1  0.25007289  0.74376597  -0.00000000  1
  Mg  Mg27  1  0.24563345  0.72672059  0.50000000  1
  Mg  Mg28  1  0.74934399  0.25356736  -0.00000000  1
  Mg  Mg29  1  0.75328699  0.25490418  0.50000000  1
  Mg  Mg30  1  0.74934399  0.74643264  -0.00000000  1
  Mg  Mg31  1  0.75328699  0.74509582  0.50000000  1
  O  O32  1  0.27309471  0.00000000  -0.00000000  1
  O  O33  1  0.25759347  0.50000000  -0.00000000  1
  O  O34  1  0.26437483  0.50000000  0.50000000  1
  O  O35  1  0.72409684  0.00000000  -0.00000000  1
  O  O36  1  0.74753046  0.00000000  0.50000000  1
  O  O37  1  0.74343382  0.50000000  -0.00000000  1
  O  O38  1  0.73505045  0.50000000  0.50000000  1
  O  O39  1  0.25108063  0.24601136  0.25439144  1
  O  O40  1  0.25108063  0.24601136  0.74560856  1
  O  O41  1  0.25108063  0.75398864  0.25439144  1
  O  O42  1  0.25108063  0.75398864  0.74560856  1
  O  O43  1  0.75004768  0.24723088  0.25158337  1
  O  O44  1  0.75004768  0.24723088  0.74841663  1
  O  O45  1  0.75004768  0.75276912  0.25158337  1
  O  O46  1  0.75004768  0.75276912  0.74841663  1
  O  O47  1  0.01356593  0.00000000  0.27592075  1
  O  O48  1  0.01356593  0.00000000  0.72407925  1
  O  O49  1  0.00156692  0.50000000  0.24143565  1
  O  O50  1  0.00156692  0.50000000  0.75856435  1
  O  O51  1  0.49224977  0.00000000  0.26079250  1
  O  O52  1  0.49224977  0.00000000  0.73920750  1
  O  O53  1  0.49912022  0.50000000  0.25064319  1
  O  O54  1  0.49912022  0.50000000  0.74935681  1
  O  O55  1  0.00219012  0.27167704  -0.00000000  1
  O  O56  1  0.00608933  0.23763526  0.50000000  1
  O  O57  1  0.00219012  0.72832296  -0.00000000  1
  O  O58  1  0.00608933  0.76236474  0.50000000  1
  O  O59  1  0.49854466  0.25222715  -0.00000000  1
  O  O60  1  0.49260072  0.24198505  0.50000000  1
  O  O61  1  0.49854466  0.74777285  -0.00000000  1
  O  O62  1  0.49260072  0.75801495  0.50000000  1
