# generated using pymatgen
data_LiPrO2
_symmetry_space_group_name_H-M   'P 1'
_cell_length_a   6.13305472
_cell_length_b   5.80412305
_cell_length_c   5.81416608
_cell_angle_alpha   77.68114338
_cell_angle_beta   90.00000000
_cell_angle_gamma   90.00000000
_symmetry_Int_Tables_number   1
_chemical_formula_structural   LiPrO2
_chemical_formula_sum   'Li4 Pr4 O8'
_cell_volume   202.20156709
_cell_formula_units_Z   4
loop_
 _symmetry_equiv_pos_site_id
 _symmetry_equiv_pos_as_xyz
  1  'x, y, z'
loop_
 _atom_site_type_symbol
 _atom_site_label
 _atom_site_symmetry_multiplicity
 _atom_site_fract_x
 _atom_site_fract_y
 _atom_site_fract_z
 _atom_site_occupancy
  Li  Li0  1  0.35816895  0.33561921  0.69028945  1
  Li  Li1  1  0.64183105  0.66438079  0.30971055  1
  Li  Li2  1  0.14183105  0.33561921  0.19028945  1
  Li  Li3  1  0.85816895  0.66438079  0.80971055  1
  Pr  Pr4  1  0.56992548  0.20131121  0.19855178  1
  Pr  Pr5  1  0.06992548  0.79868879  0.30144822  1
  Pr  Pr6  1  0.43007452  0.79868879  0.80144822  1
  Pr  Pr7  1  0.93007452  0.20131121  0.69855178  1
  O  O8  1  0.73894956  0.90824698  0.51650735  1
  O  O9  1  0.76105044  0.90824698  0.01650735  1
  O  O10  1  0.23894956  0.09175302  0.98349265  1
  O  O11  1  0.26105044  0.09175302  0.48349265  1
  O  O12  1  0.86902361  0.42680910  0.29638046  1
  O  O13  1  0.36902361  0.57319090  0.20361954  1
  O  O14  1  0.13097639  0.57319090  0.70361954  1
  O  O15  1  0.63097639  0.42680910  0.79638046  1
