# generated using pymatgen
data_AlH3
_symmetry_space_group_name_H-M   'P 1'
_cell_length_a   6.39452673
_cell_length_b   6.39452673
_cell_length_c   6.53961209
_cell_angle_alpha   90.00000000
_cell_angle_beta   90.00000000
_cell_angle_gamma   119.23924736
_symmetry_Int_Tables_number   1
_chemical_formula_structural   AlH3
_chemical_formula_sum   'Al6 H18'
_cell_volume   233.33392395
_cell_formula_units_Z   6
loop_
 _symmetry_equiv_pos_site_id
 _symmetry_equiv_pos_as_xyz
  1  'x, y, z'
loop_
 _atom_site_type_symbol
 _atom_site_label
 _atom_site_symmetry_multiplicity
 _atom_site_fract_x
 _atom_site_fract_y
 _atom_site_fract_z
 _atom_site_occupancy
  Al  Al0  1  0.50000000  0.00000000  0.00000000  1
  Al  Al1  1  -0.00000000  0.50000000  0.00000000  1
  Al  Al2  1  0.50000100  0.50000100  0.00000000  1
  Al  Al3  1  0.50000000  0.00000000  0.50000000  1
  Al  Al4  1  -0.00000000  0.50000000  0.50000000  1
  Al  Al5  1  0.50000100  0.50000100  0.50000000  1
  H  H6  1  0.20688587  0.41158067  0.05035522  1
  H  H7  1  0.58841833  0.79311413  0.05035522  1
  H  H8  1  0.78562730  0.21437370  0.05626186  1
  H  H9  1  0.54386377  0.45613723  0.25000000  1
  H  H10  1  0.00665771  0.57917670  0.25000000  1
  H  H11  1  0.42082630  0.99334429  0.25000000  1
  H  H12  1  0.78562730  0.21437370  0.44373814  1
  H  H13  1  0.20688587  0.41158067  0.44964478  1
  H  H14  1  0.58841833  0.79311413  0.44964478  1
  H  H15  1  0.41158067  0.20688587  0.55035522  1
  H  H16  1  0.79311413  0.58841833  0.55035522  1
  H  H17  1  0.21437370  0.78562730  0.55626286  1
  H  H18  1  0.57917670  0.00665771  0.75000000  1
  H  H19  1  0.99334429  0.42082630  0.75000000  1
  H  H20  1  0.45613723  0.54386377  0.75000000  1
  H  H21  1  0.21437370  0.78562730  0.94373814  1
  H  H22  1  0.41158067  0.20688587  0.94964578  1
  H  H23  1  0.79311413  0.58841833  0.94964578  1
