# generated using pymatgen
data_Pr2MoO6
_symmetry_space_group_name_H-M   'P 1'
_cell_length_a   10.21344677
_cell_length_b   10.21344677
_cell_length_c   5.57928071
_cell_angle_alpha   75.15596265
_cell_angle_beta   75.15596265
_cell_angle_gamma   68.64661170
_symmetry_Int_Tables_number   1
_chemical_formula_structural   Pr2MoO6
_chemical_formula_sum   'Pr8 Mo4 O24'
_cell_volume   515.30756283
_cell_formula_units_Z   4
loop_
 _symmetry_equiv_pos_site_id
 _symmetry_equiv_pos_as_xyz
  1  'x, y, z'
loop_
 _atom_site_type_symbol
 _atom_site_label
 _atom_site_symmetry_multiplicity
 _atom_site_fract_x
 _atom_site_fract_y
 _atom_site_fract_z
 _atom_site_occupancy
  Pr  Pr0  1  0.63192982  0.36807018  0.75000000  1
  Pr  Pr1  1  0.36807018  0.63192982  0.25000000  1
  Pr  Pr2  1  0.11129397  0.88870603  0.75000000  1
  Pr  Pr3  1  0.88870603  0.11129397  0.25000000  1
  Pr  Pr4  1  0.71072631  0.94442632  0.88297572  1
  Pr  Pr5  1  0.28927369  0.05557368  0.11702428  1
  Pr  Pr6  1  0.05557368  0.28927369  0.61702428  1
  Pr  Pr7  1  0.94442632  0.71072631  0.38297572  1
  Mo  Mo8  1  0.50960334  0.79666624  0.56062240  1
  Mo  Mo9  1  0.49039666  0.20333376  0.43937760  1
  Mo  Mo10  1  0.20333376  0.49039666  0.93937760  1
  Mo  Mo11  1  0.79666624  0.50960334  0.06062240  1
  O  O12  1  0.68452656  0.16413510  0.58506508  1
  O  O13  1  0.31547344  0.83586490  0.41493492  1
  O  O14  1  0.83586490  0.31547344  0.91493492  1
  O  O15  1  0.16413510  0.68452656  0.08506508  1
  O  O16  1  0.38714513  0.82694904  0.85578874  1
  O  O17  1  0.61285487  0.17305096  0.14421126  1
  O  O18  1  0.17305096  0.61285487  0.64421126  1
  O  O19  1  0.82694904  0.38714513  0.35578874  1
  O  O20  1  0.67399430  0.78551785  0.63778506  1
  O  O21  1  0.32600570  0.21448215  0.36221494  1
  O  O22  1  0.21448215  0.32600570  0.86221494  1
  O  O23  1  0.78551785  0.67399430  0.13778506  1
  O  O24  1  0.47372455  0.07206541  0.72703960  1
  O  O25  1  0.52627545  0.92793459  0.27296040  1
  O  O26  1  0.92793459  0.52627545  0.77296040  1
  O  O27  1  0.07206541  0.47372455  0.22703960  1
  O  O28  1  0.54510752  0.61806832  0.52022747  1
  O  O29  1  0.45489248  0.38193168  0.47977253  1
  O  O30  1  0.38193168  0.45489248  0.97977253  1
  O  O31  1  0.61806832  0.54510752  0.02022747  1
  O  O32  1  0.89097505  0.92299027  0.07924015  1
  O  O33  1  0.10902495  0.07700973  0.92075985  1
  O  O34  1  0.07700973  0.10902495  0.42075985  1
  O  O35  1  0.92299027  0.89097505  0.57924015  1
