# generated using pymatgen
data_LaSI
_symmetry_space_group_name_H-M   'P 1'
_cell_length_a   7.13220785
_cell_length_b   7.40577527
_cell_length_c   14.69874863
_cell_angle_alpha   90.00000000
_cell_angle_beta   90.00000000
_cell_angle_gamma   90.00000000
_symmetry_Int_Tables_number   1
_chemical_formula_structural   LaSI
_chemical_formula_sum   'La8 S8 I8'
_cell_volume   776.38097241
_cell_formula_units_Z   8
loop_
 _symmetry_equiv_pos_site_id
 _symmetry_equiv_pos_as_xyz
  1  'x, y, z'
loop_
 _atom_site_type_symbol
 _atom_site_label
 _atom_site_symmetry_multiplicity
 _atom_site_fract_x
 _atom_site_fract_y
 _atom_site_fract_z
 _atom_site_occupancy
  La  La0  1  0.25671461  0.97131035  0.91582335  1
  La  La1  1  0.74328539  0.02868965  0.08417665  1
  La  La2  1  0.24328539  0.47131035  0.08417665  1
  La  La3  1  0.74328539  0.52868965  0.41582335  1
  La  La4  1  0.75671461  0.52868965  0.91582335  1
  La  La5  1  0.25671461  0.47131035  0.58417665  1
  La  La6  1  0.75671461  0.02868965  0.58417665  1
  La  La7  1  0.24328539  0.97131035  0.41582335  1
  S  S8  1  0.99907411  0.74291343  0.52242895  1
  S  S9  1  0.00092589  0.25708657  0.47757105  1
  S  S10  1  0.50092589  0.24291343  0.47757105  1
  S  S11  1  0.00092589  0.75708657  0.02242895  1
  S  S12  1  0.49907411  0.75708657  0.52242895  1
  S  S13  1  0.99907411  0.24291343  0.97757105  1
  S  S14  1  0.49907411  0.25708657  0.97757105  1
  S  S15  1  0.50092589  0.74291343  0.02242895  1
  I  I16  1  0.18218378  0.59385343  0.80098392  1
  I  I17  1  0.81781622  0.40614657  0.19901608  1
  I  I18  1  0.31781622  0.09385343  0.19901608  1
  I  I19  1  0.81781622  0.90614657  0.30098392  1
  I  I20  1  0.68218378  0.90614657  0.80098392  1
  I  I21  1  0.18218378  0.09385343  0.69901608  1
  I  I22  1  0.68218378  0.40614657  0.69901608  1
  I  I23  1  0.31781622  0.59385343  0.30098392  1
