# generated using pymatgen
data_CsRb2AuF6
_symmetry_space_group_name_H-M   'P 1'
_cell_length_a   6.92906842
_cell_length_b   6.92906859
_cell_length_c   6.92906858
_cell_angle_alpha   59.99999941
_cell_angle_beta   59.99999914
_cell_angle_gamma   59.99999918
_symmetry_Int_Tables_number   1
_chemical_formula_structural   CsRb2AuF6
_chemical_formula_sum   'Cs1 Rb2 Au1 F6'
_cell_volume   235.23912968
_cell_formula_units_Z   1
loop_
 _symmetry_equiv_pos_site_id
 _symmetry_equiv_pos_as_xyz
  1  'x, y, z'
loop_
 _atom_site_type_symbol
 _atom_site_label
 _atom_site_symmetry_multiplicity
 _atom_site_fract_x
 _atom_site_fract_y
 _atom_site_fract_z
 _atom_site_occupancy
  Cs  Cs0  1  0.50000000  0.50000000  0.50000000  1
  Rb  Rb1  1  0.25000000  0.25000000  0.25000000  1
  Rb  Rb2  1  0.75000000  0.75000000  0.75000000  1
  Au  Au3  1  0.00000000  0.00000000  0.00000000  1
  F  F4  1  0.21955564  0.78044436  0.21955564  1
  F  F5  1  0.78044436  0.78044436  0.21955564  1
  F  F6  1  0.78044436  0.21955564  0.78044436  1
  F  F7  1  0.78044436  0.21955564  0.21955564  1
  F  F8  1  0.21955564  0.78044436  0.78044436  1
  F  F9  1  0.21955564  0.21955564  0.78044436  1
