# generated using pymatgen
data_K2MgMn2P6(HO10)2
_symmetry_space_group_name_H-M   'P 1'
_cell_length_a   7.49167528
_cell_length_b   7.44192788
_cell_length_c   10.14643294
_cell_angle_alpha   71.03885079
_cell_angle_beta   71.59111139
_cell_angle_gamma   71.33858967
_symmetry_Int_Tables_number   1
_chemical_formula_structural   K2MgMn2P6(HO10)2
_chemical_formula_sum   'K2 Mg1 Mn2 P6 H2 O20'
_cell_volume   492.49949848
_cell_formula_units_Z   1
loop_
 _symmetry_equiv_pos_site_id
 _symmetry_equiv_pos_as_xyz
  1  'x, y, z'
loop_
 _atom_site_type_symbol
 _atom_site_label
 _atom_site_symmetry_multiplicity
 _atom_site_fract_x
 _atom_site_fract_y
 _atom_site_fract_z
 _atom_site_occupancy
  K  K0  1  0.41963700  0.49348500  0.28576800  1
  K  K1  1  0.57039300  0.46413500  0.71874700  1
  Mg  Mg2  1  0.76470800  0.86443500  0.04206500  1
  Mn  Mn3  1  0.01082800  0.47923800  0.98625500  1
  Mn  Mn4  1  0.50018300  0.99050800  0.50668100  1
  P  P5  1  0.27447900  0.12665300  0.20505600  1
  P  P6  1  0.15949700  0.31331600  0.68799600  1
  P  P7  1  0.12202100  0.89665300  0.77606800  1
  P  P8  1  0.87064300  0.10457100  0.23159400  1
  P  P9  1  0.82792800  0.68080500  0.31592200  1
  P  P10  1  0.74008300  0.88671700  0.78356900  1
  H  H11  1  0.99618000  0.49227500  0.51745600  1
  H  H12  1  0.45520700  0.03029200  0.00771300  1
  O  O13  1  0.08565000  0.03566500  0.26061200  1
  O  O14  1  0.97390600  0.42976900  0.62830900  1
  O  O15  1  0.23497100  0.32544300  0.10239400  1
  O  O16  1  0.09813800  0.11139400  0.79011800  1
  O  O17  1  0.34501900  0.10562800  0.33262200  1
  O  O18  1  0.18207600  0.40662700  0.79224600  1
  O  O19  1  0.33789500  0.26862300  0.57042400  1
  O  O20  1  0.06577400  0.78275100  0.93257100  1
  O  O21  1  0.43345400  0.97355800  0.11477700  1
  O  O22  1  0.72246700  0.14864100  0.36344400  1
  O  O23  1  0.31337100  0.82201600  0.68348700  1
  O  O24  1  0.65428800  0.05330200  0.86437200  1
  O  O25  1  0.86309600  0.25261800  0.08986500  1
  O  O26  1  0.64698300  0.71649700  0.43409500  1
  O  O27  1  0.79751500  0.61181300  0.19797200  1
  O  O28  1  0.65089200  0.89089700  0.67100500  1
  O  O29  1  0.85147400  0.90814700  0.20556500  1
  O  O30  1  0.75891900  0.69563000  0.90570500  1
  O  O31  1  0.01610000  0.58040400  0.36231400  1
  O  O32  1  0.95993000  0.91463900  0.69749600  1
