# generated using pymatgen
data_KNaMg3Zn2(Si2O5)6
_symmetry_space_group_name_H-M   'P 1'
_cell_length_a   10.29481837
_cell_length_b   10.29543824
_cell_length_c   14.44018103
_cell_angle_alpha   90.00009320
_cell_angle_beta   90.00406801
_cell_angle_gamma   120.00203354
_symmetry_Int_Tables_number   1
_chemical_formula_structural   KNaMg3Zn2(Si2O5)6
_chemical_formula_sum   'K2 Na2 Mg6 Zn4 Si24 O60'
_cell_volume   1325.43335229
_cell_formula_units_Z   2
loop_
 _symmetry_equiv_pos_site_id
 _symmetry_equiv_pos_as_xyz
  1  'x, y, z'
loop_
 _atom_site_type_symbol
 _atom_site_label
 _atom_site_symmetry_multiplicity
 _atom_site_fract_x
 _atom_site_fract_y
 _atom_site_fract_z
 _atom_site_occupancy
  K  K0  1  0.00000311  0.99988555  0.25000102  1
  K  K1  1  0.00000186  0.99997166  0.75000073  1
  Na  Na2  1  0.66668406  0.33328320  0.49999287  1
  Na  Na3  1  0.33337556  0.66665632  0.00000543  1
  Mg  Mg4  1  0.66695092  0.33367004  0.24619173  1
  Mg  Mg5  1  0.66665384  0.33331405  0.75356427  1
  Mg  Mg6  1  0.33335751  0.66667030  0.74643146  1
  Mg  Mg7  1  0.33305966  0.66672701  0.25380715  1
  Mg  Mg8  1  0.50049939  0.00004080  0.24998793  1
  Mg  Mg9  1  0.49949456  0.49952742  0.25001346  1
  Zn  Zn10  1  0.00000693  0.49978349  0.25000004  1
  Zn  Zn11  1  0.49967999  0.99999923  0.74999501  1
  Zn  Zn12  1  0.50032045  0.50031257  0.75000446  1
  Zn  Zn13  1  0.00000682  0.49971604  0.75000056  1
  Si  Si14  1  0.23777666  0.88544889  0.39017466  1
  Si  Si15  1  0.64753666  0.76217048  0.39014145  1
  Si  Si16  1  0.11382087  0.35141055  0.39026411  1
  Si  Si17  1  0.23775828  0.88627835  0.60971331  1
  Si  Si18  1  0.64856611  0.76227813  0.60970957  1
  Si  Si19  1  0.11372928  0.35149941  0.60971495  1
  Si  Si20  1  0.35143784  0.11371614  0.89028997  1
  Si  Si21  1  0.88627733  0.23777376  0.89028526  1
  Si  Si22  1  0.76224423  0.64852001  0.89028615  1
  Si  Si23  1  0.35246791  0.11464070  0.10985754  1
  Si  Si24  1  0.88618587  0.23759339  0.10973502  1
  Si  Si25  1  0.76222454  0.64767230  0.10982639  1
  Si  Si26  1  0.76327713  0.11319281  0.61059221  1
  Si  Si27  1  0.34989103  0.23665751  0.61062018  1
  Si  Si28  1  0.88677949  0.65006220  0.61056281  1
  Si  Si29  1  0.76331646  0.11387894  0.38945409  1
  Si  Si30  1  0.35063741  0.23660273  0.38943289  1
  Si  Si31  1  0.88657494  0.65016690  0.38945706  1
  Si  Si32  1  0.64936861  0.88597074  0.11057013  1
  Si  Si33  1  0.11342902  0.76359582  0.11054305  1
  Si  Si34  1  0.23668782  0.35056688  0.11054426  1
  Si  Si35  1  0.65011447  0.88677099  0.88937967  1
  Si  Si36  1  0.11322530  0.76328649  0.88943750  1
  Si  Si37  1  0.23672798  0.34991985  0.88940831  1
  O  O38  1  0.05782245  0.78330856  0.36670370  1
  O  O39  1  0.72428397  0.94204913  0.36636450  1
  O  O40  1  0.21790024  0.27571903  0.36633014  1
  O  O41  1  0.05807657  0.78314448  0.63342453  1
  O  O42  1  0.72511819  0.94195644  0.63346531  1
  O  O43  1  0.21684598  0.27494052  0.63339895  1
  O  O44  1  0.27488590  0.21684300  0.86653412  1
  O  O45  1  0.78315927  0.05809827  0.86660100  1
  O  O46  1  0.94192622  0.72506996  0.86657582  1
  O  O47  1  0.27571958  0.21777015  0.13363588  1
  O  O48  1  0.78210595  0.05782245  0.13366990  1
  O  O49  1  0.94217992  0.72548817  0.13329625  1
  O  O50  1  0.94224595  0.21618307  0.63375468  1
  O  O51  1  0.27390707  0.05774408  0.63381121  1
  O  O52  1  0.78383854  0.72602996  0.63376702  1
  O  O53  1  0.94239999  0.21605154  0.36633638  1
  O  O54  1  0.27474698  0.05774514  0.36609625  1
  O  O55  1  0.78286722  0.72530044  0.36607949  1
  O  O56  1  0.72525325  0.78299869  0.13390387  1
  O  O57  1  0.21713632  0.94243695  0.13392157  1
  O  O58  1  0.05760456  0.27365323  0.13366302  1
  O  O59  1  0.72609397  0.78383724  0.86618937  1
  O  O60  1  0.21616395  0.94219433  0.86623242  1
  O  O61  1  0.05775948  0.27393859  0.86624581  1
  O  O62  1  0.34031195  0.84558277  0.32646901  1
  O  O63  1  0.50512590  0.65971290  0.32642005  1
  O  O64  1  0.15583400  0.49543892  0.32688130  1
  O  O65  1  0.33976331  0.84413224  0.67314498  1
  O  O66  1  0.50436652  0.66020497  0.67313269  1
  O  O67  1  0.15584296  0.49564682  0.67309414  1
  O  O68  1  0.49563987  0.15584522  0.82686990  1
  O  O69  1  0.84417045  0.33981121  0.82690405  1
  O  O70  1  0.66024274  0.50436896  0.82685331  1
  O  O71  1  0.49487985  0.15459608  0.17357725  1
  O  O72  1  0.84417960  0.33961286  0.17312020  1
  O  O73  1  0.65969266  0.50527126  0.17353253  1
  O  O74  1  0.65915421  0.15774742  0.67017005  1
  O  O75  1  0.49859459  0.34085544  0.67015514  1
  O  O76  1  0.84226911  0.50137849  0.67010440  1
  O  O77  1  0.65849644  0.15623413  0.32952802  1
  O  O78  1  0.49775888  0.34157432  0.32956391  1
  O  O79  1  0.84221870  0.50146524  0.32988389  1
  O  O80  1  0.50224491  0.84382622  0.17043740  1
  O  O81  1  0.15779109  0.65925640  0.17011745  1
  O  O82  1  0.34150951  0.49774151  0.17047159  1
  O  O83  1  0.50140914  0.84226798  0.82984576  1
  O  O84  1  0.15774113  0.65911900  0.82989457  1
  O  O85  1  0.34085298  0.49859637  0.82982923  1
  O  O86  1  0.26441135  0.87190271  0.50010144  1
  O  O87  1  0.60761813  0.73573881  0.50009230  1
  O  O88  1  0.12799071  0.39238745  0.50007013  1
  O  O89  1  0.39238216  0.12812160  0.99990757  1
  O  O90  1  0.87200919  0.26439819  -0.00006972  1
  O  O91  1  0.73558903  0.60749234  0.99989903  1
  O  O92  1  0.73644186  0.13537283  0.50012341  1
  O  O93  1  0.39880470  0.26348333  0.50009682  1
  O  O94  1  0.86479959  0.60121744  0.50002313  1
  O  O95  1  0.60120316  0.86468467  0.99990394  1
  O  O96  1  0.13520471  0.73642137  -0.00002316  1
  O  O97  1  0.26356351  0.39893746  0.99987646  1
