# generated using pymatgen
data_MoSe2
_symmetry_space_group_name_H-M   'P 1'
_cell_length_a   3.32112186
_cell_length_b   3.32118000
_cell_length_c   36.04449602
_cell_angle_alpha   90.00387711
_cell_angle_beta   90.00003177
_cell_angle_gamma   119.99915160
_symmetry_Int_Tables_number   1
_chemical_formula_structural   MoSe2
_chemical_formula_sum   'Mo4 Se8'
_cell_volume   344.31070488
_cell_formula_units_Z   4
loop_
 _symmetry_equiv_pos_site_id
 _symmetry_equiv_pos_as_xyz
  1  'x, y, z'
loop_
 _atom_site_type_symbol
 _atom_site_label
 _atom_site_symmetry_multiplicity
 _atom_site_fract_x
 _atom_site_fract_y
 _atom_site_fract_z
 _atom_site_occupancy
  Mo  Mo0  1  0.66660567  0.33337600  0.28333188  1
  Mo  Mo1  1  0.66670296  0.33322862  0.66030980  1
  Mo  Mo2  1  0.33331514  0.66668739  0.09519714  1
  Mo  Mo3  1  0.33335623  0.66668933  0.47220310  1
  Se  Se4  1  0.33331503  0.66671919  0.32923202  1
  Se  Se5  1  0.33341899  0.66661847  0.70615058  1
  Se  Se6  1  0.66667177  0.33342850  0.14113109  1
  Se  Se7  1  0.66676445  0.33336121  0.51810188  1
  Se  Se8  1  0.33327608  0.66670555  0.23742624  1
  Se  Se9  1  0.33330917  0.66650304  0.61440316  1
  Se  Se10  1  0.66661371  0.33333422  0.04933166  1
  Se  Se11  1  0.66665179  0.33334848  0.42629044  1
