# generated using pymatgen
data_Rb2NiAs2
_symmetry_space_group_name_H-M   'P 1'
_cell_length_a   7.92808499
_cell_length_b   7.92808499
_cell_length_c   5.91275697
_cell_angle_alpha   90.00000000
_cell_angle_beta   90.00000000
_cell_angle_gamma   128.45740772
_symmetry_Int_Tables_number   1
_chemical_formula_structural   Rb2NiAs2
_chemical_formula_sum   'Rb4 Ni2 As4'
_cell_volume   291.02319163
_cell_formula_units_Z   2
loop_
 _symmetry_equiv_pos_site_id
 _symmetry_equiv_pos_as_xyz
  1  'x, y, z'
loop_
 _atom_site_type_symbol
 _atom_site_label
 _atom_site_symmetry_multiplicity
 _atom_site_fract_x
 _atom_site_fract_y
 _atom_site_fract_z
 _atom_site_occupancy
  Rb  Rb0  1  0.79172075  0.20827925  0.25000000  1
  Rb  Rb1  1  0.20827925  0.79172075  0.75000000  1
  Rb  Rb2  1  0.40862853  0.59137147  0.25000000  1
  Rb  Rb3  1  0.59137147  0.40862853  0.75000000  1
  Ni  Ni4  1  0.00000000  -0.00000000  0.00000000  1
  Ni  Ni5  1  0.00000000  -0.00000000  0.50000000  1
  As  As6  1  0.92042778  0.72898322  0.25000000  1
  As  As7  1  0.07957222  0.27101678  0.75000000  1
  As  As8  1  0.27101678  0.07957222  0.25000000  1
  As  As9  1  0.72898322  0.92042778  0.75000000  1
