# generated using pymatgen
data_Gd(ClO4)3
_symmetry_space_group_name_H-M   'P 1'
_cell_length_a   9.45792474
_cell_length_b   9.45795486
_cell_length_c   5.64753746
_cell_angle_alpha   90.00002273
_cell_angle_beta   89.99998743
_cell_angle_gamma   119.99939900
_symmetry_Int_Tables_number   1
_chemical_formula_structural   Gd(ClO4)3
_chemical_formula_sum   'Gd2 Cl6 O24'
_cell_volume   437.50747058
_cell_formula_units_Z   2
loop_
 _symmetry_equiv_pos_site_id
 _symmetry_equiv_pos_as_xyz
  1  'x, y, z'
loop_
 _atom_site_type_symbol
 _atom_site_label
 _atom_site_symmetry_multiplicity
 _atom_site_fract_x
 _atom_site_fract_y
 _atom_site_fract_z
 _atom_site_occupancy
  Gd  Gd0  1  0.33333556  0.66666720  0.74999962  1
  Gd  Gd1  1  0.66666328  0.33332873  0.25000081  1
  Cl  Cl2  1  0.90771221  0.29920534  0.75000039  1
  Cl  Cl3  1  0.09229419  0.70080191  0.25000002  1
  Cl  Cl4  1  0.39148918  0.09229141  0.74999998  1
  Cl  Cl5  1  0.60850540  0.90771026  0.24999898  1
  Cl  Cl6  1  0.70080109  0.60850580  0.75000016  1
  Cl  Cl7  1  0.29919799  0.39148909  0.25000067  1
  O  O8  1  0.85479924  0.35240612  0.95653839  1
  O  O9  1  0.14520314  0.64759550  0.04345918  1
  O  O10  1  0.49760404  0.14519987  0.95654002  1
  O  O11  1  0.14520352  0.64759558  0.45654095  1
  O  O12  1  0.50239089  0.85479813  0.04346123  1
  O  O13  1  0.85479885  0.35240532  0.54346226  1
  O  O14  1  0.64759673  0.50239212  0.95654018  1
  O  O15  1  0.50239234  0.85479753  0.45653803  1
  O  O16  1  0.35240219  0.49760231  0.04346010  1
  O  O17  1  0.49760410  0.14520010  0.54345973  1
  O  O18  1  0.35240259  0.49760251  0.45654057  1
  O  O19  1  0.64759649  0.50239194  0.54345994  1
  O  O20  1  0.84326063  0.12927937  0.75000100  1
  O  O21  1  0.15675315  0.87072571  0.25000036  1
  O  O22  1  0.28602250  0.15675027  0.75000009  1
  O  O23  1  0.71397971  0.84325692  0.24999629  1
  O  O24  1  0.87072549  0.71397126  0.74999989  1
  O  O25  1  0.12927329  0.28602414  0.25000062  1
  O  O26  1  0.61531959  0.69859932  0.75000020  1
  O  O27  1  0.38467881  0.30139545  0.25000045  1
  O  O28  1  0.08328404  0.38468843  0.75000011  1
  O  O29  1  0.91672057  0.61532201  0.25000063  1
  O  O30  1  0.30139857  0.91671808  0.74999968  1
  O  O31  1  0.69859165  0.08328325  0.24999946  1
