# generated using pymatgen
data_PIrS
_symmetry_space_group_name_H-M   'P 1'
_cell_length_a   5.67042694
_cell_length_b   5.67042694
_cell_length_c   5.67042694
_cell_angle_alpha   90.00000000
_cell_angle_beta   90.00000000
_cell_angle_gamma   90.00000000
_symmetry_Int_Tables_number   1
_chemical_formula_structural   PIrS
_chemical_formula_sum   'P4 Ir4 S4'
_cell_volume   182.32544305
_cell_formula_units_Z   4
loop_
 _symmetry_equiv_pos_site_id
 _symmetry_equiv_pos_as_xyz
  1  'x, y, z'
loop_
 _atom_site_type_symbol
 _atom_site_label
 _atom_site_symmetry_multiplicity
 _atom_site_fract_x
 _atom_site_fract_y
 _atom_site_fract_z
 _atom_site_occupancy
  P  P0  1  0.88876340  0.11123660  0.61123660  1
  P  P1  1  0.11123660  0.61123660  0.88876340  1
  P  P2  1  0.61123660  0.88876340  0.11123660  1
  P  P3  1  0.38876340  0.38876340  0.38876340  1
  Ir  Ir4  1  0.49386869  0.50613131  0.00613131  1
  Ir  Ir5  1  0.50613131  0.00613131  0.49386869  1
  Ir  Ir6  1  0.00613131  0.49386869  0.50613131  1
  Ir  Ir7  1  0.99386869  0.99386869  0.99386869  1
  S  S8  1  0.10965259  0.89034741  0.39034741  1
  S  S9  1  0.89034741  0.39034741  0.10965259  1
  S  S10  1  0.39034741  0.10965259  0.89034741  1
  S  S11  1  0.60965259  0.60965259  0.60965259  1
