# generated using pymatgen
data_Na2MgPO4F
_symmetry_space_group_name_H-M   'P 1'
_cell_length_a   5.17608343
_cell_length_b   11.61711945
_cell_length_c   13.65225850
_cell_angle_alpha   90.00000000
_cell_angle_beta   90.00000000
_cell_angle_gamma   90.00000000
_symmetry_Int_Tables_number   1
_chemical_formula_structural   Na2MgPO4F
_chemical_formula_sum   'Na16 Mg8 P8 O32 F8'
_cell_volume   820.92640630
_cell_formula_units_Z   8
loop_
 _symmetry_equiv_pos_site_id
 _symmetry_equiv_pos_as_xyz
  1  'x, y, z'
loop_
 _atom_site_type_symbol
 _atom_site_label
 _atom_site_symmetry_multiplicity
 _atom_site_fract_x
 _atom_site_fract_y
 _atom_site_fract_z
 _atom_site_occupancy
  Na  Na0  1  0.76046502  0.32864556  0.74505352  1
  Na  Na1  1  0.26046502  0.17135444  0.24505352  1
  Na  Na2  1  0.73953498  0.32864556  0.24505352  1
  Na  Na3  1  0.23953498  0.67135444  0.25494648  1
  Na  Na4  1  0.23953498  0.17135444  0.74505352  1
  Na  Na5  1  0.73953498  0.82864556  0.75494648  1
  Na  Na6  1  0.26046502  0.67135444  0.75494648  1
  Na  Na7  1  0.76046502  0.82864556  0.25494648  1
  Na  Na8  1  0.74495184  0.08235092  0.62281833  1
  Na  Na9  1  0.24495184  0.91764908  0.87718167  1
  Na  Na10  1  0.75504816  0.58235092  0.87718167  1
  Na  Na11  1  0.74495184  0.58235092  0.37718167  1
  Na  Na12  1  0.25504816  0.91764908  0.37718167  1
  Na  Na13  1  0.75504816  0.08235092  0.12281833  1
  Na  Na14  1  0.24495184  0.41764908  0.12281833  1
  Na  Na15  1  0.25504816  0.41764908  0.62281833  1
  Mg  Mg16  1  0.72076685  0.32402845  0.51311186  1
  Mg  Mg17  1  0.22076685  0.67597155  0.98688814  1
  Mg  Mg18  1  0.77923315  0.82402845  0.98688814  1
  Mg  Mg19  1  0.27923315  0.17597155  0.51311186  1
  Mg  Mg20  1  0.27923315  0.67597155  0.48688814  1
  Mg  Mg21  1  0.77923315  0.32402845  0.01311186  1
  Mg  Mg22  1  0.22076685  0.17597155  0.01311186  1
  Mg  Mg23  1  0.72076685  0.82402845  0.48688814  1
  P  P24  1  0.79327481  0.08757612  0.38174955  1
  P  P25  1  0.29327481  0.91242388  0.11825045  1
  P  P26  1  0.70672519  0.58757612  0.11825045  1
  P  P27  1  0.20672519  0.41242388  0.38174955  1
  P  P28  1  0.20672519  0.91242388  0.61825045  1
  P  P29  1  0.70672519  0.08757612  0.88174955  1
  P  P30  1  0.29327481  0.41242388  0.88174955  1
  P  P31  1  0.79327481  0.58757612  0.61825045  1
  O  O32  1  0.23523903  0.54190664  0.89068603  1
  O  O33  1  0.21035775  0.36810786  0.78168865  1
  O  O34  1  0.78964225  0.13189214  0.78168865  1
  O  O35  1  0.28964225  0.86810786  0.71831135  1
  O  O36  1  0.28964225  0.36810786  0.28168865  1
  O  O37  1  0.78964225  0.63189214  0.21831135  1
  O  O38  1  0.21035775  0.86810786  0.21831135  1
  O  O39  1  0.71035775  0.13189214  0.28168865  1
  O  O40  1  0.08715183  0.60716394  0.60241118  1
  O  O41  1  0.58715183  0.39283606  0.89758882  1
  O  O42  1  0.41284817  0.10716394  0.89758882  1
  O  O43  1  0.91284817  0.89283606  0.60241118  1
  O  O44  1  0.91284817  0.39283606  0.39758882  1
  O  O45  1  0.41284817  0.60716394  0.10241118  1
  O  O46  1  0.58715183  0.89283606  0.10241118  1
  O  O47  1  0.08715183  0.10716394  0.39758882  1
  O  O48  1  0.73523903  0.45809336  0.60931397  1
  O  O49  1  0.71035775  0.63189214  0.71831135  1
  O  O50  1  0.76476097  0.95809336  0.89068603  1
  O  O51  1  0.64800137  0.15246007  0.46370818  1
  O  O52  1  0.26476097  0.54190664  0.39068603  1
  O  O53  1  0.76476097  0.45809336  0.10931397  1
  O  O54  1  0.23523903  0.04190664  0.10931397  1
  O  O55  1  0.73523903  0.95809336  0.39068603  1
  O  O56  1  0.64800137  0.65246007  0.53629182  1
  O  O57  1  0.14800137  0.34753993  0.96370818  1
  O  O58  1  0.85199863  0.15246007  0.96370818  1
  O  O59  1  0.35199863  0.84753993  0.53629182  1
  O  O60  1  0.35199863  0.34753993  0.46370818  1
  O  O61  1  0.85199863  0.65246007  0.03629182  1
  O  O62  1  0.14800137  0.84753993  0.03629182  1
  O  O63  1  0.26476097  0.04190664  0.60931397  1
  F  F64  1  0.50000000  0.75000000  0.37652923  1
  F  F65  1  -0.00000000  0.25000000  0.12347077  1
  F  F66  1  0.50000000  0.25000000  0.62347077  1
  F  F67  1  -0.00000000  0.75000000  0.87652923  1
  F  F68  1  -0.00000000  0.75000000  0.41017118  1
  F  F69  1  0.50000000  0.25000000  0.08982882  1
  F  F70  1  -0.00000000  0.25000000  0.58982882  1
  F  F71  1  0.50000000  0.75000000  0.91017118  1
