# generated using pymatgen
data_Rb2NaMnO4
_symmetry_space_group_name_H-M   'P 1'
_cell_length_a   5.95661411
_cell_length_b   5.89920686
_cell_length_c   7.85510872
_cell_angle_alpha   87.30917361
_cell_angle_beta   90.00000000
_cell_angle_gamma   90.00000000
_symmetry_Int_Tables_number   1
_chemical_formula_structural   Rb2NaMnO4
_chemical_formula_sum   'Rb4 Na2 Mn2 O8'
_cell_volume   275.71867088
_cell_formula_units_Z   2
loop_
 _symmetry_equiv_pos_site_id
 _symmetry_equiv_pos_as_xyz
  1  'x, y, z'
loop_
 _atom_site_type_symbol
 _atom_site_label
 _atom_site_symmetry_multiplicity
 _atom_site_fract_x
 _atom_site_fract_y
 _atom_site_fract_z
 _atom_site_occupancy
  Rb  Rb0  1  0.75000000  0.12821628  0.82647299  1
  Rb  Rb1  1  0.25000000  0.87178372  0.17352701  1
  Rb  Rb2  1  0.25000000  0.30617464  0.48593810  1
  Rb  Rb3  1  0.75000000  0.69382536  0.51406190  1
  Na  Na4  1  0.75000000  0.61740303  0.03147640  1
  Na  Na5  1  0.25000000  0.38259697  0.96852360  1
  Mn  Mn6  1  0.25000000  0.80299725  0.74463000  1
  Mn  Mn7  1  0.75000000  0.19700275  0.25537000  1
  O  O8  1  0.52134331  0.33697584  0.17352676  1
  O  O9  1  0.02134331  0.66302416  0.82647224  1
  O  O10  1  0.47865669  0.66302416  0.82647224  1
  O  O11  1  0.97865669  0.33697584  0.17352676  1
  O  O12  1  0.75000000  0.19917371  0.47007259  1
  O  O13  1  0.75000000  0.92761458  0.18823873  1
  O  O14  1  0.25000000  0.80082629  0.52992741  1
  O  O15  1  0.25000000  0.07238542  0.81176127  1
