# generated using pymatgen
data_K2HoCl5
_symmetry_space_group_name_H-M   'P 1'
_cell_length_a   7.90017210
_cell_length_b   8.51511665
_cell_length_c   12.67163104
_cell_angle_alpha   90.00000000
_cell_angle_beta   90.00000000
_cell_angle_gamma   90.00000000
_symmetry_Int_Tables_number   1
_chemical_formula_structural   K2HoCl5
_chemical_formula_sum   'K8 Ho4 Cl20'
_cell_volume   852.43185963
_cell_formula_units_Z   4
loop_
 _symmetry_equiv_pos_site_id
 _symmetry_equiv_pos_as_xyz
  1  'x, y, z'
loop_
 _atom_site_type_symbol
 _atom_site_label
 _atom_site_symmetry_multiplicity
 _atom_site_fract_x
 _atom_site_fract_y
 _atom_site_fract_z
 _atom_site_occupancy
  K  K0  1  0.55365551  0.49557096  0.82839475  1
  K  K1  1  0.44634449  0.50442904  0.17160525  1
  K  K2  1  0.05365551  0.50442904  0.67160525  1
  K  K3  1  0.44634449  -0.00442904  0.17160525  1
  K  K4  1  0.94634449  0.49557096  0.32839475  1
  K  K5  1  0.55365551  0.00442904  0.82839475  1
  K  K6  1  0.94634449  0.00442904  0.32839475  1
  K  K7  1  0.05365551  -0.00442904  0.67160525  1
  Ho  Ho8  1  0.57467362  0.75000000  0.50448414  1
  Ho  Ho9  1  0.42532638  0.25000000  0.49551586  1
  Ho  Ho10  1  0.07467362  0.25000000  0.99551586  1
  Ho  Ho11  1  0.92532638  0.75000000  0.00448414  1
  Cl  Cl12  1  0.84205679  0.75000000  0.80095163  1
  Cl  Cl13  1  0.15794321  0.25000000  0.19904837  1
  Cl  Cl14  1  0.34205679  0.25000000  0.69904837  1
  Cl  Cl15  1  0.65794321  0.75000000  0.30095163  1
  Cl  Cl16  1  0.38019500  0.75000000  0.67552999  1
  Cl  Cl17  1  0.61980500  0.25000000  0.32447001  1
  Cl  Cl18  1  0.88019500  0.25000000  0.82447001  1
  Cl  Cl19  1  0.11980500  0.75000000  0.17552999  1
  Cl  Cl20  1  0.91572858  0.75000000  0.51022715  1
  Cl  Cl21  1  0.08427142  0.25000000  0.48977285  1
  Cl  Cl22  1  0.41572858  0.25000000  0.98977285  1
  Cl  Cl23  1  0.58427142  0.75000000  0.01022715  1
  Cl  Cl24  1  0.66376583  0.04339661  0.57317514  1
  Cl  Cl25  1  0.33623417  0.95660339  0.42682486  1
  Cl  Cl26  1  0.16376583  0.95660339  0.92682486  1
  Cl  Cl27  1  0.33623417  0.54339661  0.42682486  1
  Cl  Cl28  1  0.83623417  0.04339661  0.07317514  1
  Cl  Cl29  1  0.66376583  0.45660339  0.57317514  1
  Cl  Cl30  1  0.83623417  0.45660339  0.07317514  1
  Cl  Cl31  1  0.16376583  0.54339661  0.92682486  1
