# generated using pymatgen
data_Hg3(N5Cl8)2
_symmetry_space_group_name_H-M   'P 1'
_cell_length_a   11.53085686
_cell_length_b   11.53085686
_cell_length_c   12.88814092
_cell_angle_alpha   116.57338476
_cell_angle_beta   116.57338476
_cell_angle_gamma   90.00000000
_symmetry_Int_Tables_number   1
_chemical_formula_structural   Hg3(N5Cl8)2
_chemical_formula_sum   'Hg3 N10 Cl16'
_cell_volume   1327.10356032
_cell_formula_units_Z   1
loop_
 _symmetry_equiv_pos_site_id
 _symmetry_equiv_pos_as_xyz
  1  'x, y, z'
loop_
 _atom_site_type_symbol
 _atom_site_label
 _atom_site_symmetry_multiplicity
 _atom_site_fract_x
 _atom_site_fract_y
 _atom_site_fract_z
 _atom_site_occupancy
  Hg  Hg0  1  0.00000000  -0.00000000  0.00000000  1
  Hg  Hg1  1  0.25000000  0.75000000  0.50000000  1
  Hg  Hg2  1  0.75000000  0.25000000  0.50000000  1
  N  N3  1  0.27757143  0.27757143  0.55514287  1
  N  N4  1  0.72242857  0.72242857  0.44485713  1
  N  N5  1  0.29535483  0.49130608  0.20321157  1
  N  N6  1  0.70464517  0.50869392  0.79678843  1
  N  N7  1  0.90785674  0.71190549  0.20321157  1
  N  N8  1  0.71190549  0.29535483  0.20321157  1
  N  N9  1  0.09214326  0.28809451  0.79678843  1
  N  N10  1  0.28809451  0.70464517  0.79678843  1
  N  N11  1  0.49130608  0.90785674  0.20321157  1
  N  N12  1  0.50869392  0.09214326  0.79678843  1
  Cl  Cl13  1  0.19126881  0.39026080  0.00000000  1
  Cl  Cl14  1  0.80873119  0.60973920  0.00000000  1
  Cl  Cl15  1  0.60973920  0.19126881  0.00000000  1
  Cl  Cl16  1  0.39026080  0.80873119  0.00000000  1
  Cl  Cl17  1  0.11440551  0.11440551  0.22881102  1
  Cl  Cl18  1  0.88559449  0.88559449  0.77118898  1
  Cl  Cl19  1  0.29047601  0.39795746  0.26674818  1
  Cl  Cl20  1  0.70952399  0.60204254  0.73325182  1
  Cl  Cl21  1  0.97627218  0.86879072  0.26674818  1
  Cl  Cl22  1  0.86879072  0.29047601  0.26674818  1
  Cl  Cl23  1  0.02372782  0.13120928  0.73325182  1
  Cl  Cl24  1  0.13120928  0.70952399  0.73325182  1
  Cl  Cl25  1  0.39795746  0.97627218  0.26674818  1
  Cl  Cl26  1  0.60204254  0.02372782  0.73325182  1
  Cl  Cl27  1  0.35747813  0.35747813  0.71495626  1
  Cl  Cl28  1  0.64252187  0.64252187  0.28504374  1
