# generated using pymatgen
data_LiAlSiO4
_symmetry_space_group_name_H-M   'P 1'
_cell_length_a   10.59727667
_cell_length_b   10.59727667
_cell_length_c   11.38671500
_cell_angle_alpha   90.00000000
_cell_angle_beta   90.00000000
_cell_angle_gamma   120.00000418
_symmetry_Int_Tables_number   1
_chemical_formula_structural   LiAlSiO4
_chemical_formula_sum   'Li12 Al12 Si12 O48'
_cell_volume   1107.43338033
_cell_formula_units_Z   12
loop_
 _symmetry_equiv_pos_site_id
 _symmetry_equiv_pos_as_xyz
  1  'x, y, z'
loop_
 _atom_site_type_symbol
 _atom_site_label
 _atom_site_symmetry_multiplicity
 _atom_site_fract_x
 _atom_site_fract_y
 _atom_site_fract_z
 _atom_site_occupancy
  Li  Li0  1  0.00000000  0.50000000  0.33884900  1
  Li  Li1  1  0.50000000  0.50000000  0.00551600  1
  Li  Li2  1  0.50000000  0.00000000  0.67218300  1
  Li  Li3  1  0.00000000  0.50000000  0.99448400  1
  Li  Li4  1  0.50000000  0.50000000  0.66115100  1
  Li  Li5  1  0.50000000  0.00000000  0.32781700  1
  Li  Li6  1  0.00000000  0.50000000  0.66666700  1
  Li  Li7  1  0.50000000  0.50000000  0.33333300  1
  Li  Li8  1  0.50000000  0.00000000  0.00000000  1
  Li  Li9  1  0.00000000  0.00000000  0.16666700  1
  Li  Li10  1  0.00000000  0.00000000  0.83333300  1
  Li  Li11  1  0.00000000  0.00000000  0.50000000  1
  Al  Al12  1  0.25086300  0.00000000  0.50000000  1
  Al  Al13  1  0.25086300  0.25086300  0.83333300  1
  Al  Al14  1  0.00000000  0.74913700  0.16666700  1
  Al  Al15  1  0.00000000  0.25086300  0.16666700  1
  Al  Al16  1  0.74913700  0.74913700  0.83333300  1
  Al  Al17  1  0.74873200  0.49746400  0.50000000  1
  Al  Al18  1  0.25126800  0.50253600  0.50000000  1
  Al  Al19  1  0.74873200  0.25126800  0.83333300  1
  Al  Al20  1  0.50253600  0.25126800  0.16666700  1
  Al  Al21  1  0.49746400  0.74873200  0.16666700  1
  Al  Al22  1  0.25126800  0.74873200  0.83333300  1
  Al  Al23  1  0.74913700  0.00000000  0.50000000  1
  Si  Si24  1  0.75182500  0.50365000  0.00000000  1
  Si  Si25  1  0.50365000  0.75182500  0.66666700  1
  Si  Si26  1  0.49635000  0.24817500  0.66666700  1
  Si  Si27  1  0.75182500  0.24817500  0.33333300  1
  Si  Si28  1  0.24817500  0.49635000  0.00000000  1
  Si  Si29  1  0.75244100  0.00000000  0.00000000  1
  Si  Si30  1  0.75244100  0.75244100  0.33333300  1
  Si  Si31  1  0.00000000  0.24755900  0.66666700  1
  Si  Si32  1  0.00000000  0.75244100  0.66666700  1
  Si  Si33  1  0.24755900  0.24755900  0.33333300  1
  Si  Si34  1  0.24755900  0.00000000  0.00000000  1
  Si  Si35  1  0.24817500  0.75182500  0.33333300  1
  O  O36  1  0.30274700  0.90343000  0.40627900  1
  O  O37  1  0.39931700  0.09657000  0.59372100  1
  O  O38  1  0.69725300  0.60068300  0.92705500  1
  O  O39  1  0.30274700  0.39931700  0.92705500  1
  O  O40  1  0.60068300  0.90343000  0.59372100  1
  O  O41  1  0.39931700  0.30274700  0.73961200  1
  O  O42  1  0.90343000  0.60068300  0.07294500  1
  O  O43  1  0.90343000  0.30274700  0.26038800  1
  O  O44  1  0.69725300  0.09657000  0.40627900  1
  O  O45  1  0.09657000  0.69725300  0.26038800  1
  O  O46  1  0.60068300  0.69725300  0.73961200  1
  O  O47  1  0.09657000  0.39931700  0.07294500  1
  O  O48  1  0.60046500  0.70646200  0.26278700  1
  O  O49  1  0.89400300  0.60046500  0.59612000  1
  O  O50  1  0.70646200  0.10599700  0.92945300  1
  O  O51  1  0.29353800  0.89400300  0.92945300  1
  O  O52  1  0.10599700  0.39953500  0.59612000  1
  O  O53  1  0.89400300  0.29353800  0.73721300  1
  O  O54  1  0.39953500  0.10599700  0.07054700  1
  O  O55  1  0.39953500  0.29353800  0.26278700  1
  O  O56  1  0.70646200  0.60046500  0.40388000  1
  O  O57  1  0.29353800  0.39953500  0.40388000  1
  O  O58  1  0.10599700  0.70646200  0.73721300  1
  O  O59  1  0.60046500  0.89400300  0.07054700  1
  O  O60  1  0.60857600  0.20026000  0.25076600  1
  O  O61  1  0.40831600  0.60857600  0.58410000  1
  O  O62  1  0.20026000  0.59168400  0.91743300  1
  O  O63  1  0.79974000  0.40831600  0.91743300  1
  O  O64  1  0.59168400  0.39142400  0.58410000  1
  O  O65  1  0.40831600  0.79974000  0.74923400  1
  O  O66  1  0.39142400  0.59168400  0.08256700  1
  O  O67  1  0.39142400  0.79974000  0.25076600  1
  O  O68  1  0.20026000  0.60857600  0.41590000  1
  O  O69  1  0.79974000  0.39142400  0.41590000  1
  O  O70  1  0.59168400  0.20026000  0.74923400  1
  O  O71  1  0.60857600  0.40831600  0.08256700  1
  O  O72  1  0.91303300  0.11111600  0.57583600  1
  O  O73  1  0.19808300  0.08696700  0.90917000  1
  O  O74  1  0.80191700  0.91303300  0.90917000  1
  O  O75  1  0.08696700  0.88888400  0.57583600  1
  O  O76  1  0.91303300  0.80191700  0.75749700  1
  O  O77  1  0.88888400  0.08696700  0.09083000  1
  O  O78  1  0.88888400  0.80191700  0.24250300  1
  O  O79  1  0.19808300  0.11111600  0.42416400  1
  O  O80  1  0.80191700  0.88888400  0.42416400  1
  O  O81  1  0.08696700  0.19808300  0.75749700  1
  O  O82  1  0.11111600  0.91303300  0.09083000  1
  O  O83  1  0.11111600  0.19808300  0.24250300  1
