# generated using pymatgen
data_KMgAs3F18
_symmetry_space_group_name_H-M   'P 1'
_cell_length_a   9.72780122
_cell_length_b   10.61051059
_cell_length_c   14.29490736
_cell_angle_alpha   90.00000000
_cell_angle_beta   90.00000000
_cell_angle_gamma   90.00000000
_symmetry_Int_Tables_number   1
_chemical_formula_structural   KMgAs3F18
_chemical_formula_sum   'K4 Mg4 As12 F72'
_cell_volume   1475.47656472
_cell_formula_units_Z   4
loop_
 _symmetry_equiv_pos_site_id
 _symmetry_equiv_pos_as_xyz
  1  'x, y, z'
loop_
 _atom_site_type_symbol
 _atom_site_label
 _atom_site_symmetry_multiplicity
 _atom_site_fract_x
 _atom_site_fract_y
 _atom_site_fract_z
 _atom_site_occupancy
  K  K0  1  0.52720198  0.92551444  0.75000000  1
  K  K1  1  0.97279802  0.42551444  0.75000000  1
  K  K2  1  0.47279802  0.07448556  0.25000000  1
  K  K3  1  0.02720198  0.57448556  0.25000000  1
  Mg  Mg4  1  -0.00000000  -0.00000000  0.50000000  1
  Mg  Mg5  1  0.50000000  0.50000000  -0.00000000  1
  Mg  Mg6  1  0.00000000  -0.00000000  -0.00000000  1
  Mg  Mg7  1  0.50000000  0.50000000  0.50000000  1
  As  As8  1  0.09997467  0.02097884  0.75000000  1
  As  As9  1  0.40002533  0.52097884  0.75000000  1
  As  As10  1  0.90002533  0.97902116  0.25000000  1
  As  As11  1  0.59997467  0.47902116  0.25000000  1
  As  As12  1  0.69705146  0.20565337  0.54671709  1
  As  As13  1  0.80294854  0.70565337  0.95328291  1
  As  As14  1  0.30294854  0.79434663  0.04671709  1
  As  As15  1  0.19705146  0.29434663  0.45328291  1
  As  As16  1  0.30294854  0.79434663  0.45328291  1
  As  As17  1  0.19705146  0.29434663  0.04671709  1
  As  As18  1  0.69705146  0.20565337  0.95328291  1
  As  As19  1  0.80294854  0.70565337  0.54671709  1
  F  F20  1  0.09908442  0.02333845  0.62224017  1
  F  F21  1  0.40091558  0.52333845  0.87775983  1
  F  F22  1  0.90091558  0.97666155  0.12224017  1
  F  F23  1  0.59908442  0.47666155  0.37775983  1
  F  F24  1  0.90091558  0.97666155  0.37775983  1
  F  F25  1  0.59908442  0.47666155  0.12224017  1
  F  F26  1  0.09908442  0.02333845  0.87775983  1
  F  F27  1  0.40091558  0.52333845  0.62224017  1
  F  F28  1  0.13846186  0.86084244  0.75000000  1
  F  F29  1  0.36153814  0.36084244  0.75000000  1
  F  F30  1  0.86153814  0.13915756  0.25000000  1
  F  F31  1  0.63846186  0.63915756  0.25000000  1
  F  F32  1  0.27677651  0.05518538  0.75000000  1
  F  F33  1  0.22322349  0.55518538  0.75000000  1
  F  F34  1  0.72322349  0.94481462  0.25000000  1
  F  F35  1  0.77677651  0.44481462  0.25000000  1
  F  F36  1  0.06568713  0.18410494  0.75000000  1
  F  F37  1  0.43431287  0.68410494  0.75000000  1
  F  F38  1  0.93431287  0.81589506  0.25000000  1
  F  F39  1  0.56568713  0.31589506  0.25000000  1
  F  F40  1  0.92361351  0.98945377  0.75000000  1
  F  F41  1  0.57638649  0.48945377  0.75000000  1
  F  F42  1  0.07638649  0.01054623  0.25000000  1
  F  F43  1  0.42361351  0.51054623  0.25000000  1
  F  F44  1  0.82671902  0.08079188  0.55062401  1
  F  F45  1  0.67328098  0.58079188  0.94937599  1
  F  F46  1  0.17328098  0.91920812  0.05062401  1
  F  F47  1  0.32671902  0.41920812  0.44937599  1
  F  F48  1  0.17328098  0.91920812  0.44937599  1
  F  F49  1  0.32671902  0.41920812  0.05062401  1
  F  F50  1  0.82671902  0.08079188  0.94937599  1
  F  F51  1  0.67328098  0.58079188  0.55062401  1
  F  F52  1  0.79406224  0.28720295  0.46440619  1
  F  F53  1  0.70593776  0.78720295  0.03559381  1
  F  F54  1  0.20593776  0.71279705  0.96440619  1
  F  F55  1  0.29406224  0.21279705  0.53559381  1
  F  F56  1  0.20593776  0.71279705  0.53559381  1
  F  F57  1  0.29406224  0.21279705  0.96440619  1
  F  F58  1  0.79406224  0.28720295  0.03559381  1
  F  F59  1  0.70593776  0.78720295  0.46440619  1
  F  F60  1  0.60922527  0.12624066  0.45750809  1
  F  F61  1  0.89077473  0.62624066  0.04249191  1
  F  F62  1  0.39077473  0.87375934  0.95750809  1
  F  F63  1  0.10922527  0.37375934  0.54249191  1
  F  F64  1  0.39077473  0.87375934  0.54249191  1
  F  F65  1  0.10922527  0.37375934  0.95750809  1
  F  F66  1  0.60922527  0.12624066  0.04249191  1
  F  F67  1  0.89077473  0.62624066  0.45750809  1
  F  F68  1  0.56830763  0.33052717  0.54543655  1
  F  F69  1  0.93169237  0.83052717  0.95456345  1
  F  F70  1  0.43169237  0.66947283  0.04543655  1
  F  F71  1  0.06830763  0.16947283  0.45456345  1
  F  F72  1  0.43169237  0.66947283  0.45456345  1
  F  F73  1  0.06830763  0.16947283  0.04543655  1
  F  F74  1  0.56830763  0.33052717  0.95456345  1
  F  F75  1  0.93169237  0.83052717  0.54543655  1
  F  F76  1  0.60027943  0.12304593  0.63055959  1
  F  F77  1  0.89972057  0.62304593  0.86944041  1
  F  F78  1  0.39972057  0.87695407  0.13055959  1
  F  F79  1  0.10027943  0.37695407  0.36944041  1
  F  F80  1  0.39972057  0.87695407  0.36944041  1
  F  F81  1  0.10027943  0.37695407  0.13055959  1
  F  F82  1  0.60027943  0.12304593  0.86944041  1
  F  F83  1  0.89972057  0.62304593  0.63055959  1
  F  F84  1  0.78358318  0.28386103  0.63794934  1
  F  F85  1  0.71641682  0.78386103  0.86205066  1
  F  F86  1  0.21641682  0.71613897  0.13794934  1
  F  F87  1  0.28358318  0.21613897  0.36205066  1
  F  F88  1  0.21641682  0.71613897  0.36205066  1
  F  F89  1  0.28358318  0.21613897  0.13794934  1
  F  F90  1  0.78358318  0.28386103  0.86205066  1
  F  F91  1  0.71641682  0.78386103  0.63794934  1
