# generated using pymatgen
data_CaMn2O4
_symmetry_space_group_name_H-M   'P 1'
_cell_length_a   3.15774467
_cell_length_b   9.67072205
_cell_length_c   10.01406377
_cell_angle_alpha   90.00011899
_cell_angle_beta   89.99999364
_cell_angle_gamma   90.00000395
_symmetry_Int_Tables_number   1
_chemical_formula_structural   CaMn2O4
_chemical_formula_sum   'Ca4 Mn8 O16'
_cell_volume   305.80618487
_cell_formula_units_Z   4
loop_
 _symmetry_equiv_pos_site_id
 _symmetry_equiv_pos_as_xyz
  1  'x, y, z'
loop_
 _atom_site_type_symbol
 _atom_site_label
 _atom_site_symmetry_multiplicity
 _atom_site_fract_x
 _atom_site_fract_y
 _atom_site_fract_z
 _atom_site_occupancy
  Ca  Ca0  1  0.68076986  0.74997239  0.14867153  1
  Ca  Ca1  1  0.68077047  0.25002765  0.35132820  1
  Ca  Ca2  1  0.31923011  0.75002453  0.64867086  1
  Ca  Ca3  1  0.31922981  0.24997575  0.85132869  1
  Mn  Mn4  1  0.20066474  0.06859763  0.11197127  1
  Mn  Mn5  1  0.79934076  0.43140283  0.61197257  1
  Mn  Mn6  1  0.20065545  0.93140244  0.38802727  1
  Mn  Mn7  1  0.79933958  0.56859725  0.88802831  1
  Mn  Mn8  1  0.20065257  0.56863023  0.38804345  1
  Mn  Mn9  1  0.79934180  0.06863153  0.61195600  1
  Mn  Mn10  1  0.20065568  0.43136943  0.11195603  1
  Mn  Mn11  1  0.79934505  0.93136868  0.88804368  1
  O  O12  1  0.58694552  0.99999964  0.25000024  1
  O  O13  1  0.58687512  0.49999997  0.24999998  1
  O  O14  1  0.41313001  -0.00000021  0.75000015  1
  O  O15  1  0.41305668  0.50000020  0.75000030  1
  O  O16  1  0.18885511  0.24998913  0.18270659  1
  O  O17  1  0.81114616  0.25001310  0.68270688  1
  O  O18  1  0.81114681  0.74998693  0.81729299  1
  O  O19  1  0.18885176  0.75001048  0.31729270  1
  O  O20  1  0.80053694  0.89237384  0.52764334  1
  O  O21  1  0.19948265  0.10766012  0.47235000  1
  O  O22  1  0.19948558  0.89233967  0.02764951  1
  O  O23  1  0.19946206  0.60762670  0.02764260  1
  O  O24  1  0.80053872  0.10762579  0.97235690  1
  O  O25  1  0.80051610  0.60766068  0.52764990  1
  O  O26  1  0.80051566  0.39233981  0.97235024  1
  O  O27  1  0.19946125  0.39237379  0.47235783  1
