# generated using pymatgen
data_Ba2Y2Mg(Fe2O5)2
_symmetry_space_group_name_H-M   'P 1'
_cell_length_a   4.03014200
_cell_length_b   9.08800707
_cell_length_c   7.83221747
_cell_angle_alpha   86.98944224
_cell_angle_beta   90.00000000
_cell_angle_gamma   90.00000000
_symmetry_Int_Tables_number   1
_chemical_formula_structural   Ba2Y2Mg(Fe2O5)2
_chemical_formula_sum   'Ba2 Y2 Mg1 Fe4 O10'
_cell_volume   286.46656940
_cell_formula_units_Z   1
loop_
 _symmetry_equiv_pos_site_id
 _symmetry_equiv_pos_as_xyz
  1  'x, y, z'
loop_
 _atom_site_type_symbol
 _atom_site_label
 _atom_site_symmetry_multiplicity
 _atom_site_fract_x
 _atom_site_fract_y
 _atom_site_fract_z
 _atom_site_occupancy
  Ba  Ba0  1  0.00000000  0.03326000  0.53432300  1
  Ba  Ba1  1  0.00000000  0.13246400  0.03100500  1
  Y  Y2  1  0.00000000  0.53576000  0.00070000  1
  Y  Y3  1  0.00000000  0.49763600  0.49910600  1
  Mg  Mg4  1  0.50000000  0.86326700  0.97898000  1
  Fe  Fe5  1  0.49999900  0.72276200  0.27818400  1
  Fe  Fe6  1  0.49999900  0.31626500  0.75099700  1
  Fe  Fe7  1  0.49999900  0.32099900  0.26930400  1
  Fe  Fe8  1  0.49999900  0.71206900  0.70385100  1
  O  O9  1  0.49999900  0.59293600  0.49504000  1
  O  O10  1  0.49999900  0.25025600  0.51168300  1
  O  O11  1  0.49999900  0.65373000  0.99000500  1
  O  O12  1  0.49999900  0.33170400  0.00944700  1
  O  O13  1  0.00000000  0.67725200  0.72627500  1
  O  O14  1  0.00000000  0.35600000  0.25694200  1
  O  O15  1  0.00000000  0.67408400  0.25144400  1
  O  O16  1  0.00000000  0.35278000  0.75658600  1
  O  O17  1  0.49999900  0.95994000  0.18935800  1
  O  O18  1  0.49999900  0.95850300  0.75843800  1
