# generated using pymatgen
data_FeH10S2(NO2)4
_symmetry_space_group_name_H-M   'P 1'
_cell_length_a   8.54112550
_cell_length_b   11.91998181
_cell_length_c   9.34771794
_cell_angle_alpha   88.99244917
_cell_angle_beta   102.55881094
_cell_angle_gamma   92.47249371
_symmetry_Int_Tables_number   1
_chemical_formula_structural   FeH10S2(NO2)4
_chemical_formula_sum   'Fe4 H40 S8 N16 O32'
_cell_volume   928.02329244
_cell_formula_units_Z   4
loop_
 _symmetry_equiv_pos_site_id
 _symmetry_equiv_pos_as_xyz
  1  'x, y, z'
loop_
 _atom_site_type_symbol
 _atom_site_label
 _atom_site_symmetry_multiplicity
 _atom_site_fract_x
 _atom_site_fract_y
 _atom_site_fract_z
 _atom_site_occupancy
  Fe  Fe0  1  0.50020300  0.75003700  0.25000900  1
  Fe  Fe1  1  0.99992100  0.49990800  0.49995700  1
  Fe  Fe2  1  0.00007000  0.00000900  0.99962600  1
  Fe  Fe3  1  0.49989700  0.24986400  0.75031500  1
  H  H4  1  0.87256600  0.35289700  0.27342600  1
  H  H5  1  0.37249700  0.60304400  0.02340700  1
  H  H6  1  0.37292500  0.10248700  0.52350400  1
  H  H7  1  0.87281300  0.85241900  0.77321600  1
  H  H8  1  0.62749000  0.89735200  0.47660600  1
  H  H9  1  0.12697200  0.14753600  0.22644700  1
  H  H10  1  0.12745300  0.64723700  0.72666800  1
  H  H11  1  0.62716900  0.39762000  0.97674300  1
  H  H12  1  0.14548900  0.12638200  0.62627600  1
  H  H13  1  0.64535800  0.37627200  0.37648100  1
  H  H14  1  0.64548800  0.87618300  0.87629000  1
  H  H15  1  0.14543400  0.62608600  0.12661800  1
  H  H16  1  0.35445000  0.12364900  0.12368300  1
  H  H17  1  0.85444600  0.37383600  0.87363400  1
  H  H18  1  0.85468000  0.87377500  0.37341900  1
  H  H19  1  0.35463300  0.62404200  0.62335100  1
  H  H20  1  0.67698800  0.24400600  0.32936300  1
  H  H21  1  0.17723200  0.49388500  0.07948200  1
  H  H22  1  0.17683500  0.99409200  0.57907100  1
  H  H23  1  0.67713900  0.74392300  0.82919300  1
  H  H24  1  0.82299500  0.00603600  0.42044800  1
  H  H25  1  0.32308700  0.25593700  0.17093300  1
  H  H26  1  0.32277600  0.75620100  0.67060400  1
  H  H27  1  0.82281200  0.50607900  0.92067500  1
  H  H28  1  0.95710600  0.28341900  0.42207600  1
  H  H29  1  0.45736800  0.53355000  0.17188100  1
  H  H30  1  0.45706800  0.03330000  0.67248900  1
  H  H31  1  0.95738000  0.78352800  0.92232200  1
  H  H32  1  0.54282600  0.96643300  0.32770600  1
  H  H33  1  0.04287000  0.21672600  0.07742900  1
  H  H34  1  0.04255000  0.71636700  0.57787900  1
  H  H35  1  0.54255200  0.46645100  0.82763600  1
  H  H36  1  0.72681800  0.28406300  0.50940000  1
  H  H37  1  0.22714400  0.53394500  0.25951400  1
  H  H38  1  0.22661800  0.03400900  0.75916800  1
  H  H39  1  0.72699900  0.78399400  0.00920000  1
  H  H40  1  0.77307700  0.96593600  0.24045900  1
  H  H41  1  0.27335900  0.21605800  0.99082200  1
  H  H42  1  0.27284400  0.71620600  0.49055500  1
  H  H43  1  0.77294100  0.46603700  0.74069100  1
  S  S44  1  0.80994400  0.10473200  0.67587400  1
  S  S45  1  0.31002700  0.35458400  0.42643200  1
  S  S46  1  0.31006300  0.85482700  0.92614000  1
  S  S47  1  0.81004700  0.60463600  0.17606500  1
  S  S48  1  0.69001700  0.14520900  0.07391100  1
  S  S49  1  0.18996900  0.39517200  0.82415800  1
  S  S50  1  0.19001800  0.89548400  0.32370500  1
  S  S51  1  0.69000700  0.64518700  0.57394600  1
  N  N52  1  0.88153300  0.34776400  0.38482800  1
  N  N53  1  0.38164300  0.59785100  0.13482600  1
  N  N54  1  0.38162400  0.09762100  0.63489800  1
  N  N55  1  0.88169900  0.84771200  0.88464700  1
  N  N56  1  0.61849700  0.90219000  0.36517400  1
  N  N57  1  0.11831500  0.15240900  0.11506100  1
  N  N58  1  0.11840000  0.65219200  0.61524200  1
  N  N59  1  0.61825300  0.40227900  0.86530400  1
  N  N60  1  0.72265700  0.31113700  0.40117000  1
  N  N61  1  0.22287500  0.56103200  0.15128700  1
  N  N62  1  0.22260300  0.06113300  0.65097500  1
  N  N63  1  0.72282300  0.81107300  0.90099000  1
  N  N64  1  0.77731700  0.93887400  0.34871800  1
  N  N65  1  0.27734500  0.18889900  0.09901200  1
  N  N66  1  0.27714900  0.68907400  0.59876900  1
  N  N67  1  0.77710800  0.43894100  0.84892200  1
  O  O68  1  0.72189200  0.21199300  0.67625300  1
  O  O69  1  0.22216500  0.46191100  0.42678600  1
  O  O70  1  0.22222700  0.96226100  0.92610700  1
  O  O71  1  0.72218300  0.71197300  0.17646300  1
  O  O72  1  0.77807200  0.03790800  0.07375000  1
  O  O73  1  0.27796500  0.28779400  0.82413400  1
  O  O74  1  0.27800800  0.78822200  0.32332800  1
  O  O75  1  0.77806700  0.53787400  0.57392600  1
  O  O76  1  0.94057100  0.10079100  0.81136300  1
  O  O77  1  0.44051100  0.35055500  0.56201500  1
  O  O78  1  0.44034900  0.85100200  0.06185300  1
  O  O79  1  0.94026800  0.60054800  0.31178700  1
  O  O80  1  0.55931100  0.14894300  0.93846700  1
  O  O81  1  0.05965100  0.39899900  0.68847200  1
  O  O82  1  0.05963700  0.89955200  0.18806900  1
  O  O83  1  0.55964400  0.64893800  0.43828500  1
  O  O84  1  0.69807600  0.00568400  0.66814300  1
  O  O85  1  0.19795000  0.25559900  0.41865200  1
  O  O86  1  0.19788500  0.75594900  0.91839300  1
  O  O87  1  0.69786400  0.50568500  0.16787600  1
  O  O88  1  0.80186300  0.24423500  0.08128200  1
  O  O89  1  0.30204000  0.49411100  0.83199900  1
  O  O90  1  0.30200400  0.99453700  0.33174300  1
  O  O91  1  0.80204000  0.74417300  0.58161400  1
  O  O92  1  0.88611800  0.11003700  0.54594600  1
  O  O93  1  0.38624600  0.35977300  0.29652900  1
  O  O94  1  0.38646900  0.85979300  0.79634900  1
  O  O95  1  0.88657100  0.60994400  0.04637500  1
  O  O96  1  0.61402000  0.14011000  0.20395000  1
  O  O97  1  0.11363600  0.39005500  0.95400700  1
  O  O98  1  0.11362200  0.89013500  0.45350900  1
  O  O99  1  0.61380200  0.64008500  0.70385100  1
