# generated using pymatgen
data_Ca21(Zn2Sb9)2
_symmetry_space_group_name_H-M   'P 1'
_cell_length_a   12.04613800
_cell_length_b   12.04613800
_cell_length_c   17.11544659
_cell_angle_alpha   88.60079381
_cell_angle_beta   88.60079381
_cell_angle_gamma   87.33206417
_symmetry_Int_Tables_number   1
_chemical_formula_structural   Ca21(Zn2Sb9)2
_chemical_formula_sum   'Ca42 Zn8 Sb36'
_cell_volume   2479.50697662
_cell_formula_units_Z   2
loop_
 _symmetry_equiv_pos_site_id
 _symmetry_equiv_pos_as_xyz
  1  'x, y, z'
loop_
 _atom_site_type_symbol
 _atom_site_label
 _atom_site_symmetry_multiplicity
 _atom_site_fract_x
 _atom_site_fract_y
 _atom_site_fract_z
 _atom_site_occupancy
  Ca  Ca0  1  0.92818099  0.24023003  0.64931899  1
  Ca  Ca1  1  0.24023003  0.92818099  0.64931899  1
  Ca  Ca2  1  0.07181901  0.75976997  0.35068101  1
  Ca  Ca3  1  0.75976997  0.07181901  0.35068101  1
  Ca  Ca4  1  0.92298391  0.24820539  0.85415886  1
  Ca  Ca5  1  0.24820539  0.92298391  0.85415886  1
  Ca  Ca6  1  0.07701609  0.75179461  0.14584114  1
  Ca  Ca7  1  0.75179461  0.07701609  0.14584114  1
  Ca  Ca8  1  0.99110231  0.22970205  0.42238172  1
  Ca  Ca9  1  0.22970205  0.99110231  0.42238172  1
  Ca  Ca10  1  0.00889769  0.77029795  0.57761828  1
  Ca  Ca11  1  0.77029795  0.00889769  0.57761828  1
  Ca  Ca12  1  0.74358960  0.49066504  0.94271491  1
  Ca  Ca13  1  0.49066504  0.74358960  0.94271491  1
  Ca  Ca14  1  0.25641040  0.50933496  0.05728509  1
  Ca  Ca15  1  0.50933496  0.25641040  0.05728509  1
  Ca  Ca16  1  0.82087317  0.49543232  0.56424625  1
  Ca  Ca17  1  0.49543232  0.82087317  0.56424625  1
  Ca  Ca18  1  0.17912683  0.50456768  0.43575375  1
  Ca  Ca19  1  0.50456768  0.17912683  0.43575375  1
  Ca  Ca20  1  0.92587373  0.58192089  0.75679569  1
  Ca  Ca21  1  0.58192089  0.92587373  0.75679569  1
  Ca  Ca22  1  0.07412627  0.41807911  0.24320431  1
  Ca  Ca23  1  0.41807911  0.07412627  0.24320431  1
  Ca  Ca24  1  0.99628359  0.72927277  0.94209848  1
  Ca  Ca25  1  0.72927277  0.99628359  0.94209848  1
  Ca  Ca26  1  0.00371641  0.27072723  0.05790152  1
  Ca  Ca27  1  0.27072723  0.00371641  0.05790152  1
  Ca  Ca28  1  0.25783803  0.59740487  0.84236230  1
  Ca  Ca29  1  0.59740487  0.25783803  0.84236230  1
  Ca  Ca30  1  0.74216197  0.40259513  0.15763770  1
  Ca  Ca31  1  0.40259513  0.74216197  0.15763770  1
  Ca  Ca32  1  0.32250011  0.57033152  0.61755754  1
  Ca  Ca33  1  0.57033152  0.32250011  0.61755754  1
  Ca  Ca34  1  0.67749989  0.42966848  0.38244246  1
  Ca  Ca35  1  0.42966848  0.67749989  0.38244246  1
  Ca  Ca36  1  0.25301932  0.25301932  0.58183612  1
  Ca  Ca37  1  0.74698068  0.74698068  0.41816388  1
  Ca  Ca38  1  0.26458045  0.26458045  0.90561324  1
  Ca  Ca39  1  0.73541955  0.73541955  0.09438676  1
  Ca  Ca40  1  0.59176528  0.59176528  0.74575255  1
  Ca  Ca41  1  0.40823472  0.40823472  0.25424745  1
  Zn  Zn42  1  0.14452728  0.38422635  0.75270277  1
  Zn  Zn43  1  0.38422635  0.14452728  0.75270277  1
  Zn  Zn44  1  0.85547272  0.61577365  0.24729723  1
  Zn  Zn45  1  0.61577365  0.85547272  0.24729723  1
  Zn  Zn46  1  -0.00058695  -0.00058695  0.20102819  1
  Zn  Zn47  1  0.00058695  0.00058695  0.79897181  1
  Zn  Zn48  1  0.15345936  0.15345936  0.24262666  1
  Zn  Zn49  1  0.84654064  0.84654064  0.75737334  1
  Sb  Sb50  1  0.05059444  0.05059444  0.56403792  1
  Sb  Sb51  1  0.94940556  0.94940556  0.43596208  1
  Sb  Sb52  1  0.06174903  0.06174903  0.94324646  1
  Sb  Sb53  1  0.93825097  0.93825097  0.05675354  1
  Sb  Sb54  1  0.42536840  0.42536840  0.46443324  1
  Sb  Sb55  1  0.57463160  0.57463160  0.53556676  1
  Sb  Sb56  1  0.46362752  0.46362752  0.92381008  1
  Sb  Sb57  1  0.53637248  0.53637248  0.07618992  1
  Sb  Sb58  1  0.76088274  0.39755510  0.74381998  1
  Sb  Sb59  1  0.39755510  0.76088274  0.74381998  1
  Sb  Sb60  1  0.23911726  0.60244490  0.25618002  1
  Sb  Sb61  1  0.60244490  0.23911726  0.25618002  1
  Sb  Sb62  1  0.05927307  0.45428000  0.90029796  1
  Sb  Sb63  1  0.45428000  0.05927307  0.90029796  1
  Sb  Sb64  1  0.94072693  0.54572000  0.09970204  1
  Sb  Sb65  1  0.54572000  0.94072693  0.09970204  1
  Sb  Sb66  1  0.07336330  0.46504396  0.61193064  1
  Sb  Sb67  1  0.46504396  0.07336330  0.61193064  1
  Sb  Sb68  1  0.92663670  0.53495604  0.38806936  1
  Sb  Sb69  1  0.53495604  0.92663670  0.38806936  1
  Sb  Sb70  1  0.06958365  0.79061575  0.76045391  1
  Sb  Sb71  1  0.79061575  0.06958365  0.76045391  1
  Sb  Sb72  1  0.93041635  0.20938425  0.23954609  1
  Sb  Sb73  1  0.20938425  0.93041635  0.23954609  1
  Sb  Sb74  1  0.15238299  0.15238299  0.74765860  1
  Sb  Sb75  1  0.84761701  0.84761701  0.25234140  1
  Sb  Sb76  1  0.24731518  0.24731518  0.37145111  1
  Sb  Sb77  1  0.75268482  0.75268482  0.62854889  1
  Sb  Sb78  1  0.37779823  0.37779823  0.74086892  1
  Sb  Sb79  1  0.62220177  0.62220177  0.25913108  1
  Sb  Sb80  1  0.74004314  0.74004314  0.88337002  1
  Sb  Sb81  1  0.25995686  0.25995686  0.11662998  1
  Sb  Sb82  1  0.75495149  0.24504851  0.50000000  1
  Sb  Sb83  1  0.24504851  0.75495149  0.50000000  1
  Sb  Sb84  1  0.75509073  0.24490927  0.00000000  1
  Sb  Sb85  1  0.24490927  0.75509073  0.00000000  1
