# generated using pymatgen
data_K2MgZn2(PO3)6
_symmetry_space_group_name_H-M   'P 1'
_cell_length_a   6.94881194
_cell_length_b   6.94578371
_cell_length_c   10.05959200
_cell_angle_alpha   90.00000000
_cell_angle_beta   90.00000000
_cell_angle_gamma   120.11226507
_symmetry_Int_Tables_number   1
_chemical_formula_structural   K2MgZn2(PO3)6
_chemical_formula_sum   'K2 Mg1 Zn2 P6 O18'
_cell_volume   420.00107430
_cell_formula_units_Z   1
loop_
 _symmetry_equiv_pos_site_id
 _symmetry_equiv_pos_as_xyz
  1  'x, y, z'
loop_
 _atom_site_type_symbol
 _atom_site_label
 _atom_site_symmetry_multiplicity
 _atom_site_fract_x
 _atom_site_fract_y
 _atom_site_fract_z
 _atom_site_occupancy
  K  K0  1  0.33500000  0.66914500  0.94024000  1
  K  K1  1  0.33500000  0.66914500  0.55976000  1
  Mg  Mg2  1  0.32996600  0.66029100  0.25000000  1
  Zn  Zn3  1  0.99967600  0.99974900  0.00654900  1
  Zn  Zn4  1  0.99967600  0.99974900  0.49345100  1
  P  P5  1  0.87564700  0.26195400  0.75000000  1
  P  P6  1  0.38580300  0.12478500  0.75000000  1
  P  P7  1  0.38706700  0.26510700  0.25000000  1
  P  P8  1  0.73911200  0.61454900  0.75000000  1
  P  P9  1  0.73244700  0.11924300  0.25000000  1
  P  P10  1  0.87923300  0.61233500  0.25000000  1
  O  O11  1  0.75860900  0.73373700  0.87815800  1
  O  O12  1  0.97507100  0.24245700  0.87815600  1
  O  O13  1  0.75860900  0.73373700  0.62184200  1
  O  O14  1  0.97415500  0.73215500  0.37936200  1
  O  O15  1  0.26665400  0.02513800  0.87813200  1
  O  O16  1  0.97507100  0.24245700  0.62184400  1
  O  O17  1  0.26726700  0.24107800  0.37919800  1
  O  O18  1  0.97415500  0.73215500  0.12063800  1
  O  O19  1  0.26665400  0.02513800  0.62186800  1
  O  O20  1  0.26726700  0.24107800  0.12080200  1
  O  O21  1  0.75779400  0.02495800  0.37939300  1
  O  O22  1  0.75779400  0.02495800  0.12060700  1
  O  O23  1  0.90194800  0.51040900  0.75000000  1
  O  O24  1  0.60788200  0.09856100  0.75000000  1
  O  O25  1  0.61203700  0.50926200  0.25000000  1
  O  O26  1  0.49054200  0.39231200  0.75000000  1
  O  O27  1  0.48896700  0.10064900  0.25000000  1
  O  O28  1  0.89756700  0.38704300  0.25000000  1
