# generated using pymatgen
data_P2S7
_symmetry_space_group_name_H-M   'P 1'
_cell_length_a   6.62461722
_cell_length_b   11.18994775
_cell_length_c   12.88276458
_cell_angle_alpha   90.00000000
_cell_angle_beta   94.06854561
_cell_angle_gamma   90.00000000
_symmetry_Int_Tables_number   1
_chemical_formula_structural   P2S7
_chemical_formula_sum   'P8 S28'
_cell_volume   952.58132841
_cell_formula_units_Z   4
loop_
 _symmetry_equiv_pos_site_id
 _symmetry_equiv_pos_as_xyz
  1  'x, y, z'
loop_
 _atom_site_type_symbol
 _atom_site_label
 _atom_site_symmetry_multiplicity
 _atom_site_fract_x
 _atom_site_fract_y
 _atom_site_fract_z
 _atom_site_occupancy
  P  P0  1  0.01466547  0.81339309  0.60001246  1
  P  P1  1  0.98533453  0.31339309  0.89998754  1
  P  P2  1  0.98533453  0.18660691  0.39998754  1
  P  P3  1  0.01466547  0.68660691  0.10001246  1
  P  P4  1  0.33766625  0.20269061  0.82059376  1
  P  P5  1  0.66233375  0.70269061  0.67940624  1
  P  P6  1  0.66233375  0.79730939  0.17940624  1
  P  P7  1  0.33766625  0.29730939  0.32059376  1
  S  S8  1  0.06939207  0.72180670  0.94394898  1
  S  S9  1  0.93060793  0.22180670  0.55605102  1
  S  S10  1  0.93060793  0.27819330  0.05605102  1
  S  S11  1  0.06939207  0.77819330  0.44394898  1
  S  S12  1  0.39566702  0.23555294  0.66460100  1
  S  S13  1  0.60433298  0.73555294  0.83539900  1
  S  S14  1  0.60433298  0.76444706  0.33539900  1
  S  S15  1  0.39566702  0.26444706  0.16460100  1
  S  S16  1  0.15597410  0.33686911  0.60755869  1
  S  S17  1  0.84402590  0.83686911  0.89244131  1
  S  S18  1  0.84402590  0.66313089  0.39244131  1
  S  S19  1  0.15597410  0.16313089  0.10755869  1
  S  S20  1  0.03228533  0.14820843  0.82455280  1
  S  S21  1  0.96771467  0.64820843  0.67544720  1
  S  S22  1  0.96771467  0.85179157  0.17544720  1
  S  S23  1  0.03228533  0.35179157  0.32455280  1
  S  S24  1  0.28828597  0.36923270  0.89419555  1
  S  S25  1  0.71171403  0.86923270  0.60580445  1
  S  S26  1  0.71171403  0.63076730  0.10580445  1
  S  S27  1  0.28828597  0.13076730  0.39419555  1
  S  S28  1  0.22305366  0.92086277  0.65319040  1
  S  S29  1  0.77694634  0.42086277  0.84680960  1
  S  S30  1  0.77694634  0.07913723  0.34680960  1
  S  S31  1  0.22305366  0.57913723  0.15319040  1
  S  S32  1  0.54433481  0.09781868  0.87869489  1
  S  S33  1  0.45566519  0.59781868  0.62130511  1
  S  S34  1  0.45566519  0.90218132  0.12130511  1
  S  S35  1  0.54433481  0.40218132  0.37869489  1
