# generated using pymatgen
data_P2S7
_symmetry_space_group_name_H-M   'P 1'
_cell_length_a   6.21811253
_cell_length_b   6.59808198
_cell_length_c   11.48639638
_cell_angle_alpha   82.61074772
_cell_angle_beta   88.17450937
_cell_angle_gamma   85.84495791
_symmetry_Int_Tables_number   1
_chemical_formula_structural   P2S7
_chemical_formula_sum   'P4 S14'
_cell_volume   465.99642668
_cell_formula_units_Z   2
loop_
 _symmetry_equiv_pos_site_id
 _symmetry_equiv_pos_as_xyz
  1  'x, y, z'
loop_
 _atom_site_type_symbol
 _atom_site_label
 _atom_site_symmetry_multiplicity
 _atom_site_fract_x
 _atom_site_fract_y
 _atom_site_fract_z
 _atom_site_occupancy
  P  P0  1  0.05252335  0.16550622  0.06331301  1
  P  P1  1  0.62867042  0.80864478  0.49277254  1
  P  P2  1  0.37137890  0.19134953  0.50725313  1
  P  P3  1  0.94737543  0.83442209  0.93667448  1
  S  S4  1  0.27449024  0.35496860  0.04943862  1
  S  S5  1  0.14706111  0.84937356  0.08182668  1
  S  S6  1  0.85191448  0.22303902  0.20835960  1
  S  S7  1  0.63076501  0.00647324  0.21640306  1
  S  S8  1  0.75279288  0.75724000  0.32548476  1
  S  S9  1  0.27492024  0.41964831  0.39709326  1
  S  S10  1  0.29340846  0.89602414  0.47696597  1
  S  S11  1  0.70663275  0.10398957  0.52305837  1
  S  S12  1  0.72510357  0.58036882  0.60291144  1
  S  S13  1  0.24722211  0.24278813  0.67452478  1
  S  S14  1  0.36923162  0.99355541  0.78361689  1
  S  S15  1  0.14808184  0.77696824  0.79162874  1
  S  S16  1  0.85289615  0.15060816  0.91815822  1
  S  S17  1  0.72553344  0.64502919  0.95051441  1
