# generated using pymatgen
data_KTlCl2
_symmetry_space_group_name_H-M   'P 1'
_cell_length_a   9.00440682
_cell_length_b   9.00439513
_cell_length_c   9.00615914
_cell_angle_alpha   119.99406716
_cell_angle_beta   119.99412228
_cell_angle_gamma   90.00010403
_symmetry_Int_Tables_number   1
_chemical_formula_structural   KTlCl2
_chemical_formula_sum   'K4 Tl4 Cl8'
_cell_volume   516.42991082
_cell_formula_units_Z   4
loop_
 _symmetry_equiv_pos_site_id
 _symmetry_equiv_pos_as_xyz
  1  'x, y, z'
loop_
 _atom_site_type_symbol
 _atom_site_label
 _atom_site_symmetry_multiplicity
 _atom_site_fract_x
 _atom_site_fract_y
 _atom_site_fract_z
 _atom_site_occupancy
  K  K0  1  0.62500000  0.87500005  0.25000030  1
  K  K1  1  0.62499954  0.37500005  0.24999988  1
  K  K2  1  0.62499992  0.37499964  0.74999971  1
  K  K3  1  0.12499996  0.37500005  0.75000020  1
  Tl  Tl4  1  0.12500003  0.37500004  0.25000018  1
  Tl  Tl5  1  0.12499988  0.87499999  0.24999982  1
  Tl  Tl6  1  0.12500002  0.87500003  0.75000005  1
  Tl  Tl7  1  0.62500021  0.87499995  0.74999994  1
  Cl  Cl8  1  0.38396876  0.12817547  0.25624344  1
  Cl  Cl9  1  0.87227126  0.12806444  0.25624315  1
  Cl  Cl10  1  0.37806265  0.13396929  0.75624342  1
  Cl  Cl11  1  0.86603134  0.62182488  0.24375681  1
  Cl  Cl12  1  0.37817760  0.62227086  0.75624343  1
  Cl  Cl13  1  0.37772906  0.62193548  0.24375661  1
  Cl  Cl14  1  0.87193709  0.61603089  0.74375663  1
  Cl  Cl15  1  0.87182267  0.12772890  0.74375641  1
