# generated using pymatgen
data_BaSc2Si3O10
_symmetry_space_group_name_H-M   'P 1'
_cell_length_a   11.96830635
_cell_length_b   5.29069510
_cell_length_c   6.61330190
_cell_angle_alpha   72.79913052
_cell_angle_beta   90.00000000
_cell_angle_gamma   90.00000000
_symmetry_Int_Tables_number   1
_chemical_formula_structural   BaSc2Si3O10
_chemical_formula_sum   'Ba2 Sc4 Si6 O20'
_cell_volume   400.02918781
_cell_formula_units_Z   2
loop_
 _symmetry_equiv_pos_site_id
 _symmetry_equiv_pos_as_xyz
  1  'x, y, z'
loop_
 _atom_site_type_symbol
 _atom_site_label
 _atom_site_symmetry_multiplicity
 _atom_site_fract_x
 _atom_site_fract_y
 _atom_site_fract_z
 _atom_site_occupancy
  Ba  Ba0  1  0.25000000  0.24020872  0.02506524  1
  Ba  Ba1  1  0.75000000  0.75979128  0.97493476  1
  Sc  Sc2  1  0.10195973  0.84890797  0.67698591  1
  Sc  Sc3  1  0.60195973  0.15109203  0.32301409  1
  Sc  Sc4  1  0.89804027  0.15109203  0.32301409  1
  Sc  Sc5  1  0.39804027  0.84890797  0.67698591  1
  Si  Si6  1  0.25000000  0.42757793  0.48725692  1
  Si  Si7  1  0.75000000  0.57242207  0.51274308  1
  Si  Si8  1  0.05355728  0.69722301  0.21021293  1
  Si  Si9  1  0.55355728  0.30277699  0.78978707  1
  Si  Si10  1  0.94644272  0.30277699  0.78978707  1
  Si  Si11  1  0.44644272  0.69722301  0.21021293  1
  O  O12  1  0.25000000  0.65424872  0.60633650  1
  O  O13  1  0.75000000  0.34575128  0.39366350  1
  O  O14  1  0.25000000  0.12433261  0.63710489  1
  O  O15  1  0.75000000  0.87566739  0.36289511  1
  O  O16  1  0.14248004  0.45988383  0.33098789  1
  O  O17  1  0.64248004  0.54011617  0.66901211  1
  O  O18  1  0.85751996  0.54011617  0.66901211  1
  O  O19  1  0.35751996  0.45988383  0.33098789  1
  O  O20  1  0.93919658  0.54332596  0.19975692  1
  O  O21  1  0.43919658  0.45667404  0.80024308  1
  O  O22  1  0.06080342  0.45667404  0.80024308  1
  O  O23  1  0.56080342  0.54332596  0.19975692  1
  O  O24  1  0.11129885  0.85135682  0.98637316  1
  O  O25  1  0.61129885  0.14864318  0.01362684  1
  O  O26  1  0.88870115  0.14864318  0.01362684  1
  O  O27  1  0.38870115  0.85135682  0.98637316  1
  O  O28  1  0.04250394  0.89808736  0.35724538  1
  O  O29  1  0.54250394  0.10191264  0.64275462  1
  O  O30  1  0.95749606  0.10191264  0.64275462  1
  O  O31  1  0.45749606  0.89808736  0.35724538  1
