# generated using pymatgen
data_Ho2HgO4
_symmetry_space_group_name_H-M   'P 1'
_cell_length_a   3.57453823
_cell_length_b   7.00147540
_cell_length_c   8.71900181
_cell_angle_alpha   78.62197719
_cell_angle_beta   78.17135614
_cell_angle_gamma   75.21039835
_symmetry_Int_Tables_number   1
_chemical_formula_structural   Ho2HgO4
_chemical_formula_sum   'Ho4 Hg2 O8'
_cell_volume   204.06437272
_cell_formula_units_Z   2
loop_
 _symmetry_equiv_pos_site_id
 _symmetry_equiv_pos_as_xyz
  1  'x, y, z'
loop_
 _atom_site_type_symbol
 _atom_site_label
 _atom_site_symmetry_multiplicity
 _atom_site_fract_x
 _atom_site_fract_y
 _atom_site_fract_z
 _atom_site_occupancy
  Ho  Ho0  1  0.11876075  0.22494047  0.53753703  1
  Ho  Ho1  1  0.88123925  0.77505953  0.46246297  1
  Ho  Ho2  1  0.34038062  0.51826488  0.80097387  1
  Ho  Ho3  1  0.65961938  0.48173512  0.19902613  1
  Hg  Hg4  1  0.38684130  0.06472142  0.16159599  1
  Hg  Hg5  1  0.61315870  0.93527858  0.83840401  1
  O  O6  1  0.91728650  0.51294670  0.65248030  1
  O  O7  1  0.08271350  0.48705330  0.34751970  1
  O  O8  1  0.73354776  0.14617636  0.38672912  1
  O  O9  1  0.26645224  0.85382364  0.61327088  1
  O  O10  1  0.29789856  0.35080815  0.05339273  1
  O  O11  1  0.70210144  0.64919185  0.94660727  1
  O  O12  1  0.46560302  0.78601402  0.28277994  1
  O  O13  1  0.53439698  0.21398598  0.71722006  1
