# generated using pymatgen
data_BaP2
_symmetry_space_group_name_H-M   'P 1'
_cell_length_a   6.44328016
_cell_length_b   6.48734428
_cell_length_c   12.30666191
_cell_angle_alpha   90.00000000
_cell_angle_beta   90.00000000
_cell_angle_gamma   106.19430568
_symmetry_Int_Tables_number   1
_chemical_formula_structural   BaP2
_chemical_formula_sum   'Ba6 P12'
_cell_volume   494.00442837
_cell_formula_units_Z   6
loop_
 _symmetry_equiv_pos_site_id
 _symmetry_equiv_pos_as_xyz
  1  'x, y, z'
loop_
 _atom_site_type_symbol
 _atom_site_label
 _atom_site_symmetry_multiplicity
 _atom_site_fract_x
 _atom_site_fract_y
 _atom_site_fract_z
 _atom_site_occupancy
  Ba  Ba0  1  0.10525819  0.33288517  0.16025517  1
  Ba  Ba1  1  0.39474181  0.16711483  0.66025517  1
  Ba  Ba2  1  0.89474181  0.66711483  0.83974483  1
  Ba  Ba3  1  0.60525819  0.83288517  0.33974483  1
  Ba  Ba4  1  0.00000000  0.50000000  0.50000000  1
  Ba  Ba5  1  0.50000000  0.00000000  -0.00000000  1
  P  P6  1  0.36852443  0.30023854  0.39027581  1
  P  P7  1  0.13147557  0.19976146  0.89027581  1
  P  P8  1  0.63147557  0.69976146  0.60972419  1
  P  P9  1  0.86852443  0.80023854  0.10972419  1
  P  P10  1  0.64932084  0.46605155  0.12957610  1
  P  P11  1  0.85067916  0.03394845  0.62957610  1
  P  P12  1  0.35067916  0.53394845  0.87042390  1
  P  P13  1  0.14932084  0.96605155  0.37042390  1
  P  P14  1  0.66842074  0.34840467  0.29660103  1
  P  P15  1  0.83157926  0.15159533  0.79660103  1
  P  P16  1  0.33157926  0.65159533  0.70339897  1
  P  P17  1  0.16842074  0.84840467  0.20339897  1
