# generated using pymatgen
data_K6InP3
_symmetry_space_group_name_H-M   'P 1'
_cell_length_a   8.92324606
_cell_length_b   8.93681191
_cell_length_c   9.91291819
_cell_angle_alpha   81.73589017
_cell_angle_beta   107.29356935
_cell_angle_gamma   119.67320160
_symmetry_Int_Tables_number   1
_chemical_formula_structural   K6InP3
_chemical_formula_sum   'K12 In2 P6'
_cell_volume   655.78947623
_cell_formula_units_Z   2
loop_
 _symmetry_equiv_pos_site_id
 _symmetry_equiv_pos_as_xyz
  1  'x, y, z'
loop_
 _atom_site_type_symbol
 _atom_site_label
 _atom_site_symmetry_multiplicity
 _atom_site_fract_x
 _atom_site_fract_y
 _atom_site_fract_z
 _atom_site_occupancy
  K  K0  1  0.73404853  0.12773402  0.61703208  1
  K  K1  1  0.25505856  0.85325447  0.39325945  1
  K  K2  1  0.96913625  0.81676122  0.62546637  1
  K  K3  1  0.02299082  0.19994619  0.39349401  1
  K  K4  1  0.62641574  0.44873084  0.39830915  1
  K  K5  1  0.40032730  0.56405812  0.59326521  1
  K  K6  1  0.86636683  0.48560072  0.13365807  1
  K  K7  1  0.11669224  0.50584722  0.85056353  1
  K  K8  1  0.75793926  0.09530764  0.98705401  1
  K  K9  1  0.23074194  0.87229375  0.00399598  1
  K  K10  1  0.56671372  0.62172533  0.94380175  1
  K  K11  1  0.24500293  0.20363230  0.11362004  1
  In  In12  1  0.58544391  0.82826541  0.25498799  1
  In  In13  1  0.42036066  0.17607058  0.75167098  1
  P  P14  1  0.28907611  0.55300877  0.23056442  1
  P  P15  1  0.71639933  0.44373792  0.76271054  1
  P  P16  1  0.59588106  0.11648651  0.25949871  1
  P  P17  1  0.38947014  0.87626569  0.74221865  1
  P  P18  1  0.86522626  0.82608185  0.24364694  1
  P  P19  1  0.15608740  0.20193046  0.76256511  1
