# generated using pymatgen
data_Cs3ZnI5
_symmetry_space_group_name_H-M   'P 1'
_cell_length_a   10.04898656
_cell_length_b   11.70255186
_cell_length_c   14.92525088
_cell_angle_alpha   90.00000000
_cell_angle_beta   90.00000000
_cell_angle_gamma   90.00000000
_symmetry_Int_Tables_number   1
_chemical_formula_structural   Cs3ZnI5
_chemical_formula_sum   'Cs12 Zn4 I20'
_cell_volume   1755.19138959
_cell_formula_units_Z   4
loop_
 _symmetry_equiv_pos_site_id
 _symmetry_equiv_pos_as_xyz
  1  'x, y, z'
loop_
 _atom_site_type_symbol
 _atom_site_label
 _atom_site_symmetry_multiplicity
 _atom_site_fract_x
 _atom_site_fract_y
 _atom_site_fract_z
 _atom_site_occupancy
  Cs  Cs0  1  0.08141232  0.98495002  0.17179261  1
  Cs  Cs1  1  0.58141232  0.51504998  0.32820739  1
  Cs  Cs2  1  0.91858768  0.48495002  0.82820739  1
  Cs  Cs3  1  0.41858768  0.01504998  0.67179261  1
  Cs  Cs4  1  0.91858768  0.01504998  0.82820739  1
  Cs  Cs5  1  0.41858768  0.48495002  0.67179261  1
  Cs  Cs6  1  0.08141232  0.51504998  0.17179261  1
  Cs  Cs7  1  0.58141232  0.98495002  0.32820739  1
  Cs  Cs8  1  0.08632270  0.75000000  0.45258105  1
  Cs  Cs9  1  0.58632270  0.75000000  0.04741895  1
  Cs  Cs10  1  0.91367730  0.25000000  0.54741895  1
  Cs  Cs11  1  0.41367730  0.25000000  0.95258105  1
  Zn  Zn12  1  0.18732609  0.75000000  0.89256644  1
  Zn  Zn13  1  0.68732609  0.75000000  0.60743356  1
  Zn  Zn14  1  0.81267391  0.25000000  0.10743356  1
  Zn  Zn15  1  0.31267391  0.25000000  0.39256644  1
  I  I16  1  0.13578879  0.75000000  0.72110002  1
  I  I17  1  0.63578879  0.75000000  0.77889998  1
  I  I18  1  0.86421121  0.25000000  0.27889998  1
  I  I19  1  0.36421121  0.25000000  0.22110002  1
  I  I20  1  0.46605829  0.75000000  0.51187053  1
  I  I21  1  0.96605829  0.75000000  0.98812947  1
  I  I22  1  0.53394171  0.25000000  0.48812947  1
  I  I23  1  0.03394171  0.25000000  0.01187053  1
  I  I24  1  0.33139624  0.75000000  0.23776587  1
  I  I25  1  0.83139624  0.75000000  0.26223413  1
  I  I26  1  0.66860376  0.25000000  0.76223413  1
  I  I27  1  0.16860376  0.25000000  0.73776587  1
  I  I28  1  0.31143596  0.93818074  0.93531450  1
  I  I29  1  0.81143596  0.56181926  0.56468550  1
  I  I30  1  0.68856404  0.43818074  0.06468550  1
  I  I31  1  0.18856404  0.06181926  0.43531450  1
  I  I32  1  0.68856404  0.06181926  0.06468550  1
  I  I33  1  0.18856404  0.43818074  0.43531450  1
  I  I34  1  0.31143596  0.56181926  0.93531450  1
  I  I35  1  0.81143596  0.93818074  0.56468550  1
