# generated using pymatgen
data_Cs2AgSbF6
_symmetry_space_group_name_H-M   'P 1'
_cell_length_a   6.66698048
_cell_length_b   6.66698064
_cell_length_c   6.66698064
_cell_angle_alpha   59.99999938
_cell_angle_beta   59.99999910
_cell_angle_gamma   59.99999915
_symmetry_Int_Tables_number   1
_chemical_formula_structural   Cs2AgSbF6
_chemical_formula_sum   'Cs2 Ag1 Sb1 F6'
_cell_volume   209.54271465
_cell_formula_units_Z   1
loop_
 _symmetry_equiv_pos_site_id
 _symmetry_equiv_pos_as_xyz
  1  'x, y, z'
loop_
 _atom_site_type_symbol
 _atom_site_label
 _atom_site_symmetry_multiplicity
 _atom_site_fract_x
 _atom_site_fract_y
 _atom_site_fract_z
 _atom_site_occupancy
  Cs  Cs0  1  0.25000000  0.25000000  0.25000000  1
  Cs  Cs1  1  0.75000000  0.75000000  0.75000000  1
  Ag  Ag2  1  0.50000000  0.50000000  0.50000000  1
  Sb  Sb3  1  0.00000000  0.00000000  0.00000000  1
  F  F4  1  0.23456950  0.76543050  0.23456950  1
  F  F5  1  0.76543050  0.76543050  0.23456950  1
  F  F6  1  0.76543050  0.23456950  0.76543050  1
  F  F7  1  0.76543050  0.23456950  0.23456950  1
  F  F8  1  0.23456950  0.76543050  0.76543050  1
  F  F9  1  0.23456950  0.23456950  0.76543050  1
