# generated using pymatgen
data_Pr(ErS2)3
_symmetry_space_group_name_H-M   'P 1'
_cell_length_a   3.96169549
_cell_length_b   11.00860368
_cell_length_c   11.27061425
_cell_angle_alpha   71.13481126
_cell_angle_beta   90.00000000
_cell_angle_gamma   90.00000000
_symmetry_Int_Tables_number   1
_chemical_formula_structural   Pr(ErS2)3
_chemical_formula_sum   'Pr2 Er6 S12'
_cell_volume   465.13764199
_cell_formula_units_Z   2
loop_
 _symmetry_equiv_pos_site_id
 _symmetry_equiv_pos_as_xyz
  1  'x, y, z'
loop_
 _atom_site_type_symbol
 _atom_site_label
 _atom_site_symmetry_multiplicity
 _atom_site_fract_x
 _atom_site_fract_y
 _atom_site_fract_z
 _atom_site_occupancy
  Pr  Pr0  1  0.75000000  0.54984854  0.80436495  1
  Pr  Pr1  1  0.25000000  0.45015146  0.19563505  1
  Er  Er2  1  0.75000000  0.17922172  0.99822907  1
  Er  Er3  1  0.25000000  0.82077828  0.00177093  1
  Er  Er4  1  0.75000000  0.94229206  0.66695526  1
  Er  Er5  1  0.25000000  0.05770794  0.33304474  1
  Er  Er6  1  0.75000000  0.66172756  0.41242300  1
  Er  Er7  1  0.25000000  0.33827244  0.58757700  1
  S  S8  1  0.75000000  0.97745289  0.88851447  1
  S  S9  1  0.25000000  0.02254711  0.11148553  1
  S  S10  1  0.75000000  0.30145002  0.74863192  1
  S  S11  1  0.25000000  0.69854998  0.25136808  1
  S  S12  1  0.75000000  0.89417956  0.44184946  1
  S  S13  1  0.25000000  0.10582044  0.55815054  1
  S  S14  1  0.75000000  0.41841495  0.40759828  1
  S  S15  1  0.25000000  0.58158505  0.59240172  1
  S  S16  1  0.75000000  0.23249539  0.22881640  1
  S  S17  1  0.25000000  0.76750461  0.77118360  1
  S  S18  1  0.75000000  0.61993887  0.03658396  1
  S  S19  1  0.25000000  0.38006113  0.96341604  1
