# generated using pymatgen
data_Na3Sm(PO4)2
_symmetry_space_group_name_H-M   'P 1'
_cell_length_a   5.37020633
_cell_length_b   14.02238954
_cell_length_c   18.72349106
_cell_angle_alpha   90.00000000
_cell_angle_beta   90.00000000
_cell_angle_gamma   90.00000000
_symmetry_Int_Tables_number   1
_chemical_formula_structural   Na3Sm(PO4)2
_chemical_formula_sum   'Na24 Sm8 P16 O64'
_cell_volume   1409.93738903
_cell_formula_units_Z   8
loop_
 _symmetry_equiv_pos_site_id
 _symmetry_equiv_pos_as_xyz
  1  'x, y, z'
loop_
 _atom_site_type_symbol
 _atom_site_label
 _atom_site_symmetry_multiplicity
 _atom_site_fract_x
 _atom_site_fract_y
 _atom_site_fract_z
 _atom_site_occupancy
  Na  Na0  1  0.98868136  0.21641535  0.99280509  1
  Na  Na1  1  0.01131864  0.78358465  0.49280509  1
  Na  Na2  1  0.01131864  0.71641535  0.99280509  1
  Na  Na3  1  0.98868136  0.28358465  0.49280509  1
  Na  Na4  1  0.99131243  0.95222598  0.64827014  1
  Na  Na5  1  0.00868757  0.04777402  0.14827014  1
  Na  Na6  1  0.00868757  0.45222598  0.64827014  1
  Na  Na7  1  0.99131243  0.54777402  0.14827014  1
  Na  Na8  1  0.99462391  0.86231370  0.82816219  1
  Na  Na9  1  0.00537609  0.13768630  0.32816219  1
  Na  Na10  1  0.00537609  0.36231370  0.82816219  1
  Na  Na11  1  0.99462391  0.63768630  0.32816219  1
  Na  Na12  1  0.47754468  0.79693835  0.72998202  1
  Na  Na13  1  0.52245532  0.20306165  0.22998202  1
  Na  Na14  1  0.52245532  0.29693835  0.72998202  1
  Na  Na15  1  0.47754468  0.70306165  0.22998202  1
  Na  Na16  1  0.53849346  0.96820720  0.88778170  1
  Na  Na17  1  0.46150654  0.03179280  0.38778170  1
  Na  Na18  1  0.46150654  0.46820720  0.88778170  1
  Na  Na19  1  0.53849346  0.53179280  0.38778170  1
  Na  Na20  1  0.49929927  0.88684642  0.54957710  1
  Na  Na21  1  0.50070073  0.11315358  0.04957710  1
  Na  Na22  1  0.50070073  0.38684642  0.54957710  1
  Na  Na23  1  0.49929927  0.61315358  0.04957710  1
  Sm  Sm24  1  0.92894211  0.61294820  0.80276959  1
  Sm  Sm25  1  0.07105789  0.38705180  0.30276959  1
  Sm  Sm26  1  0.07105789  0.11294820  0.80276959  1
  Sm  Sm27  1  0.92894211  0.88705180  0.30276959  1
  Sm  Sm28  1  0.55652646  0.63682752  0.57420721  1
  Sm  Sm29  1  0.44347354  0.36317248  0.07420721  1
  Sm  Sm30  1  0.44347354  0.13682752  0.57420721  1
  Sm  Sm31  1  0.55652646  0.86317248  0.07420721  1
  P  P32  1  0.96920193  0.47544580  0.98069043  1
  P  P33  1  0.03079807  0.52455420  0.48069043  1
  P  P34  1  0.03079807  0.97544580  0.98069043  1
  P  P35  1  0.96920193  0.02455420  0.48069043  1
  P  P36  1  0.98933994  0.22633107  0.65305231  1
  P  P37  1  0.01066006  0.77366893  0.15305231  1
  P  P38  1  0.01066006  0.72633107  0.65305231  1
  P  P39  1  0.98933994  0.27366893  0.15305231  1
  P  P40  1  0.47740104  0.52280072  0.72449564  1
  P  P41  1  0.52259896  0.47719928  0.22449564  1
  P  P42  1  0.52259896  0.02280072  0.72449564  1
  P  P43  1  0.47740104  0.97719928  0.22449564  1
  P  P44  1  0.46171758  0.72647910  0.89639731  1
  P  P45  1  0.53828242  0.27352090  0.39639731  1
  P  P46  1  0.53828242  0.22647910  0.89639731  1
  P  P47  1  0.46171758  0.77352090  0.39639731  1
  O  O48  1  0.57984583  0.80616245  0.85091299  1
  O  O49  1  0.42015417  0.19383755  0.35091299  1
  O  O50  1  0.42015417  0.30616245  0.85091299  1
  O  O51  1  0.57984583  0.69383755  0.35091299  1
  O  O52  1  0.69521191  0.47071636  0.76343939  1
  O  O53  1  0.30478809  0.52928364  0.26343939  1
  O  O54  1  0.30478809  0.97071636  0.76343939  1
  O  O55  1  0.69521191  0.02928364  0.26343939  1
  O  O56  1  0.88955347  0.87974309  0.99419425  1
  O  O57  1  0.11044653  0.12025691  0.49419425  1
  O  O58  1  0.11044653  0.37974309  0.99419425  1
  O  O59  1  0.88955347  0.62025691  0.49419425  1
  O  O60  1  0.79604201  0.77728462  0.61175699  1
  O  O61  1  0.20395799  0.22271538  0.11175699  1
  O  O62  1  0.20395799  0.27728462  0.61175699  1
  O  O63  1  0.79604201  0.72271538  0.11175699  1
  O  O64  1  0.68640500  0.46299965  0.99932992  1
  O  O65  1  0.31359500  0.53700035  0.49932992  1
  O  O66  1  0.31359500  0.96299965  0.99932992  1
  O  O67  1  0.68640500  0.03700035  0.49932992  1
  O  O68  1  0.91399192  0.44509192  0.52713540  1
  O  O69  1  0.08600808  0.55490808  0.02713540  1
  O  O70  1  0.08600808  0.94509192  0.52713540  1
  O  O71  1  0.91399192  0.05490808  0.02713540  1
  O  O72  1  0.77217888  0.99598871  0.76108150  1
  O  O73  1  0.22782112  0.00401129  0.26108150  1
  O  O74  1  0.22782112  0.49598871  0.76108150  1
  O  O75  1  0.77217888  0.50401129  0.26108150  1
  O  O76  1  0.60475581  0.63082662  0.88450193  1
  O  O77  1  0.39524419  0.36917338  0.38450193  1
  O  O78  1  0.39524419  0.13082662  0.88450193  1
  O  O79  1  0.60475581  0.86917338  0.38450193  1
  O  O80  1  0.52779452  0.63174604  0.72827108  1
  O  O81  1  0.47220548  0.36825396  0.22827108  1
  O  O82  1  0.47220548  0.13174604  0.72827108  1
  O  O83  1  0.52779452  0.86825396  0.22827108  1
  O  O84  1  0.96245520  0.61741654  0.65004941  1
  O  O85  1  0.03754480  0.38258346  0.15004941  1
  O  O86  1  0.03754480  0.11741654  0.65004941  1
  O  O87  1  0.96245520  0.88258346  0.15004941  1
  O  O88  1  0.81887708  0.21286267  0.87503467  1
  O  O89  1  0.18112292  0.78713733  0.37503467  1
  O  O90  1  0.18112292  0.71286267  0.87503467  1
  O  O91  1  0.81887708  0.28713733  0.37503467  1
  O  O92  1  0.99124028  0.25872323  0.73248135  1
  O  O93  1  0.00875972  0.74127677  0.23248135  1
  O  O94  1  0.00875972  0.75872323  0.73248135  1
  O  O95  1  0.99124028  0.24127677  0.23248135  1
  O  O96  1  0.52798261  0.99253208  0.64457750  1
  O  O97  1  0.47201739  0.00746792  0.14457750  1
  O  O98  1  0.47201739  0.49253208  0.64457750  1
  O  O99  1  0.52798261  0.50746792  0.14457750  1
  O  O100  1  0.00245791  0.99847832  0.89960236  1
  O  O101  1  0.99754209  0.00152168  0.39960236  1
  O  O102  1  0.99754209  0.49847832  0.89960236  1
  O  O103  1  0.00245791  0.50152168  0.39960236  1
  O  O104  1  0.26297562  0.75345883  0.61815926  1
  O  O105  1  0.73702438  0.24654117  0.11815926  1
  O  O106  1  0.73702438  0.25345883  0.61815926  1
  O  O107  1  0.26297562  0.74654117  0.11815926  1
  O  O108  1  0.47137190  0.74921726  0.97788128  1
  O  O109  1  0.52862810  0.25078274  0.47788128  1
  O  O110  1  0.52862810  0.24921726  0.97788128  1
  O  O111  1  0.47137190  0.75078274  0.47788128  1
