# generated using pymatgen
data_Na7Al4P9O32
_symmetry_space_group_name_H-M   'P 1'
_cell_length_a   14.00054295
_cell_length_b   14.00054295
_cell_length_c   6.15352769
_cell_angle_alpha   90.00000000
_cell_angle_beta   90.00000000
_cell_angle_gamma   90.00000000
_symmetry_Int_Tables_number   1
_chemical_formula_structural   Na7Al4P9O32
_chemical_formula_sum   'Na14 Al8 P18 O64'
_cell_volume   1206.18497867
_cell_formula_units_Z   2
loop_
 _symmetry_equiv_pos_site_id
 _symmetry_equiv_pos_as_xyz
  1  'x, y, z'
loop_
 _atom_site_type_symbol
 _atom_site_label
 _atom_site_symmetry_multiplicity
 _atom_site_fract_x
 _atom_site_fract_y
 _atom_site_fract_z
 _atom_site_occupancy
  Na  Na0  1  0.92481175  0.25749650  0.59122495  1
  Na  Na1  1  0.57518825  0.75749650  0.90877505  1
  Na  Na2  1  0.07518825  0.74250350  0.59122495  1
  Na  Na3  1  0.42481175  0.24250350  0.90877505  1
  Na  Na4  1  0.74250350  0.92481175  0.40877505  1
  Na  Na5  1  0.24250350  0.57518825  0.09122495  1
  Na  Na6  1  0.25749650  0.07518825  0.40877505  1
  Na  Na7  1  0.75749650  0.42481175  0.09122495  1
  Na  Na8  1  0.00000000  0.50000000  0.81473619  1
  Na  Na9  1  0.50000000  -0.00000000  0.68526381  1
  Na  Na10  1  0.50000000  -0.00000000  0.18526381  1
  Na  Na11  1  0.00000000  0.50000000  0.31473619  1
  Na  Na12  1  0.00000000  -0.00000000  0.50000000  1
  Na  Na13  1  0.50000000  0.50000000  0.00000000  1
  Al  Al14  1  0.82082916  0.12181308  0.13870874  1
  Al  Al15  1  0.67917084  0.62181308  0.36129126  1
  Al  Al16  1  0.17917084  0.87818692  0.13870874  1
  Al  Al17  1  0.32082916  0.37818692  0.36129126  1
  Al  Al18  1  0.87818692  0.82082916  0.86129126  1
  Al  Al19  1  0.37818692  0.67917084  0.63870874  1
  Al  Al20  1  0.12181308  0.17917084  0.86129126  1
  Al  Al21  1  0.62181308  0.32082916  0.63870874  1
  P  P22  1  0.12722821  0.24221162  0.34935044  1
  P  P23  1  0.37277179  0.74221162  0.15064956  1
  P  P24  1  0.87277179  0.75778838  0.34935044  1
  P  P25  1  0.62722821  0.25778838  0.15064956  1
  P  P26  1  0.75778838  0.12722821  0.65064956  1
  P  P27  1  0.25778838  0.37277179  0.84935044  1
  P  P28  1  0.24221162  0.87277179  0.65064956  1
  P  P29  1  0.74221162  0.62722821  0.84935044  1
  P  P30  1  0.96087758  0.30074741  0.10076976  1
  P  P31  1  0.53912242  0.80074741  0.39923024  1
  P  P32  1  0.03912242  0.69925259  0.10076976  1
  P  P33  1  0.46087758  0.19925259  0.39923024  1
  P  P34  1  0.69925259  0.96087758  0.89923024  1
  P  P35  1  0.19925259  0.53912242  0.60076976  1
  P  P36  1  0.30074741  0.03912242  0.89923024  1
  P  P37  1  0.80074741  0.46087758  0.60076976  1
  P  P38  1  0.00000000  -0.00000000  0.00000000  1
  P  P39  1  0.50000000  0.50000000  0.50000000  1
  O  O40  1  0.92513393  0.40021258  0.05995440  1
  O  O41  1  0.57486607  0.90021258  0.44004560  1
  O  O42  1  0.07486607  0.59978742  0.05995440  1
  O  O43  1  0.42513393  0.09978742  0.44004560  1
  O  O44  1  0.59978742  0.92513393  0.94004560  1
  O  O45  1  0.09978742  0.57486607  0.55995440  1
  O  O46  1  0.40021258  0.07486607  0.94004560  1
  O  O47  1  0.90021258  0.42513393  0.55995440  1
  O  O48  1  0.04262581  0.31540338  0.28550376  1
  O  O49  1  0.45737419  0.81540338  0.21449624  1
  O  O50  1  0.95737419  0.68459662  0.28550376  1
  O  O51  1  0.54262581  0.18459662  0.21449624  1
  O  O52  1  0.68459662  0.04262581  0.71449624  1
  O  O53  1  0.18459662  0.45737419  0.78550376  1
  O  O54  1  0.31540338  0.95737419  0.71449624  1
  O  O55  1  0.81540338  0.54262581  0.78550376  1
  O  O56  1  0.88775021  0.23609364  0.20787233  1
  O  O57  1  0.61224979  0.73609364  0.29212767  1
  O  O58  1  0.11224979  0.76390636  0.20787233  1
  O  O59  1  0.38775021  0.26390636  0.29212767  1
  O  O60  1  0.76390636  0.88775021  0.79212767  1
  O  O61  1  0.26390636  0.61224979  0.70787233  1
  O  O62  1  0.23609364  0.11224979  0.79212767  1
  O  O63  1  0.73609364  0.38775021  0.70787233  1
  O  O64  1  0.01007627  0.25632621  0.90669323  1
  O  O65  1  0.48992373  0.75632621  0.59330677  1
  O  O66  1  0.98992373  0.74367379  0.90669323  1
  O  O67  1  0.51007627  0.24367379  0.59330677  1
  O  O68  1  0.74367379  0.01007627  0.09330677  1
  O  O69  1  0.24367379  0.48992373  0.40669323  1
  O  O70  1  0.25632621  0.98992373  0.09330677  1
  O  O71  1  0.75632621  0.51007627  0.40669323  1
  O  O72  1  0.21206747  0.30432656  0.38034852  1
  O  O73  1  0.28793253  0.80432656  0.11965148  1
  O  O74  1  0.78793253  0.69567344  0.38034852  1
  O  O75  1  0.71206747  0.19567344  0.11965148  1
  O  O76  1  0.69567344  0.21206747  0.61965148  1
  O  O77  1  0.19567344  0.28793253  0.88034852  1
  O  O78  1  0.30432656  0.78793253  0.61965148  1
  O  O79  1  0.80432656  0.71206747  0.88034852  1
  O  O80  1  0.09467249  0.19346468  0.55688175  1
  O  O81  1  0.40532751  0.69346468  0.94311825  1
  O  O82  1  0.90532751  0.80653532  0.55688175  1
  O  O83  1  0.59467249  0.30653532  0.94311825  1
  O  O84  1  0.80653532  0.09467249  0.44311825  1
  O  O85  1  0.30653532  0.40532751  0.05688175  1
  O  O86  1  0.19346468  0.90532751  0.44311825  1
  O  O87  1  0.69346468  0.59467249  0.05688175  1
  O  O88  1  0.13677219  0.16809032  0.17114260  1
  O  O89  1  0.36322781  0.66809032  0.32885740  1
  O  O90  1  0.86322781  0.83190968  0.17114260  1
  O  O91  1  0.63677219  0.33190968  0.32885740  1
  O  O92  1  0.83190968  0.13677219  0.82885740  1
  O  O93  1  0.33190968  0.36322781  0.67114260  1
  O  O94  1  0.16809032  0.86322781  0.82885740  1
  O  O95  1  0.66809032  0.63677219  0.67114260  1
  O  O96  1  0.93198030  0.05279182  0.15327654  1
  O  O97  1  0.56801970  0.55279182  0.34672346  1
  O  O98  1  0.06801970  0.94720818  0.15327654  1
  O  O99  1  0.43198030  0.44720818  0.34672346  1
  O  O100  1  0.94720818  0.93198030  0.84672346  1
  O  O101  1  0.44720818  0.56801970  0.65327654  1
  O  O102  1  0.05279182  0.06801970  0.84672346  1
  O  O103  1  0.55279182  0.43198030  0.65327654  1
