# generated using pymatgen
data_Cl2
_symmetry_space_group_name_H-M   'P 1'
_cell_length_a   3.87519264
_cell_length_b   3.87519264
_cell_length_c   8.45136010
_cell_angle_alpha   90.00000000
_cell_angle_beta   90.00000000
_cell_angle_gamma   117.39334113
_symmetry_Int_Tables_number   1
_chemical_formula_structural   Cl2
_chemical_formula_sum   Cl4
_cell_volume   112.68394086
_cell_formula_units_Z   2
loop_
 _symmetry_equiv_pos_site_id
 _symmetry_equiv_pos_as_xyz
  1  'x, y, z'
loop_
 _atom_site_type_symbol
 _atom_site_label
 _atom_site_symmetry_multiplicity
 _atom_site_fract_x
 _atom_site_fract_y
 _atom_site_fract_z
 _atom_site_occupancy
  Cl  Cl0  1  0.61193429  0.61193429  0.10551543  1
  Cl  Cl1  1  0.38806571  0.38806571  0.89448457  1
  Cl  Cl2  1  0.88806571  0.88806571  0.60551543  1
  Cl  Cl3  1  0.11193429  0.11193429  0.39448457  1
