# generated using pymatgen
data_Ca3Ge3(MoO6)2
_symmetry_space_group_name_H-M   'P 1'
_cell_length_a   11.03095430
_cell_length_b   11.03095369
_cell_length_c   11.03095384
_cell_angle_alpha   109.47122089
_cell_angle_beta   109.47121977
_cell_angle_gamma   109.47121991
_symmetry_Int_Tables_number   1
_chemical_formula_structural   Ca3Ge3(MoO6)2
_chemical_formula_sum   'Ca12 Ge12 Mo8 O48'
_cell_volume   1033.27835184
_cell_formula_units_Z   4
loop_
 _symmetry_equiv_pos_site_id
 _symmetry_equiv_pos_as_xyz
  1  'x, y, z'
loop_
 _atom_site_type_symbol
 _atom_site_label
 _atom_site_symmetry_multiplicity
 _atom_site_fract_x
 _atom_site_fract_y
 _atom_site_fract_z
 _atom_site_occupancy
  Ca  Ca0  1  0.62500000  0.25000000  0.87500000  1
  Ca  Ca1  1  0.87500000  0.75000000  0.62500000  1
  Ca  Ca2  1  0.75000000  0.62500000  0.87500000  1
  Ca  Ca3  1  0.25000000  0.87500000  0.62500000  1
  Ca  Ca4  1  0.87500000  0.62500000  0.25000000  1
  Ca  Ca5  1  0.62500000  0.87500000  0.75000000  1
  Ca  Ca6  1  0.37500000  0.75000000  0.12500000  1
  Ca  Ca7  1  0.12500000  0.25000000  0.37500000  1
  Ca  Ca8  1  0.25000000  0.37500000  0.12500000  1
  Ca  Ca9  1  0.75000000  0.12500000  0.37500000  1
  Ca  Ca10  1  0.12500000  0.37500000  0.75000000  1
  Ca  Ca11  1  0.37500000  0.12500000  0.25000000  1
  Ge  Ge12  1  0.87500000  0.12500000  0.75000000  1
  Ge  Ge13  1  0.12500000  0.87500000  0.25000000  1
  Ge  Ge14  1  0.25000000  0.62500000  0.37500000  1
  Ge  Ge15  1  0.12500000  0.75000000  0.87500000  1
  Ge  Ge16  1  0.75000000  0.87500000  0.12500000  1
  Ge  Ge17  1  0.37500000  0.25000000  0.62500000  1
  Ge  Ge18  1  0.62500000  0.75000000  0.37500000  1
  Ge  Ge19  1  0.87500000  0.25000000  0.12500000  1
  Ge  Ge20  1  0.25000000  0.12500000  0.87500000  1
  Ge  Ge21  1  0.75000000  0.37500000  0.62500000  1
  Ge  Ge22  1  0.37500000  0.62500000  0.75000000  1
  Ge  Ge23  1  0.62500000  0.37500000  0.25000000  1
  Mo  Mo24  1  0.50000000  0.50000000  0.50000000  1
  Mo  Mo25  1  0.50000000  0.50000000  0.00000000  1
  Mo  Mo26  1  0.50000000  0.00000000  0.50000000  1
  Mo  Mo27  1  0.00000000  0.50000000  0.50000000  1
  Mo  Mo28  1  0.50000000  0.00000000  0.00000000  1
  Mo  Mo29  1  0.00000000  0.00000000  0.50000000  1
  Mo  Mo30  1  0.00000000  0.50000000  0.00000000  1
  Mo  Mo31  1  0.00000000  0.00000000  0.00000000  1
  O  O32  1  0.78927856  0.41205062  0.80858386  1
  O  O33  1  0.08794938  0.87722794  0.39653324  1
  O  O34  1  0.69141614  0.10346676  0.98069370  1
  O  O35  1  0.71072144  0.51930630  0.62277206  1
  O  O36  1  0.71072144  0.69141614  0.08794938  1
  O  O37  1  0.51930630  0.62277206  0.71072144  1
  O  O38  1  0.10346676  0.62277206  0.41205062  1
  O  O39  1  0.62277206  0.71072144  0.51930630  1
  O  O40  1  0.39653324  0.80858386  0.51930630  1
  O  O41  1  0.87722794  0.98069370  0.78927856  1
  O  O42  1  0.98069370  0.78927856  0.87722794  1
  O  O43  1  0.08794938  0.71072144  0.69141614  1
  O  O44  1  0.62277206  0.41205062  0.10346676  1
  O  O45  1  0.51930630  0.39653324  0.80858386  1
  O  O46  1  0.69141614  0.08794938  0.71072144  1
  O  O47  1  0.41205062  0.10346676  0.62277206  1
  O  O48  1  0.80858386  0.51930630  0.39653324  1
  O  O49  1  0.39653324  0.08794938  0.87722794  1
  O  O50  1  0.10346676  0.98069370  0.69141614  1
  O  O51  1  0.60346676  0.19141614  0.48069370  1
  O  O52  1  0.98069370  0.69141614  0.10346676  1
  O  O53  1  0.80858386  0.78927856  0.41205062  1
  O  O54  1  0.87722794  0.39653324  0.08794938  1
  O  O55  1  0.78927856  0.87722794  0.98069370  1
  O  O56  1  0.21072144  0.58794938  0.19141614  1
  O  O57  1  0.91205062  0.12277206  0.60346676  1
  O  O58  1  0.30858386  0.89653324  0.01930630  1
  O  O59  1  0.28927856  0.48069370  0.37722794  1
  O  O60  1  0.28927856  0.30858386  0.91205062  1
  O  O61  1  0.48069370  0.37722794  0.28927856  1
  O  O62  1  0.89653324  0.37722794  0.58794938  1
  O  O63  1  0.37722794  0.28927856  0.48069370  1
  O  O64  1  0.21072144  0.12277206  0.01930630  1
  O  O65  1  0.12277206  0.60346676  0.91205062  1
  O  O66  1  0.19141614  0.21072144  0.58794938  1
  O  O67  1  0.58794938  0.19141614  0.21072144  1
  O  O68  1  0.01930630  0.30858386  0.89653324  1
  O  O69  1  0.89653324  0.01930630  0.30858386  1
  O  O70  1  0.60346676  0.91205062  0.12277206  1
  O  O71  1  0.19141614  0.48069370  0.60346676  1
  O  O72  1  0.58794938  0.89653324  0.37722794  1
  O  O73  1  0.30858386  0.91205062  0.28927856  1
  O  O74  1  0.48069370  0.60346676  0.19141614  1
  O  O75  1  0.37722794  0.58794938  0.89653324  1
  O  O76  1  0.91205062  0.28927856  0.30858386  1
  O  O77  1  0.01930630  0.21072144  0.12277206  1
  O  O78  1  0.12277206  0.01930630  0.21072144  1
  O  O79  1  0.41205062  0.80858386  0.78927856  1
