# generated using pymatgen
data_Na3GaSe3
_symmetry_space_group_name_H-M   'P 1'
_cell_length_a   7.23137434
_cell_length_b   7.46436753
_cell_length_c   15.05117886
_cell_angle_alpha   60.79256543
_cell_angle_beta   90.00000000
_cell_angle_gamma   90.00000000
_symmetry_Int_Tables_number   1
_chemical_formula_structural   Na3GaSe3
_chemical_formula_sum   'Na12 Ga4 Se12'
_cell_volume   709.13407371
_cell_formula_units_Z   4
loop_
 _symmetry_equiv_pos_site_id
 _symmetry_equiv_pos_as_xyz
  1  'x, y, z'
loop_
 _atom_site_type_symbol
 _atom_site_label
 _atom_site_symmetry_multiplicity
 _atom_site_fract_x
 _atom_site_fract_y
 _atom_site_fract_z
 _atom_site_occupancy
  Na  Na0  1  0.03097916  0.94370397  0.28533019  1
  Na  Na1  1  0.53097916  0.05629603  0.21466981  1
  Na  Na2  1  0.96902084  0.05629603  0.71466981  1
  Na  Na3  1  0.46902084  0.94370397  0.78533019  1
  Na  Na4  1  0.00149017  0.72466660  0.10682742  1
  Na  Na5  1  0.50149017  0.27533340  0.39317258  1
  Na  Na6  1  0.99850983  0.27533340  0.89317258  1
  Na  Na7  1  0.49850983  0.72466660  0.60682742  1
  Na  Na8  1  0.00312302  0.31266000  0.39608768  1
  Na  Na9  1  0.50312302  0.68734000  0.10391232  1
  Na  Na10  1  0.99687698  0.68734000  0.60391232  1
  Na  Na11  1  0.49687698  0.31266000  0.89608768  1
  Ga  Ga12  1  0.64548209  0.66682558  0.41786766  1
  Ga  Ga13  1  0.14548209  0.33317442  0.08213234  1
  Ga  Ga14  1  0.35451791  0.33317442  0.58213234  1
  Ga  Ga15  1  0.85451791  0.66682558  0.91786766  1
  Se  Se16  1  0.80271385  0.34594751  0.07351938  1
  Se  Se17  1  0.30271385  0.65405249  0.42648062  1
  Se  Se18  1  0.19728615  0.65405249  0.92648062  1
  Se  Se19  1  0.69728615  0.34594751  0.57351938  1
  Se  Se20  1  0.24880447  0.34361961  0.22894544  1
  Se  Se21  1  0.74880447  0.65638039  0.27105456  1
  Se  Se22  1  0.75119553  0.65638039  0.77105456  1
  Se  Se23  1  0.25119553  0.34361961  0.72894544  1
  Se  Se24  1  0.75970509  0.95357494  0.42782591  1
  Se  Se25  1  0.25970509  0.04642506  0.07217409  1
  Se  Se26  1  0.24029491  0.04642506  0.57217409  1
  Se  Se27  1  0.74029491  0.95357494  0.92782591  1
