# generated using pymatgen
data_Li6V3P8O29
_symmetry_space_group_name_H-M   'P 1'
_cell_length_a   9.79104288
_cell_length_b   9.79427227
_cell_length_c   13.99975167
_cell_angle_alpha   89.51779670
_cell_angle_beta   89.65305468
_cell_angle_gamma   60.12610849
_symmetry_Int_Tables_number   1
_chemical_formula_structural   Li6V3P8O29
_chemical_formula_sum   'Li12 V6 P16 O58'
_cell_volume   1164.08899877
_cell_formula_units_Z   2
loop_
 _symmetry_equiv_pos_site_id
 _symmetry_equiv_pos_as_xyz
  1  'x, y, z'
loop_
 _atom_site_type_symbol
 _atom_site_label
 _atom_site_symmetry_multiplicity
 _atom_site_fract_x
 _atom_site_fract_y
 _atom_site_fract_z
 _atom_site_occupancy
  Li  Li0  1  0.90323426  0.76111367  0.06036695  1
  Li  Li1  1  0.76071196  0.90333045  0.56096452  1
  Li  Li2  1  0.89815821  0.33601136  0.55757863  1
  Li  Li3  1  0.76402170  0.33363266  0.06118978  1
  Li  Li4  1  0.33861215  0.89598895  0.05934781  1
  Li  Li5  1  0.33206450  0.76509309  0.56203443  1
  Li  Li6  1  0.66667021  0.09817309  0.94014681  1
  Li  Li7  1  0.09827697  0.66681601  0.44040388  1
  Li  Li8  1  0.23347507  0.10105538  0.43997143  1
  Li  Li9  1  0.09926837  0.23382959  0.93860203  1
  Li  Li10  1  0.03452858  0.94909199  0.99467159  1
  Li  Li11  1  0.95032048  0.03457298  0.49434387  1
  V  V12  1  0.56049468  0.43682061  0.25234944  1
  V  V13  1  0.43777269  0.56029272  0.75271599  1
  V  V14  1  0.56351108  0.00143791  0.74866304  1
  V  V15  1  0.43592991  0.99870259  0.24977404  1
  V  V16  1  0.00076538  0.56520739  0.24885819  1
  V  V17  1  0.99821034  0.43950923  0.74944267  1
  P  P18  1  0.91096795  0.77692880  0.84364826  1
  P  P19  1  0.77530700  0.91051519  0.34359417  1
  P  P20  1  0.91219985  0.31171949  0.34016688  1
  P  P21  1  0.66571033  0.66607876  0.13064047  1
  P  P22  1  0.66672848  0.66657697  0.63054468  1
  P  P23  1  0.77404855  0.31098248  0.84462262  1
  P  P24  1  0.69505083  0.22203677  0.65945506  1
  P  P25  1  0.31223319  0.91152375  0.84048645  1
  P  P26  1  0.69038039  0.08595595  0.15880423  1
  P  P27  1  0.31163790  0.77327805  0.34483444  1
  P  P28  1  0.22169909  0.69621819  0.15956090  1
  P  P29  1  0.33017143  0.33447469  0.36832479  1
  P  P30  1  0.33365864  0.33046797  0.86775146  1
  P  P31  1  0.08675821  0.69116606  0.65976921  1
  P  P32  1  0.22397287  0.09017257  0.65673779  1
  P  P33  1  0.09022766  0.22619128  0.15699706  1
  O  O34  1  0.99611092  0.77735791  0.57079395  1
  O  O35  1  0.91934116  0.74127185  0.33880181  1
  O  O36  1  0.77976016  0.99610924  0.07067329  1
  O  O37  1  0.74039896  0.91860611  0.83859113  1
  O  O38  1  0.91461385  0.61883519  0.83342932  1
  O  O39  1  0.81032500  0.67667441  0.16963306  1
  O  O40  1  0.91745515  0.46571836  0.32769056  1
  O  O41  1  0.00318808  0.22444175  0.06838335  1
  O  O42  1  0.92061675  0.33037288  0.84132473  1
  O  O43  1  0.67723653  0.81036189  0.66977772  1
  O  O44  1  0.61990865  0.91018724  0.33009079  1
  O  O45  1  0.81370020  0.51210955  0.67379117  1
  O  O46  1  0.66360781  0.66632235  0.02396090  1
  O  O47  1  0.67350026  0.66043326  0.52406492  1
  O  O48  1  0.67370493  0.51277953  0.17330792  1
  O  O49  1  0.46633578  0.91711341  0.82782431  1
  O  O50  1  0.51069182  0.81031744  0.17150398  1
  O  O51  1  0.74561164  0.34005355  0.33763393  1
  O  O52  1  0.79169056  0.19646648  0.75790759  1
  O  O53  1  0.80553497  0.20344102  0.57903825  1
  O  O54  1  0.77033443  0.22823805  0.93578216  1
  O  O55  1  0.62323974  0.47025935  0.82963711  1
  O  O56  1  0.51398512  0.67367530  0.67146383  1
  O  O57  1  0.66520439  0.25336014  0.15767187  1
  O  O58  1  0.46878895  0.62076429  0.33250237  1
  O  O59  1  0.33548528  0.91890170  0.34106067  1
  O  O60  1  0.79581447  0.00056891  0.25217641  1
  O  O61  1  0.78574596  0.98662617  0.43395260  1
  O  O62  1  0.22506129  0.00101674  0.56842138  1
  O  O63  1  0.66087213  0.08282831  0.65858469  1
  O  O64  1  0.54385335  0.38145834  0.66484510  1
  O  O65  1  0.34332590  0.74385630  0.83860810  1
  O  O66  1  0.47770914  0.33212026  0.31961024  1
  O  O67  1  0.37956723  0.54393861  0.16546028  1
  O  O68  1  0.20400851  0.80589332  0.07869526  1
  O  O69  1  0.22461940  0.77651875  0.43543155  1
  O  O70  1  0.19757114  0.79433411  0.25733507  1
  O  O71  1  0.25289380  0.66942961  0.65923068  1
  O  O72  1  0.48892668  0.18674658  0.82814351  1
  O  O73  1  0.53375301  0.08575594  0.17168323  1
  O  O74  1  0.33160875  0.47861230  0.82074305  1
  O  O75  1  0.33220737  0.32723242  0.97392452  1
  O  O76  1  0.32958406  0.33525674  0.47457134  1
  O  O77  1  0.18632100  0.49088804  0.32864184  1
  O  O78  1  0.37843265  0.09202604  0.66982818  1
  O  O79  1  0.32209447  0.18932309  0.32809232  1
  O  O80  1  0.08090064  0.66450013  0.15924844  1
  O  O81  1  0.99909763  0.79865389  0.75178604  1
  O  O82  1  0.98653166  0.79029461  0.93356113  1
  O  O83  1  0.09268739  0.53185086  0.67308234  1
  O  O84  1  0.18648863  0.32525751  0.82601846  1
  O  O85  1  0.09259598  0.37998859  0.16941328  1
  O  O86  1  0.25904400  0.08118795  0.15778109  1
  O  O87  1  0.22333964  0.99828403  0.93010043  1
  O  O88  1  0.20186488  0.00404856  0.74982759  1
  O  O89  1  0.08070221  0.25789361  0.65580788  1
  O  O90  1  0.99891366  0.22180369  0.42989523  1
  O  O91  1  0.00562734  0.20181607  0.24958747  1
