# generated using pymatgen
data_Rb2PaF7
_symmetry_space_group_name_H-M   'P 1'
_cell_length_a   7.86147933
_cell_length_b   7.86147933
_cell_length_c   8.18366863
_cell_angle_alpha   59.22044744
_cell_angle_beta   59.22044744
_cell_angle_gamma   52.45960171
_symmetry_Int_Tables_number   1
_chemical_formula_structural   Rb2PaF7
_chemical_formula_sum   'Rb4 Pa2 F14'
_cell_volume   329.37926002
_cell_formula_units_Z   2
loop_
 _symmetry_equiv_pos_site_id
 _symmetry_equiv_pos_as_xyz
  1  'x, y, z'
loop_
 _atom_site_type_symbol
 _atom_site_label
 _atom_site_symmetry_multiplicity
 _atom_site_fract_x
 _atom_site_fract_y
 _atom_site_fract_z
 _atom_site_occupancy
  Rb  Rb0  1  0.31860884  0.33697337  0.11210787  1
  Rb  Rb1  1  0.66302663  0.68139116  0.38789213  1
  Rb  Rb2  1  0.68139116  0.66302663  0.88789213  1
  Rb  Rb3  1  0.33697337  0.31860884  0.61210787  1
  Pa  Pa4  1  0.02528357  0.97471643  0.25000000  1
  Pa  Pa5  1  0.97471643  0.02528357  0.75000000  1
  F  F6  1  0.94560050  0.71064097  0.48692105  1
  F  F7  1  0.28935903  0.05439950  0.01307895  1
  F  F8  1  0.05439950  0.28935903  0.51307895  1
  F  F9  1  0.71064097  0.94560050  0.98692105  1
  F  F10  1  0.34310987  0.65689013  0.25000000  1
  F  F11  1  0.65689013  0.34310987  0.75000000  1
  F  F12  1  0.89460738  0.32619118  0.20947884  1
  F  F13  1  0.67380882  0.10539262  0.29052116  1
  F  F14  1  0.10539262  0.67380882  0.79052116  1
  F  F15  1  0.32619118  0.89460738  0.70947884  1
  F  F16  1  0.05545753  0.79843778  0.07879923  1
  F  F17  1  0.20156222  0.94454247  0.42120077  1
  F  F18  1  0.94454247  0.20156222  0.92120077  1
  F  F19  1  0.79843778  0.05545753  0.57879923  1
