# generated using pymatgen
data_Cs2Mg2(WO4)3
_symmetry_space_group_name_H-M   'P 1'
_cell_length_a   11.12928112
_cell_length_b   11.12928112
_cell_length_c   11.12928112
_cell_angle_alpha   90.00000000
_cell_angle_beta   90.00000000
_cell_angle_gamma   90.00000000
_symmetry_Int_Tables_number   1
_chemical_formula_structural   Cs2Mg2(WO4)3
_chemical_formula_sum   'Cs8 Mg8 W12 O48'
_cell_volume   1378.48275638
_cell_formula_units_Z   4
loop_
 _symmetry_equiv_pos_site_id
 _symmetry_equiv_pos_as_xyz
  1  'x, y, z'
loop_
 _atom_site_type_symbol
 _atom_site_label
 _atom_site_symmetry_multiplicity
 _atom_site_fract_x
 _atom_site_fract_y
 _atom_site_fract_z
 _atom_site_occupancy
  Cs  Cs0  1  0.54229379  0.95770621  0.04229379  1
  Cs  Cs1  1  0.95770621  0.04229379  0.54229379  1
  Cs  Cs2  1  0.45770621  0.45770621  0.45770621  1
  Cs  Cs3  1  0.04229379  0.54229379  0.95770621  1
  Cs  Cs4  1  0.67797684  0.67797684  0.67797684  1
  Cs  Cs5  1  0.32202316  0.17797684  0.82202316  1
  Cs  Cs6  1  0.17797684  0.82202316  0.32202316  1
  Cs  Cs7  1  0.82202316  0.32202316  0.17797684  1
  Mg  Mg8  1  0.61350053  0.11350053  0.38649947  1
  Mg  Mg9  1  0.11350053  0.38649947  0.61350053  1
  Mg  Mg10  1  0.38649947  0.61350053  0.11350053  1
  Mg  Mg11  1  0.88649947  0.88649947  0.88649947  1
  Mg  Mg12  1  0.83714862  0.66285138  0.33714862  1
  Mg  Mg13  1  0.66285138  0.33714862  0.83714862  1
  Mg  Mg14  1  0.16285138  0.16285138  0.16285138  1
  Mg  Mg15  1  0.33714862  0.83714862  0.66285138  1
  W  W16  1  0.52613166  0.80130804  0.37600473  1
  W  W17  1  0.62399527  0.02613166  0.69869196  1
  W  W18  1  0.30130804  0.12399527  0.47386834  1
  W  W19  1  0.02613166  0.69869196  0.62399527  1
  W  W20  1  0.12399527  0.47386834  0.30130804  1
  W  W21  1  0.80130804  0.37600473  0.52613166  1
  W  W22  1  0.47386834  0.30130804  0.12399527  1
  W  W23  1  0.37600473  0.52613166  0.80130804  1
  W  W24  1  0.69869196  0.62399527  0.02613166  1
  W  W25  1  0.97386834  0.19869196  0.87600473  1
  W  W26  1  0.87600473  0.97386834  0.19869196  1
  W  W27  1  0.19869196  0.87600473  0.97386834  1
  O  O28  1  0.67878782  0.74802761  0.39559756  1
  O  O29  1  0.60440244  0.17878782  0.75197239  1
  O  O30  1  0.24802761  0.10440244  0.32121218  1
  O  O31  1  0.17878782  0.75197239  0.60440244  1
  O  O32  1  0.10440244  0.32121218  0.24802761  1
  O  O33  1  0.74802761  0.39559756  0.67878782  1
  O  O34  1  0.32121218  0.24802761  0.10440244  1
  O  O35  1  0.39559756  0.67878782  0.74802761  1
  O  O36  1  0.75197239  0.60440244  0.17878782  1
  O  O37  1  0.82121218  0.25197239  0.89559756  1
  O  O38  1  0.89559756  0.82121218  0.25197239  1
  O  O39  1  0.25197239  0.89559756  0.82121218  1
  O  O40  1  0.44575669  0.77877989  0.51632355  1
  O  O41  1  0.48367645  0.94575669  0.72122011  1
  O  O42  1  0.27877989  0.98367645  0.55424331  1
  O  O43  1  0.94575669  0.72122011  0.48367645  1
  O  O44  1  0.98367645  0.55424331  0.27877989  1
  O  O45  1  0.77877989  0.51632355  0.44575669  1
  O  O46  1  0.55424331  0.27877989  0.98367645  1
  O  O47  1  0.51632355  0.44575669  0.77877989  1
  O  O48  1  0.72122011  0.48367645  0.94575669  1
  O  O49  1  0.05424331  0.22122011  0.01632355  1
  O  O50  1  0.01632355  0.05424331  0.22122011  1
  O  O51  1  0.22122011  0.01632355  0.05424331  1
  O  O52  1  0.52116947  0.95776089  0.32909749  1
  O  O53  1  0.67090251  0.02116947  0.54223911  1
  O  O54  1  0.45776089  0.17090251  0.47883053  1
  O  O55  1  0.02116947  0.54223911  0.67090251  1
  O  O56  1  0.17090251  0.47883053  0.45776089  1
  O  O57  1  0.95776089  0.32909749  0.52116947  1
  O  O58  1  0.47883053  0.45776089  0.17090251  1
  O  O59  1  0.32909749  0.52116947  0.95776089  1
  O  O60  1  0.54223911  0.67090251  0.02116947  1
  O  O61  1  0.97883053  0.04223911  0.82909749  1
  O  O62  1  0.82909749  0.97883053  0.04223911  1
  O  O63  1  0.04223911  0.82909749  0.97883053  1
  O  O64  1  0.44857647  0.71352316  0.26228417  1
  O  O65  1  0.73771583  0.94857647  0.78647684  1
  O  O66  1  0.21352316  0.23771583  0.55142353  1
  O  O67  1  0.94857647  0.78647684  0.73771583  1
  O  O68  1  0.23771583  0.55142353  0.21352316  1
  O  O69  1  0.71352316  0.26228417  0.44857647  1
  O  O70  1  0.55142353  0.21352316  0.23771583  1
  O  O71  1  0.26228417  0.44857647  0.71352316  1
  O  O72  1  0.78647684  0.73771583  0.94857647  1
  O  O73  1  0.05142353  0.28647684  0.76228417  1
  O  O74  1  0.76228417  0.05142353  0.28647684  1
  O  O75  1  0.28647684  0.76228417  0.05142353  1
