# generated using pymatgen
data_Cs3IO
_symmetry_space_group_name_H-M   'P 1'
_cell_length_a   8.11543373
_cell_length_b   8.11543373
_cell_length_c   7.20733450
_cell_angle_alpha   90.00000000
_cell_angle_beta   90.00000000
_cell_angle_gamma   120.00000188
_symmetry_Int_Tables_number   1
_chemical_formula_structural   Cs3IO
_chemical_formula_sum   'Cs6 I2 O2'
_cell_volume   411.08229599
_cell_formula_units_Z   2
loop_
 _symmetry_equiv_pos_site_id
 _symmetry_equiv_pos_as_xyz
  1  'x, y, z'
loop_
 _atom_site_type_symbol
 _atom_site_label
 _atom_site_symmetry_multiplicity
 _atom_site_fract_x
 _atom_site_fract_y
 _atom_site_fract_z
 _atom_site_occupancy
  Cs  Cs0  1  0.15541656  0.31083312  0.25000000  1
  Cs  Cs1  1  0.84458344  0.68916688  0.75000000  1
  Cs  Cs2  1  0.68916688  0.84458344  0.25000000  1
  Cs  Cs3  1  0.31083312  0.15541656  0.75000000  1
  Cs  Cs4  1  0.15541656  0.84458344  0.25000000  1
  Cs  Cs5  1  0.84458344  0.15541656  0.75000000  1
  I  I6  1  0.33333300  0.66666700  0.75000000  1
  I  I7  1  0.66666700  0.33333300  0.25000000  1
  O  O8  1  -0.00000000  0.00000000  0.00000000  1
  O  O9  1  -0.00000000  0.00000000  0.50000000  1
