# generated using pymatgen
data_NaFePO4
_symmetry_space_group_name_H-M   'P 1'
_cell_length_a   5.00123442
_cell_length_b   6.81942858
_cell_length_c   8.93636781
_cell_angle_alpha   90.00000000
_cell_angle_beta   90.00000000
_cell_angle_gamma   90.00000000
_symmetry_Int_Tables_number   1
_chemical_formula_structural   NaFePO4
_chemical_formula_sum   'Na4 Fe4 P4 O16'
_cell_volume   304.77983692
_cell_formula_units_Z   4
loop_
 _symmetry_equiv_pos_site_id
 _symmetry_equiv_pos_as_xyz
  1  'x, y, z'
loop_
 _atom_site_type_symbol
 _atom_site_label
 _atom_site_symmetry_multiplicity
 _atom_site_fract_x
 _atom_site_fract_y
 _atom_site_fract_z
 _atom_site_occupancy
  Na  Na0  1  0.46534053  0.75000000  0.15072827  1
  Na  Na1  1  0.96534053  0.25000000  0.34927173  1
  Na  Na2  1  0.53465947  0.25000000  0.84927173  1
  Na  Na3  1  0.03465947  0.75000000  0.65072827  1
  Fe  Fe4  1  0.50000000  0.50000000  0.50000000  1
  Fe  Fe5  1  0.00000000  0.50000000  -0.00000000  1
  Fe  Fe6  1  0.50000000  0.00000000  0.50000000  1
  Fe  Fe7  1  0.00000000  0.00000000  -0.00000000  1
  P  P8  1  0.96408807  0.75000000  0.32495394  1
  P  P9  1  0.46408807  0.25000000  0.17504606  1
  P  P10  1  0.03591193  0.25000000  0.67504606  1
  P  P11  1  0.53591193  0.75000000  0.82495394  1
  O  O12  1  0.25192836  0.75000000  0.38571388  1
  O  O13  1  0.75192836  0.25000000  0.11428612  1
  O  O14  1  0.74807164  0.25000000  0.61428612  1
  O  O15  1  0.24807164  0.75000000  0.88571388  1
  O  O16  1  0.95465863  0.75000000  0.15174609  1
  O  O17  1  0.45465863  0.25000000  0.34825391  1
  O  O18  1  0.04534137  0.25000000  0.84825391  1
  O  O19  1  0.54534137  0.75000000  0.65174609  1
  O  O20  1  0.18350723  0.43294386  0.62021255  1
  O  O21  1  0.68350723  0.56705614  0.87978745  1
  O  O22  1  0.81649277  0.93294386  0.37978745  1
  O  O23  1  0.31649277  0.06705614  0.12021255  1
  O  O24  1  0.68350723  0.93294386  0.87978745  1
  O  O25  1  0.18350723  0.06705614  0.62021255  1
  O  O26  1  0.31649277  0.43294386  0.12021255  1
  O  O27  1  0.81649277  0.56705614  0.37978745  1
