# generated using pymatgen
data_PrPaO4
_symmetry_space_group_name_H-M   'P 1'
_cell_length_a   6.69067041
_cell_length_b   6.69067041
_cell_length_c   6.69067041
_cell_angle_alpha   131.26897113
_cell_angle_beta   131.26897113
_cell_angle_gamma   71.38608731
_symmetry_Int_Tables_number   1
_chemical_formula_structural   PrPaO4
_chemical_formula_sum   'Pr2 Pa2 O8'
_cell_volume   165.60512753
_cell_formula_units_Z   2
loop_
 _symmetry_equiv_pos_site_id
 _symmetry_equiv_pos_as_xyz
  1  'x, y, z'
loop_
 _atom_site_type_symbol
 _atom_site_label
 _atom_site_symmetry_multiplicity
 _atom_site_fract_x
 _atom_site_fract_y
 _atom_site_fract_z
 _atom_site_occupancy
  Pr  Pr0  1  0.00000000  -0.00000000  -0.00000000  1
  Pr  Pr1  1  0.75000000  0.25000000  0.50000000  1
  Pa  Pa2  1  0.50000000  0.50000000  -0.00000000  1
  Pa  Pa3  1  0.25000000  0.75000000  0.50000000  1
  O  O4  1  0.14670241  0.12500000  0.52170241  1
  O  O5  1  0.87500000  0.39670241  0.02170241  1
  O  O6  1  0.60329759  0.12500000  0.97829759  1
  O  O7  1  0.60329759  0.62500000  0.47829759  1
  O  O8  1  0.37500000  0.39670241  0.52170241  1
  O  O9  1  0.37500000  0.85329759  0.97829759  1
  O  O10  1  0.14670241  0.62500000  0.02170241  1
  O  O11  1  0.87500000  0.85329759  0.47829759  1
