# generated using pymatgen
data_La2MgCo2Sb2(PbO6)2
_symmetry_space_group_name_H-M   'P 1'
_cell_length_a   5.82043520
_cell_length_b   5.88190921
_cell_length_c   8.81982984
_cell_angle_alpha   89.74738112
_cell_angle_beta   84.16897717
_cell_angle_gamma   86.19482061
_symmetry_Int_Tables_number   1
_chemical_formula_structural   La2MgCo2Sb2(PbO6)2
_chemical_formula_sum   'La2 Mg1 Co2 Sb2 Pb2 O12'
_cell_volume   299.72389714
_cell_formula_units_Z   1
loop_
 _symmetry_equiv_pos_site_id
 _symmetry_equiv_pos_as_xyz
  1  'x, y, z'
loop_
 _atom_site_type_symbol
 _atom_site_label
 _atom_site_symmetry_multiplicity
 _atom_site_fract_x
 _atom_site_fract_y
 _atom_site_fract_z
 _atom_site_occupancy
  La  La0  1  0.54769500  0.44547800  0.75848100  1
  La  La1  1  0.00043200  0.07141500  0.27447200  1
  Mg  Mg2  1  0.21042100  0.04039900  0.91635400  1
  Co  Co3  1  0.96955500  0.50667500  0.46668400  1
  Co  Co4  1  0.65188500  0.01127500  0.03747500  1
  Sb  Sb5  1  0.01391400  0.52511900  0.00301800  1
  Sb  Sb6  1  0.46625600  0.01658000  0.49167100  1
  Pb  Pb7  1  0.47054800  0.54995400  0.24147200  1
  Pb  Pb8  1  0.93074400  0.90525400  0.68090100  1
  O  O9  1  0.60383700  0.96464900  0.27298500  1
  O  O10  1  0.16420700  0.58858600  0.79286000  1
  O  O11  1  0.38281000  0.07834100  0.71643900  1
  O  O12  1  0.89461500  0.46489500  0.22123500  1
  O  O13  1  0.19325000  0.82616400  0.45747700  1
  O  O14  1  0.71607600  0.69008400  0.95074400  1
  O  O15  1  0.74208300  0.20648700  0.51998000  1
  O  O16  1  0.30388700  0.31071200  0.02840500  1
  O  O17  1  0.26553100  0.28348400  0.42749400  1
  O  O18  1  0.88333800  0.22804100  0.93116100  1
  O  O19  1  0.65438300  0.72258300  0.55300600  1
  O  O20  1  0.16072100  0.80340800  0.07435200  1
