# generated using pymatgen
data_K2MgFe4P6(O4F3)4
_symmetry_space_group_name_H-M   'P 1'
_cell_length_a   7.43008289
_cell_length_b   7.97766556
_cell_length_c   10.67987818
_cell_angle_alpha   100.48071168
_cell_angle_beta   109.86194712
_cell_angle_gamma   91.90244224
_symmetry_Int_Tables_number   1
_chemical_formula_structural   K2MgFe4P6(O4F3)4
_chemical_formula_sum   'K2 Mg1 Fe4 P6 O16 F12'
_cell_volume   582.35888969
_cell_formula_units_Z   1
loop_
 _symmetry_equiv_pos_site_id
 _symmetry_equiv_pos_as_xyz
  1  'x, y, z'
loop_
 _atom_site_type_symbol
 _atom_site_label
 _atom_site_symmetry_multiplicity
 _atom_site_fract_x
 _atom_site_fract_y
 _atom_site_fract_z
 _atom_site_occupancy
  K  K0  1  0.75801047  0.07831122  0.77381207  1
  K  K1  1  0.19822312  0.00343114  0.20710284  1
  Mg  Mg2  1  0.41662122  0.59191423  0.20669014  1
  Fe  Fe3  1  0.66128555  0.29822376  0.33410573  1
  Fe  Fe4  1  0.32904424  0.68245371  0.66602389  1
  Fe  Fe5  1  0.51765372  0.48219949  0.97373304  1
  Fe  Fe6  1  0.00296522  0.00289002  0.50509272  1
  P  P7  1  0.62405811  0.73176259  0.48767252  1
  P  P8  1  0.34066257  0.29249649  0.50086924  1
  P  P9  1  0.30333156  0.07419888  0.81443320  1
  P  P10  1  0.69889066  0.90455811  0.19224867  1
  P  P11  1  0.07432863  0.60290597  0.86377100  1
  P  P12  1  0.94915532  0.40244768  0.15522718  1
  O  O13  1  0.64738435  0.57491494  0.39199678  1
  O  O14  1  0.25552033  0.44901487  0.55329044  1
  O  O15  1  0.77498810  0.88184480  0.53171736  1
  O  O16  1  0.22271352  0.12239084  0.48134574  1
  O  O17  1  0.57971794  0.04475009  0.22434184  1
  O  O18  1  0.41046349  0.92504826  0.77549983  1
  O  O19  1  0.43414376  0.23986685  0.86578782  1
  O  O20  1  0.58099816  0.72813555  0.13873633  1
  O  O21  1  0.89602849  0.90500355  0.30155179  1
  O  O22  1  0.10488389  0.08195935  0.70948178  1
  O  O23  1  0.90280193  0.33870845  0.26314307  1
  O  O24  1  0.11908899  0.65232106  0.74913351  1
  O  O25  1  0.81693759  0.47743605  0.04591531  1
  O  O26  1  0.22971586  0.57154443  0.98868426  1
  O  O27  1  0.39649466  0.29724657  0.37722185  1
  O  O28  1  0.55124511  0.70792622  0.59905913  1
  F  F29  1  0.84976209  0.19844327  0.48774022  1
  F  F30  1  0.14378756  0.78915450  0.52627233  1
  F  F31  1  0.48957302  0.37769140  0.14312156  1
  F  F32  1  0.50539359  0.60622252  0.82237534  1
  F  F33  1  0.75569855  0.94006635  0.06669922  1
  F  F34  1  0.24938198  0.03475481  0.94060339  1
  F  F35  1  0.92030142  0.44373169  0.80557782  1
  F  F36  1  0.14163292  0.53775143  0.22597515  1
  F  F37  1  0.53864121  0.28323248  0.62089477  1
  F  F38  1  0.43111461  0.79272826  0.36952305  1
  F  F39  1  0.04484433  0.25854449  0.08207343  1
  F  F40  1  0.95394112  0.74177360  0.91270463  1
