# generated using pymatgen
data_BaPdF4
_symmetry_space_group_name_H-M   'P 1'
_cell_length_a   6.20329719
_cell_length_b   6.20329739
_cell_length_c   6.99184901
_cell_angle_alpha   116.33438261
_cell_angle_beta   116.33440224
_cell_angle_gamma   90.00000506
_symmetry_Int_Tables_number   1
_chemical_formula_structural   BaPdF4
_chemical_formula_sum   'Ba2 Pd2 F8'
_cell_volume   209.51956412
_cell_formula_units_Z   2
loop_
 _symmetry_equiv_pos_site_id
 _symmetry_equiv_pos_as_xyz
  1  'x, y, z'
loop_
 _atom_site_type_symbol
 _atom_site_label
 _atom_site_symmetry_multiplicity
 _atom_site_fract_x
 _atom_site_fract_y
 _atom_site_fract_z
 _atom_site_occupancy
  Ba  Ba0  1  0.75000000  0.75000000  0.50000000  1
  Ba  Ba1  1  0.25000000  0.25000000  0.50000000  1
  Pd  Pd2  1  0.50000000  0.00000000  -0.00000000  1
  Pd  Pd3  1  -0.00000000  0.50000000  -0.00000000  1
  F  F4  1  0.96715217  0.46715217  0.25577882  1
  F  F5  1  0.71137435  0.21137435  0.74422118  1
  F  F6  1  0.03284783  0.53284783  0.74422118  1
  F  F7  1  0.21137435  0.03284783  0.74422118  1
  F  F8  1  0.28862565  0.78862565  0.25577882  1
  F  F9  1  0.46715217  0.28862565  0.25577882  1
  F  F10  1  0.78862565  0.96715217  0.25577882  1
  F  F11  1  0.53284783  0.71137435  0.74422118  1
