# generated using pymatgen
data_CoTe6O13
_symmetry_space_group_name_H-M   'P 1'
_cell_length_a   8.63025134
_cell_length_b   8.66128990
_cell_length_c   8.64036764
_cell_angle_alpha   71.80550584
_cell_angle_beta   71.99716742
_cell_angle_gamma   71.83814103
_symmetry_Int_Tables_number   1
_chemical_formula_structural   CoTe6O13
_chemical_formula_sum   'Co2 Te12 O26'
_cell_volume   566.73433544
_cell_formula_units_Z   2
loop_
 _symmetry_equiv_pos_site_id
 _symmetry_equiv_pos_as_xyz
  1  'x, y, z'
loop_
 _atom_site_type_symbol
 _atom_site_label
 _atom_site_symmetry_multiplicity
 _atom_site_fract_x
 _atom_site_fract_y
 _atom_site_fract_z
 _atom_site_occupancy
  Co  Co0  1  0.75746738  0.75434441  0.75741520  1
  Co  Co1  1  0.24591916  0.24251724  0.24245371  1
  Te  Te2  1  0.83391923  0.51326910  0.43711933  1
  Te  Te3  1  0.43825740  0.83292909  0.51382014  1
  Te  Te4  1  0.51504775  0.44056687  0.83311954  1
  Te  Te5  1  0.16713557  0.48505526  0.56051793  1
  Te  Te6  1  0.56166622  0.16513293  0.48670616  1
  Te  Te7  1  0.48628079  0.56181591  0.16786940  1
  Te  Te8  1  0.97168245  0.07951440  0.67472967  1
  Te  Te9  1  0.67506751  0.97326884  0.07984485  1
  Te  Te10  1  0.08018378  0.67465182  0.97270712  1
  Te  Te11  1  0.02708269  0.91943850  0.32577249  1
  Te  Te12  1  0.32537218  0.02739685  0.92066980  1
  Te  Te13  1  0.92024177  0.32432203  0.02785721  1
  O  O14  1  0.89652670  0.57683843  0.60228420  1
  O  O15  1  0.60323973  0.89605285  0.57804536  1
  O  O16  1  0.57984946  0.60529712  0.89497209  1
  O  O17  1  0.10462877  0.42138274  0.39512372  1
  O  O18  1  0.39622675  0.10461048  0.42034378  1
  O  O19  1  0.42356840  0.39788379  0.10323969  1
  O  O20  1  0.86335418  0.95428402  0.61997045  1
  O  O21  1  0.61656970  0.86850406  0.95456457  1
  O  O22  1  0.95409979  0.61914241  0.86514990  1
  O  O23  1  0.13259766  0.04452992  0.38348678  1
  O  O24  1  0.38018897  0.13591075  0.04615187  1
  O  O25  1  0.04637687  0.38050367  0.13443943  1
  O  O26  1  0.58628542  0.58740345  0.58616896  1
  O  O27  1  0.41368994  0.41357519  0.41291569  1
  O  O28  1  0.80365857  0.29941752  0.55083417  1
  O  O29  1  0.55065419  0.80454978  0.29925763  1
  O  O30  1  0.29943530  0.55195313  0.80427936  1
  O  O31  1  0.19574029  0.69990626  0.44913308  1
  O  O32  1  0.44805777  0.19548718  0.70066388  1
  O  O33  1  0.70144929  0.44923688  0.19637386  1
  O  O34  1  0.11301591  0.87390744  0.80162306  1
  O  O35  1  0.80127359  0.11367920  0.87467879  1
  O  O36  1  0.87422611  0.80087093  0.11304700  1
  O  O37  1  0.88598627  0.12527498  0.19872369  1
  O  O38  1  0.19894679  0.88705716  0.12678143  1
  O  O39  1  0.12502769  0.19851942  0.88714297  1
