# generated using pymatgen
data_Ba2CrO4
_symmetry_space_group_name_H-M   'P 1'
_cell_length_a   5.91945496
_cell_length_b   7.68182738
_cell_length_c   10.54556105
_cell_angle_alpha   89.99976610
_cell_angle_beta   89.99995128
_cell_angle_gamma   89.99996174
_symmetry_Int_Tables_number   1
_chemical_formula_structural   Ba2CrO4
_chemical_formula_sum   'Ba8 Cr4 O16'
_cell_volume   479.53019005
_cell_formula_units_Z   4
loop_
 _symmetry_equiv_pos_site_id
 _symmetry_equiv_pos_as_xyz
  1  'x, y, z'
loop_
 _atom_site_type_symbol
 _atom_site_label
 _atom_site_symmetry_multiplicity
 _atom_site_fract_x
 _atom_site_fract_y
 _atom_site_fract_z
 _atom_site_occupancy
  Ba  Ba0  1  0.25000435  0.99392264  0.69452472  1
  Ba  Ba1  1  0.75000277  0.50607936  0.19452633  1
  Ba  Ba2  1  0.25000220  0.49392114  0.80547366  1
  Ba  Ba3  1  0.75000288  0.00607750  0.30547525  1
  Ba  Ba4  1  0.25000061  0.64975810  0.42453102  1
  Ba  Ba5  1  0.75000084  0.35024148  0.57546895  1
  Ba  Ba6  1  0.24999998  0.14975675  0.07547125  1
  Ba  Ba7  1  0.75000016  0.85024400  0.92452920  1
  Cr  Cr8  1  0.25000114  0.71968004  0.07861681  1
  Cr  Cr9  1  0.75000182  0.28032052  0.92138379  1
  Cr  Cr10  1  0.25000212  0.21968093  0.42138008  1
  Cr  Cr11  1  0.75000179  0.78031868  0.57862019  1
  O  O12  1  0.99473688  0.19123905  0.85118121  1
  O  O13  1  0.49473901  0.80876192  0.14881932  1
  O  O14  1  0.50525482  0.69122421  0.64881822  1
  O  O15  1  0.00525286  0.30877387  0.35118080  1
  O  O16  1  0.00526302  0.80876597  0.14881847  1
  O  O17  1  0.50526475  0.19123531  0.85118210  1
  O  O18  1  0.49475083  0.30876871  0.35118072  1
  O  O19  1  0.99474989  0.69123275  0.64881861  1
  O  O20  1  0.25000335  0.81263184  0.92225232  1
  O  O21  1  0.75000240  0.18736929  0.07774623  1
  O  O22  1  0.25000183  0.31263168  0.57775551  1
  O  O23  1  0.75000302  0.68736907  0.42224494  1
  O  O24  1  0.74999049  0.00859002  0.58102416  1
  O  O25  1  0.24999321  0.99140807  0.41897695  1
  O  O26  1  0.24999487  0.49141773  0.08101547  1
  O  O27  1  0.74999510  0.50858037  0.91898472  1
