# generated using pymatgen
data_K3Pu(H3O4)2
_symmetry_space_group_name_H-M   'P 1'
_cell_length_a   8.29564622
_cell_length_b   7.66603812
_cell_length_c   7.78862085
_cell_angle_alpha   60.34560129
_cell_angle_beta   90.00000000
_cell_angle_gamma   90.00000000
_symmetry_Int_Tables_number   1
_chemical_formula_structural   K3Pu(H3O4)2
_chemical_formula_sum   'K6 Pu2 H12 O16'
_cell_volume   430.44167819
_cell_formula_units_Z   2
loop_
 _symmetry_equiv_pos_site_id
 _symmetry_equiv_pos_as_xyz
  1  'x, y, z'
loop_
 _atom_site_type_symbol
 _atom_site_label
 _atom_site_symmetry_multiplicity
 _atom_site_fract_x
 _atom_site_fract_y
 _atom_site_fract_z
 _atom_site_occupancy
  K  K0  1  0.00000000  0.50000000  0.50000000  1
  K  K1  1  0.50000000  -0.00000000  0.50000000  1
  K  K2  1  0.19468562  0.45481447  0.08621879  1
  K  K3  1  0.69468562  0.04518553  0.91378121  1
  K  K4  1  0.80531438  0.54518553  0.91378121  1
  K  K5  1  0.30531438  0.95481447  0.08621879  1
  Pu  Pu6  1  0.00000000  -0.00000000  0.50000000  1
  Pu  Pu7  1  0.50000000  0.50000000  0.50000000  1
  H  H8  1  0.21604102  0.14218524  0.68972427  1
  H  H9  1  0.71604102  0.35781476  0.31027573  1
  H  H10  1  0.78395898  0.85781476  0.31027573  1
  H  H11  1  0.28395898  0.64218524  0.68972427  1
  H  H12  1  0.03946803  0.18336051  0.86237939  1
  H  H13  1  0.53946803  0.31663949  0.13762061  1
  H  H14  1  0.96053197  0.81663949  0.13762061  1
  H  H15  1  0.46053197  0.68336051  0.86237939  1
  H  H16  1  0.96162342  0.12601582  0.07184739  1
  H  H17  1  0.46162342  0.37398418  0.92815261  1
  H  H18  1  0.03837658  0.87398418  0.92815261  1
  H  H19  1  0.53837658  0.62601582  0.07184739  1
  O  O20  1  0.10419458  0.09658082  0.72230415  1
  O  O21  1  0.60419458  0.40341918  0.27769585  1
  O  O22  1  0.89580542  0.90341918  0.27769585  1
  O  O23  1  0.39580542  0.59658082  0.72230415  1
  O  O24  1  0.19552488  0.05723604  0.36491848  1
  O  O25  1  0.69552488  0.44276396  0.63508152  1
  O  O26  1  0.80447512  0.94276396  0.63508152  1
  O  O27  1  0.30447512  0.55723604  0.36491848  1
  O  O28  1  0.93166882  0.26768733  0.32887356  1
  O  O29  1  0.43166882  0.23231267  0.67112644  1
  O  O30  1  0.06833118  0.73231267  0.67112644  1
  O  O31  1  0.56833118  0.76768733  0.32887356  1
  O  O32  1  0.00181330  0.23991158  0.94721732  1
  O  O33  1  0.50181330  0.26008842  0.05278268  1
  O  O34  1  0.99818670  0.76008842  0.05278268  1
  O  O35  1  0.49818670  0.73991158  0.94721732  1
