# generated using pymatgen
data_K2Ce(PO4)2
_symmetry_space_group_name_H-M   'P 1'
_cell_length_a   7.58280852
_cell_length_b   9.10283460
_cell_length_c   10.85885407
_cell_angle_alpha   90.00000000
_cell_angle_beta   90.00000000
_cell_angle_gamma   110.91740002
_symmetry_Int_Tables_number   1
_chemical_formula_structural   K2Ce(PO4)2
_chemical_formula_sum   'K8 Ce4 P8 O32'
_cell_volume   700.13581484
_cell_formula_units_Z   4
loop_
 _symmetry_equiv_pos_site_id
 _symmetry_equiv_pos_as_xyz
  1  'x, y, z'
loop_
 _atom_site_type_symbol
 _atom_site_label
 _atom_site_symmetry_multiplicity
 _atom_site_fract_x
 _atom_site_fract_y
 _atom_site_fract_z
 _atom_site_occupancy
  K  K0  1  0.89794233  0.04606590  0.62727571  1
  K  K1  1  0.39794233  0.54606590  0.87272429  1
  K  K2  1  0.10205767  0.95393410  0.37272429  1
  K  K3  1  0.60205767  0.45393410  0.12727571  1
  K  K4  1  0.12235904  0.45577827  0.61541399  1
  K  K5  1  0.62235904  0.95577827  0.88458601  1
  K  K6  1  0.87764096  0.54422173  0.38458601  1
  K  K7  1  0.37764096  0.04422173  0.11541399  1
  Ce  Ce8  1  0.47639863  0.22035730  0.63918860  1
  Ce  Ce9  1  0.97639863  0.72035730  0.86081140  1
  Ce  Ce10  1  0.52360137  0.77964270  0.36081140  1
  Ce  Ce11  1  0.02360137  0.27964270  0.13918860  1
  P  P12  1  0.71084875  0.64628763  0.63830939  1
  P  P13  1  0.21084875  0.14628763  0.86169061  1
  P  P14  1  0.28915125  0.35371237  0.36169061  1
  P  P15  1  0.78915125  0.85371237  0.13830939  1
  P  P16  1  0.67358064  0.13727622  0.36939655  1
  P  P17  1  0.17358064  0.63727622  0.13060345  1
  P  P18  1  0.32641936  0.86272378  0.63060345  1
  P  P19  1  0.82641936  0.36272378  0.86939655  1
  O  O20  1  0.71075011  0.74595282  0.75336283  1
  O  O21  1  0.21075011  0.24595282  0.74663717  1
  O  O22  1  0.28924989  0.25404718  0.24663717  1
  O  O23  1  0.78924989  0.75404718  0.25336283  1
  O  O24  1  0.54274685  0.48965797  0.64257598  1
  O  O25  1  0.04274685  0.98965797  0.85742402  1
  O  O26  1  0.45725315  0.51034203  0.35742402  1
  O  O27  1  0.95725315  0.01034203  0.14257598  1
  O  O28  1  0.70750469  0.73736344  0.52043704  1
  O  O29  1  0.20750469  0.23736344  0.97956296  1
  O  O30  1  0.29249531  0.26263656  0.47956296  1
  O  O31  1  0.79249531  0.76263656  0.02043704  1
  O  O32  1  0.89854690  0.61902370  0.64806579  1
  O  O33  1  0.39854690  0.11902370  0.85193421  1
  O  O34  1  0.10145310  0.38097630  0.35193421  1
  O  O35  1  0.60145310  0.88097630  0.14806579  1
  O  O36  1  0.46898272  0.02114218  0.35677543  1
  O  O37  1  0.96898272  0.52114218  0.14322457  1
  O  O38  1  0.53101728  0.97885782  0.64322457  1
  O  O39  1  0.03101728  0.47885782  0.85677543  1
  O  O40  1  0.73815463  0.23174011  0.25022137  1
  O  O41  1  0.23815463  0.73174011  0.24977863  1
  O  O42  1  0.26184537  0.76825989  0.74977863  1
  O  O43  1  0.76184537  0.26825989  0.75022137  1
  O  O44  1  0.68880358  0.24993308  0.47826394  1
  O  O45  1  0.18880358  0.74993308  0.02173606  1
  O  O46  1  0.31119642  0.75006692  0.52173606  1
  O  O47  1  0.81119642  0.25006692  0.97826394  1
  O  O48  1  0.78497457  0.02847987  0.39373730  1
  O  O49  1  0.28497457  0.52847987  0.10626270  1
  O  O50  1  0.21502543  0.97152013  0.60626270  1
  O  O51  1  0.71502543  0.47152013  0.89373730  1
