# generated using pymatgen
data_K2Gd2Mg(MoO4)4
_symmetry_space_group_name_H-M   'P 1'
_cell_length_a   8.00919733
_cell_length_b   7.51324737
_cell_length_c   8.05336807
_cell_angle_alpha   112.95585158
_cell_angle_beta   124.25023915
_cell_angle_gamma   93.05218325
_symmetry_Int_Tables_number   1
_chemical_formula_structural   K2Gd2Mg(MoO4)4
_chemical_formula_sum   'K2 Gd2 Mg1 Mo4 O16'
_cell_volume   344.35401420
_cell_formula_units_Z   1
loop_
 _symmetry_equiv_pos_site_id
 _symmetry_equiv_pos_as_xyz
  1  'x, y, z'
loop_
 _atom_site_type_symbol
 _atom_site_label
 _atom_site_symmetry_multiplicity
 _atom_site_fract_x
 _atom_site_fract_y
 _atom_site_fract_z
 _atom_site_occupancy
  K  K0  1  0.44776722  0.26706931  0.32300485  1
  K  K1  1  0.57939645  0.76715721  0.72053647  1
  Gd  Gd2  1  0.03560633  0.75070199  0.24454948  1
  Gd  Gd3  1  0.97543404  0.25022663  0.77116853  1
  Mg  Mg4  1  0.36085167  0.01105159  0.88374817  1
  Mo  Mo5  1  0.98359615  0.29659262  0.29740514  1
  Mo  Mo6  1  0.99538461  0.68411871  0.69282156  1
  Mo  Mo7  1  0.52112436  0.71267875  0.20150609  1
  Mo  Mo8  1  0.48844619  0.30842506  0.79931431  1
  O  O9  1  0.65694526  0.21283460  0.04859150  1
  O  O10  1  0.33951449  0.78248865  0.95134718  1
  O  O11  1  0.68844086  0.63083006  0.43569676  1
  O  O12  1  0.29195909  0.37767076  0.55226245  1
  O  O13  1  0.72844093  0.96602564  0.39523641  1
  O  O14  1  0.27399700  0.02608021  0.61014084  1
  O  O15  1  0.03744359  0.37671552  0.13477034  1
  O  O16  1  0.94338960  0.62069796  0.86323692  1
  O  O17  1  0.05756103  0.63559725  0.47877836  1
  O  O18  1  0.92893804  0.35435232  0.51725705  1
  O  O19  1  0.66897410  0.61490444  0.05081200  1
  O  O20  1  0.33805028  0.39258089  0.95376251  1
  O  O21  1  0.95334206  0.02721380  0.17901129  1
  O  O22  1  0.07882499  0.98705169  0.82813944  1
  O  O23  1  0.34457728  0.74201300  0.27696472  1
  O  O24  1  0.64806539  0.24956432  0.70660464  1
