# generated using pymatgen
data_KMg30BO31
_symmetry_space_group_name_H-M   'P 1'
_cell_length_a   8.66459224
_cell_length_b   8.74287666
_cell_length_c   8.35766040
_cell_angle_alpha   90.00000000
_cell_angle_beta   90.00000000
_cell_angle_gamma   90.00000000
_symmetry_Int_Tables_number   1
_chemical_formula_structural   KMg30BO31
_chemical_formula_sum   'K1 Mg30 B1 O31'
_cell_volume   633.12170336
_cell_formula_units_Z   1
loop_
 _symmetry_equiv_pos_site_id
 _symmetry_equiv_pos_as_xyz
  1  'x, y, z'
loop_
 _atom_site_type_symbol
 _atom_site_label
 _atom_site_symmetry_multiplicity
 _atom_site_fract_x
 _atom_site_fract_y
 _atom_site_fract_z
 _atom_site_occupancy
  K  K0  1  0.99549568  0.00000000  0.00000000  1
  Mg  Mg1  1  0.99753134  0.50000000  0.00000000  1
  Mg  Mg2  1  0.99469868  0.50000000  0.50000000  1
  Mg  Mg3  1  0.49630737  0.00000000  0.00000000  1
  Mg  Mg4  1  0.49919054  0.00000000  0.50000000  1
  Mg  Mg5  1  0.49979837  0.50000000  0.00000000  1
  Mg  Mg6  1  0.50199216  0.50000000  0.50000000  1
  Mg  Mg7  1  0.00010185  0.26110990  0.25693798  1
  Mg  Mg8  1  0.00010185  0.26110990  0.74306202  1
  Mg  Mg9  1  0.00010185  0.73889010  0.25693798  1
  Mg  Mg10  1  0.00010185  0.73889010  0.74306202  1
  Mg  Mg11  1  0.49783753  0.25104368  0.25085866  1
  Mg  Mg12  1  0.49783753  0.25104368  0.74914134  1
  Mg  Mg13  1  0.49783753  0.74895632  0.25085866  1
  Mg  Mg14  1  0.49783753  0.74895632  0.74914134  1
  Mg  Mg15  1  0.25447441  0.00000000  0.25021552  1
  Mg  Mg16  1  0.25447441  0.00000000  0.74978448  1
  Mg  Mg17  1  0.25023535  0.50000000  0.24825546  1
  Mg  Mg18  1  0.25023535  0.50000000  0.75174454  1
  Mg  Mg19  1  0.73584981  0.00000000  0.25826204  1
  Mg  Mg20  1  0.73584981  0.00000000  0.74173796  1
  Mg  Mg21  1  0.74830648  0.50000000  0.25093533  1
  Mg  Mg22  1  0.74830648  0.50000000  0.74906467  1
  Mg  Mg23  1  0.24966918  0.25269309  0.00000000  1
  Mg  Mg24  1  0.24582614  0.26274475  0.50000000  1
  Mg  Mg25  1  0.24966918  0.74730691  0.00000000  1
  Mg  Mg26  1  0.24582614  0.73725525  0.50000000  1
  Mg  Mg27  1  0.74742192  0.25058925  0.00000000  1
  Mg  Mg28  1  0.75640357  0.24114866  0.50000000  1
  Mg  Mg29  1  0.74742192  0.74941075  0.00000000  1
  Mg  Mg30  1  0.75640357  0.75885134  0.50000000  1
  B  B31  1  0.07648534  0.00000000  0.50000000  1
  O  O32  1  0.26724583  0.00000000  0.00000000  1
  O  O33  1  0.25397099  0.50000000  0.00000000  1
  O  O34  1  0.25450565  0.50000000  0.50000000  1
  O  O35  1  0.72454845  0.00000000  0.00000000  1
  O  O36  1  0.72642057  0.00000000  0.50000000  1
  O  O37  1  0.74442480  0.50000000  0.00000000  1
  O  O38  1  0.74484262  0.50000000  0.50000000  1
  O  O39  1  0.24740370  0.24853416  0.25030707  1
  O  O40  1  0.24740370  0.24853416  0.74969293  1
  O  O41  1  0.24740370  0.75146584  0.25030707  1
  O  O42  1  0.24740370  0.75146584  0.74969293  1
  O  O43  1  0.75233085  0.24432378  0.25011991  1
  O  O44  1  0.75233085  0.24432378  0.74988009  1
  O  O45  1  0.75233085  0.75567622  0.25011991  1
  O  O46  1  0.75233085  0.75567622  0.74988009  1
  O  O47  1  0.01919238  0.00000000  0.33907588  1
  O  O48  1  0.01919238  0.00000000  0.66092412  1
  O  O49  1  0.99866481  0.50000000  0.25006652  1
  O  O50  1  0.99866481  0.50000000  0.74993348  1
  O  O51  1  0.49162033  0.00000000  0.25464188  1
  O  O52  1  0.49162033  0.00000000  0.74535812  1
  O  O53  1  0.49998349  0.50000000  0.25070951  1
  O  O54  1  0.49998349  0.50000000  0.74929049  1
  O  O55  1  -0.00026969  0.27051541  0.00000000  1
  O  O56  1  0.00135840  0.27267339  0.50000000  1
  O  O57  1  -0.00026969  0.72948459  0.00000000  1
  O  O58  1  0.00135840  0.72732661  0.50000000  1
  O  O59  1  0.49841314  0.25367185  0.00000000  1
  O  O60  1  0.49377320  0.24987887  0.50000000  1
  O  O61  1  0.49841314  0.74632815  0.00000000  1
  O  O62  1  0.49377320  0.75012113  0.50000000  1
