# generated using pymatgen
data_NaMg14SbO16
_symmetry_space_group_name_H-M   'P 1'
_cell_length_a   8.66111741
_cell_length_b   8.71384232
_cell_length_c   4.35847579
_cell_angle_alpha   90.00000000
_cell_angle_beta   90.00000000
_cell_angle_gamma   90.00000000
_symmetry_Int_Tables_number   1
_chemical_formula_structural   NaMg14SbO16
_chemical_formula_sum   'Na1 Mg14 Sb1 O16'
_cell_volume   328.94119123
_cell_formula_units_Z   1
loop_
 _symmetry_equiv_pos_site_id
 _symmetry_equiv_pos_as_xyz
  1  'x, y, z'
loop_
 _atom_site_type_symbol
 _atom_site_label
 _atom_site_symmetry_multiplicity
 _atom_site_fract_x
 _atom_site_fract_y
 _atom_site_fract_z
 _atom_site_occupancy
  Na  Na0  1  -0.00000000  0.00000000  0.00000000  1
  Mg  Mg1  1  0.50000000  0.00000000  0.00000000  1
  Mg  Mg2  1  0.50000000  0.50000000  0.00000000  1
  Mg  Mg3  1  -0.00000000  0.23270156  0.50000000  1
  Mg  Mg4  1  -0.00000000  0.76729844  0.50000000  1
  Mg  Mg5  1  0.50000000  0.24665175  0.50000000  1
  Mg  Mg6  1  0.50000000  0.75334825  0.50000000  1
  Mg  Mg7  1  0.24815377  0.00000000  0.50000000  1
  Mg  Mg8  1  0.26132635  0.50000000  0.50000000  1
  Mg  Mg9  1  0.75184623  0.00000000  0.50000000  1
  Mg  Mg10  1  0.73867365  0.50000000  0.50000000  1
  Mg  Mg11  1  0.25478037  0.24008198  0.00000000  1
  Mg  Mg12  1  0.25478037  0.75991802  0.00000000  1
  Mg  Mg13  1  0.74521963  0.24008198  -0.00000000  1
  Mg  Mg14  1  0.74521963  0.75991802  0.00000000  1
  Sb  Sb15  1  -0.00000000  0.50000000  0.00000000  1
  O  O16  1  0.26612728  0.00000000  0.00000000  1
  O  O17  1  0.26449891  0.50000000  -0.00000000  1
  O  O18  1  0.73387272  0.00000000  -0.00000000  1
  O  O19  1  0.73550109  0.50000000  0.00000000  1
  O  O20  1  0.24875999  0.25238148  0.50000000  1
  O  O21  1  0.24875999  0.74761852  0.50000000  1
  O  O22  1  0.75124001  0.25238148  0.50000000  1
  O  O23  1  0.75124001  0.74761852  0.50000000  1
  O  O24  1  -0.00000000  0.00000000  0.50000000  1
  O  O25  1  -0.00000000  0.50000000  0.50000000  1
  O  O26  1  0.50000000  0.00000000  0.50000000  1
  O  O27  1  0.50000000  0.50000000  0.50000000  1
  O  O28  1  -0.00000000  0.24838731  0.00000000  1
  O  O29  1  -0.00000000  0.75161269  0.00000000  1
  O  O30  1  0.50000000  0.25208214  -0.00000000  1
  O  O31  1  0.50000000  0.74791786  0.00000000  1
