# generated using pymatgen
data_CsZn2B3O7
_symmetry_space_group_name_H-M   'P 1'
_cell_length_a   10.52196517
_cell_length_b   10.52196517
_cell_length_c   14.59351609
_cell_angle_alpha   90.00000000
_cell_angle_beta   90.00000000
_cell_angle_gamma   132.69345204
_symmetry_Int_Tables_number   1
_chemical_formula_structural   CsZn2B3O7
_chemical_formula_sum   'Cs6 Zn12 B18 O42'
_cell_volume   1187.50740988
_cell_formula_units_Z   6
loop_
 _symmetry_equiv_pos_site_id
 _symmetry_equiv_pos_as_xyz
  1  'x, y, z'
loop_
 _atom_site_type_symbol
 _atom_site_label
 _atom_site_symmetry_multiplicity
 _atom_site_fract_x
 _atom_site_fract_y
 _atom_site_fract_z
 _atom_site_occupancy
  Cs  Cs0  1  0.39089826  0.60910174  0.79869568  1
  Cs  Cs1  1  0.60910174  0.39089826  0.29869568  1
  Cs  Cs2  1  0.38814288  0.61185712  0.15602480  1
  Cs  Cs3  1  0.61185712  0.38814288  0.65602480  1
  Cs  Cs4  1  0.99704820  0.00295180  0.22948415  1
  Cs  Cs5  1  0.00295180  0.99704820  0.72948415  1
  Zn  Zn6  1  0.62305686  0.00469133  0.98441624  1
  Zn  Zn7  1  0.99530867  0.37694314  0.98441624  1
  Zn  Zn8  1  0.37694314  0.99530867  0.48441624  1
  Zn  Zn9  1  0.00469133  0.62305686  0.48441624  1
  Zn  Zn10  1  0.40083623  0.98106833  0.82358979  1
  Zn  Zn11  1  0.01893167  0.59916377  0.82358979  1
  Zn  Zn12  1  0.59916377  0.01893167  0.32358979  1
  Zn  Zn13  1  0.98106833  0.40083623  0.32358979  1
  Zn  Zn14  1  0.01731946  0.60519695  0.14575286  1
  Zn  Zn15  1  0.39480305  0.98268054  0.14575286  1
  Zn  Zn16  1  0.98268054  0.39480305  0.64575286  1
  Zn  Zn17  1  0.60519695  0.01731946  0.64575286  1
  B  B18  1  0.24711747  0.75288253  0.98436580  1
  B  B19  1  0.75288253  0.24711747  0.48436580  1
  B  B20  1  0.70278549  0.76896795  0.97812765  1
  B  B21  1  0.23103205  0.29721451  0.97812765  1
  B  B22  1  0.29721451  0.23103205  0.47812765  1
  B  B23  1  0.76896795  0.70278549  0.47812765  1
  B  B24  1  0.82596359  0.67265057  0.06416734  1
  B  B25  1  0.32734943  0.17403641  0.06416734  1
  B  B26  1  0.17403641  0.32734943  0.56416734  1
  B  B27  1  0.67265057  0.82596359  0.56416734  1
  B  B28  1  0.22489967  0.77510033  0.65064331  1
  B  B29  1  0.77510033  0.22489967  0.15064331  1
  B  B30  1  0.82367781  0.66649477  0.89643628  1
  B  B31  1  0.33350523  0.17632219  0.89643628  1
  B  B32  1  0.17632219  0.33350523  0.39643628  1
  B  B33  1  0.66649477  0.82367781  0.39643628  1
  B  B34  1  0.22463445  0.77536555  0.31446859  1
  B  B35  1  0.77536555  0.22463445  0.81446859  1
  O  O36  1  0.87275306  0.65459084  0.14443755  1
  O  O37  1  0.34540916  0.12724694  0.14443755  1
  O  O38  1  0.12724694  0.34540916  0.64443755  1
  O  O39  1  0.65459084  0.87275306  0.64443755  1
  O  O40  1  0.74694573  0.73905332  0.06109393  1
  O  O41  1  0.26094668  0.25305427  0.06109393  1
  O  O42  1  0.25305427  0.26094668  0.56109393  1
  O  O43  1  0.73905332  0.74694573  0.56109393  1
  O  O44  1  0.61979321  0.82195761  0.97642181  1
  O  O45  1  0.17804239  0.38020679  0.97642181  1
  O  O46  1  0.38020679  0.17804239  0.47642181  1
  O  O47  1  0.82195761  0.61979321  0.47642181  1
  O  O48  1  0.22773430  0.77226570  0.22013178  1
  O  O49  1  0.77226570  0.22773430  0.72013178  1
  O  O50  1  0.08104616  0.63361960  0.35983340  1
  O  O51  1  0.36638040  0.91895384  0.35983340  1
  O  O52  1  0.91895384  0.36638040  0.85983340  1
  O  O53  1  0.63361960  0.08104616  0.85983340  1
  O  O54  1  0.39307391  0.88742137  0.03090962  1
  O  O55  1  0.11257863  0.60692609  0.03090962  1
  O  O56  1  0.60692609  0.11257863  0.53090962  1
  O  O57  1  0.88742137  0.39307391  0.53090962  1
  O  O58  1  0.23852113  0.76147887  0.89049978  1
  O  O59  1  0.76147887  0.23852113  0.39049978  1
  O  O60  1  0.74396923  0.73215804  0.89665634  1
  O  O61  1  0.26784196  0.25603077  0.89665634  1
  O  O62  1  0.25603077  0.26784196  0.39665634  1
  O  O63  1  0.73215804  0.74396923  0.39665634  1
  O  O64  1  0.37694977  0.90564747  0.69539735  1
  O  O65  1  0.09435253  0.62305023  0.69539735  1
  O  O66  1  0.62305023  0.09435253  0.19539635  1
  O  O67  1  0.90564747  0.37694977  0.19539635  1
  O  O68  1  0.20384726  0.79615274  0.56040836  1
  O  O69  1  0.79615274  0.20384726  0.06040836  1
  O  O70  1  0.85595010  0.63221062  0.98104303  1
  O  O71  1  0.36778938  0.14404990  0.98104303  1
  O  O72  1  0.14404990  0.36778938  0.48104303  1
  O  O73  1  0.63221062  0.85595010  0.48104303  1
  O  O74  1  0.87034825  0.64392583  0.81773469  1
  O  O75  1  0.35607417  0.12965175  0.81773469  1
  O  O76  1  0.12965175  0.35607417  0.31773469  1
  O  O77  1  0.64392583  0.87034825  0.31773469  1
