# generated using pymatgen
data_IF7
_symmetry_space_group_name_H-M   'P 1'
_cell_length_a   5.23697381
_cell_length_b   5.23697418
_cell_length_c   8.90707743
_cell_angle_alpha   90.00000000
_cell_angle_beta   90.00000000
_cell_angle_gamma   109.74252257
_symmetry_Int_Tables_number   1
_chemical_formula_structural   IF7
_chemical_formula_sum   'I2 F14'
_cell_volume   229.92556302
_cell_formula_units_Z   2
loop_
 _symmetry_equiv_pos_site_id
 _symmetry_equiv_pos_as_xyz
  1  'x, y, z'
loop_
 _atom_site_type_symbol
 _atom_site_label
 _atom_site_symmetry_multiplicity
 _atom_site_fract_x
 _atom_site_fract_y
 _atom_site_fract_z
 _atom_site_occupancy
  I  I0  1  0.63323671  0.63323671  -0.00000000  1
  I  I1  1  0.13323671  0.13323671  0.50000000  1
  F  F2  1  0.90054028  0.54928856  0.89123076  1
  F  F3  1  0.79973006  0.96468593  0.40403313  1
  F  F4  1  0.29973006  0.46468593  0.09596687  1
  F  F5  1  0.26847006  0.01235414  0.33736286  1
  F  F6  1  0.01235414  0.26847006  0.66263714  1
  F  F7  1  0.51235414  0.76847006  0.83736286  1
  F  F8  1  0.76847006  0.51235414  0.16263714  1
  F  F9  1  0.04928856  0.40054028  0.39123076  1
  F  F10  1  0.94349325  0.94349325  -0.00000000  1
  F  F11  1  0.46468693  0.29973006  0.90403313  1
  F  F12  1  0.44349325  0.44349325  0.50000000  1
  F  F13  1  0.40054028  0.04928856  0.60876924  1
  F  F14  1  0.54928856  0.90054028  0.10876924  1
  F  F15  1  0.96468693  0.79973006  0.59596687  1
