# generated using pymatgen
data_Ca2P3Pb3ClO12
_symmetry_space_group_name_H-M   'P 1'
_cell_length_a   9.84927511
_cell_length_b   9.84927511
_cell_length_c   7.08216976
_cell_angle_alpha   90.00000000
_cell_angle_beta   90.00000000
_cell_angle_gamma   119.99999427
_symmetry_Int_Tables_number   1
_chemical_formula_structural   Ca2P3Pb3ClO12
_chemical_formula_sum   'Ca4 P6 Pb6 Cl2 O24'
_cell_volume   594.98432703
_cell_formula_units_Z   2
loop_
 _symmetry_equiv_pos_site_id
 _symmetry_equiv_pos_as_xyz
  1  'x, y, z'
loop_
 _atom_site_type_symbol
 _atom_site_label
 _atom_site_symmetry_multiplicity
 _atom_site_fract_x
 _atom_site_fract_y
 _atom_site_fract_z
 _atom_site_occupancy
  Ca  Ca0  1  0.33333300  0.66666700  0.49425612  1
  Ca  Ca1  1  0.66666700  0.33333300  0.50574388  1
  Ca  Ca2  1  0.66666700  0.33333300  0.99425612  1
  Ca  Ca3  1  0.33333300  0.66666700  0.00574388  1
  P  P4  1  0.03449988  0.42199882  0.75000000  1
  P  P5  1  0.96550012  0.57800118  0.25000000  1
  P  P6  1  0.57800118  0.61250206  0.75000000  1
  P  P7  1  0.42199882  0.38749794  0.25000000  1
  P  P8  1  0.38749794  0.96550012  0.75000000  1
  P  P9  1  0.61250206  0.03449988  0.25000000  1
  Pb  Pb10  1  0.24697928  0.25786905  0.75000000  1
  Pb  Pb11  1  0.75302072  0.74213095  0.25000000  1
  Pb  Pb12  1  0.74213095  0.98911023  0.75000000  1
  Pb  Pb13  1  0.25786905  0.01088977  0.25000000  1
  Pb  Pb14  1  0.01088977  0.75302072  0.75000000  1
  Pb  Pb15  1  0.98911023  0.24697928  0.25000000  1
  Cl  Cl16  1  -0.00000000  -0.00000000  0.50000000  1
  Cl  Cl17  1  -0.00000000  -0.00000000  0.00000000  1
  O  O18  1  0.13866599  0.60428597  0.75000000  1
  O  O19  1  0.86133401  0.39571403  0.25000000  1
  O  O20  1  0.39571403  0.53438102  0.75000000  1
  O  O21  1  0.60428597  0.46561898  0.25000000  1
  O  O22  1  0.46561898  0.86133401  0.75000000  1
  O  O23  1  0.53438102  0.13866599  0.25000000  1
  O  O24  1  0.51189752  0.13986951  0.75000000  1
  O  O25  1  0.48810248  0.86013049  0.25000000  1
  O  O26  1  0.86013049  0.37202801  0.75000000  1
  O  O27  1  0.13986951  0.62797199  0.25000000  1
  O  O28  1  0.62797199  0.48810248  0.75000000  1
  O  O29  1  0.37202801  0.51189752  0.25000000  1
  O  O30  1  0.08457828  0.36558891  0.57448434  1
  O  O31  1  0.91542172  0.63441109  0.42551566  1
  O  O32  1  0.63441109  0.71898938  0.57448434  1
  O  O33  1  0.91542172  0.63441109  0.07448434  1
  O  O34  1  0.36558891  0.28101062  0.42551566  1
  O  O35  1  0.08457828  0.36558891  0.92551566  1
  O  O36  1  0.28101062  0.91542172  0.57448434  1
  O  O37  1  0.36558891  0.28101062  0.07448434  1
  O  O38  1  0.71898938  0.08457828  0.42551566  1
  O  O39  1  0.63441109  0.71898938  0.92551566  1
  O  O40  1  0.71898938  0.08457828  0.07448434  1
  O  O41  1  0.28101062  0.91542172  0.92551566  1
