# generated using pymatgen
data_PrBrCl2
_symmetry_space_group_name_H-M   'P 1'
_cell_length_a   4.34737654
_cell_length_b   7.57415756
_cell_length_c   7.67586432
_cell_angle_alpha   61.26409406
_cell_angle_beta   90.00000000
_cell_angle_gamma   90.00000000
_symmetry_Int_Tables_number   1
_chemical_formula_structural   PrBrCl2
_chemical_formula_sum   'Pr2 Br2 Cl4'
_cell_volume   221.62142091
_cell_formula_units_Z   2
loop_
 _symmetry_equiv_pos_site_id
 _symmetry_equiv_pos_as_xyz
  1  'x, y, z'
loop_
 _atom_site_type_symbol
 _atom_site_label
 _atom_site_symmetry_multiplicity
 _atom_site_fract_x
 _atom_site_fract_y
 _atom_site_fract_z
 _atom_site_occupancy
  Pr  Pr0  1  0.00000000  0.33908393  0.32820447  1
  Pr  Pr1  1  0.50000000  0.66895137  0.66083364  1
  Br  Br2  1  -0.00000000  0.36676205  0.91306359  1
  Br  Br3  1  0.00000000  0.92019790  0.71503477  1
  Cl  Cl4  1  0.00000000  0.70010060  0.39135610  1
  Cl  Cl5  1  0.50000000  0.60045393  0.08805307  1
  Cl  Cl6  1  0.50000000  0.08242788  0.31494609  1
  Cl  Cl7  1  0.50000000  0.32202434  0.58850627  1
