# generated using pymatgen
data_Ba3WN4
_symmetry_space_group_name_H-M   'P 1'
_cell_length_a   10.49033680
_cell_length_b   10.95657348
_cell_length_c   12.27183546
_cell_angle_alpha   90.00000000
_cell_angle_beta   90.00000000
_cell_angle_gamma   90.00000000
_symmetry_Int_Tables_number   1
_chemical_formula_structural   Ba3WN4
_chemical_formula_sum   'Ba24 W8 N32'
_cell_volume   1410.50201553
_cell_formula_units_Z   8
loop_
 _symmetry_equiv_pos_site_id
 _symmetry_equiv_pos_as_xyz
  1  'x, y, z'
loop_
 _atom_site_type_symbol
 _atom_site_label
 _atom_site_symmetry_multiplicity
 _atom_site_fract_x
 _atom_site_fract_y
 _atom_site_fract_z
 _atom_site_occupancy
  Ba  Ba0  1  0.87598599  0.97002586  0.14348171  1
  Ba  Ba1  1  0.37598599  0.02997414  0.35651829  1
  Ba  Ba2  1  0.62401401  0.47002586  0.85651829  1
  Ba  Ba3  1  0.12401401  0.52997414  0.64348171  1
  Ba  Ba4  1  0.12401401  0.02997414  0.85651829  1
  Ba  Ba5  1  0.62401401  0.97002586  0.64348171  1
  Ba  Ba6  1  0.37598599  0.52997414  0.14348171  1
  Ba  Ba7  1  0.87598599  0.47002586  0.35651829  1
  Ba  Ba8  1  0.70021495  0.27702007  0.11933971  1
  Ba  Ba9  1  0.20021495  0.72297993  0.38066029  1
  Ba  Ba10  1  0.79978505  0.77702007  0.88066029  1
  Ba  Ba11  1  0.29978505  0.22297993  0.61933971  1
  Ba  Ba12  1  0.29978505  0.72297993  0.88066029  1
  Ba  Ba13  1  0.79978505  0.27702007  0.61933971  1
  Ba  Ba14  1  0.20021495  0.22297993  0.11933971  1
  Ba  Ba15  1  0.70021495  0.77702007  0.38066029  1
  Ba  Ba16  1  0.53229901  0.87482336  0.10555570  1
  Ba  Ba17  1  0.03229901  0.62517664  0.10555570  1
  Ba  Ba18  1  0.96770099  0.87482336  0.60555570  1
  Ba  Ba19  1  0.46770099  0.12517664  0.89444430  1
  Ba  Ba20  1  0.46770099  0.62517664  0.60555570  1
  Ba  Ba21  1  0.96770099  0.37482336  0.89444430  1
  Ba  Ba22  1  0.03229901  0.12517664  0.39444430  1
  Ba  Ba23  1  0.53229901  0.37482336  0.39444430  1
  W  W24  1  0.69954873  0.59559599  0.11390538  1
  W  W25  1  0.19954873  0.40440401  0.38609462  1
  W  W26  1  0.80045127  0.09559599  0.88609462  1
  W  W27  1  0.30045127  0.90440401  0.61390538  1
  W  W28  1  0.30045127  0.40440401  0.88609462  1
  W  W29  1  0.80045127  0.59559599  0.61390538  1
  W  W30  1  0.19954873  0.90440401  0.11390538  1
  W  W31  1  0.69954873  0.09559599  0.38609462  1
  N  N32  1  0.79046465  0.22650053  0.32297018  1
  N  N33  1  0.29046465  0.77349947  0.17702982  1
  N  N34  1  0.70953535  0.72650053  0.67702982  1
  N  N35  1  0.20953535  0.27349947  0.82297018  1
  N  N36  1  0.20953535  0.77349947  0.67702982  1
  N  N37  1  0.70953535  0.22650053  0.82297018  1
  N  N38  1  0.29046465  0.27349947  0.32297018  1
  N  N39  1  0.79046465  0.72650053  0.17702982  1
  N  N40  1  0.81197072  0.49352701  0.03694455  1
  N  N41  1  0.31197072  0.50647299  0.46305545  1
  N  N42  1  0.68802928  0.99352701  0.96305545  1
  N  N43  1  0.18802928  0.00647299  0.53694455  1
  N  N44  1  0.18802928  0.50647299  0.96305545  1
  N  N45  1  0.68802928  0.49352701  0.53694455  1
  N  N46  1  0.31197072  0.00647299  0.03694455  1
  N  N47  1  0.62208051  0.99716018  0.28067011  1
  N  N48  1  0.57506819  0.15249396  0.48435807  1
  N  N49  1  0.07506819  0.84750604  0.01564193  1
  N  N50  1  0.92493181  0.65249396  0.51564193  1
  N  N51  1  0.42493181  0.34750604  0.98435807  1
  N  N52  1  0.42493181  0.84750604  0.51564193  1
  N  N53  1  0.92493181  0.15249396  0.98435807  1
  N  N54  1  0.07506819  0.34750604  0.48435807  1
  N  N55  1  0.57506819  0.65249396  0.01564193  1
  N  N56  1  0.62208051  0.49716018  0.21932989  1
  N  N57  1  0.12208051  0.50283982  0.28067011  1
  N  N58  1  0.87791949  0.99716018  0.78067011  1
  N  N59  1  0.37791949  0.00283982  0.71932989  1
  N  N60  1  0.37791949  0.50283982  0.78067011  1
  N  N61  1  0.87791949  0.49716018  0.71932989  1
  N  N62  1  0.12208051  0.00283982  0.21932989  1
  N  N63  1  0.81197072  0.99352701  0.46305545  1
