# generated using pymatgen
data_Ba4GeAs4
_symmetry_space_group_name_H-M   'P 1'
_cell_length_a   13.51874360
_cell_length_b   13.51874360
_cell_length_c   13.51874360
_cell_angle_alpha   90.00000000
_cell_angle_beta   90.00000000
_cell_angle_gamma   90.00000000
_symmetry_Int_Tables_number   1
_chemical_formula_structural   Ba4GeAs4
_chemical_formula_sum   'Ba32 Ge8 As32'
_cell_volume   2470.63729845
_cell_formula_units_Z   8
loop_
 _symmetry_equiv_pos_site_id
 _symmetry_equiv_pos_as_xyz
  1  'x, y, z'
loop_
 _atom_site_type_symbol
 _atom_site_label
 _atom_site_symmetry_multiplicity
 _atom_site_fract_x
 _atom_site_fract_y
 _atom_site_fract_z
 _atom_site_occupancy
  Ba  Ba0  1  0.14357706  0.14357706  0.14357706  1
  Ba  Ba1  1  0.35642294  0.64357706  0.35642294  1
  Ba  Ba2  1  0.64357706  0.35642294  0.35642294  1
  Ba  Ba3  1  0.35642294  0.35642294  0.64357706  1
  Ba  Ba4  1  0.14357706  0.85642294  0.85642294  1
  Ba  Ba5  1  0.85642294  0.85642294  0.14357706  1
  Ba  Ba6  1  0.85642294  0.14357706  0.85642294  1
  Ba  Ba7  1  0.64357706  0.64357706  0.64357706  1
  Ba  Ba8  1  0.90292499  0.86868274  0.64359907  1
  Ba  Ba9  1  0.90292499  0.13131726  0.35640093  1
  Ba  Ba10  1  0.86868274  0.64359907  0.90292499  1
  Ba  Ba11  1  0.13131726  0.64359907  0.09707501  1
  Ba  Ba12  1  0.64359907  0.90292499  0.86868274  1
  Ba  Ba13  1  0.35640093  0.09707501  0.86868274  1
  Ba  Ba14  1  0.59707501  0.85640093  0.36868274  1
  Ba  Ba15  1  0.59707501  0.14359907  0.63131726  1
  Ba  Ba16  1  0.40292499  0.85640093  0.63131726  1
  Ba  Ba17  1  0.14359907  0.63131726  0.59707501  1
  Ba  Ba18  1  0.63131726  0.40292499  0.85640093  1
  Ba  Ba19  1  0.63131726  0.59707501  0.14359907  1
  Ba  Ba20  1  0.85640093  0.36868274  0.59707501  1
  Ba  Ba21  1  0.36868274  0.59707501  0.85640093  1
  Ba  Ba22  1  0.85640093  0.63131726  0.40292499  1
  Ba  Ba23  1  0.14359907  0.36868274  0.40292499  1
  Ba  Ba24  1  0.36868274  0.40292499  0.14359907  1
  Ba  Ba25  1  0.35640093  0.90292499  0.13131726  1
  Ba  Ba26  1  0.64359907  0.09707501  0.13131726  1
  Ba  Ba27  1  0.86868274  0.35640093  0.09707501  1
  Ba  Ba28  1  0.13131726  0.35640093  0.90292499  1
  Ba  Ba29  1  0.09707501  0.13131726  0.64359907  1
  Ba  Ba30  1  0.09707501  0.86868274  0.35640093  1
  Ba  Ba31  1  0.40292499  0.14359907  0.36868274  1
  Ge  Ge32  1  0.00000000  0.00000000  -0.00000000  1
  Ge  Ge33  1  0.75000000  0.00000000  0.50000000  1
  Ge  Ge34  1  0.50000000  0.75000000  -0.00000000  1
  Ge  Ge35  1  0.50000000  0.25000000  -0.00000000  1
  Ge  Ge36  1  0.00000000  0.50000000  0.25000000  1
  Ge  Ge37  1  0.00000000  0.50000000  0.75000000  1
  Ge  Ge38  1  0.25000000  0.00000000  0.50000000  1
  Ge  Ge39  1  0.50000000  0.50000000  0.50000000  1
  As  As40  1  0.60486984  0.85010119  0.11427599  1
  As  As41  1  0.64989881  0.10486984  0.38572401  1
  As  As42  1  0.89513016  0.61427599  0.64989881  1
  As  As43  1  0.10486984  0.61427599  0.35010119  1
  As  As44  1  0.61427599  0.64989881  0.89513016  1
  As  As45  1  0.38572401  0.35010119  0.89513016  1
  As  As46  1  0.85010119  0.88572401  0.39513016  1
  As  As47  1  0.85010119  0.11427599  0.60486984  1
  As  As48  1  0.14989881  0.88572401  0.60486984  1
  As  As49  1  0.39406105  0.39406105  0.39406105  1
  As  As50  1  0.60486984  0.14989881  0.88572401  1
  As  As51  1  0.64989881  0.89513016  0.61427599  1
  As  As52  1  0.88572401  0.39513016  0.85010119  1
  As  As53  1  0.39513016  0.85010119  0.88572401  1
  As  As54  1  0.88572401  0.60486984  0.14989881  1
  As  As55  1  0.11427599  0.39513016  0.14989881  1
  As  As56  1  0.39513016  0.14989881  0.11427599  1
  As  As57  1  0.38572401  0.64989881  0.10486984  1
  As  As58  1  0.61427599  0.35010119  0.10486984  1
  As  As59  1  0.89513016  0.38572401  0.35010119  1
  As  As60  1  0.10486984  0.38572401  0.64989881  1
  As  As61  1  0.35010119  0.10486984  0.61427599  1
  As  As62  1  0.35010119  0.89513016  0.38572401  1
  As  As63  1  0.14989881  0.11427599  0.39513016  1
  As  As64  1  0.10593895  0.89406105  0.10593895  1
  As  As65  1  0.10593895  0.10593895  0.89406105  1
  As  As66  1  0.89406105  0.10593895  0.10593895  1
  As  As67  1  0.60593895  0.60593895  0.39406105  1
  As  As68  1  0.39406105  0.60593895  0.60593895  1
  As  As69  1  0.60593895  0.39406105  0.60593895  1
  As  As70  1  0.89406105  0.89406105  0.89406105  1
  As  As71  1  0.11427599  0.60486984  0.85010119  1
