# generated using pymatgen
data_CeSe2
_symmetry_space_group_name_H-M   'P 1'
_cell_length_a   7.60354335
_cell_length_b   18.84854835
_cell_length_c   18.84854835
_cell_angle_alpha   120.00000222
_cell_angle_beta   90.00000000
_cell_angle_gamma   90.00000000
_symmetry_Int_Tables_number   1
_chemical_formula_structural   CeSe2
_chemical_formula_sum   'Ce12 Se24'
_cell_volume   2339.38911240
_cell_formula_units_Z   12
loop_
 _symmetry_equiv_pos_site_id
 _symmetry_equiv_pos_as_xyz
  1  'x, y, z'
loop_
 _atom_site_type_symbol
 _atom_site_label
 _atom_site_symmetry_multiplicity
 _atom_site_fract_x
 _atom_site_fract_y
 _atom_site_fract_z
 _atom_site_occupancy
  Ce  Ce0  1  0.21979633  0.53341022  0.84491001  1
  Ce  Ce1  1  0.21979633  0.15508999  0.68850021  1
  Ce  Ce2  1  0.21979633  0.31149979  0.46658978  1
  Ce  Ce3  1  0.21979633  0.46658978  0.31149979  1
  Ce  Ce4  1  0.21979633  0.68850021  0.15508999  1
  Ce  Ce5  1  0.21979633  0.84491001  0.53341022  1
  Ce  Ce6  1  0.78020367  0.46658978  0.15508999  1
  Ce  Ce7  1  0.78020367  0.84491001  0.31149979  1
  Ce  Ce8  1  0.78020367  0.68850021  0.53341022  1
  Ce  Ce9  1  0.78020367  0.53341022  0.68850021  1
  Ce  Ce10  1  0.78020367  0.31149979  0.84491001  1
  Ce  Ce11  1  0.78020367  0.15508999  0.46658978  1
  Se  Se12  1  0.00000000  0.18639536  0.81360464  1
  Se  Se13  1  0.00000000  0.18639536  0.37279072  1
  Se  Se14  1  0.00000000  0.62720928  0.81360464  1
  Se  Se15  1  0.00000000  0.81360464  0.62720928  1
  Se  Se16  1  0.00000000  0.37279072  0.18639536  1
  Se  Se17  1  0.00000000  0.81360464  0.18639536  1
  Se  Se18  1  0.65278344  0.38499521  0.00000000  1
  Se  Se19  1  0.65278344  0.00000000  0.38499521  1
  Se  Se20  1  0.65278344  0.61500479  0.61500479  1
  Se  Se21  1  0.34721656  0.61500479  1.00000000  1
  Se  Se22  1  0.34721656  1.00000000  0.61500479  1
  Se  Se23  1  0.34721656  0.38499521  0.38499521  1
  Se  Se24  1  0.00000000  0.41097624  0.82195247  1
  Se  Se25  1  0.00000000  0.17804753  0.58902376  1
  Se  Se26  1  0.00000000  0.41097624  0.58902376  1
  Se  Se27  1  0.00000000  0.58902376  0.41097624  1
  Se  Se28  1  0.00000000  0.58902376  0.17804753  1
  Se  Se29  1  0.00000000  0.82195247  0.41097624  1
  Se  Se30  1  0.50000000  0.25751004  0.74248996  1
  Se  Se31  1  0.50000000  0.25751004  0.51502008  1
  Se  Se32  1  0.50000000  0.48497992  0.74248996  1
  Se  Se33  1  0.50000000  0.74248996  0.48497992  1
  Se  Se34  1  0.50000000  0.51502008  0.25751004  1
  Se  Se35  1  0.50000000  0.74248996  0.25751004  1
