# generated using pymatgen
data_Cs2BiAuF6
_symmetry_space_group_name_H-M   'P 1'
_cell_length_a   6.78369132
_cell_length_b   6.78369151
_cell_length_c   6.78369150
_cell_angle_alpha   59.99999930
_cell_angle_beta   59.99999895
_cell_angle_gamma   59.99999901
_symmetry_Int_Tables_number   1
_chemical_formula_structural   Cs2BiAuF6
_chemical_formula_sum   'Cs2 Bi1 Au1 F6'
_cell_volume   220.74112459
_cell_formula_units_Z   1
loop_
 _symmetry_equiv_pos_site_id
 _symmetry_equiv_pos_as_xyz
  1  'x, y, z'
loop_
 _atom_site_type_symbol
 _atom_site_label
 _atom_site_symmetry_multiplicity
 _atom_site_fract_x
 _atom_site_fract_y
 _atom_site_fract_z
 _atom_site_occupancy
  Cs  Cs0  1  0.25000000  0.25000000  0.25000000  1
  Cs  Cs1  1  0.75000000  0.75000000  0.75000000  1
  Bi  Bi2  1  0.00000000  0.00000000  0.00000000  1
  Au  Au3  1  0.50000000  0.50000000  0.50000000  1
  F  F4  1  0.23736427  0.76263573  0.23736427  1
  F  F5  1  0.76263573  0.76263573  0.23736427  1
  F  F6  1  0.76263573  0.23736427  0.76263573  1
  F  F7  1  0.76263573  0.23736427  0.23736427  1
  F  F8  1  0.23736427  0.76263573  0.76263573  1
  F  F9  1  0.23736427  0.23736427  0.76263573  1
