# generated using pymatgen
data_Na3NO3
_symmetry_space_group_name_H-M   'P 1'
_cell_length_a   6.36298530
_cell_length_b   6.36298530
_cell_length_c   4.56426992
_cell_angle_alpha   90.00000000
_cell_angle_beta   90.00000000
_cell_angle_gamma   90.00000000
_symmetry_Int_Tables_number   1
_chemical_formula_structural   Na3NO3
_chemical_formula_sum   'Na6 N2 O6'
_cell_volume   184.79625233
_cell_formula_units_Z   2
loop_
 _symmetry_equiv_pos_site_id
 _symmetry_equiv_pos_as_xyz
  1  'x, y, z'
loop_
 _atom_site_type_symbol
 _atom_site_label
 _atom_site_symmetry_multiplicity
 _atom_site_fract_x
 _atom_site_fract_y
 _atom_site_fract_z
 _atom_site_occupancy
  Na  Na0  1  -0.00000000  -0.00000000  0.50000000  1
  Na  Na1  1  0.27532843  0.22467157  0.01234150  1
  Na  Na2  1  0.77532843  0.27532843  0.98765850  1
  Na  Na3  1  0.50000000  0.50000000  0.50000000  1
  Na  Na4  1  0.22467157  0.72467157  0.98765850  1
  Na  Na5  1  0.72467157  0.77532843  0.01234150  1
  N  N6  1  0.50000000  -0.00000000  0.38010467  1
  N  N7  1  -0.00000000  0.50000000  0.61989533  1
  O  O8  1  -0.00000000  -0.00000000  0.00000000  1
  O  O9  1  0.38079143  0.11920857  0.52909037  1
  O  O10  1  0.88079143  0.38079143  0.47090963  1
  O  O11  1  0.50000000  0.50000000  0.00000000  1
  O  O12  1  0.11920857  0.61920857  0.47090963  1
  O  O13  1  0.61920857  0.88079143  0.52909037  1
