# generated using pymatgen
data_Cs3PrCl6
_symmetry_space_group_name_H-M   'P 1'
_cell_length_a   14.29104247
_cell_length_b   14.29104247
_cell_length_c   13.31859669
_cell_angle_alpha   80.75070164
_cell_angle_beta   80.75070164
_cell_angle_gamma   33.94861648
_symmetry_Int_Tables_number   1
_chemical_formula_structural   Cs3PrCl6
_chemical_formula_sum   'Cs12 Pr4 Cl24'
_cell_volume   1497.43909594
_cell_formula_units_Z   4
loop_
 _symmetry_equiv_pos_site_id
 _symmetry_equiv_pos_as_xyz
  1  'x, y, z'
loop_
 _atom_site_type_symbol
 _atom_site_label
 _atom_site_symmetry_multiplicity
 _atom_site_fract_x
 _atom_site_fract_y
 _atom_site_fract_z
 _atom_site_occupancy
  Cs  Cs0  1  0.29990049  0.80053560  0.06678034  1
  Cs  Cs1  1  0.70009951  0.19946440  0.93321966  1
  Cs  Cs2  1  0.19946440  0.70009951  0.43321966  1
  Cs  Cs3  1  0.80053560  0.29990049  0.56678034  1
  Cs  Cs4  1  0.46677351  0.84128770  0.35505684  1
  Cs  Cs5  1  0.53322649  0.15871230  0.64494316  1
  Cs  Cs6  1  0.15871230  0.53322649  0.14494316  1
  Cs  Cs7  1  0.84128770  0.46677351  0.85505684  1
  Cs  Cs8  1  0.65103097  0.02516016  0.29992949  1
  Cs  Cs9  1  0.34896903  0.97483984  0.70007051  1
  Cs  Cs10  1  0.97483984  0.34896903  0.20007051  1
  Cs  Cs11  1  0.02516016  0.65103097  0.79992949  1
  Pr  Pr12  1  0.78439064  0.21560936  0.25000000  1
  Pr  Pr13  1  0.21560936  0.78439064  0.75000000  1
  Pr  Pr14  1  0.50000000  -0.00000000  0.00000000  1
  Pr  Pr15  1  0.00000000  0.50000000  0.50000000  1
  Cl  Cl16  1  0.61875884  0.72401831  0.08095968  1
  Cl  Cl17  1  0.38124116  0.27598169  0.91904032  1
  Cl  Cl18  1  0.27598169  0.38124116  0.41904032  1
  Cl  Cl19  1  0.72401831  0.61875884  0.58095968  1
  Cl  Cl20  1  0.49840840  0.38460806  0.17725415  1
  Cl  Cl21  1  0.50159160  0.61539194  0.82274585  1
  Cl  Cl22  1  0.61539194  0.50159160  0.32274585  1
  Cl  Cl23  1  0.38460806  0.49840840  0.67725415  1
  Cl  Cl24  1  0.78161224  0.86685453  0.03341837  1
  Cl  Cl25  1  0.21838776  0.13314547  0.96658163  1
  Cl  Cl26  1  0.13314547  0.21838776  0.46658163  1
  Cl  Cl27  1  0.86685453  0.78161224  0.53341837  1
  Cl  Cl28  1  0.90962863  0.97291893  0.69643026  1
  Cl  Cl29  1  0.09037137  0.02708107  0.30356974  1
  Cl  Cl30  1  0.02708107  0.09037137  0.80356974  1
  Cl  Cl31  1  0.97291893  0.90962863  0.19643026  1
  Cl  Cl32  1  0.71848153  0.16432984  0.43825178  1
  Cl  Cl33  1  0.28151847  0.83567016  0.56174822  1
  Cl  Cl34  1  0.83567016  0.28151847  0.06174822  1
  Cl  Cl35  1  0.16432984  0.71848153  0.93825178  1
  Cl  Cl36  1  0.35887888  0.14197705  0.18860738  1
  Cl  Cl37  1  0.64112112  0.85802295  0.81139262  1
  Cl  Cl38  1  0.85802295  0.64112112  0.31139262  1
  Cl  Cl39  1  0.14197705  0.35887888  0.68860738  1
