# generated using pymatgen
data_CaSeO4
_symmetry_space_group_name_H-M   'P 1'
_cell_length_a   5.06532739
_cell_length_b   5.06532739
_cell_length_c   6.82544432
_cell_angle_alpha   111.78113459
_cell_angle_beta   111.78113459
_cell_angle_gamma   90.00000000
_symmetry_Int_Tables_number   1
_chemical_formula_structural   CaSeO4
_chemical_formula_sum   'Ca2 Se2 O8'
_cell_volume   149.07433372
_cell_formula_units_Z   2
loop_
 _symmetry_equiv_pos_site_id
 _symmetry_equiv_pos_as_xyz
  1  'x, y, z'
loop_
 _atom_site_type_symbol
 _atom_site_label
 _atom_site_symmetry_multiplicity
 _atom_site_fract_x
 _atom_site_fract_y
 _atom_site_fract_z
 _atom_site_occupancy
  Ca  Ca0  1  0.62500000  0.87500000  0.25000000  1
  Ca  Ca1  1  0.37500000  0.12500000  0.75000000  1
  Se  Se2  1  0.12500000  0.37500000  0.25000000  1
  Se  Se3  1  0.87500000  0.62500000  0.75000000  1
  O  O4  1  0.28974295  0.43054475  0.09654581  1
  O  O5  1  0.80680186  0.16600206  0.09654581  1
  O  O6  1  0.93054475  0.30680186  0.59654581  1
  O  O7  1  0.66600206  0.78974295  0.59654581  1
  O  O8  1  0.71025705  0.56945525  0.90345419  1
  O  O9  1  0.19319814  0.83399794  0.90345419  1
  O  O10  1  0.06945525  0.69319814  0.40345419  1
  O  O11  1  0.33399794  0.21025705  0.40345419  1
