# generated using pymatgen
data_K8Rb2Hg15(GeS4)10
_symmetry_space_group_name_H-M   'P 1'
_cell_length_a   6.54909010
_cell_length_b   32.58673898
_cell_length_c   9.92379556
_cell_angle_alpha   86.88623521
_cell_angle_beta   86.09785975
_cell_angle_gamma   94.15886351
_symmetry_Int_Tables_number   1
_chemical_formula_structural   K8Rb2Hg15(GeS4)10
_chemical_formula_sum   'K8 Rb2 Hg15 Ge10 S40'
_cell_volume   2103.65844898
_cell_formula_units_Z   1
loop_
 _symmetry_equiv_pos_site_id
 _symmetry_equiv_pos_as_xyz
  1  'x, y, z'
loop_
 _atom_site_type_symbol
 _atom_site_label
 _atom_site_symmetry_multiplicity
 _atom_site_fract_x
 _atom_site_fract_y
 _atom_site_fract_z
 _atom_site_occupancy
  K  K0  1  0.06607442  0.12715650  0.22754097  1
  K  K1  1  0.26609655  0.32715526  0.22755471  1
  K  K2  1  0.46610567  0.52716202  0.22753634  1
  K  K3  1  0.66608431  0.72716402  0.22753210  1
  K  K4  1  0.86608339  0.92716449  0.22752984  1
  K  K5  1  0.37638928  0.01221332  0.77253756  1
  K  K6  1  0.97638767  0.61221479  0.77254011  1
  K  K7  1  0.17639347  0.81221056  0.77254958  1
  Rb  Rb8  1  0.57661957  0.21216673  0.77286315  1
  Rb  Rb9  1  0.77663400  0.41217393  0.77286467  1
  Hg  Hg10  1  0.48717642  0.12812371  0.49992080  1
  Hg  Hg11  1  0.68719754  0.32813903  0.49990816  1
  Hg  Hg12  1  0.88730772  0.52819519  0.49998836  1
  Hg  Hg13  1  0.08728902  0.72818047  0.49999399  1
  Hg  Hg14  1  0.28728752  0.92817891  0.49999660  1
  Hg  Hg15  1  0.87436512  0.03140730  0.49999226  1
  Hg  Hg16  1  0.07453540  0.23142141  0.49989685  1
  Hg  Hg17  1  0.27456468  0.43142288  0.49987835  1
  Hg  Hg18  1  0.47439445  0.63140819  0.49997448  1
  Hg  Hg19  1  0.67438885  0.83140789  0.49997079  1
  Hg  Hg20  1  0.61851669  0.09534629  0.00001976  1
  Hg  Hg21  1  0.81854032  0.29538359  0.00019070  1
  Hg  Hg22  1  0.01848637  0.49541140  0.00015005  1
  Hg  Hg23  1  0.21846100  0.69537407  0.99998120  1
  Hg  Hg24  1  0.41846193  0.89537356  0.99998165  1
  Ge  Ge25  1  0.44949291  0.02077410  0.27347419  1
  Ge  Ge26  1  0.64951618  0.22080437  0.27337226  1
  Ge  Ge27  1  0.84951836  0.42080884  0.27336831  1
  Ge  Ge28  1  0.04949658  0.62077791  0.27347160  1
  Ge  Ge29  1  0.24949450  0.82077621  0.27347916  1
  Ge  Ge30  1  0.01029020  0.11418040  0.72646797  1
  Ge  Ge31  1  0.21040898  0.31422521  0.72642596  1
  Ge  Ge32  1  0.41046207  0.51429666  0.72641388  1
  Ge  Ge33  1  0.61033960  0.71425294  0.72646811  1
  Ge  Ge34  1  0.81035008  0.91425344  0.72647580  1
  S  S35  1  0.55261699  0.15307251  0.26069778  1
  S  S36  1  0.75261767  0.35306888  0.26068587  1
  S  S37  1  0.95259788  0.55305697  0.26069481  1
  S  S38  1  0.15259771  0.75305824  0.26070949  1
  S  S39  1  0.35259742  0.95306026  0.26070658  1
  S  S40  1  0.35378788  0.11961176  0.73904286  1
  S  S41  1  0.55378474  0.31987673  0.73896675  1
  S  S42  1  0.75485650  0.52035725  0.73925106  1
  S  S43  1  0.95485780  0.72009317  0.73931801  1
  S  S44  1  0.15485565  0.92009349  0.73931751  1
  S  S45  1  0.31167912  0.04536190  0.45716556  1
  S  S46  1  0.51135172  0.24548023  0.45615602  1
  S  S47  1  0.71132075  0.44547253  0.45616886  1
  S  S48  1  0.91164806  0.64535471  0.45717921  1
  S  S49  1  0.11164791  0.84535578  0.45718176  1
  S  S50  1  0.92010421  0.14671838  0.54278442  1
  S  S51  1  0.12009719  0.34671469  0.54277778  1
  S  S52  1  0.31999266  0.54672864  0.54281709  1
  S  S53  1  0.51999738  0.74673193  0.54283108  1
  S  S54  1  0.71999675  0.94673166  0.54282573  1
  S  S55  1  0.79381832  0.03260507  0.25792071  1
  S  S56  1  0.99378866  0.23260036  0.25792319  1
  S  S57  1  0.19378574  0.43259658  0.25792975  1
  S  S58  1  0.39381511  0.63260228  0.25792605  1
  S  S59  1  0.59381205  0.83260317  0.25792727  1
  S  S60  1  0.88462329  0.04774588  0.74201048  1
  S  S61  1  0.08472077  0.24794840  0.74180578  1
  S  S62  1  0.28491844  0.44796824  0.74181305  1
  S  S63  1  0.48482670  0.64776577  0.74201775  1
  S  S64  1  0.68482820  0.84776550  0.74201873  1
  S  S65  1  0.33136123  0.04933130  0.08025479  1
  S  S66  1  0.53132411  0.24950232  0.08132676  1
  S  S67  1  0.73133687  0.44949817  0.08133385  1
  S  S68  1  0.93137627  0.64932723  0.08026208  1
  S  S69  1  0.13137486  0.84932891  0.08026080  1
  S  S70  1  0.89784919  0.14337710  0.92017379  1
  S  S71  1  0.09790262  0.34337750  0.92016321  1
  S  S72  1  0.29693936  0.54358410  0.91977461  1
  S  S73  1  0.49689051  0.74358342  0.91978353  1
  S  S74  1  0.69689089  0.94358341  0.91978530  1
