# generated using pymatgen
data_K2FeF5
_symmetry_space_group_name_H-M   'P 1'
_cell_length_a   5.70545426
_cell_length_b   7.09211061
_cell_length_c   7.23140507
_cell_angle_alpha   115.78942311
_cell_angle_beta   90.00000000
_cell_angle_gamma   113.71826061
_symmetry_Int_Tables_number   1
_chemical_formula_structural   K2FeF5
_chemical_formula_sum   'K4 Fe2 F10'
_cell_volume   235.71358825
_cell_formula_units_Z   2
loop_
 _symmetry_equiv_pos_site_id
 _symmetry_equiv_pos_as_xyz
  1  'x, y, z'
loop_
 _atom_site_type_symbol
 _atom_site_label
 _atom_site_symmetry_multiplicity
 _atom_site_fract_x
 _atom_site_fract_y
 _atom_site_fract_z
 _atom_site_occupancy
  K  K0  1  0.47059936  0.94119971  0.74314490  1
  K  K1  1  0.52940064  0.05880029  0.25685510  1
  K  K2  1  0.16696042  0.33391983  0.76843995  1
  K  K3  1  0.83303958  0.66608017  0.23156005  1
  Fe  Fe4  1  0.18633002  0.37266003  0.27484852  1
  Fe  Fe5  1  0.81366998  0.62733997  0.72515148  1
  F  F6  1  0.00000000  0.50000000  0.50000000  1
  F  F7  1  0.50000000  0.50000000  0.50000000  1
  F  F8  1  0.05524956  0.11049812  0.32755775  1
  F  F9  1  0.94475044  0.88950188  0.67244225  1
  F  F10  1  0.34303017  0.68606135  0.30606395  1
  F  F11  1  0.65696983  0.31393865  0.69393605  1
  F  F12  1  0.89305118  0.27037021  0.07223779  1
  F  F13  1  0.37731703  0.27037021  0.07223779  1
  F  F14  1  0.10694882  0.72962979  0.92776221  1
  F  F15  1  0.62268297  0.72962979  0.92776221  1
