# generated using pymatgen
data_Mn(AsO3)2
_symmetry_space_group_name_H-M   'P 1'
_cell_length_a   4.81277178
_cell_length_b   10.52743252
_cell_length_c   8.33643086
_cell_angle_alpha   66.68716642
_cell_angle_beta   90.00090299
_cell_angle_gamma   76.77243386
_symmetry_Int_Tables_number   1
_chemical_formula_structural   Mn(AsO3)2
_chemical_formula_sum   'Mn4 As8 O24'
_cell_volume   375.65708549
_cell_formula_units_Z   4
loop_
 _symmetry_equiv_pos_site_id
 _symmetry_equiv_pos_as_xyz
  1  'x, y, z'
loop_
 _atom_site_type_symbol
 _atom_site_label
 _atom_site_symmetry_multiplicity
 _atom_site_fract_x
 _atom_site_fract_y
 _atom_site_fract_z
 _atom_site_occupancy
  Mn  Mn0  1  0.49990456  0.00000897  0.50000456  1
  Mn  Mn1  1  0.25010519  0.49999149  0.24999658  1
  Mn  Mn2  1  0.75010474  0.49999149  0.74999643  1
  Mn  Mn3  1  0.99990541  0.00000789  0.00000502  1
  As  As4  1  0.62485428  0.75009992  0.29164854  1
  As  As5  1  0.37515230  0.24992122  0.04163569  1
  As  As6  1  0.12485400  0.75010003  0.79164842  1
  As  As7  1  0.87515201  0.24992114  0.54163597  1
  As  As8  1  0.12485212  0.75008514  0.45837008  1
  As  As9  1  0.87512000  0.24990635  0.20833063  1
  As  As10  1  0.62485227  0.75008516  0.95836993  1
  As  As11  1  0.37512013  0.24990618  0.70833075  1
  O  O12  1  0.75454089  0.85886134  0.38655677  1
  O  O13  1  0.50467844  0.35867110  0.13659728  1
  O  O14  1  0.25454096  0.85886126  0.88655678  1
  O  O15  1  0.00467829  0.35867115  0.63659703  1
  O  O16  1  0.20242751  0.85883100  0.57061971  1
  O  O17  1  0.95248962  0.35871275  0.32063260  1
  O  O18  1  0.70242748  0.85883095  0.07061968  1
  O  O19  1  0.45248954  0.35871275  0.82063285  1
  O  O20  1  0.25452323  0.85886226  0.25467106  1
  O  O21  1  0.00465298  0.35869014  0.00468661  1
  O  O22  1  0.75452323  0.85886227  0.75467103  1
  O  O23  1  0.50465284  0.35868999  0.50468657  1
  O  O24  1  0.04748374  0.64130450  0.67936231  1
  O  O25  1  0.79760093  0.14114703  0.42939027  1
  O  O26  1  0.54748376  0.64130447  0.17936231  1
  O  O27  1  0.29760006  0.14114709  0.92939060  1
  O  O28  1  0.49535560  0.64129689  0.49531774  1
  O  O29  1  0.24547427  0.14114731  0.24532914  1
  O  O30  1  0.99535579  0.64129692  0.99531774  1
  O  O31  1  0.74547430  0.14114576  0.74533011  1
  O  O32  1  0.99532772  0.64131556  0.36341051  1
  O  O33  1  0.74545718  0.14114849  0.11343918  1
  O  O34  1  0.49532766  0.64131563  0.86341038  1
  O  O35  1  0.24545698  0.14114843  0.61343916  1
