# generated using pymatgen
data_MgFe4(PO4)4
_symmetry_space_group_name_H-M   'P 1'
_cell_length_a   8.49841685
_cell_length_b   8.91389366
_cell_length_c   5.27907212
_cell_angle_alpha   95.28126046
_cell_angle_beta   107.39597040
_cell_angle_gamma   84.49993743
_symmetry_Int_Tables_number   1
_chemical_formula_structural   MgFe4(PO4)4
_chemical_formula_sum   'Mg1 Fe4 P4 O16'
_cell_volume   379.01562271
_cell_formula_units_Z   1
loop_
 _symmetry_equiv_pos_site_id
 _symmetry_equiv_pos_as_xyz
  1  'x, y, z'
loop_
 _atom_site_type_symbol
 _atom_site_label
 _atom_site_symmetry_multiplicity
 _atom_site_fract_x
 _atom_site_fract_y
 _atom_site_fract_z
 _atom_site_occupancy
  Mg  Mg0  1  0.32443000  0.78165300  0.40923500  1
  Fe  Fe1  1  0.22334300  0.45346700  0.36321400  1
  Fe  Fe2  1  0.23448800  0.05267700  0.12536600  1
  Fe  Fe3  1  0.72549100  0.02581600  0.91242000  1
  Fe  Fe4  1  0.82648600  0.50761400  0.55218500  1
  P  P5  1  0.18180100  0.67165300  0.88619900  1
  P  P6  1  0.32073500  0.13621300  0.66985100  1
  P  P7  1  0.66793400  0.84963300  0.36033700  1
  P  P8  1  0.82935200  0.34672700  0.09753500  1
  O  O9  1  0.01776400  0.59721700  0.78861700  1
  O  O10  1  0.22336000  0.19969400  0.86323100  1
  O  O11  1  0.16152300  0.83727100  0.99283500  1
  O  O12  1  0.24448500  0.99033500  0.51173600  1
  O  O13  1  0.26731700  0.65074600  0.65869400  1
  O  O14  1  0.29224100  0.59225000  0.14241600  1
  O  O15  1  0.30882000  0.24471100  0.44956900  1
  O  O16  1  0.50377400  0.10213100  0.83062800  1
  O  O17  1  0.48135500  0.89486700  0.29030100  1
  O  O18  1  0.69005200  0.68631300  0.44646800  1
  O  O19  1  0.77346100  0.40930900  0.82131700  1
  O  O20  1  0.69775800  0.37628700  0.24728900  1
  O  O21  1  0.76762800  0.95541200  0.59208600  1
  O  O22  1  0.88134400  0.17437100  0.06941100  1
  O  O23  1  0.73641400  0.86100400  0.12178200  1
  O  O24  1  0.97697900  0.43119600  0.29727900  1
