# generated using pymatgen
data_Mg2GeSe4
_symmetry_space_group_name_H-M   'P 1'
_cell_length_a   6.33803179
_cell_length_b   7.85449782
_cell_length_c   13.49953194
_cell_angle_alpha   90.00000000
_cell_angle_beta   90.00000000
_cell_angle_gamma   90.00000000
_symmetry_Int_Tables_number   1
_chemical_formula_structural   Mg2GeSe4
_chemical_formula_sum   'Mg8 Ge4 Se16'
_cell_volume   672.03446686
_cell_formula_units_Z   4
loop_
 _symmetry_equiv_pos_site_id
 _symmetry_equiv_pos_as_xyz
  1  'x, y, z'
loop_
 _atom_site_type_symbol
 _atom_site_label
 _atom_site_symmetry_multiplicity
 _atom_site_fract_x
 _atom_site_fract_y
 _atom_site_fract_z
 _atom_site_occupancy
  Mg  Mg0  1  0.49729994  0.25000000  0.76918772  1
  Mg  Mg1  1  0.00270006  0.25000000  0.26918772  1
  Mg  Mg2  1  0.50270006  0.75000000  0.23081228  1
  Mg  Mg3  1  0.99729994  0.75000000  0.73081228  1
  Mg  Mg4  1  -0.00000000  -0.00000000  0.00000000  1
  Mg  Mg5  1  0.50000000  0.50000000  0.50000000  1
  Mg  Mg6  1  -0.00000000  0.50000000  0.00000000  1
  Mg  Mg7  1  0.50000000  -0.00000000  0.50000000  1
  Ge  Ge8  1  0.58956522  0.25000000  0.08863134  1
  Ge  Ge9  1  0.91043478  0.25000000  0.58863134  1
  Ge  Ge10  1  0.41043478  0.75000000  0.91136866  1
  Ge  Ge11  1  0.08956522  0.75000000  0.41136866  1
  Se  Se12  1  0.22158227  0.25000000  0.09286373  1
  Se  Se13  1  0.27841773  0.25000000  0.59286373  1
  Se  Se14  1  0.77841773  0.75000000  0.90713627  1
  Se  Se15  1  0.72158227  0.75000000  0.40713627  1
  Se  Se16  1  0.75500177  0.01559384  0.16814791  1
  Se  Se17  1  0.74499823  0.48440616  0.66814791  1
  Se  Se18  1  0.24499823  0.51559384  0.83185209  1
  Se  Se19  1  0.25500177  0.98440616  0.33185209  1
  Se  Se20  1  0.24499823  0.98440616  0.83185209  1
  Se  Se21  1  0.25500177  0.51559384  0.33185209  1
  Se  Se22  1  0.75500177  0.48440616  0.16814791  1
  Se  Se23  1  0.74499823  0.01559384  0.66814791  1
  Se  Se24  1  0.74813579  0.25000000  0.92920491  1
  Se  Se25  1  0.75186421  0.25000000  0.42920491  1
  Se  Se26  1  0.25186421  0.75000000  0.07079509  1
  Se  Se27  1  0.24813579  0.75000000  0.57079509  1
