# generated using pymatgen
data_Ga2S3
_symmetry_space_group_name_H-M   'P 1'
_cell_length_a   6.44586263
_cell_length_b   6.44586263
_cell_length_c   6.44586263
_cell_angle_alpha   146.89589897
_cell_angle_beta   131.00006279
_cell_angle_gamma   60.41333532
_symmetry_Int_Tables_number   1
_chemical_formula_structural   Ga2S3
_chemical_formula_sum   'Ga2 S3'
_cell_volume   109.37637253
_cell_formula_units_Z   1
loop_
 _symmetry_equiv_pos_site_id
 _symmetry_equiv_pos_as_xyz
  1  'x, y, z'
loop_
 _atom_site_type_symbol
 _atom_site_label
 _atom_site_symmetry_multiplicity
 _atom_site_fract_x
 _atom_site_fract_y
 _atom_site_fract_z
 _atom_site_occupancy
  Ga  Ga0  1  0.83357921  0.84094487  0.99263434  1
  Ga  Ga1  1  0.15168947  0.15905513  0.99263434  1
  S  S2  1  0.09252334  0.33424667  0.75827567  1
  S  S3  1  0.42402901  0.66575333  0.75827567  1
  S  S4  1  0.74817997  -0.00000000  0.74817997  1
