# generated using pymatgen
data_DyScS3
_symmetry_space_group_name_H-M   'P 1'
_cell_length_a   6.37621861
_cell_length_b   7.00288526
_cell_length_c   9.52664085
_cell_angle_alpha   90.00000000
_cell_angle_beta   90.00000000
_cell_angle_gamma   90.00000000
_symmetry_Int_Tables_number   1
_chemical_formula_structural   DyScS3
_chemical_formula_sum   'Dy4 Sc4 S12'
_cell_volume   425.38287482
_cell_formula_units_Z   4
loop_
 _symmetry_equiv_pos_site_id
 _symmetry_equiv_pos_as_xyz
  1  'x, y, z'
loop_
 _atom_site_type_symbol
 _atom_site_label
 _atom_site_symmetry_multiplicity
 _atom_site_fract_x
 _atom_site_fract_y
 _atom_site_fract_z
 _atom_site_occupancy
  Dy  Dy0  1  0.04072307  0.60031921  0.25000000  1
  Dy  Dy1  1  0.45927693  0.10031921  0.25000000  1
  Dy  Dy2  1  0.95927693  0.39968079  0.75000000  1
  Dy  Dy3  1  0.54072307  0.89968079  0.75000000  1
  Sc  Sc4  1  0.50000000  0.50000000  0.50000000  1
  Sc  Sc5  1  0.50000000  0.50000000  -0.00000000  1
  Sc  Sc6  1  0.00000000  -0.00000000  0.50000000  1
  Sc  Sc7  1  0.00000000  -0.00000000  -0.00000000  1
  S  S8  1  0.17614298  0.31548404  0.07140610  1
  S  S9  1  0.32385702  0.81548404  0.07140610  1
  S  S10  1  0.67614298  0.18451596  0.57140610  1
  S  S11  1  0.82385702  0.68451596  0.92859390  1
  S  S12  1  0.64562678  0.45112240  0.25000000  1
  S  S13  1  0.35437322  0.54887760  0.75000000  1
  S  S14  1  0.82385702  0.68451596  0.57140610  1
  S  S15  1  0.17614298  0.31548404  0.42859390  1
  S  S16  1  0.32385702  0.81548404  0.42859390  1
  S  S17  1  0.67614298  0.18451596  0.92859390  1
  S  S18  1  0.14562678  0.04887760  0.75000000  1
  S  S19  1  0.85437322  0.95112240  0.25000000  1
