# generated using pymatgen
data_Ge3Bi5N9
_symmetry_space_group_name_H-M   'P 1'
_cell_length_a   8.33412843
_cell_length_b   12.15967319
_cell_length_c   16.24096715
_cell_angle_alpha   90.00000000
_cell_angle_beta   90.00000000
_cell_angle_gamma   136.84539418
_symmetry_Int_Tables_number   1
_chemical_formula_structural   Ge3Bi5N9
_chemical_formula_sum   'Ge12 Bi20 N36'
_cell_volume   1125.72060927
_cell_formula_units_Z   4
loop_
 _symmetry_equiv_pos_site_id
 _symmetry_equiv_pos_as_xyz
  1  'x, y, z'
loop_
 _atom_site_type_symbol
 _atom_site_label
 _atom_site_symmetry_multiplicity
 _atom_site_fract_x
 _atom_site_fract_y
 _atom_site_fract_z
 _atom_site_occupancy
  Ge  Ge0  1  -0.00000000  0.76727899  0.03031840  1
  Ge  Ge1  1  0.00000000  0.23272101  0.96968160  1
  Ge  Ge2  1  0.00000000  0.73272101  0.53031840  1
  Ge  Ge3  1  -0.00000000  0.26727899  0.46968160  1
  Ge  Ge4  1  -0.00000000  0.20133484  0.76605297  1
  Ge  Ge5  1  0.00000000  0.79866516  0.23394703  1
  Ge  Ge6  1  0.00000000  0.29866516  0.26605297  1
  Ge  Ge7  1  -0.00000000  0.70133484  0.73394703  1
  Ge  Ge8  1  0.50000000  0.77531086  0.75000000  1
  Ge  Ge9  1  0.50000000  0.72468914  0.25000000  1
  Ge  Ge10  1  0.50000000  0.22468914  0.25000000  1
  Ge  Ge11  1  0.50000000  0.27531086  0.75000000  1
  Bi  Bi12  1  0.00000000  0.51645070  0.87030982  1
  Bi  Bi13  1  -0.00000000  0.48354930  0.12969018  1
  Bi  Bi14  1  -0.00000000  0.98354930  0.37030982  1
  Bi  Bi15  1  0.00000000  0.01645070  0.62969018  1
  Bi  Bi16  1  0.38357970  0.96250631  0.87520737  1
  Bi  Bi17  1  0.38357970  0.42107339  0.12479263  1
  Bi  Bi18  1  0.38357970  0.92107339  0.37520737  1
  Bi  Bi19  1  0.38357970  0.46250631  0.62479263  1
  Bi  Bi20  1  0.61642030  0.03749369  0.12479263  1
  Bi  Bi21  1  0.61642030  0.57892661  0.87520737  1
  Bi  Bi22  1  0.61642030  0.07892661  0.62479263  1
  Bi  Bi23  1  0.61642030  0.53749369  0.37520737  1
  Bi  Bi24  1  0.00000000  0.46860522  0.61662058  1
  Bi  Bi25  1  -0.00000000  0.53139478  0.38337942  1
  Bi  Bi26  1  -0.00000000  0.03139478  0.11662058  1
  Bi  Bi27  1  0.00000000  0.96860522  0.88337942  1
  Bi  Bi28  1  0.51237961  0.25619031  0.00000000  1
  Bi  Bi29  1  0.51237961  0.75619031  0.50000000  1
  Bi  Bi30  1  0.48762039  0.74380969  0.00000000  1
  Bi  Bi31  1  0.48762039  0.24380969  0.50000000  1
  N  N32  1  -0.00000000  0.30388504  0.67665044  1
  N  N33  1  0.00000000  0.69611496  0.32334956  1
  N  N34  1  0.00000000  0.19611496  0.17665044  1
  N  N35  1  -0.00000000  0.80388504  0.82334956  1
  N  N36  1  0.00000000  0.27190847  0.86214033  1
  N  N37  1  -0.00000000  0.72809153  0.13785967  1
  N  N38  1  -0.00000000  0.22809153  0.36214033  1
  N  N39  1  0.00000000  0.77190847  0.63785967  1
  N  N40  1  0.00000000  0.63436385  0.97440580  1
  N  N41  1  -0.00000000  0.36563615  0.02559420  1
  N  N42  1  -0.00000000  0.86563615  0.47440580  1
  N  N43  1  0.00000000  0.13436385  0.52559420  1
  N  N44  1  0.75831791  0.49102859  0.77751291  1
  N  N45  1  0.75831791  0.26728932  0.22248709  1
  N  N46  1  0.75831791  0.76728932  0.27751291  1
  N  N47  1  0.75831791  0.99102859  0.72248709  1
  N  N48  1  0.24168209  0.50897141  0.22248709  1
  N  N49  1  0.24168209  0.73271068  0.77751291  1
  N  N50  1  0.24168209  0.23271068  0.72248709  1
  N  N51  1  0.24168209  0.00897141  0.27751291  1
  N  N52  1  0.43493272  0.17051724  0.84912902  1
  N  N53  1  0.43493272  0.26441548  0.15087098  1
  N  N54  1  0.43493272  0.76441548  0.34912902  1
  N  N55  1  0.43493272  0.67051724  0.65087098  1
  N  N56  1  0.56506728  0.82948276  0.15087098  1
  N  N57  1  0.56506728  0.73558452  0.84912902  1
  N  N58  1  0.56506728  0.23558452  0.65087098  1
  N  N59  1  0.56506728  0.32948276  0.34912902  1
  N  N60  1  0.24451768  0.98342817  0.98867941  1
  N  N61  1  0.24451768  0.26108951  0.01132059  1
  N  N62  1  0.24451768  0.76108951  0.48867941  1
  N  N63  1  0.24451768  0.48342817  0.51132059  1
  N  N64  1  0.75548232  0.01657183  0.01132059  1
  N  N65  1  0.75548232  0.73891049  0.98867941  1
  N  N66  1  0.75548232  0.23891049  0.51132059  1
  N  N67  1  0.75548232  0.51657183  0.48867941  1
