# generated using pymatgen
data_MgV6O5F19
_symmetry_space_group_name_H-M   'P 1'
_cell_length_a   5.42764920
_cell_length_b   5.35045425
_cell_length_c   15.63205236
_cell_angle_alpha   89.54459041
_cell_angle_beta   100.42177492
_cell_angle_gamma   91.72587959
_symmetry_Int_Tables_number   1
_chemical_formula_structural   MgV6O5F19
_chemical_formula_sum   'Mg1 V6 O5 F19'
_cell_volume   446.26781005
_cell_formula_units_Z   1
loop_
 _symmetry_equiv_pos_site_id
 _symmetry_equiv_pos_as_xyz
  1  'x, y, z'
loop_
 _atom_site_type_symbol
 _atom_site_label
 _atom_site_symmetry_multiplicity
 _atom_site_fract_x
 _atom_site_fract_y
 _atom_site_fract_z
 _atom_site_occupancy
  Mg  Mg0  1  0.00775800  0.25451200  0.51550200  1
  V  V1  1  0.05300500  0.96232400  0.00665300  1
  V  V2  1  0.13746100  0.49067300  0.31762500  1
  V  V3  1  0.34168500  0.98637400  0.67978500  1
  V  V4  1  0.53938000  0.45343500  0.99480600  1
  V  V5  1  0.66131700  0.00519600  0.31899400  1
  V  V6  1  0.82811200  0.43715700  0.67587700  1
  O  O7  1  0.03093200  0.20652400  0.66102300  1
  O  O8  1  0.54644000  0.28215400  0.66051200  1
  O  O9  1  0.70382600  0.22935500  0.96910800  1
  O  O10  1  0.30014800  0.79799000  0.03115300  1
  O  O11  1  0.88872800  0.27497100  0.30729000  1
  F  F12  1  0.21548200  0.27402700  0.97524400  1
  F  F13  1  0.13354800  0.69904600  0.68743500  1
  F  F14  1  0.02520200  0.10141700  0.10680700  1
  F  F15  1  0.20529900  0.43112600  0.44578400  1
  F  F16  1  0.39000700  0.05124600  0.79104300  1
  F  F17  1  0.13719000  0.60067600  0.20903300  1
  F  F18  1  0.24149800  0.98125400  0.55665400  1
  F  F19  1  0.44039400  0.60724700  0.89401700  1
  F  F20  1  0.38963200  0.23331400  0.30785400  1
  F  F21  1  0.44272000  0.73533400  0.35093300  1
  F  F22  1  0.62028100  0.78519000  0.67423100  1
  F  F23  1  0.54553900  0.40951500  0.10741700  1
  F  F24  1  0.73780000  0.07307600  0.44247800  1
  F  F25  1  0.88324600  0.46565900  0.78980200  1
  F  F26  1  0.59677600  0.91937300  0.20964600  1
  F  F27  1  0.81595700  0.52819100  0.55610300  1
  F  F28  1  0.95450700  0.91224800  0.89344500  1
  F  F29  1  0.80548800  0.70693900  0.02571800  1
  F  F30  1  0.94016200  0.77945400  0.34249400  1
