# generated using pymatgen
data_Ag2P2H2O7
_symmetry_space_group_name_H-M   'P 1'
_cell_length_a   15.05104254
_cell_length_b   14.19581817
_cell_length_c   7.07006118
_cell_angle_alpha   82.85324496
_cell_angle_beta   69.36600312
_cell_angle_gamma   27.78075191
_symmetry_Int_Tables_number   1
_chemical_formula_structural   Ag2P2H2O7
_chemical_formula_sum   'Ag8 P8 H8 O28'
_cell_volume   595.02235033
_cell_formula_units_Z   4
loop_
 _symmetry_equiv_pos_site_id
 _symmetry_equiv_pos_as_xyz
  1  'x, y, z'
loop_
 _atom_site_type_symbol
 _atom_site_label
 _atom_site_symmetry_multiplicity
 _atom_site_fract_x
 _atom_site_fract_y
 _atom_site_fract_z
 _atom_site_occupancy
  Ag  Ag0  1  0.80582454  0.29147907  0.41166330  1
  Ag  Ag1  1  0.29147907  0.80582454  0.49103309  1
  Ag  Ag2  1  0.41166330  0.49103309  0.80582454  1
  Ag  Ag3  1  0.49103309  0.41166330  0.29147907  1
  Ag  Ag4  1  0.44417546  0.95852093  0.83833670  1
  Ag  Ag5  1  0.95852093  0.44417546  0.75896691  1
  Ag  Ag6  1  0.83833670  0.75896691  0.44417546  1
  Ag  Ag7  1  0.75896691  0.83833670  0.95852093  1
  P  P8  1  0.77111601  0.37410313  0.94049025  1
  P  P9  1  0.37410313  0.77111601  0.91429060  1
  P  P10  1  0.94049025  0.91429060  0.77111601  1
  P  P11  1  0.91429060  0.94049025  0.37410313  1
  P  P12  1  0.47888399  0.87589687  0.30950975  1
  P  P13  1  0.87589687  0.47888399  0.33570940  1
  P  P14  1  0.30950975  0.33570940  0.47888399  1
  P  P15  1  0.33570940  0.30950975  0.87589687  1
  H  H16  1  0.13490772  0.13490772  0.36509228  1
  H  H17  1  0.36509228  0.36509228  0.13490772  1
  H  H18  1  0.11509228  0.11509228  0.88490772  1
  H  H19  1  0.88490772  0.88490772  0.11509228  1
  H  H20  1  0.43184851  0.06815149  0.43184851  1
  H  H21  1  0.06815149  0.43184851  0.06815149  1
  H  H22  1  0.81815149  0.18184851  0.81815149  1
  H  H23  1  0.18184851  0.81815149  0.18184851  1
  O  O24  1  0.59700592  0.59700592  0.90299408  1
  O  O25  1  0.90299408  0.90299408  0.59700592  1
  O  O26  1  0.65299408  0.65299408  0.34700592  1
  O  O27  1  0.34700592  0.34700592  0.65299408  1
  O  O28  1  0.95664545  0.30872704  0.38358812  1
  O  O29  1  0.30872704  0.95664545  0.35103939  1
  O  O30  1  0.38358812  0.35103939  0.95664545  1
  O  O31  1  0.35103939  0.38358812  0.30872704  1
  O  O32  1  0.29335455  0.94127296  0.86641188  1
  O  O33  1  0.94127296  0.29335455  0.89896061  1
  O  O34  1  0.86641188  0.89896061  0.29335455  1
  O  O35  1  0.89896061  0.86641188  0.94127296  1
  O  O36  1  0.75822686  0.15523216  0.87681368  1
  O  O37  1  0.15523216  0.75822686  0.20972730  1
  O  O38  1  0.87681368  0.20972730  0.75822686  1
  O  O39  1  0.20972730  0.87681368  0.15523216  1
  O  O40  1  0.49177314  0.09476784  0.37318632  1
  O  O41  1  0.09476784  0.49177314  0.04027270  1
  O  O42  1  0.37318632  0.04027270  0.49177314  1
  O  O43  1  0.04027270  0.37318632  0.09476784  1
  O  O44  1  0.50350491  0.07815182  0.81839996  1
  O  O45  1  0.07815182  0.50350491  0.59994331  1
  O  O46  1  0.81839996  0.59994331  0.50350491  1
  O  O47  1  0.59994331  0.81839996  0.07815182  1
  O  O48  1  0.74649509  0.17184818  0.43160004  1
  O  O49  1  0.17184818  0.74649509  0.65005669  1
  O  O50  1  0.43160004  0.65005669  0.74649509  1
  O  O51  1  0.65005669  0.43160004  0.17184818  1
