# generated using pymatgen
data_Li4Zn(PS4)2
_symmetry_space_group_name_H-M   'P 1'
_cell_length_a   10.06529192
_cell_length_b   10.17564167
_cell_length_c   25.59761469
_cell_angle_alpha   89.99998041
_cell_angle_beta   89.99998555
_cell_angle_gamma   105.05664175
_symmetry_Int_Tables_number   1
_chemical_formula_structural   Li4Zn(PS4)2
_chemical_formula_sum   'Li32 Zn8 P16 S64'
_cell_volume   2531.72300608
_cell_formula_units_Z   8
loop_
 _symmetry_equiv_pos_site_id
 _symmetry_equiv_pos_as_xyz
  1  'x, y, z'
loop_
 _atom_site_type_symbol
 _atom_site_label
 _atom_site_symmetry_multiplicity
 _atom_site_fract_x
 _atom_site_fract_y
 _atom_site_fract_z
 _atom_site_occupancy
  Li  Li0  1  0.13241491  0.88169408  0.92413975  1
  Li  Li1  1  0.61718294  0.37234403  0.92387476  1
  Li  Li2  1  0.11670635  0.86985711  0.67689748  1
  Li  Li3  1  0.62786199  0.38751613  0.67034911  1
  Li  Li4  1  0.12848982  0.88582000  0.42153299  1
  Li  Li5  1  0.61786072  0.37134084  0.42685103  1
  Li  Li6  1  0.60967948  0.37974709  0.17069636  1
  Li  Li7  1  0.88674583  0.63214711  0.82450234  1
  Li  Li8  1  0.38122123  0.13043174  0.57246831  1
  Li  Li9  1  0.88776991  0.62321357  0.32648427  1
  Li  Li10  1  0.37600933  0.12468261  0.07410501  1
  Li  Li11  1  0.87460366  0.62955092  0.07728685  1
  Li  Li12  1  0.88777089  0.12321357  0.92351575  1
  Li  Li13  1  0.38122213  0.63043079  0.67753265  1
  Li  Li14  1  0.88674672  0.13214708  0.42549861  1
  Li  Li15  1  0.37601026  0.62468171  0.17589498  1
  Li  Li16  1  0.87460358  0.12955002  0.17271318  1
  Li  Li17  1  0.61786070  0.87134083  0.82314993  1
  Li  Li18  1  0.12848888  0.38581909  0.82846797  1
  Li  Li19  1  0.62786107  0.88751706  0.57965182  1
  Li  Li20  1  0.11670549  0.36985808  0.57310346  1
  Li  Li21  1  0.61718290  0.87234309  0.32612526  1
  Li  Li22  1  0.13241588  0.38169405  0.32586028  1
  Li  Li23  1  0.60968039  0.87974709  0.07930366  1
  Li  Li24  1  0.76066821  0.76172166  0.96405911  1
  Li  Li25  1  0.26324427  0.26366489  0.71042617  1
  Li  Li26  1  0.76165884  0.76386635  0.46114813  1
  Li  Li27  1  0.75490866  0.76017137  0.21469673  1
  Li  Li28  1  0.76165887  0.26386639  0.78885185  1
  Li  Li29  1  0.26324426  0.76366483  0.53957475  1
  Li  Li30  1  0.76066820  0.26172161  0.28594088  1
  Li  Li31  1  0.75490869  0.26017140  0.03530419  1
  Zn  Zn32  1  0.12495224  0.88161220  0.17384257  1
  Zn  Zn33  1  0.37356670  0.11544661  0.82882079  1
  Zn  Zn34  1  0.87472049  0.61542263  0.57866246  1
  Zn  Zn35  1  0.37601250  0.12005655  0.32714590  1
  Zn  Zn36  1  0.37601332  0.62005654  0.92285411  1
  Zn  Zn37  1  0.87472123  0.11542174  0.67133838  1
  Zn  Zn38  1  0.37356675  0.61544572  0.42118012  1
  Zn  Zn39  1  0.12495306  0.38161156  0.07615747  1
  P  P40  1  0.50755913  0.49306898  0.79764312  1
  P  P41  1  0.99582489  0.00764224  0.79587918  1
  P  P42  1  0.49525547  0.50901984  0.54601284  1
  P  P43  1  0.00716979  0.99113583  0.54785902  1
  P  P44  1  0.50748405  0.48983546  0.29845997  1
  P  P45  1  0.00151704  0.00407081  0.29462079  1
  P  P46  1  0.49240314  0.50285278  0.04699892  1
  P  P47  1  0.99913606  0.00410566  0.04671057  1
  P  P48  1  0.50748400  0.98983535  0.95154010  1
  P  P49  1  0.00151715  0.50407099  0.95537923  1
  P  P50  1  0.49525552  0.00901986  0.70398770  1
  P  P51  1  0.00716975  0.49113565  0.70214132  1
  P  P52  1  0.50755915  0.99306896  0.45235687  1
  P  P53  1  0.99582493  0.50764235  0.45412086  1
  P  P54  1  0.49240310  0.00285273  0.20300117  1
  P  P55  1  0.99913598  0.50410556  0.20328982  1
  S  S56  1  0.16061766  0.95003894  0.82871367  1
  S  S57  1  0.66963901  0.44483423  0.83436978  1
  S  S58  1  0.16742995  0.94251946  0.58563515  1
  S  S59  1  0.66122833  0.44982930  0.57698645  1
  S  S60  1  0.16453629  0.94901409  0.32909594  1
  S  S61  1  0.66984191  0.44125866  0.33471759  1
  S  S62  1  0.15892838  0.95163925  0.08456030  1
  S  S63  1  0.65742520  0.44588445  0.07882067  1
  S  S64  1  0.44686523  0.14921259  0.91699867  1
  S  S65  1  0.95075884  0.66648492  0.92061489  1
  S  S66  1  0.44999983  0.17092904  0.66683339  1
  S  S67  1  0.94339330  0.64829373  0.66739899  1
  S  S68  1  0.44478109  0.14958436  0.41670634  1
  S  S69  1  0.94938761  0.67083869  0.41848959  1
  S  S70  1  0.44256346  0.15880831  0.16722995  1
  S  S71  1  0.94561809  0.67185955  0.16857854  1
  S  S72  1  0.44478113  0.64958434  0.83329363  1
  S  S73  1  0.94938740  0.17083863  0.83151043  1
  S  S74  1  0.44999966  0.67092901  0.58316678  1
  S  S75  1  0.94339315  0.14829365  0.58260122  1
  S  S76  1  0.44686509  0.64921234  0.33300142  1
  S  S77  1  0.95075807  0.16648422  0.32938511  1
  S  S78  1  0.44256344  0.65880831  0.08277001  1
  S  S79  1  0.94561806  0.17185949  0.08142143  1
  S  S80  1  0.66984184  0.94125864  0.91528251  1
  S  S81  1  0.16453622  0.44901425  0.92090407  1
  S  S82  1  0.66122823  0.94982951  0.67301370  1
  S  S83  1  0.16742958  0.44251942  0.66436500  1
  S  S84  1  0.66963904  0.94483455  0.41563015  1
  S  S85  1  0.16061756  0.45003893  0.42128635  1
  S  S86  1  0.65742528  0.94588438  0.17117937  1
  S  S87  1  0.15892819  0.45163947  0.16543980  1
  S  S88  1  0.33363680  0.32321204  0.80145455  1
  S  S89  1  0.83623483  0.84064528  0.79552159  1
  S  S90  1  0.33539404  0.34223477  0.54512507  1
  S  S91  1  0.83239232  0.82252077  0.55187139  1
  S  S92  1  0.33759378  0.32387264  0.29601165  1
  S  S93  1  0.83696234  0.83472573  0.30163373  1
  S  S94  1  0.32533042  0.33365865  0.04347489  1
  S  S95  1  0.82677017  0.84220405  0.05324369  1
  S  S96  1  0.33759359  0.82387264  0.95398831  1
  S  S97  1  0.83696240  0.33472591  0.94836630  1
  S  S98  1  0.33539422  0.84223453  0.70487502  1
  S  S99  1  0.83239261  0.32252080  0.69812870  1
  S  S100  1  0.33363688  0.82321201  0.44854545  1
  S  S101  1  0.83623492  0.34064529  0.45447846  1
  S  S102  1  0.32533010  0.83365871  0.20652510  1
  S  S103  1  0.82677009  0.34220385  0.19675637  1
  S  S104  1  0.55377391  0.55796645  0.96924768  1
  S  S105  1  0.06317573  0.05664574  0.97322670  1
  S  S106  1  0.55791263  0.55393992  0.72368243  1
  S  S107  1  0.05663500  0.06356140  0.71825736  1
  S  S108  1  0.55536053  0.56527592  0.46835280  1
  S  S109  1  0.05967110  0.05267932  0.47408997  1
  S  S110  1  0.55883306  0.55732295  0.22343078  1
  S  S111  1  0.05500044  0.05678079  0.21798710  1
  S  S112  1  0.55536042  0.06527591  0.78164742  1
  S  S113  1  0.05967166  0.55267969  0.77591040  1
  S  S114  1  0.55791253  0.05394017  0.52631760  1
  S  S115  1  0.05663488  0.56356140  0.53174271  1
  S  S116  1  0.55377365  0.05796638  0.28075230  1
  S  S117  1  0.06317586  0.55664601  0.27677360  1
  S  S118  1  0.55883274  0.05732288  0.02656921  1
  S  S119  1  0.05500070  0.55678085  0.03201290  1
