# generated using pymatgen
data_Dy4Te3S4
_symmetry_space_group_name_H-M   'P 1'
_cell_length_a   7.70050734
_cell_length_b   7.70050734
_cell_length_c   6.71721966
_cell_angle_alpha   84.23512984
_cell_angle_beta   84.23512984
_cell_angle_gamma   128.18575785
_symmetry_Int_Tables_number   1
_chemical_formula_structural   Dy4Te3S4
_chemical_formula_sum   'Dy4 Te3 S4'
_cell_volume   304.69485702
_cell_formula_units_Z   1
loop_
 _symmetry_equiv_pos_site_id
 _symmetry_equiv_pos_as_xyz
  1  'x, y, z'
loop_
 _atom_site_type_symbol
 _atom_site_label
 _atom_site_symmetry_multiplicity
 _atom_site_fract_x
 _atom_site_fract_y
 _atom_site_fract_z
 _atom_site_occupancy
  Dy  Dy0  1  0.90100279  0.57844902  0.75547900  1
  Dy  Dy1  1  0.57844902  0.90100279  0.75547900  1
  Dy  Dy2  1  0.09899721  0.42155098  0.24452100  1
  Dy  Dy3  1  0.42155098  0.09899721  0.24452100  1
  Te  Te4  1  0.63215245  0.63215245  0.13338258  1
  Te  Te5  1  0.36784755  0.36784755  0.86661742  1
  Te  Te6  1  -0.00000000  -0.00000000  0.50000000  1
  S  S7  1  0.78781126  0.21218874  0.00000000  1
  S  S8  1  0.21218874  0.78781126  0.00000000  1
  S  S9  1  0.71795607  0.28204393  0.50000000  1
  S  S10  1  0.28204393  0.71795607  0.50000000  1
