# generated using pymatgen
data_KTb2Cl7
_symmetry_space_group_name_H-M   'P 1'
_cell_length_a   12.62231971
_cell_length_b   6.94063051
_cell_length_c   12.88211349
_cell_angle_alpha   91.32632673
_cell_angle_beta   90.00000000
_cell_angle_gamma   90.00000000
_symmetry_Int_Tables_number   1
_chemical_formula_structural   KTb2Cl7
_chemical_formula_sum   'K4 Tb8 Cl28'
_cell_volume   1128.25911293
_cell_formula_units_Z   4
loop_
 _symmetry_equiv_pos_site_id
 _symmetry_equiv_pos_as_xyz
  1  'x, y, z'
loop_
 _atom_site_type_symbol
 _atom_site_label
 _atom_site_symmetry_multiplicity
 _atom_site_fract_x
 _atom_site_fract_y
 _atom_site_fract_z
 _atom_site_occupancy
  K  K0  1  0.21064753  0.79557672  0.03345800  1
  K  K1  1  0.78935247  0.20442328  0.96654200  1
  K  K2  1  0.71064753  0.20442328  0.46654200  1
  K  K3  1  0.28935247  0.79557672  0.53345800  1
  Tb  Tb4  1  0.53477076  0.77854847  0.23889856  1
  Tb  Tb5  1  0.46522924  0.22145153  0.76110144  1
  Tb  Tb6  1  0.03477076  0.22145153  0.26110144  1
  Tb  Tb7  1  0.96522924  0.77854847  0.73889856  1
  Tb  Tb8  1  0.83819152  0.71871027  0.24581448  1
  Tb  Tb9  1  0.16180848  0.28128973  0.75418552  1
  Tb  Tb10  1  0.33819152  0.28128973  0.25418552  1
  Tb  Tb11  1  0.66180848  0.71871027  0.74581448  1
  Cl  Cl12  1  0.97358236  0.93063066  0.12927216  1
  Cl  Cl13  1  0.02641764  0.06936934  0.87072784  1
  Cl  Cl14  1  0.47358236  0.06936934  0.37072784  1
  Cl  Cl15  1  0.52641764  0.93063066  0.62927216  1
  Cl  Cl16  1  0.68429316  0.74936114  0.39561671  1
  Cl  Cl17  1  0.31570684  0.25063886  0.60438329  1
  Cl  Cl18  1  0.18429316  0.25063886  0.10438329  1
  Cl  Cl19  1  0.81570684  0.74936114  0.89561671  1
  Cl  Cl20  1  0.67335723  0.51137506  0.16774357  1
  Cl  Cl21  1  0.32664277  0.48862494  0.83225643  1
  Cl  Cl22  1  0.17335723  0.48862494  0.33225643  1
  Cl  Cl23  1  0.82664277  0.51137506  0.66774357  1
  Cl  Cl24  1  0.92611855  0.97527103  0.38147595  1
  Cl  Cl25  1  0.07388145  0.02472897  0.61852405  1
  Cl  Cl26  1  0.42611855  0.02472897  0.11852405  1
  Cl  Cl27  1  0.57388145  0.97527103  0.88147595  1
  Cl  Cl28  1  0.93698254  0.44726412  0.12378682  1
  Cl  Cl29  1  0.06301746  0.55273588  0.87621318  1
  Cl  Cl30  1  0.43698254  0.55273588  0.37621318  1
  Cl  Cl31  1  0.56301746  0.44726412  0.62378682  1
  Cl  Cl32  1  0.70307802  0.99562354  0.17652558  1
  Cl  Cl33  1  0.29692198  0.00437646  0.82347442  1
  Cl  Cl34  1  0.20307802  0.00437646  0.32347442  1
  Cl  Cl35  1  0.79692198  0.99562354  0.67652558  1
  Cl  Cl36  1  0.90632804  0.45458750  0.37956272  1
  Cl  Cl37  1  0.09367196  0.54541250  0.62043728  1
  Cl  Cl38  1  0.40632804  0.54541250  0.12043728  1
  Cl  Cl39  1  0.59367196  0.45458750  0.87956272  1
