# generated using pymatgen
data_Cs2CdI4
_symmetry_space_group_name_H-M   'P 1'
_cell_length_a   8.03299053
_cell_length_b   8.49618626
_cell_length_c   11.22844426
_cell_angle_alpha   90.00000000
_cell_angle_beta   112.08262916
_cell_angle_gamma   90.00000000
_symmetry_Int_Tables_number   1
_chemical_formula_structural   Cs2CdI4
_chemical_formula_sum   'Cs4 Cd2 I8'
_cell_volume   710.12230349
_cell_formula_units_Z   2
loop_
 _symmetry_equiv_pos_site_id
 _symmetry_equiv_pos_as_xyz
  1  'x, y, z'
loop_
 _atom_site_type_symbol
 _atom_site_label
 _atom_site_symmetry_multiplicity
 _atom_site_fract_x
 _atom_site_fract_y
 _atom_site_fract_z
 _atom_site_occupancy
  Cs  Cs0  1  0.28754930  0.25000000  0.58975069  1
  Cs  Cs1  1  0.71245070  0.75000000  0.41024931  1
  Cs  Cs2  1  0.84129324  0.25000000  0.03498067  1
  Cs  Cs3  1  0.15870676  0.75000000  0.96501933  1
  Cd  Cd4  1  0.58730942  0.75000000  0.77880356  1
  Cd  Cd5  1  0.41269058  0.25000000  0.22119644  1
  I  I6  1  0.75059686  0.01051229  0.71468389  1
  I  I7  1  0.24940314  0.51051229  0.28531611  1
  I  I8  1  0.24940314  0.98948771  0.28531611  1
  I  I9  1  0.75059686  0.48948771  0.71468389  1
  I  I10  1  0.31028731  0.25000000  0.95137136  1
  I  I11  1  0.68971269  0.75000000  0.04862864  1
  I  I12  1  0.78179912  0.25000000  0.35825769  1
  I  I13  1  0.21820088  0.75000000  0.64174231  1
