# generated using pymatgen
data_Ba2TiS4
_symmetry_space_group_name_H-M   'P 1'
_cell_length_a   6.89765161
_cell_length_b   9.13600131
_cell_length_c   12.51315810
_cell_angle_alpha   90.00000000
_cell_angle_beta   90.00000000
_cell_angle_gamma   90.00000000
_symmetry_Int_Tables_number   1
_chemical_formula_structural   Ba2TiS4
_chemical_formula_sum   'Ba8 Ti4 S16'
_cell_volume   788.54111020
_cell_formula_units_Z   4
loop_
 _symmetry_equiv_pos_site_id
 _symmetry_equiv_pos_as_xyz
  1  'x, y, z'
loop_
 _atom_site_type_symbol
 _atom_site_label
 _atom_site_symmetry_multiplicity
 _atom_site_fract_x
 _atom_site_fract_y
 _atom_site_fract_z
 _atom_site_occupancy
  Ba  Ba0  1  0.25000000  0.13218096  0.07871662  1
  Ba  Ba1  1  0.75000000  0.86781904  0.92128338  1
  Ba  Ba2  1  0.25000000  0.63218096  0.42128338  1
  Ba  Ba3  1  0.75000000  0.36781904  0.57871662  1
  Ba  Ba4  1  0.25000000  0.47678266  0.82569425  1
  Ba  Ba5  1  0.75000000  0.52321734  0.17430575  1
  Ba  Ba6  1  0.25000000  0.97678266  0.67430575  1
  Ba  Ba7  1  0.75000000  0.02321734  0.32569425  1
  Ti  Ti8  1  0.25000000  0.22731495  0.42621583  1
  Ti  Ti9  1  0.75000000  0.77268505  0.57378417  1
  Ti  Ti10  1  0.25000000  0.72731495  0.07378417  1
  Ti  Ti11  1  0.75000000  0.27268505  0.92621583  1
  S  S12  1  0.25000000  0.30799428  0.59665505  1
  S  S13  1  0.75000000  0.69200572  0.40334495  1
  S  S14  1  0.25000000  0.80799428  0.90334495  1
  S  S15  1  0.75000000  0.19200572  0.09665505  1
  S  S16  1  0.99198582  0.83100692  0.14983460  1
  S  S17  1  0.49198582  0.16899308  0.85016540  1
  S  S18  1  0.50801418  0.33100692  0.35016540  1
  S  S19  1  0.00801418  0.66899308  0.64983460  1
  S  S20  1  0.00801418  0.16899308  0.85016540  1
  S  S21  1  0.50801418  0.83100692  0.14983460  1
  S  S22  1  0.49198582  0.66899308  0.64983460  1
  S  S23  1  0.99198582  0.33100692  0.35016540  1
  S  S24  1  0.75000000  0.01816997  0.59099297  1
  S  S25  1  0.25000000  0.98183003  0.40900703  1
  S  S26  1  0.75000000  0.51816997  0.90900703  1
  S  S27  1  0.25000000  0.48183003  0.09099297  1
