# generated using pymatgen
data_MgO
_symmetry_space_group_name_H-M   'P 1'
_cell_length_a   2.96053752
_cell_length_b   2.96053752
_cell_length_c   29.41562071
_cell_angle_alpha   90.00000000
_cell_angle_beta   90.00000000
_cell_angle_gamma   119.99985067
_symmetry_Int_Tables_number   1
_chemical_formula_structural   MgO
_chemical_formula_sum   'Mg12 O12'
_cell_volume   223.28031716
_cell_formula_units_Z   12
loop_
 _symmetry_equiv_pos_site_id
 _symmetry_equiv_pos_as_xyz
  1  'x, y, z'
loop_
 _atom_site_type_symbol
 _atom_site_label
 _atom_site_symmetry_multiplicity
 _atom_site_fract_x
 _atom_site_fract_y
 _atom_site_fract_z
 _atom_site_occupancy
  Mg  Mg0  1  0.66666778  0.33333222  0.16500111  1
  Mg  Mg1  1  0.33333222  0.66666778  0.83499889  1
  Mg  Mg2  1  0.33333222  0.66666778  0.66500111  1
  Mg  Mg3  1  0.66666778  0.33333222  0.33499889  1
  Mg  Mg4  1  0.66666844  0.33333156  0.58256071  1
  Mg  Mg5  1  0.33333156  0.66666844  0.41743929  1
  Mg  Mg6  1  0.33333156  0.66666844  0.08256071  1
  Mg  Mg7  1  0.66666844  0.33333156  0.91743929  1
  Mg  Mg8  1  0.00001432  0.99998568  0.75000000  1
  Mg  Mg9  1  0.99998568  0.00001432  0.25000000  1
  Mg  Mg10  1  -0.00000000  0.00000000  0.00000000  1
  Mg  Mg11  1  -0.00000000  0.00000000  0.50000000  1
  O  O12  1  0.66666868  0.33333132  0.04125484  1
  O  O13  1  0.33333132  0.66666868  0.95874516  1
  O  O14  1  0.33333132  0.66666868  0.54125484  1
  O  O15  1  0.66666868  0.33333132  0.45874516  1
  O  O16  1  0.66667228  0.33332772  0.79392053  1
  O  O17  1  0.33332772  0.66667228  0.20607947  1
  O  O18  1  0.33332772  0.66667228  0.29392053  1
  O  O19  1  0.66667228  0.33332772  0.70607947  1
  O  O20  1  0.00000074  -0.00000074  0.87623952  1
  O  O21  1  -0.00000074  0.00000074  0.12376048  1
  O  O22  1  -0.00000074  0.00000074  0.37623952  1
  O  O23  1  0.00000074  -0.00000074  0.62376048  1
