# generated using pymatgen
data_CeTh4O10
_symmetry_space_group_name_H-M   'P 1'
_cell_length_a   14.20070753
_cell_length_b   14.20070753
_cell_length_c   14.20070753
_cell_angle_alpha   164.05145053
_cell_angle_beta   164.05145053
_cell_angle_gamma   22.62869302
_symmetry_Int_Tables_number   1
_chemical_formula_structural   CeTh4O10
_chemical_formula_sum   'Ce1 Th4 O10'
_cell_volume   216.17115610
_cell_formula_units_Z   1
loop_
 _symmetry_equiv_pos_site_id
 _symmetry_equiv_pos_as_xyz
  1  'x, y, z'
loop_
 _atom_site_type_symbol
 _atom_site_label
 _atom_site_symmetry_multiplicity
 _atom_site_fract_x
 _atom_site_fract_y
 _atom_site_fract_z
 _atom_site_occupancy
  Ce  Ce0  1  -0.00000000  -0.00000000  0.00000000  1
  Th  Th1  1  0.40138946  0.40138946  0.00000000  1
  Th  Th2  1  0.80041666  0.80041666  0.00000000  1
  Th  Th3  1  0.19958334  0.19958334  -0.00000000  1
  Th  Th4  1  0.59861054  0.59861054  -0.00000000  1
  O  O5  1  0.14916678  0.64916678  0.50000000  1
  O  O6  1  0.54855151  0.04855151  0.50000000  1
  O  O7  1  0.95144849  0.45144849  0.50000000  1
  O  O8  1  0.35083322  0.85083322  0.50000000  1
  O  O9  1  0.75000000  0.25000000  0.50000000  1
  O  O10  1  0.04855151  0.54855151  0.50000000  1
  O  O11  1  0.45144849  0.95144849  0.50000000  1
  O  O12  1  0.85083322  0.35083322  0.50000000  1
  O  O13  1  0.25000000  0.75000000  0.50000000  1
  O  O14  1  0.64916678  0.14916678  0.50000000  1
