# generated using pymatgen
data_K2MgFe4P6(O4F3)4
_symmetry_space_group_name_H-M   'P 1'
_cell_length_a   7.58272765
_cell_length_b   7.81125757
_cell_length_c   10.88651906
_cell_angle_alpha   101.33150897
_cell_angle_beta   109.24957725
_cell_angle_gamma   92.03068971
_symmetry_Int_Tables_number   1
_chemical_formula_structural   K2MgFe4P6(O4F3)4
_chemical_formula_sum   'K2 Mg1 Fe4 P6 O16 F12'
_cell_volume   593.38993042
_cell_formula_units_Z   1
loop_
 _symmetry_equiv_pos_site_id
 _symmetry_equiv_pos_as_xyz
  1  'x, y, z'
loop_
 _atom_site_type_symbol
 _atom_site_label
 _atom_site_symmetry_multiplicity
 _atom_site_fract_x
 _atom_site_fract_y
 _atom_site_fract_z
 _atom_site_occupancy
  K  K0  1  0.75014806  0.10444231  0.77951261  1
  K  K1  1  0.22375122  0.96805192  0.18580550  1
  Mg  Mg2  1  0.41028970  0.51550290  0.28308751  1
  Fe  Fe3  1  0.71062063  0.29663883  0.33874656  1
  Fe  Fe4  1  0.33632038  0.68378204  0.67747150  1
  Fe  Fe5  1  0.49889902  0.49938419  0.99228185  1
  Fe  Fe6  1  0.01196478  0.99476629  0.50898223  1
  P  P7  1  0.65065326  0.72791323  0.51775782  1
  P  P8  1  0.32180548  0.28899560  0.48286289  1
  P  P9  1  0.30705937  0.08664034  0.81812001  1
  P  P10  1  0.70037657  0.88849978  0.20381779  1
  P  P11  1  0.06160497  0.59562380  0.84345175  1
  P  P12  1  0.94085992  0.41061633  0.14816567  1
  O  O13  1  0.67547603  0.55536978  0.43419475  1
  O  O14  1  0.26058131  0.44933532  0.55385041  1
  O  O15  1  0.79746040  0.88049516  0.55405151  1
  O  O16  1  0.20245466  0.11524819  0.45403671  1
  O  O17  1  0.60262417  0.05108075  0.23324776  1
  O  O18  1  0.41019703  0.92784358  0.78854268  1
  O  O19  1  0.44391974  0.25061152  0.87641055  1
  O  O20  1  0.55985615  0.72422858  0.14688983  1
  O  O21  1  0.88059321  0.87301443  0.31574221  1
  O  O22  1  0.12669868  0.09960293  0.70557497  1
  O  O23  1  0.91970858  0.36656056  0.26900458  1
  O  O24  1  0.10695474  0.65073613  0.73244398  1
  O  O25  1  0.80054441  0.47542800  0.04228415  1
  O  O26  1  0.20494678  0.54306575  0.95687020  1
  O  O27  1  0.36036661  0.31240830  0.35691723  1
  O  O28  1  0.57098110  0.71867565  0.62599534  1
  F  F29  1  0.86398998  0.19544384  0.49515550  1
  F  F30  1  0.16740982  0.79350256  0.53289217  1
  F  F31  1  0.50551559  0.38055264  0.16260890  1
  F  F32  1  0.49088764  0.59769928  0.82606393  1
  F  F33  1  0.77708264  0.91556584  0.08700706  1
  F  F34  1  0.22999347  0.05337967  0.93397075  1
  F  F35  1  0.89009577  0.44924557  0.77953169  1
  F  F36  1  0.13107021  0.55168388  0.20276545  1
  F  F37  1  0.52216635  0.25995505  0.58250371  1
  F  F38  1  0.45961159  0.77207347  0.39478660  1
  F  F39  1  0.02875267  0.25383262  0.07977762  1
  F  F40  1  0.96070731  0.74750338  0.90306607  1
