# generated using pymatgen
data_HoAsO4
_symmetry_space_group_name_H-M   'P 1'
_cell_length_a   5.88020430
_cell_length_b   5.88020566
_cell_length_c   5.88020535
_cell_angle_alpha   106.60450770
_cell_angle_beta   106.60450067
_cell_angle_gamma   115.37067562
_symmetry_Int_Tables_number   1
_chemical_formula_structural   HoAsO4
_chemical_formula_sum   'Ho2 As2 O8'
_cell_volume   155.25757966
_cell_formula_units_Z   2
loop_
 _symmetry_equiv_pos_site_id
 _symmetry_equiv_pos_as_xyz
  1  'x, y, z'
loop_
 _atom_site_type_symbol
 _atom_site_label
 _atom_site_symmetry_multiplicity
 _atom_site_fract_x
 _atom_site_fract_y
 _atom_site_fract_z
 _atom_site_occupancy
  Ho  Ho0  1  0.12500000  0.87500000  0.25000000  1
  Ho  Ho1  1  0.87500000  0.12500000  0.75000000  1
  As  As2  1  0.37500000  0.62500000  0.75000000  1
  As  As3  1  0.62500000  0.37500000  0.25000000  1
  O  O4  1  0.80123514  0.73364853  0.43241339  1
  O  O5  1  0.36882275  0.80123514  0.56758661  1
  O  O6  1  0.73364853  0.80123514  0.93241339  1
  O  O7  1  0.80123514  0.36882275  0.06758661  1
  O  O8  1  0.63117725  0.19876486  0.43241339  1
  O  O9  1  0.19876486  0.26635147  0.56758661  1
  O  O10  1  0.19876486  0.63117725  0.93241339  1
  O  O11  1  0.26635147  0.19876486  0.06758661  1
