# generated using pymatgen
data_Pr2MgS4
_symmetry_space_group_name_H-M   'P 1'
_cell_length_a   13.13787841
_cell_length_b   7.88167053
_cell_length_c   13.05281125
_cell_angle_alpha   90.00000000
_cell_angle_beta   90.00000000
_cell_angle_gamma   90.00000000
_symmetry_Int_Tables_number   1
_chemical_formula_structural   Pr2MgS4
_chemical_formula_sum   'Pr16 Mg8 S32'
_cell_volume   1351.59810016
_cell_formula_units_Z   8
loop_
 _symmetry_equiv_pos_site_id
 _symmetry_equiv_pos_as_xyz
  1  'x, y, z'
loop_
 _atom_site_type_symbol
 _atom_site_label
 _atom_site_symmetry_multiplicity
 _atom_site_fract_x
 _atom_site_fract_y
 _atom_site_fract_z
 _atom_site_occupancy
  Pr  Pr0  1  0.11001968  0.88615999  0.68349945  1
  Pr  Pr1  1  0.88998032  0.11384001  0.18349945  1
  Pr  Pr2  1  0.38998032  0.88615999  0.18349945  1
  Pr  Pr3  1  0.61001968  0.11384001  0.68349945  1
  Pr  Pr4  1  0.12701169  0.38412672  0.32629043  1
  Pr  Pr5  1  0.87298831  0.61587328  0.82629043  1
  Pr  Pr6  1  0.37298831  0.38412672  0.82629043  1
  Pr  Pr7  1  0.62701169  0.61587328  0.32629043  1
  Pr  Pr8  1  0.13489146  0.63045050  0.99448693  1
  Pr  Pr9  1  0.86510854  0.36954950  0.49448693  1
  Pr  Pr10  1  0.36510854  0.63045050  0.49448693  1
  Pr  Pr11  1  0.63489146  0.36954950  0.99448693  1
  Pr  Pr12  1  0.13607210  0.13016345  0.99335535  1
  Pr  Pr13  1  0.86392790  0.86983655  0.49335535  1
  Pr  Pr14  1  0.36392790  0.13016345  0.49335535  1
  Pr  Pr15  1  0.63607210  0.86983655  0.99335535  1
  Mg  Mg16  1  0.11143892  0.38569577  0.69376494  1
  Mg  Mg17  1  0.88856108  0.61430423  0.19376494  1
  Mg  Mg18  1  0.38856108  0.38569577  0.19376494  1
  Mg  Mg19  1  0.61143892  0.61430423  0.69376494  1
  Mg  Mg20  1  0.12561830  0.88022323  0.31988014  1
  Mg  Mg21  1  0.87438170  0.11977677  0.81988014  1
  Mg  Mg22  1  0.37438170  0.88022323  0.81988014  1
  Mg  Mg23  1  0.62561830  0.11977677  0.31988014  1
  S  S24  1  0.01039843  0.88263835  0.87942836  1
  S  S25  1  0.98960157  0.11736165  0.37942836  1
  S  S26  1  0.48960157  0.88263835  0.37942836  1
  S  S27  1  0.51039843  0.11736165  0.87942836  1
  S  S28  1  0.02762362  0.38296316  0.12879080  1
  S  S29  1  0.97237638  0.61703684  0.62879080  1
  S  S30  1  0.47237638  0.38296316  0.62879080  1
  S  S31  1  0.52762362  0.61703684  0.12879080  1
  S  S32  1  0.02559525  0.37138333  0.86640595  1
  S  S33  1  0.97440475  0.62861667  0.36640595  1
  S  S34  1  0.47440475  0.37138333  0.36640595  1
  S  S35  1  0.52559525  0.62861667  0.86640595  1
  S  S36  1  0.04737141  0.87328325  0.14097301  1
  S  S37  1  0.95262859  0.12671675  0.64097301  1
  S  S38  1  0.45262859  0.87328325  0.64097301  1
  S  S39  1  0.54737141  0.12671675  0.14097301  1
  S  S40  1  0.20967477  0.88033943  0.49414992  1
  S  S41  1  0.79032523  0.11966057  0.99414992  1
  S  S42  1  0.29032523  0.88033943  0.99414992  1
  S  S43  1  0.70967477  0.11966057  0.49414992  1
  S  S44  1  0.20991690  0.38125775  0.52544192  1
  S  S45  1  0.79008310  0.61874225  0.02544192  1
  S  S46  1  0.29008310  0.38125775  0.02544192  1
  S  S47  1  0.70991690  0.61874225  0.52544192  1
  S  S48  1  0.23301946  0.13237144  0.77389294  1
  S  S49  1  0.76698054  0.86762856  0.27389294  1
  S  S50  1  0.26698054  0.13237144  0.27389294  1
  S  S51  1  0.73301946  0.86762856  0.77389294  1
  S  S52  1  0.23151858  0.63407339  0.77664087  1
  S  S53  1  0.76848142  0.36592661  0.27664087  1
  S  S54  1  0.26848142  0.63407339  0.27664087  1
  S  S55  1  0.73151858  0.36592661  0.77664087  1
