# generated using pymatgen
data_Mn3V2O8
_symmetry_space_group_name_H-M   'P 1'
_cell_length_a   10.85135578
_cell_length_b   10.85137816
_cell_length_c   10.85129435
_cell_angle_alpha   142.54915376
_cell_angle_beta   142.54920475
_cell_angle_gamma   54.00216710
_symmetry_Int_Tables_number   1
_chemical_formula_structural   Mn3V2O8
_chemical_formula_sum   'Mn9 V6 O24'
_cell_volume   469.33895586
_cell_formula_units_Z   3
loop_
 _symmetry_equiv_pos_site_id
 _symmetry_equiv_pos_as_xyz
  1  'x, y, z'
loop_
 _atom_site_type_symbol
 _atom_site_label
 _atom_site_symmetry_multiplicity
 _atom_site_fract_x
 _atom_site_fract_y
 _atom_site_fract_z
 _atom_site_occupancy
  Mn  Mn0  1  0.47814447  0.97814232  0.49999504  1
  Mn  Mn1  1  0.77499587  0.77499598  0.00000160  1
  Mn  Mn2  1  0.02185520  0.52185311  0.50000346  1
  Mn  Mn3  1  0.22500358  0.22500312  -0.00000397  1
  Mn  Mn4  1  0.74999820  0.24999882  0.49999657  1
  Mn  Mn5  1  0.13128424  0.11833002  0.49542087  1
  Mn  Mn6  1  0.62291310  0.63587043  0.50458762  1
  Mn  Mn7  1  0.36413262  0.86871731  0.98704373  1
  Mn  Mn8  1  0.88167739  0.37709153  0.01296112  1
  V  V9  1  0.12297895  0.52945669  0.90290896  1
  V  V10  1  0.62654980  0.22007198  0.09709307  1
  V  V11  1  0.77992443  0.87702395  0.40647697  1
  V  V12  1  0.47054795  0.37344852  0.59352252  1
  V  V13  1  0.25000150  0.74999901  0.49999919  1
  V  V14  1  -0.00000226  -0.00000077  -0.00000002  1
  O  O15  1  0.08739813  0.84812100  0.34409325  1
  O  O16  1  0.16501070  0.00021174  0.25576596  1
  O  O17  1  0.50402911  0.74330240  0.65590596  1
  O  O18  1  0.74444645  0.90924654  0.74423474  1
  O  O19  1  0.25669688  0.91260370  0.76072622  1
  O  O20  1  -0.00021662  0.25555370  0.16479693  1
  O  O21  1  0.15187931  0.49597004  0.23927343  1
  O  O22  1  0.09075574  0.83498742  0.83520226  1
  O  O23  1  0.07903061  0.30054795  0.77571765  1
  O  O24  1  0.13814801  0.43219262  0.69177203  1
  O  O25  1  0.52483064  0.30330995  0.22428101  1
  O  O26  1  0.74041761  0.44637665  0.30822708  1
  O  O27  1  0.69668918  0.92096943  0.22151799  1
  O  O28  1  0.56780261  0.25958180  0.70595245  1
  O  O29  1  0.69945252  0.47516801  0.77848067  1
  O  O30  1  0.55362313  0.86185306  0.29404259  1
  O  O31  1  0.37456734  0.18652325  0.26281254  1
  O  O32  1  0.87838145  0.64643038  0.31926962  1
  O  O33  1  0.92370573  0.11175179  0.73718435  1
  O  O34  1  0.32716424  0.55911469  0.68073387  1
  O  O35  1  0.88824707  0.62543407  0.81195617  1
  O  O36  1  0.35356969  0.67283295  0.23194687  1
  O  O37  1  0.81347904  0.07629281  0.18804740  1
  O  O38  1  0.44088839  0.12162202  0.76805227  1
