# generated using pymatgen
data_MgP4(Br3O)4
_symmetry_space_group_name_H-M   'P 1'
_cell_length_a   6.36628657
_cell_length_b   11.02611279
_cell_length_c   11.38689833
_cell_angle_alpha   89.53519106
_cell_angle_beta   90.22452353
_cell_angle_gamma   98.58385999
_symmetry_Int_Tables_number   1
_chemical_formula_structural   MgP4(Br3O)4
_chemical_formula_sum   'Mg1 P4 Br12 O4'
_cell_volume   790.32536639
_cell_formula_units_Z   1
loop_
 _symmetry_equiv_pos_site_id
 _symmetry_equiv_pos_as_xyz
  1  'x, y, z'
loop_
 _atom_site_type_symbol
 _atom_site_label
 _atom_site_symmetry_multiplicity
 _atom_site_fract_x
 _atom_site_fract_y
 _atom_site_fract_z
 _atom_site_occupancy
  Mg  Mg0  1  0.61879500  0.81404300  0.24553700  1
  P  P1  1  0.36593300  0.31000900  0.24435000  1
  P  P2  1  0.63870500  0.67605900  0.74541700  1
  P  P3  1  0.90730000  0.18197700  0.74500600  1
  P  P4  1  0.09408200  0.85070500  0.24383000  1
  Br  Br5  1  0.84209400  0.64857000  0.59377500  1
  Br  Br6  1  0.82893800  0.02445700  0.25231600  1
  Br  Br7  1  0.33649200  0.77272100  0.40582800  1
  Br  Br8  1  0.69987000  0.14360500  0.89883200  1
  Br  Br9  1  0.18421600  0.35033900  0.39934900  1
  Br  Br10  1  0.84289100  0.64974400  0.89821300  1
  Br  Br11  1  0.39131700  0.51486800  0.74649700  1
  Br  Br12  1  0.69879100  0.14304200  0.59145700  1
  Br  Br13  1  0.10666800  0.03552900  0.74644300  1
  Br  Br14  1  0.18156700  0.35612800  0.09099500  1
  Br  Br15  1  0.34285700  0.77400700  0.08309300  1
  Br  Br16  1  0.64711300  0.45461000  0.24540900  1
  O  O17  1  0.55986900  0.79507600  0.74401100  1
  O  O18  1  0.02899500  0.30694500  0.74398800  1
  O  O19  1  0.41842000  0.18440800  0.24280000  1
  O  O20  1  0.90050400  0.75065700  0.24299900  1
