# generated using pymatgen
data_MgI8(OF2)12
_symmetry_space_group_name_H-M   'P 1'
_cell_length_a   8.75958542
_cell_length_b   9.69594557
_cell_length_c   10.19542796
_cell_angle_alpha   116.07629158
_cell_angle_beta   89.16955164
_cell_angle_gamma   90.66618416
_symmetry_Int_Tables_number   1
_chemical_formula_structural   MgI8(OF2)12
_chemical_formula_sum   'Mg1 I8 O12 F24'
_cell_volume   777.68511890
_cell_formula_units_Z   1
loop_
 _symmetry_equiv_pos_site_id
 _symmetry_equiv_pos_as_xyz
  1  'x, y, z'
loop_
 _atom_site_type_symbol
 _atom_site_label
 _atom_site_symmetry_multiplicity
 _atom_site_fract_x
 _atom_site_fract_y
 _atom_site_fract_z
 _atom_site_occupancy
  Mg  Mg0  1  0.52323009  0.89228074  0.59217484  1
  I  I1  1  0.72817124  0.57344625  0.92945035  1
  I  I2  1  0.23270678  0.91395047  0.06835819  1
  I  I3  1  0.26755743  0.42576416  0.07506948  1
  I  I4  1  0.78028028  0.09257984  0.94682966  1
  I  I5  1  0.60443110  0.64295458  0.30325848  1
  I  I6  1  0.09850928  0.83631937  0.68785071  1
  I  I7  1  0.39925250  0.33645717  0.68577614  1
  I  I8  1  0.90338444  0.15640844  0.30929730  1
  O  O9  1  0.51736217  0.50705016  0.77157216  1
  O  O10  1  0.01347061  0.98197958  0.22195926  1
  O  O11  1  0.46908160  0.47646383  0.20272621  1
  O  O12  1  0.00072827  0.01801933  0.78202295  1
  O  O13  1  0.62752378  0.69638268  0.14824441  1
  O  O14  1  0.12642645  0.79003669  0.84113430  1
  O  O15  1  0.37309298  0.28828946  0.83815979  1
  O  O16  1  0.89017814  0.20015224  0.14736972  1
  O  O17  1  0.26939924  0.59872068  0.05758348  1
  O  O18  1  0.77773656  0.90861720  0.93982228  1
  O  O19  1  0.72475148  0.39329308  0.93225882  1
  O  O20  1  0.22914731  0.08980061  0.05788343  1
  F  F21  1  0.41850438  0.80053633  0.39422315  1
  F  F22  1  0.41243184  0.35178436  0.50832763  1
  F  F23  1  0.09313768  0.85897140  0.51472538  1
  F  F24  1  0.55353198  0.68635634  0.55708331  1
  F  F25  1  0.78668886  0.33181189  0.41378074  1
  F  F26  1  0.90709931  0.14546977  0.48706107  1
  F  F27  1  0.20602993  0.65807164  0.56919002  1
  F  F28  1  0.69710311  0.87777196  0.46320475  1
  F  F29  1  0.71685454  0.05157147  0.27172681  1
  F  F30  1  0.21590642  0.44543771  0.71771114  1
  F  F31  1  0.30142892  0.93418448  0.70976679  1
  F  F32  1  0.79020039  0.51738074  0.24413931  1
  F  F33  1  0.63638358  0.02595853  0.77276029  1
  F  F34  1  0.15597254  0.50071832  0.25446278  1
  F  F35  1  0.34513470  0.98784923  0.24388661  1
  F  F36  1  0.84860701  0.50257541  0.75290463  1
  F  F37  1  0.59455333  0.16141793  0.05268868  1
  F  F38  1  0.07102539  0.35649059  0.98022864  1
  F  F39  1  0.42185615  0.84493227  0.96713057  1
  F  F40  1  0.91734936  0.64975373  0.02722058  1
  F  F41  1  0.56450353  0.19537717  0.61009650  1
  F  F42  1  0.07198234  0.28789111  0.37353209  1
  F  F43  1  0.28041413  0.16085918  0.57009038  1
  F  F44  1  0.92259283  0.71591789  0.62400619  1
