# generated using pymatgen
data_CeSe2
_symmetry_space_group_name_H-M   'P 1'
_cell_length_a   13.76020248
_cell_length_b   14.93936162
_cell_length_c   14.93936162
_cell_angle_alpha   90.00000000
_cell_angle_beta   90.00000000
_cell_angle_gamma   90.00000000
_symmetry_Int_Tables_number   1
_chemical_formula_structural   CeSe2
_chemical_formula_sum   'Ce16 Se32'
_cell_volume   3071.06426284
_cell_formula_units_Z   16
loop_
 _symmetry_equiv_pos_site_id
 _symmetry_equiv_pos_as_xyz
  1  'x, y, z'
loop_
 _atom_site_type_symbol
 _atom_site_label
 _atom_site_symmetry_multiplicity
 _atom_site_fract_x
 _atom_site_fract_y
 _atom_site_fract_z
 _atom_site_occupancy
  Ce  Ce0  1  0.06182393  0.55206737  0.27968841  1
  Ce  Ce1  1  0.43817607  0.55206737  0.72031159  1
  Ce  Ce2  1  0.06182393  0.05206737  0.22031159  1
  Ce  Ce3  1  0.43817607  0.05206737  0.77968841  1
  Ce  Ce4  1  0.06182393  0.44793263  0.72031159  1
  Ce  Ce5  1  0.43817607  0.44793263  0.27968841  1
  Ce  Ce6  1  0.06182393  0.94793263  0.77968841  1
  Ce  Ce7  1  0.43817607  0.94793263  0.22031159  1
  Ce  Ce8  1  0.93817607  0.27968841  0.44793263  1
  Ce  Ce9  1  0.56182393  0.72031159  0.44793263  1
  Ce  Ce10  1  0.93817607  0.22031159  0.94793263  1
  Ce  Ce11  1  0.56182393  0.77968841  0.94793263  1
  Ce  Ce12  1  0.93817607  0.72031159  0.55206737  1
  Ce  Ce13  1  0.56182393  0.27968841  0.55206737  1
  Ce  Ce14  1  0.93817607  0.77968841  0.05206737  1
  Ce  Ce15  1  0.56182393  0.22031159  0.05206737  1
  Se  Se16  1  0.50000000  0.62075695  0.87924305  1
  Se  Se17  1  -0.00000000  0.62075695  0.12075695  1
  Se  Se18  1  0.50000000  0.12075695  0.62075695  1
  Se  Se19  1  -0.00000000  0.12075695  0.37924305  1
  Se  Se20  1  0.50000000  0.37924305  0.12075695  1
  Se  Se21  1  -0.00000000  0.37924305  0.87924305  1
  Se  Se22  1  0.50000000  0.87924305  0.37924305  1
  Se  Se23  1  -0.00000000  0.87924305  0.62075695  1
  Se  Se24  1  0.75000000  0.23950634  0.00000000  1
  Se  Se25  1  0.75000000  0.73950634  0.50000000  1
  Se  Se26  1  0.75000000  0.76049366  0.00000000  1
  Se  Se27  1  0.75000000  0.26049366  0.50000000  1
  Se  Se28  1  0.25000000  0.00000000  0.76049366  1
  Se  Se29  1  0.25000000  0.50000000  0.26049366  1
  Se  Se30  1  0.25000000  0.00000000  0.23950634  1
  Se  Se31  1  0.25000000  0.50000000  0.73950634  1
  Se  Se32  1  0.94532170  0.41083491  0.32175228  1
  Se  Se33  1  0.55467830  0.41083491  0.67824772  1
  Se  Se34  1  0.94532170  0.91083491  0.17824772  1
  Se  Se35  1  0.55467830  0.91083491  0.82175228  1
  Se  Se36  1  0.94532170  0.58916509  0.67824772  1
  Se  Se37  1  0.55467830  0.58916509  0.32175228  1
  Se  Se38  1  0.94532170  0.08916509  0.82175228  1
  Se  Se39  1  0.55467830  0.08916509  0.17824772  1
  Se  Se40  1  0.05467830  0.32175228  0.58916509  1
  Se  Se41  1  0.44532170  0.67824772  0.58916509  1
  Se  Se42  1  0.05467830  0.17824772  0.08916509  1
  Se  Se43  1  0.44532170  0.82175228  0.08916509  1
  Se  Se44  1  0.05467830  0.67824772  0.41083491  1
  Se  Se45  1  0.44532170  0.32175228  0.41083491  1
  Se  Se46  1  0.05467830  0.82175228  0.91083491  1
  Se  Se47  1  0.44532170  0.17824772  0.91083491  1
