# generated using pymatgen
data_Li6Zn3(PS4)4
_symmetry_space_group_name_H-M   'P 1'
_cell_length_a   9.27157437
_cell_length_b   11.61793576
_cell_length_c   23.19768495
_cell_angle_alpha   89.93788996
_cell_angle_beta   90.02803478
_cell_angle_gamma   90.06945622
_symmetry_Int_Tables_number   1
_chemical_formula_structural   Li6Zn3(PS4)4
_chemical_formula_sum   'Li24 Zn12 P16 S64'
_cell_volume   2498.77111549
_cell_formula_units_Z   4
loop_
 _symmetry_equiv_pos_site_id
 _symmetry_equiv_pos_as_xyz
  1  'x, y, z'
loop_
 _atom_site_type_symbol
 _atom_site_label
 _atom_site_symmetry_multiplicity
 _atom_site_fract_x
 _atom_site_fract_y
 _atom_site_fract_z
 _atom_site_occupancy
  Li  Li0  1  0.74825420  0.99907016  0.87026608  1
  Li  Li1  1  0.25020842  0.75444070  0.75338062  1
  Li  Li2  1  0.24609330  0.74036939  0.99607163  1
  Li  Li3  1  0.25265016  0.25695464  0.99171814  1
  Li  Li4  1  0.50275646  0.49814067  0.25136737  1
  Li  Li5  1  0.50034675  0.99995047  0.25093768  1
  Li  Li6  1  0.49977814  0.49932612  0.50035014  1
  Li  Li7  1  0.50429051  0.00072170  0.49925878  1
  Li  Li8  1  0.00211356  0.74894519  0.37535915  1
  Li  Li9  1  0.00119477  0.24942398  0.37566985  1
  Li  Li10  1  0.50364562  0.49651974  0.74993642  1
  Li  Li11  1  0.50036032  0.00179198  0.74885290  1
  Li  Li12  1  0.99796017  0.75136895  0.62309408  1
  Li  Li13  1  0.00382187  0.25049710  0.62472800  1
  Li  Li14  1  0.51530829  0.50190817  0.99814237  1
  Li  Li15  1  0.50122329  0.00128137  0.00225181  1
  Li  Li16  1  0.98546418  0.74845992  0.87428262  1
  Li  Li17  1  0.99725472  0.25552042  0.87309707  1
  Li  Li18  1  0.99783196  0.74811724  0.12630537  1
  Li  Li19  1  0.99640170  0.24842490  0.12787139  1
  Li  Li20  1  0.49970960  0.25126237  0.87259225  1
  Li  Li21  1  0.50815372  0.74677531  0.87590814  1
  Li  Li22  1  0.00044620  0.00270659  0.74749092  1
  Li  Li23  1  0.98466152  0.49943631  0.00002754  1
  Zn  Zn24  1  0.50660050  0.24989574  0.12489296  1
  Zn  Zn25  1  0.50722807  0.74919753  0.12670101  1
  Zn  Zn26  1  0.49940776  0.25095343  0.37589329  1
  Zn  Zn27  1  0.49886424  0.75036595  0.37535895  1
  Zn  Zn28  1  0.00080065  0.49999061  0.25001759  1
  Zn  Zn29  1  0.99920840  0.00089304  0.25127639  1
  Zn  Zn30  1  0.49993426  0.24895441  0.62596577  1
  Zn  Zn31  1  0.50667020  0.75238065  0.62396837  1
  Zn  Zn32  1  0.99939944  0.50034840  0.50049675  1
  Zn  Zn33  1  0.00007711  0.00065227  0.50015043  1
  Zn  Zn34  1  0.99220998  0.49829454  0.75073629  1
  Zn  Zn35  1  0.99353173  0.99775840  0.00031284  1
  P  P36  1  0.75003129  0.24930365  0.25065605  1
  P  P37  1  0.75069831  0.74966733  0.25070657  1
  P  P38  1  0.75006072  0.25056331  0.49996106  1
  P  P39  1  0.75062929  0.74964539  0.49933343  1
  P  P40  1  0.24986266  0.49976950  0.37504806  1
  P  P41  1  0.25008464  0.99991171  0.37491482  1
  P  P42  1  0.75284209  0.24551330  0.74661964  1
  P  P43  1  0.74703112  0.74607030  0.75097971  1
  P  P44  1  0.24752961  0.50077196  0.62568271  1
  P  P45  1  0.25418843  0.99395048  0.62389192  1
  P  P46  1  0.74796686  0.24992590  0.00293581  1
  P  P47  1  0.75155530  0.75891319  0.99935233  1
  P  P48  1  0.25136946  0.49778418  0.87518742  1
  P  P49  1  0.24625188  0.00197962  0.87656170  1
  P  P50  1  0.25159353  0.50422477  0.12464833  1
  P  P51  1  0.24967626  0.00103728  0.12485555  1
  S  S52  1  0.87339795  0.34987932  0.05362160  1
  S  S53  1  0.86641057  0.86392614  0.05540954  1
  S  S54  1  0.86668401  0.36032245  0.30205964  1
  S  S55  1  0.86689527  0.86005571  0.30262300  1
  S  S56  1  0.37225763  0.60930236  0.17748140  1
  S  S57  1  0.36585801  0.11078573  0.17626004  1
  S  S58  1  0.86498315  0.36141218  0.55207555  1
  S  S59  1  0.86289341  0.86210513  0.55131638  1
  S  S60  1  0.36445036  0.61103447  0.42705193  1
  S  S61  1  0.36463257  0.11084736  0.42706894  1
  S  S62  1  0.85872352  0.36000708  0.80114041  1
  S  S63  1  0.86920048  0.85738344  0.80055120  1
  S  S64  1  0.37074033  0.61210866  0.67682710  1
  S  S65  1  0.36441350  0.10761957  0.67617108  1
  S  S66  1  0.36880483  0.60662643  0.92776159  1
  S  S67  1  0.37243885  0.10465161  0.92867191  1
  S  S68  1  0.63492625  0.64633150  0.30614239  1
  S  S69  1  0.63421107  0.14636273  0.30633354  1
  S  S70  1  0.63761815  0.64472963  0.55502997  1
  S  S71  1  0.63359941  0.14721505  0.55497255  1
  S  S72  1  0.13420726  0.89640685  0.43018188  1
  S  S73  1  0.13496221  0.39636766  0.43081137  1
  S  S74  1  0.62868737  0.64304456  0.80249496  1
  S  S75  1  0.63274917  0.14448515  0.80219245  1
  S  S76  1  0.13460855  0.89173941  0.67798544  1
  S  S77  1  0.13503348  0.39763338  0.68163765  1
  S  S78  1  0.63305731  0.65288470  0.05416212  1
  S  S79  1  0.63328847  0.14053642  0.05727440  1
  S  S80  1  0.12568976  0.89106371  0.93131020  1
  S  S81  1  0.12286501  0.39867660  0.92821924  1
  S  S82  1  0.13238688  0.89837091  0.17954729  1
  S  S83  1  0.13761976  0.39827759  0.17964948  1
  S  S84  1  0.86207912  0.13647596  0.19865278  1
  S  S85  1  0.86280686  0.63772268  0.19825537  1
  S  S86  1  0.86436916  0.13896698  0.44786761  1
  S  S87  1  0.86587852  0.63858142  0.44746961  1
  S  S88  1  0.36373270  0.38806882  0.32300313  1
  S  S89  1  0.36372309  0.88829929  0.32267378  1
  S  S90  1  0.86992400  0.14311291  0.69470839  1
  S  S91  1  0.87215018  0.64296218  0.69785096  1
  S  S92  1  0.36447428  0.39074631  0.57426797  1
  S  S93  1  0.37180136  0.88752832  0.57047076  1
  S  S94  1  0.86817931  0.13914378  0.94844834  1
  S  S95  1  0.86460483  0.64930975  0.94948143  1
  S  S96  1  0.36566412  0.39563037  0.82258238  1
  S  S97  1  0.37093145  0.89496692  0.82620953  1
  S  S98  1  0.37306468  0.39258709  0.07252146  1
  S  S99  1  0.36800036  0.88821225  0.07364630  1
  S  S100  1  0.63662904  0.35412854  0.19490828  1
  S  S101  1  0.63783543  0.85579110  0.19524420  1
  S  S102  1  0.63649849  0.35540204  0.44392664  1
  S  S103  1  0.63637716  0.85380914  0.44341279  1
  S  S104  1  0.13615556  0.60408960  0.31898999  1
  S  S105  1  0.13692119  0.10500757  0.31894972  1
  S  S106  1  0.63023106  0.35275535  0.69457239  1
  S  S107  1  0.63518242  0.85381130  0.69480741  1
  S  S108  1  0.13558955  0.60533573  0.56940449  1
  S  S109  1  0.13734811  0.09989460  0.56943981  1
  S  S110  1  0.63156845  0.34805440  0.94819034  1
  S  S111  1  0.62731975  0.86217671  0.94738377  1
  S  S112  1  0.12431398  0.60519180  0.82189206  1
  S  S113  1  0.12078034  0.10038989  0.82587606  1
  S  S114  1  0.13024409  0.60411295  0.07075055  1
  S  S115  1  0.13209256  0.10540555  0.06904335  1
