# generated using pymatgen
data_Cs3Bi2Cl9
_symmetry_space_group_name_H-M   'P 1'
_cell_length_a   7.68893844
_cell_length_b   7.68883293
_cell_length_c   9.49968770
_cell_angle_alpha   89.99943565
_cell_angle_beta   89.99993994
_cell_angle_gamma   119.99896789
_symmetry_Int_Tables_number   1
_chemical_formula_structural   Cs3Bi2Cl9
_chemical_formula_sum   'Cs3 Bi2 Cl9'
_cell_volume   486.37504521
_cell_formula_units_Z   1
loop_
 _symmetry_equiv_pos_site_id
 _symmetry_equiv_pos_as_xyz
  1  'x, y, z'
loop_
 _atom_site_type_symbol
 _atom_site_label
 _atom_site_symmetry_multiplicity
 _atom_site_fract_x
 _atom_site_fract_y
 _atom_site_fract_z
 _atom_site_occupancy
  Cs  Cs0  1  0.99999747  0.99999205  -0.00000043  1
  Cs  Cs1  1  0.33330696  0.66665274  0.34049537  1
  Cs  Cs2  1  0.66669040  0.33333970  0.65950325  1
  Bi  Bi3  1  0.33333177  0.66666875  0.81343241  1
  Bi  Bi4  1  0.66666589  0.33333182  0.18656788  1
  Cl  Cl5  1  0.51763047  0.51763113  0.00000071  1
  Cl  Cl6  1  0.48239621  0.00001220  0.99998360  1
  Cl  Cl7  1  0.00000149  0.48239391  0.00001230  1
  Cl  Cl8  1  0.83770762  0.65916526  0.33493252  1
  Cl  Cl9  1  0.34082628  0.17853919  0.33493375  1
  Cl  Cl10  1  0.82144827  0.16227814  0.33493467  1
  Cl  Cl11  1  0.16228259  0.82145221  0.66506500  1
  Cl  Cl12  1  0.17854638  0.34083125  0.66506967  1
  Cl  Cl13  1  0.65916819  0.83771066  0.66506628  1
