# generated using pymatgen
data_LaTa7O19
_symmetry_space_group_name_H-M   'P 1'
_cell_length_a   6.25040787
_cell_length_b   6.25040800
_cell_length_c   20.04416137
_cell_angle_alpha   89.99992227
_cell_angle_beta   89.99994067
_cell_angle_gamma   119.99979362
_symmetry_Int_Tables_number   1
_chemical_formula_structural   LaTa7O19
_chemical_formula_sum   'La2 Ta14 O38'
_cell_volume   678.16621505
_cell_formula_units_Z   2
loop_
 _symmetry_equiv_pos_site_id
 _symmetry_equiv_pos_as_xyz
  1  'x, y, z'
loop_
 _atom_site_type_symbol
 _atom_site_label
 _atom_site_symmetry_multiplicity
 _atom_site_fract_x
 _atom_site_fract_y
 _atom_site_fract_z
 _atom_site_occupancy
  La  La0  1  -0.00000102  0.00000062  0.99997254  1
  La  La1  1  0.00000033  -0.00000040  0.50002990  1
  Ta  Ta2  1  0.02643409  0.69147872  0.65627195  1
  Ta  Ta3  1  0.30851512  0.33494780  0.65627207  1
  Ta  Ta4  1  0.02642792  0.69148037  0.84373830  1
  Ta  Ta5  1  0.30851699  0.33495021  0.84373864  1
  Ta  Ta6  1  0.66504541  0.97356911  0.84373808  1
  Ta  Ta7  1  0.30850489  0.97357275  0.15623661  1
  Ta  Ta8  1  0.66506537  0.69149192  0.15623624  1
  Ta  Ta9  1  0.66506415  0.69149089  0.34375222  1
  Ta  Ta10  1  0.30851891  0.97358181  0.34375249  1
  Ta  Ta11  1  0.02642458  0.33493006  0.15623692  1
  Ta  Ta12  1  0.33333405  0.66666668  0.50000687  1
  Ta  Ta13  1  0.33333348  0.66666740  -0.00000883  1
  Ta  Ta14  1  0.02643000  0.33494369  0.34375231  1
  Ta  Ta15  1  0.66504874  0.97356074  0.65627167  1
  O  O16  1  0.61176470  0.90244144  0.55737013  1
  O  O17  1  0.09754150  0.38817113  0.44266157  1
  O  O18  1  0.09756033  0.70932323  0.55737110  1
  O  O19  1  0.29067773  0.38823605  0.55737088  1
  O  O20  1  0.09754963  0.70931834  0.94262908  1
  O  O21  1  0.29067949  0.38823088  0.94262971  1
  O  O22  1  0.61176728  0.90244862  0.94262914  1
  O  O23  1  0.29063153  0.90245453  0.05733757  1
  O  O24  1  0.61182087  0.70936482  0.05733765  1
  O  O25  1  0.61182982  0.70937146  0.44266143  1
  O  O26  1  0.29062982  0.90245940  0.44266118  1
  O  O27  1  0.09754439  0.38817866  0.05733798  1
  O  O28  1  0.04209836  0.75205467  0.75000074  1
  O  O29  1  0.24794364  0.29004699  0.75000130  1
  O  O30  1  0.70995593  0.95790147  0.75000082  1
  O  O31  1  0.70982977  0.75187586  0.24999902  1
  O  O32  1  0.42032430  0.33298240  0.15364892  1
  O  O33  1  0.91265640  0.57967114  0.34634287  1
  O  O34  1  0.66701537  0.08734458  0.34634419  1
  O  O35  1  0.66701296  0.08734022  0.15364888  1
  O  O36  1  0.91265717  0.57967160  0.15364890  1
  O  O37  1  0.66701839  0.57963422  0.84629986  1
  O  O38  1  0.91261424  0.33297928  0.84630003  1
  O  O39  1  0.42036555  0.08738771  0.84630084  1
  O  O40  1  0.91261074  0.33297761  0.65370726  1
  O  O41  1  0.42037530  0.08739347  0.65370700  1
  O  O42  1  0.42033066  0.33298961  0.34634271  1
  O  O43  1  0.66702048  0.57963051  0.65370688  1
  O  O44  1  0.33333110  0.66666437  0.16800523  1
  O  O45  1  0.33333515  0.66666930  0.33199219  1
  O  O46  1  0.33333313  0.66666884  0.83192133  1
  O  O47  1  0.33333508  0.66666656  0.66808659  1
  O  O48  1  0.99999820  0.99999804  0.13263920  1
  O  O49  1  0.00000202  0.00000155  0.36736074  1
  O  O50  1  -0.00000191  0.00000006  0.86736530  1
  O  O51  1  0.00000198  -0.00000138  0.63263598  1
  O  O52  1  0.04204427  0.29017263  0.25000016  1
  O  O53  1  0.24812764  0.95795576  0.24999968  1
