# generated using pymatgen
data_NaMgBP2O11
_symmetry_space_group_name_H-M   'P 1'
_cell_length_a   9.98637488
_cell_length_b   9.98637488
_cell_length_c   14.92608872
_cell_angle_alpha   90.00000000
_cell_angle_beta   90.00000000
_cell_angle_gamma   119.99999564
_symmetry_Int_Tables_number   1
_chemical_formula_structural   NaMgBP2O11
_chemical_formula_sum   'Na6 Mg6 B6 P12 O66'
_cell_volume   1289.11719058
_cell_formula_units_Z   6
loop_
 _symmetry_equiv_pos_site_id
 _symmetry_equiv_pos_as_xyz
  1  'x, y, z'
loop_
 _atom_site_type_symbol
 _atom_site_label
 _atom_site_symmetry_multiplicity
 _atom_site_fract_x
 _atom_site_fract_y
 _atom_site_fract_z
 _atom_site_occupancy
  Na  Na0  1  0.74330164  0.25669836  0.75000000  1
  Na  Na1  1  0.51339672  0.25669836  0.41666700  1
  Na  Na2  1  0.25669836  0.74330164  0.25000000  1
  Na  Na3  1  0.48660328  0.74330164  0.91666700  1
  Na  Na4  1  0.74330164  0.48660328  0.08333300  1
  Na  Na5  1  0.25669836  0.51339672  0.58333300  1
  Mg  Mg6  1  0.48917675  0.51082325  0.75000000  1
  Mg  Mg7  1  0.02164651  0.51082325  0.41666700  1
  Mg  Mg8  1  0.51082325  0.48917675  0.25000000  1
  Mg  Mg9  1  0.97835349  0.48917675  0.91666700  1
  Mg  Mg10  1  0.48917675  0.97835349  0.08333300  1
  Mg  Mg11  1  0.51082325  0.02164651  0.58333300  1
  B  B12  1  0.15946388  0.84053612  0.75000000  1
  B  B13  1  0.68107224  0.84053612  0.41666700  1
  B  B14  1  0.84053612  0.15946388  0.25000000  1
  B  B15  1  0.31892776  0.15946388  0.91666700  1
  B  B16  1  0.15946388  0.31892776  0.08333300  1
  B  B17  1  0.84053612  0.68107224  0.58333300  1
  P  P18  1  0.61869852  0.77188503  0.59484509  1
  P  P19  1  0.15318651  0.38130148  0.26151209  1
  P  P20  1  0.38130148  0.22811497  0.09484509  1
  P  P21  1  0.84681349  0.22811497  0.07182191  1
  P  P22  1  0.22811497  0.84681349  0.92817809  1
  P  P23  1  0.84681349  0.61869852  0.76151209  1
  P  P24  1  0.77188503  0.61869852  0.40515491  1
  P  P25  1  0.15318651  0.77188503  0.57182191  1
  P  P26  1  0.77188503  0.15318651  0.42817809  1
  P  P27  1  0.22811497  0.38130148  0.90515491  1
  P  P28  1  0.38130148  0.15318651  0.73848791  1
  P  P29  1  0.61869852  0.84681349  0.23848791  1
  O  O30  1  0.37168414  0.50759082  0.85693541  1
  O  O31  1  0.13590668  0.62831586  0.52360241  1
  O  O32  1  0.62831586  0.49240918  0.35693541  1
  O  O33  1  0.86409332  0.49240918  0.80973159  1
  O  O34  1  0.49240918  0.86409332  0.19026841  1
  O  O35  1  0.86409332  0.37168414  0.02360241  1
  O  O36  1  0.50759082  0.37168414  0.14306459  1
  O  O37  1  0.13590668  0.50759082  0.30973159  1
  O  O38  1  0.50759082  0.13590668  0.69026841  1
  O  O39  1  0.49240918  0.62831586  0.64306459  1
  O  O40  1  0.62831586  0.13590668  0.47639759  1
  O  O41  1  0.37168414  0.86409332  0.97639759  1
  O  O42  1  0.78066590  0.78611412  0.60694203  1
  O  O43  1  0.00544821  0.21933410  0.27360903  1
  O  O44  1  0.21933410  0.21388588  0.10694203  1
  O  O45  1  0.99455179  0.21388588  0.05972497  1
  O  O46  1  0.21388588  0.99455179  0.94027503  1
  O  O47  1  0.99455179  0.78066590  0.77360903  1
  O  O48  1  0.78611412  0.78066590  0.39305797  1
  O  O49  1  0.00544821  0.78611412  0.55972497  1
  O  O50  1  0.78611412  0.00544821  0.44027503  1
  O  O51  1  0.21388588  0.21933410  0.89305797  1
  O  O52  1  0.21933410  0.00544821  0.72639097  1
  O  O53  1  0.78066590  0.99455179  0.22639097  1
  O  O54  1  0.57568263  0.75193810  0.49166617  1
  O  O55  1  0.17625547  0.42431737  0.15833317  1
  O  O56  1  0.42431737  0.24806190  0.99166617  1
  O  O57  1  0.82374453  0.24806190  0.17500083  1
  O  O58  1  0.24806190  0.82374453  0.82499917  1
  O  O59  1  0.82374453  0.57568263  0.65833317  1
  O  O60  1  0.75193810  0.57568263  0.50833383  1
  O  O61  1  0.17625547  0.75193810  0.67500083  1
  O  O62  1  0.75193810  0.17625547  0.32499917  1
  O  O63  1  0.24806190  0.42431737  0.00833383  1
  O  O64  1  0.42431737  0.17625547  0.84166683  1
  O  O65  1  0.57568263  0.82374453  0.34166683  1
  O  O66  1  0.62216302  0.91886587  0.62687929  1
  O  O67  1  0.29670285  0.37783698  0.29354629  1
  O  O68  1  0.37783698  0.08113413  0.12687929  1
  O  O69  1  0.70329715  0.08113413  0.03978771  1
  O  O70  1  0.08113413  0.70329715  0.96021229  1
  O  O71  1  0.70329715  0.62216302  0.79354629  1
  O  O72  1  0.91886587  0.62216302  0.37312071  1
  O  O73  1  0.29670285  0.91886587  0.53978771  1
  O  O74  1  0.91886587  0.29670285  0.46021229  1
  O  O75  1  0.08113413  0.37783698  0.87312071  1
  O  O76  1  0.37783698  0.29670285  0.70645371  1
  O  O77  1  0.62216302  0.70329715  0.20645371  1
  O  O78  1  0.78330343  0.78330343  -0.00000000  1
  O  O79  1  1.00000000  0.21669657  0.66666700  1
  O  O80  1  0.21669657  0.21669657  0.50000000  1
  O  O81  1  0.21669657  1.00000000  0.33333300  1
  O  O82  1  0.00000000  0.78330343  0.16666700  1
  O  O83  1  0.78330343  0.00000000  0.83333300  1
  O  O84  1  0.76902014  0.10949669  0.87136803  1
  O  O85  1  0.34047655  0.23097986  0.53803503  1
  O  O86  1  0.23097986  0.89050331  0.37136803  1
  O  O87  1  0.65952345  0.89050331  0.79529897  1
  O  O88  1  0.89050331  0.65952345  0.20470103  1
  O  O89  1  0.65952345  0.76902014  0.03803503  1
  O  O90  1  0.10949669  0.76902014  0.12863197  1
  O  O91  1  0.34047655  0.10949669  0.29529897  1
  O  O92  1  0.10949669  0.34047655  0.70470103  1
  O  O93  1  0.89050331  0.23097986  0.62863197  1
  O  O94  1  0.23097986  0.34047655  0.46196497  1
  O  O95  1  0.76902014  0.65952345  0.96196497  1
