# generated using pymatgen
data_In2(SeO4)3
_symmetry_space_group_name_H-M   'P 1'
_cell_length_a   9.27576445
_cell_length_b   8.79895305
_cell_length_c   14.88218411
_cell_angle_alpha   55.85927648
_cell_angle_beta   90.00000000
_cell_angle_gamma   90.00000000
_symmetry_Int_Tables_number   1
_chemical_formula_structural   In2(SeO4)3
_chemical_formula_sum   'In8 Se12 O48'
_cell_volume   1005.31049166
_cell_formula_units_Z   4
loop_
 _symmetry_equiv_pos_site_id
 _symmetry_equiv_pos_as_xyz
  1  'x, y, z'
loop_
 _atom_site_type_symbol
 _atom_site_label
 _atom_site_symmetry_multiplicity
 _atom_site_fract_x
 _atom_site_fract_y
 _atom_site_fract_z
 _atom_site_occupancy
  In  In0  1  0.03166766  0.86758992  0.88524863  1
  In  In1  1  0.96833234  0.13241008  0.11475137  1
  In  In2  1  0.53166766  0.13241008  0.61475137  1
  In  In3  1  0.46833234  0.86758992  0.38524863  1
  In  In4  1  0.03501212  0.63457987  0.61578788  1
  In  In5  1  0.96498788  0.36542013  0.38421212  1
  In  In6  1  0.53501212  0.36542013  0.88421212  1
  In  In7  1  0.46498788  0.63457987  0.11578788  1
  Se  Se8  1  0.87770142  0.96521142  0.64369503  1
  Se  Se9  1  0.12229858  0.03478858  0.35630497  1
  Se  Se10  1  0.37770142  0.03478858  0.85630497  1
  Se  Se11  1  0.62229858  0.96521142  0.14369503  1
  Se  Se12  1  0.37373745  0.74245073  0.65724706  1
  Se  Se13  1  0.62626255  0.25754927  0.34275294  1
  Se  Se14  1  0.87373745  0.25754927  0.84275294  1
  Se  Se15  1  0.12626255  0.74245073  0.15724706  1
  Se  Se16  1  0.25444471  0.45607203  0.50439657  1
  Se  Se17  1  0.74555529  0.54392797  0.49560343  1
  Se  Se18  1  0.75444471  0.54392797  0.99560343  1
  Se  Se19  1  0.24555529  0.45607203  0.00439657  1
  O  O20  1  0.71592452  0.95439850  0.69254927  1
  O  O21  1  0.28407548  0.04560150  0.30745073  1
  O  O22  1  0.21592452  0.04560150  0.80745073  1
  O  O23  1  0.78407548  0.95439850  0.19254927  1
  O  O24  1  0.12103055  0.61114893  0.93392936  1
  O  O25  1  0.87896945  0.38885107  0.06607064  1
  O  O26  1  0.62103055  0.38885107  0.56607064  1
  O  O27  1  0.37896945  0.61114893  0.43392936  1
  O  O28  1  0.19862193  0.46012181  0.60852278  1
  O  O29  1  0.80137807  0.53987819  0.39147722  1
  O  O30  1  0.69862193  0.53987819  0.89147722  1
  O  O31  1  0.30137807  0.46012181  0.10852278  1
  O  O32  1  0.41901198  0.87656522  0.69704722  1
  O  O33  1  0.58098802  0.12343478  0.30295278  1
  O  O34  1  0.91901198  0.12343478  0.80295278  1
  O  O35  1  0.08098802  0.87656522  0.19704722  1
  O  O36  1  0.99698585  0.87265215  0.74197466  1
  O  O37  1  0.00301415  0.12734785  0.25802534  1
  O  O38  1  0.49698585  0.12734785  0.75802534  1
  O  O39  1  0.50301415  0.87265215  0.24197466  1
  O  O40  1  0.37826299  0.49962712  0.91961331  1
  O  O41  1  0.62173701  0.50037288  0.08038669  1
  O  O42  1  0.87826299  0.50037288  0.58038669  1
  O  O43  1  0.12173701  0.49962712  0.41961331  1
  O  O44  1  0.88485497  0.84622558  0.58839871  1
  O  O45  1  0.11514503  0.15377442  0.41160129  1
  O  O46  1  0.38485497  0.15377442  0.91160129  1
  O  O47  1  0.61514503  0.84622558  0.08839871  1
  O  O48  1  0.47740946  0.55822250  0.71538850  1
  O  O49  1  0.52259054  0.44177750  0.28461150  1
  O  O50  1  0.97740946  0.44177750  0.78461150  1
  O  O51  1  0.02259054  0.55822250  0.21538850  1
  O  O52  1  0.32305188  0.25258071  0.54845391  1
  O  O53  1  0.67694812  0.74741929  0.45154609  1
  O  O54  1  0.82305188  0.74741929  0.95154609  1
  O  O55  1  0.17694812  0.25258071  0.04845391  1
  O  O56  1  0.38995585  0.85702894  0.52421065  1
  O  O57  1  0.61004415  0.14297106  0.47578935  1
  O  O58  1  0.88995585  0.14297106  0.97578935  1
  O  O59  1  0.11004415  0.85702894  0.02421065  1
  O  O60  1  0.20280970  0.69087111  0.69052996  1
  O  O61  1  0.79719030  0.30912889  0.30947004  1
  O  O62  1  0.70280970  0.30912889  0.80947004  1
  O  O63  1  0.29719030  0.69087111  0.19052996  1
  O  O64  1  0.41661668  0.81638160  0.94621962  1
  O  O65  1  0.58338332  0.18361840  0.05378038  1
  O  O66  1  0.91661668  0.18361840  0.55378038  1
  O  O67  1  0.08338332  0.81638160  0.44621962  1
