# generated using pymatgen
data_NaLa(GaS2)4
_symmetry_space_group_name_H-M   'P 1'
_cell_length_a   11.99484058
_cell_length_b   11.99484058
_cell_length_c   11.94628529
_cell_angle_alpha   105.23886315
_cell_angle_beta   105.23886315
_cell_angle_gamma   118.45319093
_symmetry_Int_Tables_number   1
_chemical_formula_structural   NaLa(GaS2)4
_chemical_formula_sum   'Na4 La4 Ga16 S32'
_cell_volume   1296.51538005
_cell_formula_units_Z   4
loop_
 _symmetry_equiv_pos_site_id
 _symmetry_equiv_pos_as_xyz
  1  'x, y, z'
loop_
 _atom_site_type_symbol
 _atom_site_label
 _atom_site_symmetry_multiplicity
 _atom_site_fract_x
 _atom_site_fract_y
 _atom_site_fract_z
 _atom_site_occupancy
  Na  Na0  1  0.12105058  0.37894942  0.25000000  1
  Na  Na1  1  0.62894942  0.87105058  0.25000000  1
  Na  Na2  1  0.87894942  0.62105058  0.75000000  1
  Na  Na3  1  0.37105058  0.12894942  0.75000000  1
  La  La4  1  0.87500000  0.62500000  0.25000000  1
  La  La5  1  0.12500000  0.37500000  0.75000000  1
  La  La6  1  0.37500000  0.12500000  0.25000000  1
  La  La7  1  0.62500000  0.87500000  0.75000000  1
  Ga  Ga8  1  0.38406006  0.38852041  0.52162199  1
  Ga  Ga9  1  0.11147959  0.11593994  0.97837801  1
  Ga  Ga10  1  0.63756193  0.13310158  0.52162199  1
  Ga  Ga11  1  0.36689842  0.86243807  0.97837801  1
  Ga  Ga12  1  0.61593994  0.61147959  0.47837801  1
  Ga  Ga13  1  0.88852041  0.88406006  0.02162199  1
  Ga  Ga14  1  0.36243807  0.86689842  0.47837801  1
  Ga  Ga15  1  0.63310158  0.13756193  0.02162199  1
  Ga  Ga16  1  0.47037345  0.46942006  0.10989047  1
  Ga  Ga17  1  0.03057994  0.02962655  0.39010953  1
  Ga  Ga18  1  0.13951702  0.64047041  0.10989047  1
  Ga  Ga19  1  0.85952959  0.36048298  0.39010953  1
  Ga  Ga20  1  0.52962655  0.53057994  0.89010953  1
  Ga  Ga21  1  0.96942006  0.97037345  0.60989047  1
  Ga  Ga22  1  0.86048298  0.35952959  0.89010953  1
  Ga  Ga23  1  0.14047041  0.63951702  0.60989047  1
  S  S24  1  0.15503912  0.66170056  0.31314834  1
  S  S25  1  0.83829944  0.34496088  0.18685166  1
  S  S26  1  0.65810922  0.65144778  0.31314834  1
  S  S27  1  0.84855222  0.84189078  0.18685166  1
  S  S28  1  0.84496088  0.33829944  0.68685166  1
  S  S29  1  0.16170056  0.65503912  0.81314834  1
  S  S30  1  0.34189078  0.34855222  0.68685166  1
  S  S31  1  0.15144778  0.15810922  0.81314834  1
  S  S32  1  0.18337007  0.18443965  0.33735181  1
  S  S33  1  0.31556035  0.31662993  0.16264819  1
  S  S34  1  0.65398173  0.15291216  0.33735181  1
  S  S35  1  0.34708784  0.84601827  0.16264819  1
  S  S36  1  0.81662993  0.81556035  0.66264819  1
  S  S37  1  0.68443965  0.68337007  0.83735181  1
  S  S38  1  0.34601827  0.84708784  0.66264819  1
  S  S39  1  0.65291216  0.15398173  0.83735181  1
  S  S40  1  0.41372710  0.08188796  0.00492851  1
  S  S41  1  0.41811204  0.08627290  0.49507149  1
  S  S42  1  0.09120140  0.92304054  0.00492851  1
  S  S43  1  0.57695946  0.40879860  0.49507149  1
  S  S44  1  0.58627290  0.91811204  0.99507149  1
  S  S45  1  0.58188796  0.91372710  0.50492851  1
  S  S46  1  0.90879860  0.07695946  0.99507149  1
  S  S47  1  0.42304054  0.59120140  0.50492851  1
  S  S48  1  0.08285191  0.41407195  0.50363924  1
  S  S49  1  0.08592805  0.41714809  0.99636076  1
  S  S50  1  0.92078733  0.08956728  0.50363924  1
  S  S51  1  0.41043272  0.57921267  0.99636076  1
  S  S52  1  0.91714809  0.58592805  0.49636076  1
  S  S53  1  0.91407195  0.58285191  0.00363924  1
  S  S54  1  0.07921267  0.91043272  0.49636076  1
  S  S55  1  0.58956728  0.42078733  0.00363924  1
