# generated using pymatgen
data_Mo(NO4)2
_symmetry_space_group_name_H-M   'P 1'
_cell_length_a   5.23392959
_cell_length_b   8.41527716
_cell_length_c   14.73931102
_cell_angle_alpha   67.66427911
_cell_angle_beta   90.00000000
_cell_angle_gamma   90.00000000
_symmetry_Int_Tables_number   1
_chemical_formula_structural   Mo(NO4)2
_chemical_formula_sum   'Mo4 N8 O32'
_cell_volume   600.48549854
_cell_formula_units_Z   4
loop_
 _symmetry_equiv_pos_site_id
 _symmetry_equiv_pos_as_xyz
  1  'x, y, z'
loop_
 _atom_site_type_symbol
 _atom_site_label
 _atom_site_symmetry_multiplicity
 _atom_site_fract_x
 _atom_site_fract_y
 _atom_site_fract_z
 _atom_site_occupancy
  Mo  Mo0  1  0.66474231  0.43880914  0.17296573  1
  Mo  Mo1  1  0.83525769  0.43880914  0.67296573  1
  Mo  Mo2  1  0.33525769  0.56119086  0.82703427  1
  Mo  Mo3  1  0.16474231  0.56119086  0.32703427  1
  N  N4  1  0.88544553  0.14529522  0.27597630  1
  N  N5  1  0.61455447  0.14529522  0.77597630  1
  N  N6  1  0.11455447  0.85470478  0.72402370  1
  N  N7  1  0.38544553  0.85470478  0.22402370  1
  N  N8  1  0.85986126  0.71874234  0.04274878  1
  N  N9  1  0.64013874  0.71874234  0.54274878  1
  N  N10  1  0.14013874  0.28125766  0.95725122  1
  N  N11  1  0.35986126  0.28125766  0.45725122  1
  O  O12  1  0.98103423  0.01029957  0.32400428  1
  O  O13  1  0.51896577  0.01029957  0.82400428  1
  O  O14  1  0.01896577  0.98970043  0.67599572  1
  O  O15  1  0.48103423  0.98970043  0.17599572  1
  O  O16  1  0.66604487  0.19835824  0.29593979  1
  O  O17  1  0.83395513  0.19835824  0.79593979  1
  O  O18  1  0.33395513  0.80164176  0.70406021  1
  O  O19  1  0.16604487  0.80164176  0.20406021  1
  O  O20  1  0.98514955  0.25829279  0.19809993  1
  O  O21  1  0.51485045  0.25829279  0.69809993  1
  O  O22  1  0.01485045  0.74170721  0.80190007  1
  O  O23  1  0.48514955  0.74170721  0.30190007  1
  O  O24  1  0.64087899  0.70731601  0.08779630  1
  O  O25  1  0.85912101  0.70731601  0.58779630  1
  O  O26  1  0.35912101  0.29268399  0.91220370  1
  O  O27  1  0.14087899  0.29268399  0.41220370  1
  O  O28  1  0.97286080  0.57097389  0.07332218  1
  O  O29  1  0.52713920  0.57097389  0.57332218  1
  O  O30  1  0.02713920  0.42902611  0.92667782  1
  O  O31  1  0.47286080  0.42902611  0.42667782  1
  O  O32  1  0.94293223  0.84743756  0.98255398  1
  O  O33  1  0.55706777  0.84743756  0.48255398  1
  O  O34  1  0.05706777  0.15256244  0.01744602  1
  O  O35  1  0.44293223  0.15256244  0.51744602  1
  O  O36  1  0.53473396  0.36785652  0.09221545  1
  O  O37  1  0.96526604  0.36785652  0.59221545  1
  O  O38  1  0.46526604  0.63214348  0.90778455  1
  O  O39  1  0.03473396  0.63214348  0.40778455  1
  O  O40  1  0.40065509  0.48121319  0.23286850  1
  O  O41  1  0.09934491  0.48121319  0.73286850  1
  O  O42  1  0.59934491  0.51878681  0.76713150  1
  O  O43  1  0.90065509  0.51878681  0.26713150  1
