# generated using pymatgen
data_NaLiMg14O15
_symmetry_space_group_name_H-M   'P 1'
_cell_length_a   8.49219802
_cell_length_b   8.66732821
_cell_length_c   4.26776794
_cell_angle_alpha   90.00000000
_cell_angle_beta   90.00000000
_cell_angle_gamma   90.00000000
_symmetry_Int_Tables_number   1
_chemical_formula_structural   NaLiMg14O15
_chemical_formula_sum   'Na1 Li1 Mg14 O15'
_cell_volume   314.12764004
_cell_formula_units_Z   1
loop_
 _symmetry_equiv_pos_site_id
 _symmetry_equiv_pos_as_xyz
  1  'x, y, z'
loop_
 _atom_site_type_symbol
 _atom_site_label
 _atom_site_symmetry_multiplicity
 _atom_site_fract_x
 _atom_site_fract_y
 _atom_site_fract_z
 _atom_site_occupancy
  Na  Na0  1  0.50476891  0.50000000  0.00000000  1
  Li  Li1  1  0.99621338  0.00000000  0.00000000  1
  Mg  Mg2  1  0.98272789  0.50000000  0.00000000  1
  Mg  Mg3  1  0.50381282  0.00000000  0.00000000  1
  Mg  Mg4  1  0.00074538  0.24425842  0.50000000  1
  Mg  Mg5  1  0.00074538  0.75574158  0.50000000  1
  Mg  Mg6  1  0.49922619  0.25023386  0.50000000  1
  Mg  Mg7  1  0.49922619  0.74976614  0.50000000  1
  Mg  Mg8  1  0.24547063  0.00000000  0.50000000  1
  Mg  Mg9  1  0.25152474  0.50000000  0.50000000  1
  Mg  Mg10  1  0.75631377  0.00000000  0.50000000  1
  Mg  Mg11  1  0.74244498  0.50000000  0.50000000  1
  Mg  Mg12  1  0.24903558  0.22316952  -0.00000000  1
  Mg  Mg13  1  0.24903558  0.77683048  0.00000000  1
  Mg  Mg14  1  0.74918738  0.24701065  -0.00000000  1
  Mg  Mg15  1  0.74918738  0.75298935  -0.00000000  1
  O  O16  1  0.25286272  0.00000000  0.00000000  1
  O  O17  1  0.74814585  0.00000000  0.00000000  1
  O  O18  1  0.75678294  0.50000000  0.00000000  1
  O  O19  1  0.25001317  0.25891617  0.50000000  1
  O  O20  1  0.25001317  0.74108383  0.50000000  1
  O  O21  1  0.75092694  0.25334182  0.50000000  1
  O  O22  1  0.75092694  0.74665818  0.50000000  1
  O  O23  1  0.00284449  0.00000000  0.50000000  1
  O  O24  1  0.01441855  0.50000000  0.50000000  1
  O  O25  1  0.49715423  0.00000000  0.50000000  1
  O  O26  1  0.48450096  0.50000000  0.50000000  1
  O  O27  1  0.01272356  0.26796141  0.00000000  1
  O  O28  1  0.01272356  0.73203859  0.00000000  1
  O  O29  1  0.49314839  0.23977339  0.00000000  1
  O  O30  1  0.49314839  0.76022661  0.00000000  1
