# generated using pymatgen
data_Er2ZrS5
_symmetry_space_group_name_H-M   'P 1'
_cell_length_a   7.21546701
_cell_length_b   7.67194014
_cell_length_c   11.54858134
_cell_angle_alpha   90.00000000
_cell_angle_beta   90.00000000
_cell_angle_gamma   90.00000000
_symmetry_Int_Tables_number   1
_chemical_formula_structural   Er2ZrS5
_chemical_formula_sum   'Er8 Zr4 S20'
_cell_volume   639.29055561
_cell_formula_units_Z   4
loop_
 _symmetry_equiv_pos_site_id
 _symmetry_equiv_pos_as_xyz
  1  'x, y, z'
loop_
 _atom_site_type_symbol
 _atom_site_label
 _atom_site_symmetry_multiplicity
 _atom_site_fract_x
 _atom_site_fract_y
 _atom_site_fract_z
 _atom_site_occupancy
  Er  Er0  1  0.51744972  0.49678052  0.32016528  1
  Er  Er1  1  0.98255028  0.00321948  0.82016528  1
  Er  Er2  1  0.48255028  0.99678052  0.67983472  1
  Er  Er3  1  0.01744972  0.50321948  0.17983472  1
  Er  Er4  1  0.48255028  0.50321948  0.67983472  1
  Er  Er5  1  0.01744972  0.99678052  0.17983472  1
  Er  Er6  1  0.51744972  0.00321948  0.32016528  1
  Er  Er7  1  0.98255028  0.49678052  0.82016528  1
  Zr  Zr8  1  0.07823936  0.75000000  0.49452273  1
  Zr  Zr9  1  0.42176064  0.75000000  0.99452273  1
  Zr  Zr10  1  0.92176064  0.25000000  0.50547727  1
  Zr  Zr11  1  0.57823936  0.25000000  0.00547727  1
  S  S12  1  0.84068506  0.96291251  0.59711322  1
  S  S13  1  0.65931494  0.53708749  0.09711322  1
  S  S14  1  0.15931494  0.46291251  0.40288678  1
  S  S15  1  0.34068506  0.03708749  0.90288678  1
  S  S16  1  0.15931494  0.03708749  0.40288678  1
  S  S17  1  0.34068506  0.46291251  0.90288678  1
  S  S18  1  0.84068506  0.53708749  0.59711322  1
  S  S19  1  0.65931494  0.96291251  0.09711322  1
  S  S20  1  0.82789247  0.75000000  0.31875993  1
  S  S21  1  0.67210753  0.75000000  0.81875993  1
  S  S22  1  0.17210753  0.25000000  0.68124007  1
  S  S23  1  0.32789247  0.25000000  0.18124007  1
  S  S24  1  0.45035655  0.75000000  0.49783434  1
  S  S25  1  0.04964345  0.75000000  0.99783434  1
  S  S26  1  0.54964345  0.25000000  0.50216566  1
  S  S27  1  0.95035655  0.25000000  0.00216566  1
  S  S28  1  0.19418824  0.75000000  0.70886250  1
  S  S29  1  0.30581176  0.75000000  0.20886250  1
  S  S30  1  0.80581176  0.25000000  0.29113750  1
  S  S31  1  0.69418824  0.25000000  0.79113750  1
