# generated using pymatgen
data_MgZr2H10(S3O14)2
_symmetry_space_group_name_H-M   'P 1'
_cell_length_a   5.16853672
_cell_length_b   8.75606485
_cell_length_c   12.94997134
_cell_angle_alpha   93.01507229
_cell_angle_beta   91.07993356
_cell_angle_gamma   96.07077723
_symmetry_Int_Tables_number   1
_chemical_formula_structural   MgZr2H10(S3O14)2
_chemical_formula_sum   'Mg1 Zr2 H10 S6 O28'
_cell_volume   581.79523715
_cell_formula_units_Z   1
loop_
 _symmetry_equiv_pos_site_id
 _symmetry_equiv_pos_as_xyz
  1  'x, y, z'
loop_
 _atom_site_type_symbol
 _atom_site_label
 _atom_site_symmetry_multiplicity
 _atom_site_fract_x
 _atom_site_fract_y
 _atom_site_fract_z
 _atom_site_occupancy
  Mg  Mg0  1  0.12398417  0.72206281  0.20009198  1
  Zr  Zr1  1  0.77960746  0.89746981  0.81808760  1
  Zr  Zr2  1  0.23864100  0.13789699  0.16698741  1
  H  H3  1  0.42154933  0.66047635  0.56045200  1
  H  H4  1  0.60365332  0.31973499  0.46672664  1
  H  H5  1  0.27394503  0.82803693  0.53948352  1
  H  H6  1  0.70639017  0.14897903  0.47586500  1
  H  H7  1  0.41123870  0.73542066  0.44422790  1
  H  H8  1  0.58402111  0.23684064  0.58111020  1
  H  H9  1  0.13774998  0.37748816  0.82373760  1
  H  H10  1  0.66618100  0.54811719  0.17298619  1
  H  H11  1  0.33686239  0.44893761  0.90632184  1
  H  H12  1  0.80851776  0.54689357  0.07004708  1
  S  S13  1  0.75008723  0.60577416  0.70930570  1
  S  S14  1  0.27777794  0.40696424  0.30438876  1
  S  S15  1  0.29145122  0.05400297  0.67664451  1
  S  S16  1  0.67204581  0.94001155  0.30488405  1
  S  S17  1  0.28444042  0.80829297  0.99876035  1
  S  S18  1  0.73558750  0.22439097  0.99705034  1
  O  O19  1  0.91509851  0.76012510  0.69173694  1
  O  O20  1  0.10089267  0.25629632  0.30597716  1
  O  O21  1  0.56104001  0.56831794  0.62290806  1
  O  O22  1  0.45600934  0.43084193  0.39306557  1
  O  O23  1  0.90673461  0.48409596  0.72761800  1
  O  O24  1  0.12630976  0.53789480  0.29247984  1
  O  O25  1  0.61188866  0.66169467  0.80711648  1
  O  O26  1  0.42091770  0.37620603  0.20351010  1
  O  O27  1  0.22615751  0.98272620  0.57297667  1
  O  O28  1  0.71607184  0.97597516  0.41517519  1
  O  O29  1  0.05594911  0.05508283  0.74215824  1
  O  O30  1  0.92814474  0.92531903  0.25127966  1
  O  O31  1  0.42175383  0.20946013  0.67181002  1
  O  O32  1  0.49248046  0.79641654  0.28470976  1
  O  O33  1  0.47023057  0.95386899  0.73177501  1
  O  O34  1  0.55126020  0.07002024  0.25637409  1
  O  O35  1  0.08930670  0.83944758  0.91935175  1
  O  O36  1  0.93060978  0.18508052  0.08010953  1
  O  O37  1  0.77145109  0.12804679  0.90372022  1
  O  O38  1  0.22835629  0.90289088  0.09844102  1
  O  O39  1  0.25362307  0.65123942  0.03248187  1
  O  O40  1  0.76216883  0.38643580  0.98365489  1
  O  O41  1  0.54657011  0.85945527  0.96415151  1
  O  O42  1  0.47562880  0.17065401  0.04181613  1
  O  O43  1  0.25474878  0.35012351  0.87821811  1
  O  O44  1  0.79194978  0.61254944  0.13385127  1
  O  O45  1  0.31307310  0.72033918  0.50771741  1
  O  O46  1  0.69284263  0.25160416  0.51344883  1
