# generated using pymatgen
data_Bi2B8O15
_symmetry_space_group_name_H-M   'P 1'
_cell_length_a   4.30194689
_cell_length_b   6.45800384
_cell_length_c   22.12754061
_cell_angle_alpha   87.64440817
_cell_angle_beta   88.34556139
_cell_angle_gamma   74.90092034
_symmetry_Int_Tables_number   1
_chemical_formula_structural   Bi2B8O15
_chemical_formula_sum   'Bi4 B16 O30'
_cell_volume   592.91738996
_cell_formula_units_Z   2
loop_
 _symmetry_equiv_pos_site_id
 _symmetry_equiv_pos_as_xyz
  1  'x, y, z'
loop_
 _atom_site_type_symbol
 _atom_site_label
 _atom_site_symmetry_multiplicity
 _atom_site_fract_x
 _atom_site_fract_y
 _atom_site_fract_z
 _atom_site_occupancy
  Bi  Bi0  1  0.11440617  0.62318336  0.93112572  1
  Bi  Bi1  1  0.88559383  0.37681664  0.06887428  1
  Bi  Bi2  1  0.59856934  0.10123710  0.56991438  1
  Bi  Bi3  1  0.40143066  0.89876290  0.43008562  1
  B  B4  1  0.65984292  0.31243890  0.43056469  1
  B  B5  1  0.34015708  0.68756110  0.56943531  1
  B  B6  1  0.85294811  0.21380097  0.92723022  1
  B  B7  1  0.14705189  0.78619903  0.07276978  1
  B  B8  1  0.91995899  0.47000144  0.56800501  1
  B  B9  1  0.08004101  0.52999856  0.43199499  1
  B  B10  1  0.43255482  0.99524057  0.93008054  1
  B  B11  1  0.56744518  0.00475943  0.06991946  1
  B  B12  1  0.37018277  0.66897178  0.68290057  1
  B  B13  1  0.62981723  0.33102822  0.31709943  1
  B  B14  1  0.95863206  0.74586578  0.18264712  1
  B  B15  1  0.04136794  0.25413422  0.81735288  1
  B  B16  1  0.70981371  0.03318239  0.24726757  1
  B  B17  1  0.29018629  0.96681761  0.75273243  1
  B  B18  1  0.31384014  0.32171023  0.72583966  1
  B  B19  1  0.68615986  0.67828977  0.27416034  1
  O  O20  1  0.59383116  0.48763974  0.56268030  1
  O  O21  1  0.40616884  0.51236026  0.43731970  1
  O  O22  1  0.10418364  0.01182840  0.93392986  1
  O  O23  1  0.89581636  0.98817160  0.06607014  1
  O  O24  1  0.53605275  0.17653989  0.92847577  1
  O  O25  1  0.46394725  0.82346011  0.07152423  1
  O  O26  1  0.61103928  0.78907502  0.92785831  1
  O  O27  1  0.38896072  0.21092498  0.07214169  1
  O  O28  1  0.02504636  0.65043174  0.56504705  1
  O  O29  1  0.97495364  0.34956826  0.43495295  1
  O  O30  1  0.09480691  0.26368527  0.57646614  1
  O  O31  1  0.90519309  0.73631473  0.42353386  1
  O  O32  1  0.62555708  0.14078154  0.47287124  1
  O  O33  1  0.37444292  0.85921846  0.52712876  1
  O  O34  1  0.12540198  0.63070481  0.02793200  1
  O  O35  1  0.87459802  0.36929519  0.97206800  1
  O  O36  1  0.36401271  0.77934142  0.63018417  1
  O  O37  1  0.63598729  0.22065858  0.36981583  1
  O  O38  1  0.10178811  0.66944692  0.13091613  1
  O  O39  1  0.89821189  0.33055308  0.86908387  1
  O  O40  1  0.88013740  0.60432398  0.22544040  1
  O  O41  1  0.11986260  0.39567602  0.77455960  1
  O  O42  1  0.88270535  0.96153450  0.19567153  1
  O  O43  1  0.11729465  0.03846550  0.80432847  1
  O  O44  1  0.41093242  0.44979729  0.68382876  1
  O  O45  1  0.58906758  0.55020271  0.31617124  1
  O  O46  1  0.41574527  0.10480087  0.71662061  1
  O  O47  1  0.58425473  0.89519913  0.28337939  1
  O  O48  1  0.66650130  0.23891683  0.26176477  1
  O  O49  1  0.33349870  0.76108317  0.73823523  1
