# generated using pymatgen
data_Li6Zn3(PS4)4
_symmetry_space_group_name_H-M   'P 1'
_cell_length_a   9.30877027
_cell_length_b   11.60006338
_cell_length_c   23.15904048
_cell_angle_alpha   90.03856570
_cell_angle_beta   90.02668880
_cell_angle_gamma   90.03295814
_symmetry_Int_Tables_number   1
_chemical_formula_structural   Li6Zn3(PS4)4
_chemical_formula_sum   'Li24 Zn12 P16 S64'
_cell_volume   2500.76578831
_cell_formula_units_Z   4
loop_
 _symmetry_equiv_pos_site_id
 _symmetry_equiv_pos_as_xyz
  1  'x, y, z'
loop_
 _atom_site_type_symbol
 _atom_site_label
 _atom_site_symmetry_multiplicity
 _atom_site_fract_x
 _atom_site_fract_y
 _atom_site_fract_z
 _atom_site_occupancy
  Li  Li0  1  0.75020735  0.99065963  0.87568445  1
  Li  Li1  1  0.25678090  0.75868116  0.74606180  1
  Li  Li2  1  0.24203834  0.24206670  0.74949480  1
  Li  Li3  1  0.24727810  0.75687924  0.99738466  1
  Li  Li4  1  0.50146769  0.49941339  0.25032379  1
  Li  Li5  1  0.50438982  0.99686656  0.25217257  1
  Li  Li6  1  0.50280203  0.50108072  0.50033279  1
  Li  Li7  1  0.50384316  0.99924442  0.49826945  1
  Li  Li8  1  0.00660133  0.75218699  0.37422811  1
  Li  Li9  1  0.00213842  0.24972612  0.37521919  1
  Li  Li10  1  0.50774068  0.50334647  0.75100162  1
  Li  Li11  1  0.51078499  0.00179016  0.74561929  1
  Li  Li12  1  0.99801118  0.75440610  0.62242230  1
  Li  Li13  1  0.98643585  0.24961208  0.62275773  1
  Li  Li14  1  0.49937322  0.49793271  0.00031157  1
  Li  Li15  1  0.50429247  0.00056050  0.00303571  1
  Li  Li16  1  0.99646662  0.74594864  0.87621312  1
  Li  Li17  1  0.99500916  0.25093529  0.87550549  1
  Li  Li18  1  0.99725024  0.74945053  0.12871331  1
  Li  Li19  1  0.00281577  0.24735577  0.12450052  1
  Li  Li20  1  0.50781085  0.74897363  0.62325663  1
  Li  Li21  1  0.50638031  0.74891138  0.87422318  1
  Li  Li22  1  0.99165886  0.99713092  0.74891643  1
  Li  Li23  1  0.00006869  0.00290600  0.00154209  1
  Zn  Zn24  1  0.49942348  0.25020196  0.12587531  1
  Zn  Zn25  1  0.50562365  0.74946629  0.12653566  1
  Zn  Zn26  1  0.49854434  0.25008704  0.37465690  1
  Zn  Zn27  1  0.49909306  0.75101476  0.37600661  1
  Zn  Zn28  1  0.99915383  0.50065709  0.25116372  1
  Zn  Zn29  1  0.99970707  0.00028082  0.25005277  1
  Zn  Zn30  1  0.50335536  0.24916947  0.62334035  1
  Zn  Zn31  1  0.99888365  0.50101530  0.49882641  1
  Zn  Zn32  1  0.99849201  0.99987361  0.50038552  1
  Zn  Zn33  1  0.49867519  0.25038689  0.87715747  1
  Zn  Zn34  1  0.98483178  0.49997797  0.74922184  1
  Zn  Zn35  1  0.99074282  0.50002405  0.99965428  1
  P  P36  1  0.75072297  0.24983787  0.24980790  1
  P  P37  1  0.75004928  0.74927505  0.25063036  1
  P  P38  1  0.74965465  0.25093744  0.49911451  1
  P  P39  1  0.75215657  0.74582359  0.49818950  1
  P  P40  1  0.25086420  0.49971355  0.37502007  1
  P  P41  1  0.24982673  0.00049948  0.37496803  1
  P  P42  1  0.75001464  0.25114020  0.74880096  1
  P  P43  1  0.74768792  0.74953735  0.75351438  1
  P  P44  1  0.24807726  0.49727340  0.62819960  1
  P  P45  1  0.24995903  0.99754310  0.62261533  1
  P  P46  1  0.74638153  0.25074021  0.99760944  1
  P  P47  1  0.75295799  0.75302813  0.00296482  1
  P  P48  1  0.24473768  0.49971194  0.87679834  1
  P  P49  1  0.25415769  0.00027601  0.87185651  1
  P  P50  1  0.25156858  0.50105732  0.12481891  1
  P  P51  1  0.24930868  0.00352383  0.12570677  1
  S  S52  1  0.86366555  0.35857051  0.05086475  1
  S  S53  1  0.87543910  0.85483759  0.05380245  1
  S  S54  1  0.86545127  0.36075534  0.30221334  1
  S  S55  1  0.86544960  0.86086498  0.30221401  1
  S  S56  1  0.36349120  0.61260142  0.17723210  1
  S  S57  1  0.37558740  0.10614201  0.17792447  1
  S  S58  1  0.86120209  0.36432171  0.55103817  1
  S  S59  1  0.86293684  0.86091401  0.55052085  1
  S  S60  1  0.36440978  0.61094472  0.42736695  1
  S  S61  1  0.36459876  0.11212977  0.42685156  1
  S  S62  1  0.85884441  0.36211763  0.80344887  1
  S  S63  1  0.87265542  0.85569140  0.80559077  1
  S  S64  1  0.36785799  0.60522207  0.67901061  1
  S  S65  1  0.36721853  0.11234904  0.67654919  1
  S  S66  1  0.36668626  0.60690622  0.92677503  1
  S  S67  1  0.37237242  0.10538232  0.92667332  1
  S  S68  1  0.63314935  0.64642582  0.30572121  1
  S  S69  1  0.63656712  0.14636840  0.30575062  1
  S  S70  1  0.64118207  0.64288127  0.55245887  1
  S  S71  1  0.63787771  0.14529285  0.55514960  1
  S  S72  1  0.13592186  0.89730556  0.43094111  1
  S  S73  1  0.13745778  0.39523184  0.43084200  1
  S  S74  1  0.63729476  0.64099089  0.80591192  1
  S  S75  1  0.62871779  0.14738806  0.80543096  1
  S  S76  1  0.13185148  0.89666077  0.67819230  1
  S  S77  1  0.12304656  0.39061772  0.68192075  1
  S  S78  1  0.62871907  0.64599470  0.05457735  1
  S  S79  1  0.63364845  0.14863673  0.05467384  1
  S  S80  1  0.13140562  0.89854008  0.92594939  1
  S  S81  1  0.12740713  0.39485510  0.93012198  1
  S  S82  1  0.13812114  0.89672747  0.18135618  1
  S  S83  1  0.13198049  0.39897876  0.17907183  1
  S  S84  1  0.86440081  0.13842508  0.19745010  1
  S  S85  1  0.86189926  0.63617601  0.19844307  1
  S  S86  1  0.86484011  0.13958577  0.44746024  1
  S  S87  1  0.87462288  0.64070087  0.44515278  1
  S  S88  1  0.36408285  0.38835529  0.32231096  1
  S  S89  1  0.36264769  0.88778094  0.32292150  1
  S  S90  1  0.86366742  0.14348643  0.69834063  1
  S  S91  1  0.87448367  0.64772801  0.69920667  1
  S  S92  1  0.36259917  0.38866662  0.57500693  1
  S  S93  1  0.37271818  0.89629425  0.57250951  1
  S  S94  1  0.86417115  0.14134867  0.94662092  1
  S  S95  1  0.86044789  0.63939340  0.94837946  1
  S  S96  1  0.36587148  0.39022146  0.82388651  1
  S  S97  1  0.37849258  0.89668669  0.81997195  1
  S  S98  1  0.36369196  0.38903629  0.07278444  1
  S  S99  1  0.36897224  0.88802254  0.07389299  1
  S  S100  1  0.63733512  0.35495639  0.19394922  1
  S  S101  1  0.63872713  0.85500256  0.19450740  1
  S  S102  1  0.63350646  0.35428663  0.44371346  1
  S  S103  1  0.64004893  0.85325092  0.44236205  1
  S  S104  1  0.13794190  0.60424875  0.31878125  1
  S  S105  1  0.13581657  0.10468859  0.31893828  1
  S  S106  1  0.62557469  0.35428109  0.69654180  1
  S  S107  1  0.63586981  0.85084546  0.69801839  1
  S  S108  1  0.13076902  0.59921814  0.57303729  1
  S  S109  1  0.12849772  0.10525540  0.57109393  1
  S  S110  1  0.63255532  0.35862379  0.94354210  1
  S  S111  1  0.63005496  0.85454978  0.94876051  1
  S  S112  1  0.12871540  0.60204690  0.81970368  1
  S  S113  1  0.12648514  0.10459499  0.82132896  1
  S  S114  1  0.13003475  0.60513825  0.06898354  1
  S  S115  1  0.14194010  0.10632344  0.07057319  1
