# generated using pymatgen
data_Na3SbS3
_symmetry_space_group_name_H-M   'P 1'
_cell_length_a   8.63865924
_cell_length_b   8.63865924
_cell_length_c   8.63865924
_cell_angle_alpha   90.00000000
_cell_angle_beta   90.00000000
_cell_angle_gamma   90.00000000
_symmetry_Int_Tables_number   1
_chemical_formula_structural   Na3SbS3
_chemical_formula_sum   'Na12 Sb4 S12'
_cell_volume   644.67232900
_cell_formula_units_Z   4
loop_
 _symmetry_equiv_pos_site_id
 _symmetry_equiv_pos_as_xyz
  1  'x, y, z'
loop_
 _atom_site_type_symbol
 _atom_site_label
 _atom_site_symmetry_multiplicity
 _atom_site_fract_x
 _atom_site_fract_y
 _atom_site_fract_z
 _atom_site_occupancy
  Na  Na0  1  0.43882287  0.93882287  0.56117713  1
  Na  Na1  1  0.93882287  0.56117713  0.43882287  1
  Na  Na2  1  0.56117713  0.43882287  0.93882287  1
  Na  Na3  1  0.06117713  0.06117713  0.06117713  1
  Na  Na4  1  0.93131999  0.43131999  0.06868001  1
  Na  Na5  1  0.43131999  0.06868001  0.93131999  1
  Na  Na6  1  0.06868001  0.93131999  0.43131999  1
  Na  Na7  1  0.56868001  0.56868001  0.56868001  1
  Na  Na8  1  0.67486611  0.17486611  0.32513389  1
  Na  Na9  1  0.17486611  0.32513389  0.67486611  1
  Na  Na10  1  0.32513389  0.67486611  0.17486611  1
  Na  Na11  1  0.82513389  0.82513389  0.82513389  1
  Sb  Sb12  1  0.21433105  0.71433105  0.78566895  1
  Sb  Sb13  1  0.71433105  0.78566895  0.21433105  1
  Sb  Sb14  1  0.78566895  0.21433105  0.71433105  1
  Sb  Sb15  1  0.28566895  0.28566895  0.28566895  1
  S  S16  1  0.14174181  0.98507859  0.74989682  1
  S  S17  1  0.25010318  0.64174181  0.51492141  1
  S  S18  1  0.48507859  0.75010318  0.85825819  1
  S  S19  1  0.64174181  0.51492141  0.25010318  1
  S  S20  1  0.75010318  0.85825819  0.48507859  1
  S  S21  1  0.98507859  0.74989682  0.14174181  1
  S  S22  1  0.85825819  0.48507859  0.75010318  1
  S  S23  1  0.74989682  0.14174181  0.98507859  1
  S  S24  1  0.51492141  0.25010318  0.64174181  1
  S  S25  1  0.35825819  0.01492141  0.24989682  1
  S  S26  1  0.24989682  0.35825819  0.01492141  1
  S  S27  1  0.01492141  0.24989682  0.35825819  1
