# generated using pymatgen
data_B2(CN2)3
_symmetry_space_group_name_H-M   'P 1'
_cell_length_a   8.92524100
_cell_length_b   4.31898900
_cell_length_c   8.88248008
_cell_angle_alpha   89.86116090
_cell_angle_beta   90.00000000
_cell_angle_gamma   90.00000000
_symmetry_Int_Tables_number   1
_chemical_formula_structural   B2(CN2)3
_chemical_formula_sum   'B4 C6 N12'
_cell_volume   342.40099402
_cell_formula_units_Z   2
loop_
 _symmetry_equiv_pos_site_id
 _symmetry_equiv_pos_as_xyz
  1  'x, y, z'
loop_
 _atom_site_type_symbol
 _atom_site_label
 _atom_site_symmetry_multiplicity
 _atom_site_fract_x
 _atom_site_fract_y
 _atom_site_fract_z
 _atom_site_occupancy
  B  B0  1  0.50000000  0.60391200  0.78156200  1
  B  B1  1  0.50000000  0.40380600  0.21151900  1
  B  B2  1  0.00000000  0.09591500  0.71820100  1
  B  B3  1  0.00000000  0.89625800  0.28871300  1
  C  C4  1  0.14419000  0.00146100  0.50122100  1
  C  C5  1  0.35674000  0.49910400  0.99602300  1
  C  C6  1  0.85581000  0.00146100  0.50122100  1
  C  C7  1  0.50000000  0.50424200  0.49656400  1
  C  C8  1  0.00000000  0.99626900  0.00353400  1
  C  C9  1  0.64326000  0.49910400  0.99602300  1
  N  N10  1  0.64247800  0.41248200  0.12716500  1
  N  N11  1  0.14179500  0.09725900  0.63138100  1
  N  N12  1  0.14183000  0.90608500  0.37126900  1
  N  N13  1  0.85817000  0.90608500  0.37126900  1
  N  N14  1  0.50000000  0.39899600  0.37034000  1
  N  N15  1  0.85820500  0.09725900  0.63138100  1
  N  N16  1  0.35845100  0.59464800  0.86585500  1
  N  N17  1  0.00000000  0.89157000  0.12980200  1
  N  N18  1  0.00000000  0.10124000  0.87699300  1
  N  N19  1  0.50000000  0.60932600  0.62266300  1
  N  N20  1  0.35752200  0.41248200  0.12716500  1
  N  N21  1  0.64154900  0.59464800  0.86585500  1
