# generated using pymatgen
data_CaMg30NbO32
_symmetry_space_group_name_H-M   'P 1'
_cell_length_a   8.58991020
_cell_length_b   8.59776736
_cell_length_c   8.59776736
_cell_angle_alpha   90.00000000
_cell_angle_beta   90.00000000
_cell_angle_gamma   90.00000000
_symmetry_Int_Tables_number   1
_chemical_formula_structural   CaMg30NbO32
_chemical_formula_sum   'Ca1 Mg30 Nb1 O32'
_cell_volume   634.97993656
_cell_formula_units_Z   1
loop_
 _symmetry_equiv_pos_site_id
 _symmetry_equiv_pos_as_xyz
  1  'x, y, z'
loop_
 _atom_site_type_symbol
 _atom_site_label
 _atom_site_symmetry_multiplicity
 _atom_site_fract_x
 _atom_site_fract_y
 _atom_site_fract_z
 _atom_site_occupancy
  Ca  Ca0  1  -0.00000000  -0.00000000  0.00000000  1
  Mg  Mg1  1  -0.00000000  -0.00000000  0.50000000  1
  Mg  Mg2  1  -0.00000000  0.50000000  0.00000000  1
  Mg  Mg3  1  0.50000000  -0.00000000  0.00000000  1
  Mg  Mg4  1  0.50000000  -0.00000000  0.50000000  1
  Mg  Mg5  1  0.50000000  0.50000000  0.00000000  1
  Mg  Mg6  1  0.50000000  0.50000000  0.50000000  1
  Mg  Mg7  1  -0.00000000  0.25110550  0.25110550  1
  Mg  Mg8  1  -0.00000000  0.25110550  0.74889450  1
  Mg  Mg9  1  -0.00000000  0.74889450  0.25110550  1
  Mg  Mg10  1  -0.00000000  0.74889450  0.74889450  1
  Mg  Mg11  1  0.50000000  0.25008160  0.25008160  1
  Mg  Mg12  1  0.50000000  0.25008160  0.74991840  1
  Mg  Mg13  1  0.50000000  0.74991840  0.25008160  1
  Mg  Mg14  1  0.50000000  0.74991840  0.74991840  1
  Mg  Mg15  1  0.25288847  0.00000000  0.25290160  1
  Mg  Mg16  1  0.25288847  0.00000000  0.74709840  1
  Mg  Mg17  1  0.25187460  0.50000000  0.24830560  1
  Mg  Mg18  1  0.25187460  0.50000000  0.75169440  1
  Mg  Mg19  1  0.74711153  -0.00000000  0.25290160  1
  Mg  Mg20  1  0.74711153  -0.00000000  0.74709840  1
  Mg  Mg21  1  0.74812540  0.50000000  0.24830560  1
  Mg  Mg22  1  0.74812540  0.50000000  0.75169440  1
  Mg  Mg23  1  0.25288847  0.25290160  0.00000000  1
  Mg  Mg24  1  0.25187460  0.24830560  0.50000000  1
  Mg  Mg25  1  0.25288847  0.74709840  0.00000000  1
  Mg  Mg26  1  0.25187460  0.75169440  0.50000000  1
  Mg  Mg27  1  0.74711153  0.25290160  0.00000000  1
  Mg  Mg28  1  0.74812540  0.24830560  0.50000000  1
  Mg  Mg29  1  0.74711153  0.74709840  0.00000000  1
  Mg  Mg30  1  0.74812540  0.75169440  0.50000000  1
  Nb  Nb31  1  -0.00000000  0.50000000  0.50000000  1
  O  O32  1  0.26248313  0.00000000  0.00000000  1
  O  O33  1  0.25363561  0.00000000  0.50000000  1
  O  O34  1  0.25363561  0.50000000  0.00000000  1
  O  O35  1  0.26235538  0.50000000  0.50000000  1
  O  O36  1  0.73751687  -0.00000000  0.00000000  1
  O  O37  1  0.74636439  -0.00000000  0.50000000  1
  O  O38  1  0.74636439  0.50000000  0.00000000  1
  O  O39  1  0.73764462  0.50000000  0.50000000  1
  O  O40  1  0.24961042  0.25008968  0.25008968  1
  O  O41  1  0.24961042  0.25008968  0.74991032  1
  O  O42  1  0.24961042  0.74991032  0.25008968  1
  O  O43  1  0.24961042  0.74991032  0.74991032  1
  O  O44  1  0.75038958  0.25008968  0.25008968  1
  O  O45  1  0.75038958  0.25008968  0.74991032  1
  O  O46  1  0.75038958  0.74991032  0.25008968  1
  O  O47  1  0.75038958  0.74991032  0.74991032  1
  O  O48  1  -0.00000000  0.00000000  0.26117039  1
  O  O49  1  -0.00000000  0.00000000  0.73882961  1
  O  O50  1  -0.00000000  0.50000000  0.23919854  1
  O  O51  1  -0.00000000  0.50000000  0.76080146  1
  O  O52  1  0.50000000  0.00000000  0.25184339  1
  O  O53  1  0.50000000  -0.00000000  0.74815661  1
  O  O54  1  0.50000000  0.50000000  0.24890341  1
  O  O55  1  0.50000000  0.50000000  0.75109659  1
  O  O56  1  -0.00000000  0.26117039  0.00000000  1
  O  O57  1  -0.00000000  0.23919854  0.50000000  1
  O  O58  1  -0.00000000  0.73882961  0.00000000  1
  O  O59  1  -0.00000000  0.76080146  0.50000000  1
  O  O60  1  0.50000000  0.25184339  0.00000000  1
  O  O61  1  0.50000000  0.24890341  0.50000000  1
  O  O62  1  0.50000000  0.74815661  0.00000000  1
  O  O63  1  0.50000000  0.75109659  0.50000000  1
