# generated using pymatgen
data_As2O3
_symmetry_space_group_name_H-M   'P 1'
_cell_length_a   4.55901806
_cell_length_b   5.38905735
_cell_length_c   13.03362376
_cell_angle_alpha   90.00000000
_cell_angle_beta   90.00000000
_cell_angle_gamma   94.68776865
_symmetry_Int_Tables_number   1
_chemical_formula_structural   As2O3
_chemical_formula_sum   'As8 O12'
_cell_volume   319.14943890
_cell_formula_units_Z   4
loop_
 _symmetry_equiv_pos_site_id
 _symmetry_equiv_pos_as_xyz
  1  'x, y, z'
loop_
 _atom_site_type_symbol
 _atom_site_label
 _atom_site_symmetry_multiplicity
 _atom_site_fract_x
 _atom_site_fract_y
 _atom_site_fract_z
 _atom_site_occupancy
  As  As0  1  0.50053740  0.14018127  0.14955256  1
  As  As1  1  -0.00053740  0.35981873  0.64955256  1
  As  As2  1  0.49946260  0.85981873  0.85044744  1
  As  As3  1  0.00053740  0.64018127  0.35044744  1
  As  As4  1  0.46154488  0.23820636  0.39913207  1
  As  As5  1  0.03845512  0.26179364  0.89913207  1
  As  As6  1  0.53845512  0.76179364  0.60086793  1
  As  As7  1  0.96154488  0.73820636  0.10086793  1
  O  O8  1  0.36705399  0.54174411  0.35861358  1
  O  O9  1  0.13294601  0.95825589  0.85861358  1
  O  O10  1  0.63294601  0.45825589  0.64138642  1
  O  O11  1  0.86705399  0.04174411  0.14138642  1
  O  O12  1  0.34622753  0.84054602  0.10226350  1
  O  O13  1  0.15377247  0.65945398  0.60226350  1
  O  O14  1  0.65377247  0.15945398  0.89773650  1
  O  O15  1  0.84622753  0.34054602  0.39773650  1
  O  O16  1  0.93356332  0.56448781  0.21742251  1
  O  O17  1  0.56643668  0.93551219  0.71742251  1
  O  O18  1  0.06643668  0.43551219  0.78257749  1
  O  O19  1  0.43356332  0.06448781  0.28257749  1
