# generated using pymatgen
data_MgV6O5F19
_symmetry_space_group_name_H-M   'P 1'
_cell_length_a   5.45773584
_cell_length_b   5.41497328
_cell_length_c   15.59452238
_cell_angle_alpha   89.77460380
_cell_angle_beta   99.81828612
_cell_angle_gamma   90.69208995
_symmetry_Int_Tables_number   1
_chemical_formula_structural   MgV6O5F19
_chemical_formula_sum   'Mg1 V6 O5 F19'
_cell_volume   454.08850850
_cell_formula_units_Z   1
loop_
 _symmetry_equiv_pos_site_id
 _symmetry_equiv_pos_as_xyz
  1  'x, y, z'
loop_
 _atom_site_type_symbol
 _atom_site_label
 _atom_site_symmetry_multiplicity
 _atom_site_fract_x
 _atom_site_fract_y
 _atom_site_fract_z
 _atom_site_occupancy
  Mg  Mg0  1  0.81904200  0.74249600  0.15053100  1
  V  V1  1  0.04294100  0.98218800  0.98620000  1
  V  V2  1  0.14644000  0.47096000  0.34776200  1
  V  V3  1  0.26654300  0.03007200  0.66603600  1
  V  V4  1  0.54048100  0.44823200  0.98022900  1
  V  V5  1  0.66952900  0.00195000  0.34870000  1
  V  V6  1  0.76845000  0.48091200  0.66542900  1
  O  O7  1  0.02286500  0.21201800  0.64810300  1
  O  O8  1  0.52260500  0.29591900  0.64548700  1
  O  O9  1  0.70919900  0.19614200  0.97589200  1
  O  O10  1  0.29675500  0.82350800  0.00547000  1
  O  O11  1  0.91076400  0.25239000  0.33715600  1
  F  F12  1  0.19971200  0.28996200  0.97792800  1
  F  F13  1  0.13061900  0.73871800  0.69242000  1
  F  F14  1  0.01246500  0.01770400  0.10616100  1
  F  F15  1  0.27721500  0.45585900  0.46115300  1
  F  F16  1  0.39654400  0.08519800  0.77671800  1
  F  F17  1  0.07107900  0.56475300  0.22220400  1
  F  F18  1  0.29825000  0.93415200  0.56029400  1
  F  F19  1  0.43960500  0.58288000  0.87530200  1
  F  F20  1  0.40444900  0.23781600  0.31846600  1
  F  F21  1  0.42014500  0.74168200  0.34357500  1
  F  F22  1  0.63248900  0.76989700  0.68873800  1
  F  F23  1  0.56693200  0.49484000  0.10583000  1
  F  F24  1  0.68726100  0.04272700  0.46046900  1
  F  F25  1  0.88767300  0.42224400  0.77674000  1
  F  F26  1  0.65113300  0.93531800  0.22596300  1
  F  F27  1  0.81547600  0.57122000  0.56020100  1
  F  F28  1  0.94716300  0.92659600  0.87507700  1
  F  F29  1  0.82447700  0.69624600  0.00895500  1
  F  F30  1  0.93122000  0.75539900  0.36752800  1
