# generated using pymatgen
data_Hg3Bi2(TeCl4)2
_symmetry_space_group_name_H-M   'P 1'
_cell_length_a   9.67180798
_cell_length_b   9.67180798
_cell_length_c   13.54819202
_cell_angle_alpha   76.41203352
_cell_angle_beta   76.41203352
_cell_angle_gamma   47.28420615
_symmetry_Int_Tables_number   1
_chemical_formula_structural   Hg3Bi2(TeCl4)2
_chemical_formula_sum   'Hg6 Bi4 Te4 Cl16'
_cell_volume   900.01375166
_cell_formula_units_Z   2
loop_
 _symmetry_equiv_pos_site_id
 _symmetry_equiv_pos_as_xyz
  1  'x, y, z'
loop_
 _atom_site_type_symbol
 _atom_site_label
 _atom_site_symmetry_multiplicity
 _atom_site_fract_x
 _atom_site_fract_y
 _atom_site_fract_z
 _atom_site_occupancy
  Hg  Hg0  1  0.50000000  0.00000000  0.00000000  1
  Hg  Hg1  1  -0.00000000  0.50000000  0.50000000  1
  Hg  Hg2  1  0.26027107  0.23174541  0.74435619  1
  Hg  Hg3  1  0.76825459  0.73972893  0.75564381  1
  Hg  Hg4  1  0.73972893  0.76825459  0.25564381  1
  Hg  Hg5  1  0.23174541  0.26027107  0.24435619  1
  Bi  Bi6  1  0.19387530  0.72768098  0.93688197  1
  Bi  Bi7  1  0.27231902  0.80612470  0.56311803  1
  Bi  Bi8  1  0.80612470  0.27231902  0.06311803  1
  Bi  Bi9  1  0.72768098  0.19387530  0.43688197  1
  Te  Te10  1  0.58510785  0.08483030  0.80518920  1
  Te  Te11  1  0.91516970  0.41489215  0.69481080  1
  Te  Te12  1  0.41489215  0.91516970  0.19481080  1
  Te  Te13  1  0.08483030  0.58510785  0.30518920  1
  Cl  Cl14  1  0.42205741  0.37431401  0.03595271  1
  Cl  Cl15  1  0.62568599  0.57794259  0.46404729  1
  Cl  Cl16  1  0.57794259  0.62568599  0.96404729  1
  Cl  Cl17  1  0.37431401  0.42205741  0.53595271  1
  Cl  Cl18  1  0.16686447  0.62990504  0.77568119  1
  Cl  Cl19  1  0.37009496  0.83313553  0.72431881  1
  Cl  Cl20  1  0.83313553  0.37009496  0.22431881  1
  Cl  Cl21  1  0.62990504  0.16686447  0.27568119  1
  Cl  Cl22  1  0.93440577  0.71864371  0.02442866  1
  Cl  Cl23  1  0.28135629  0.06559423  0.47557134  1
  Cl  Cl24  1  0.06559423  0.28135629  0.97557134  1
  Cl  Cl25  1  0.71864371  0.93440577  0.52442866  1
  Cl  Cl26  1  0.10711561  0.89165252  0.11176977  1
  Cl  Cl27  1  0.10834748  0.89288439  0.38823023  1
  Cl  Cl28  1  0.89288439  0.10834748  0.88823023  1
  Cl  Cl29  1  0.89165252  0.10711561  0.61176977  1
