# generated using pymatgen
data_K2Ti4O9
_symmetry_space_group_name_H-M   'P 1'
_cell_length_a   3.77972347
_cell_length_b   9.36455307
_cell_length_c   12.05080933
_cell_angle_alpha   106.33566059
_cell_angle_beta   89.99671710
_cell_angle_gamma   101.63877213
_symmetry_Int_Tables_number   1
_chemical_formula_structural   K2Ti4O9
_chemical_formula_sum   'K4 Ti8 O18'
_cell_volume   400.17818877
_cell_formula_units_Z   2
loop_
 _symmetry_equiv_pos_site_id
 _symmetry_equiv_pos_as_xyz
  1  'x, y, z'
loop_
 _atom_site_type_symbol
 _atom_site_label
 _atom_site_symmetry_multiplicity
 _atom_site_fract_x
 _atom_site_fract_y
 _atom_site_fract_z
 _atom_site_occupancy
  K  K0  1  0.58291420  0.16537247  0.08253442  1
  K  K1  1  0.41710598  0.83461049  0.91741139  1
  K  K2  1  0.52281016  0.04493627  0.32921597  1
  K  K3  1  0.47711290  0.95510243  0.67079161  1
  Ti  Ti4  1  0.24615835  0.49207814  0.16650899  1
  Ti  Ti5  1  0.75385537  0.50792170  0.83350147  1
  Ti  Ti6  1  0.83910716  0.67827987  0.37625505  1
  Ti  Ti7  1  0.16090410  0.32172802  0.62374613  1
  Ti  Ti8  1  0.87849534  0.75691303  0.13873424  1
  Ti  Ti9  1  0.12150399  0.24308217  0.86126833  1
  Ti  Ti10  1  0.20296765  0.40567605  0.39605831  1
  Ti  Ti11  1  0.79703302  0.59432688  0.60394328  1
  O  O12  1  0.76799685  0.53580081  0.20075263  1
  O  O13  1  0.23201314  0.46419212  0.79925305  1
  O  O14  1  0.30832478  0.61664245  0.35884456  1
  O  O15  1  0.69168107  0.38335485  0.64115659  1
  O  O16  1  0.35003694  0.69998823  0.14417492  1
  O  O17  1  0.64996491  0.30000234  0.85582945  1
  O  O18  1  0.72997523  0.45986851  0.42174484  1
  O  O19  1  0.27003482  0.54013203  0.57825776  1
  O  O20  1  0.91709729  0.83426605  0.31751199  1
  O  O21  1  0.08290081  0.16574647  0.68249410  1
  O  O22  1  0.96824557  0.93655826  0.11983448  1
  O  O23  1  0.03175376  0.06342711  0.88015765  1
  O  O24  1  0.12136141  0.24265956  0.46093628  1
  O  O25  1  0.87863940  0.75734632  0.53906824  1
  O  O26  1  0.16113317  0.32204138  0.24198035  1
  O  O27  1  0.83886959  0.67795127  0.75802551  1
  O  O28  1  0.18244330  0.36470706  0.02628168  1
  O  O29  1  0.81756071  0.63528767  0.97372773  1
