# generated using pymatgen
data_AlVO3
_symmetry_space_group_name_H-M   'P 1'
_cell_length_a   4.88111520
_cell_length_b   9.44892760
_cell_length_c   4.88124037
_cell_angle_alpha   75.04115014
_cell_angle_beta   119.99756214
_cell_angle_gamma   104.95459902
_symmetry_Int_Tables_number   1
_chemical_formula_structural   AlVO3
_chemical_formula_sum   'Al4 V4 O12'
_cell_volume   186.11277526
_cell_formula_units_Z   4
loop_
 _symmetry_equiv_pos_site_id
 _symmetry_equiv_pos_as_xyz
  1  'x, y, z'
loop_
 _atom_site_type_symbol
 _atom_site_label
 _atom_site_symmetry_multiplicity
 _atom_site_fract_x
 _atom_site_fract_y
 _atom_site_fract_z
 _atom_site_occupancy
  Al  Al0  1  0.07509630  0.22529887  0.92493561  1
  Al  Al1  1  0.57510874  0.72528222  0.42495012  1
  Al  Al2  1  0.42488983  0.27469658  0.57505866  1
  Al  Al3  1  0.92491544  0.77472153  0.07505596  1
  V  V4  1  0.17582406  0.52730457  0.82428259  1
  V  V5  1  0.32418932  0.97268867  0.67573646  1
  V  V6  1  0.67583306  0.02736784  0.32424597  1
  V  V7  1  0.82416470  0.47263936  0.17574264  1
  O  O8  1  0.42184634  0.36844908  0.19042768  1
  O  O9  1  0.92183372  0.86840398  0.69044681  1
  O  O10  1  0.69045247  0.13152165  0.63703063  1
  O  O11  1  0.19048019  0.63157992  0.13701173  1
  O  O12  1  0.36300377  0.13153582  0.92181775  1
  O  O13  1  0.86304164  0.63159045  0.42180264  1
  O  O14  1  0.13697228  0.36845816  0.57817505  1
  O  O15  1  0.63697389  0.86840769  0.07820695  1
  O  O16  1  0.80953174  0.36848113  0.86297033  1
  O  O17  1  0.30953462  0.86843005  0.36298931  1
  O  O18  1  0.07813663  0.13153921  0.30956014  1
  O  O19  1  0.57817427  0.63160322  0.80955697  1
