# generated using pymatgen
data_MgAg4Te8(MoO12)2
_symmetry_space_group_name_H-M   'P 1'
_cell_length_a   5.90080566
_cell_length_b   9.51444333
_cell_length_c   12.11802092
_cell_angle_alpha   103.86498600
_cell_angle_beta   89.67521642
_cell_angle_gamma   110.94029950
_symmetry_Int_Tables_number   1
_chemical_formula_structural   MgAg4Te8(MoO12)2
_chemical_formula_sum   'Mg1 Ag4 Te8 Mo2 O24'
_cell_volume   614.48836994
_cell_formula_units_Z   1
loop_
 _symmetry_equiv_pos_site_id
 _symmetry_equiv_pos_as_xyz
  1  'x, y, z'
loop_
 _atom_site_type_symbol
 _atom_site_label
 _atom_site_symmetry_multiplicity
 _atom_site_fract_x
 _atom_site_fract_y
 _atom_site_fract_z
 _atom_site_occupancy
  Mg  Mg0  1  0.76852185  0.59032756  0.24612421  1
  Ag  Ag1  1  0.89802217  0.43153382  0.41558200  1
  Ag  Ag2  1  0.20450528  0.47539274  0.23009908  1
  Ag  Ag3  1  0.04387829  0.58012224  0.74231820  1
  Ag  Ag4  1  0.52235988  0.45197220  0.77279096  1
  Te  Te5  1  0.98486691  0.68540386  0.04220998  1
  Te  Te6  1  0.33885174  0.30787592  0.43557103  1
  Te  Te7  1  0.01011884  0.30041352  0.90918812  1
  Te  Te8  1  0.68578732  0.68975240  0.56094667  1
  Te  Te9  1  0.57921854  0.84590030  0.87998107  1
  Te  Te10  1  0.83641349  0.17511831  0.59320344  1
  Te  Te11  1  0.41117158  0.20601240  0.09639420  1
  Te  Te12  1  0.28085263  0.85246301  0.39229718  1
  Mo  Mo13  1  0.17005557  0.99802752  0.73620649  1
  Mo  Mo14  1  0.86825006  0.99965151  0.24086253  1
  O  O15  1  0.88240768  0.98473964  0.84843600  1
  O  O16  1  0.90387511  0.00973176  0.62469449  1
  O  O17  1  0.16986846  0.04303874  0.14299959  1
  O  O18  1  0.14577119  0.99478043  0.36377263  1
  O  O19  1  0.79394064  0.77317400  0.17034500  1
  O  O20  1  0.01539755  0.22408636  0.35051549  1
  O  O21  1  0.25280582  0.23425007  0.82893984  1
  O  O22  1  0.99867388  0.77192357  0.66273012  1
  O  O23  1  0.80458772  0.49494856  0.07875365  1
  O  O24  1  0.33532130  0.50940548  0.43865578  1
  O  O25  1  0.16907332  0.51626715  0.92196927  1
  O  O26  1  0.67042642  0.48684500  0.57290369  1
  O  O27  1  0.37721932  0.96675644  0.85346792  1
  O  O28  1  0.39889937  0.04623403  0.64172764  1
  O  O29  1  0.69546053  0.05011013  0.15216366  1
  O  O30  1  0.61583932  0.94828357  0.35740812  1
  O  O31  1  0.78758879  0.67642170  0.91580212  1
  O  O32  1  0.18371344  0.29812739  0.58120288  1
  O  O33  1  0.19149840  0.30415033  0.06211822  1
  O  O34  1  0.84970022  0.67111850  0.41910161  1
  O  O35  1  0.48322412  0.69433962  0.73843773  1
  O  O36  1  0.85537629  0.30257806  0.74309317  1
  O  O37  1  0.52193460  0.35960391  0.24094453  1
  O  O38  1  0.15910638  0.69911828  0.25159867  1
