# generated using pymatgen
data_Rb2LaCl5
_symmetry_space_group_name_H-M   'P 1'
_cell_length_a   8.23929001
_cell_length_b   9.06011062
_cell_length_c   13.21116867
_cell_angle_alpha   90.00000000
_cell_angle_beta   90.00000000
_cell_angle_gamma   90.00000000
_symmetry_Int_Tables_number   1
_chemical_formula_structural   Rb2LaCl5
_chemical_formula_sum   'Rb8 La4 Cl20'
_cell_volume   986.19893045
_cell_formula_units_Z   4
loop_
 _symmetry_equiv_pos_site_id
 _symmetry_equiv_pos_as_xyz
  1  'x, y, z'
loop_
 _atom_site_type_symbol
 _atom_site_label
 _atom_site_symmetry_multiplicity
 _atom_site_fract_x
 _atom_site_fract_y
 _atom_site_fract_z
 _atom_site_occupancy
  Rb  Rb0  1  0.55469269  0.49409325  0.82901350  1
  Rb  Rb1  1  0.44530731  0.50590675  0.17098650  1
  Rb  Rb2  1  0.05469269  0.50590675  0.67098650  1
  Rb  Rb3  1  0.44530731  0.99409325  0.17098650  1
  Rb  Rb4  1  0.94530731  0.49409325  0.32901350  1
  Rb  Rb5  1  0.55469269  0.00590675  0.82901350  1
  Rb  Rb6  1  0.94530731  0.00590675  0.32901350  1
  Rb  Rb7  1  0.05469269  0.99409325  0.67098650  1
  La  La8  1  0.57227713  0.75000000  0.50528163  1
  La  La9  1  0.42772287  0.25000000  0.49471837  1
  La  La10  1  0.07227713  0.25000000  0.99471837  1
  La  La11  1  0.92772287  0.75000000  0.00528163  1
  Cl  Cl12  1  0.84129245  0.75000000  0.79808124  1
  Cl  Cl13  1  0.15870755  0.25000000  0.20191876  1
  Cl  Cl14  1  0.34129245  0.25000000  0.70191876  1
  Cl  Cl15  1  0.65870755  0.75000000  0.29808124  1
  Cl  Cl16  1  0.37570271  0.75000000  0.67899804  1
  Cl  Cl17  1  0.62429729  0.25000000  0.32100196  1
  Cl  Cl18  1  0.87570271  0.25000000  0.82100196  1
  Cl  Cl19  1  0.12429729  0.75000000  0.17899804  1
  Cl  Cl20  1  0.91624679  0.75000000  0.50825040  1
  Cl  Cl21  1  0.08375321  0.25000000  0.49174960  1
  Cl  Cl22  1  0.41624679  0.25000000  0.99174960  1
  Cl  Cl23  1  0.58375321  0.75000000  0.00825040  1
  Cl  Cl24  1  0.66439638  0.04194337  0.57509561  1
  Cl  Cl25  1  0.33560362  0.95805663  0.42490439  1
  Cl  Cl26  1  0.16439638  0.95805663  0.92490439  1
  Cl  Cl27  1  0.33560362  0.54194337  0.42490439  1
  Cl  Cl28  1  0.83560362  0.04194337  0.07509561  1
  Cl  Cl29  1  0.66439638  0.45805663  0.57509561  1
  Cl  Cl30  1  0.83560362  0.45805663  0.07509561  1
  Cl  Cl31  1  0.16439638  0.54194337  0.92490439  1
