# generated using pymatgen
data_Na3FeH10C6O17
_symmetry_space_group_name_H-M   'P 1'
_cell_length_a   10.90535112
_cell_length_b   10.90535112
_cell_length_c   15.12353209
_cell_angle_alpha   81.36839987
_cell_angle_beta   81.36839987
_cell_angle_gamma   73.03717268
_symmetry_Int_Tables_number   1
_chemical_formula_structural   Na3FeH10C6O17
_chemical_formula_sum   'Na12 Fe4 H40 C24 O68'
_cell_volume   1690.07870068
_cell_formula_units_Z   4
loop_
 _symmetry_equiv_pos_site_id
 _symmetry_equiv_pos_as_xyz
  1  'x, y, z'
loop_
 _atom_site_type_symbol
 _atom_site_label
 _atom_site_symmetry_multiplicity
 _atom_site_fract_x
 _atom_site_fract_y
 _atom_site_fract_z
 _atom_site_occupancy
  Na  Na0  1  0.49879351  0.50120649  0.75000000  1
  Na  Na1  1  0.50120649  0.49879351  0.25000000  1
  Na  Na2  1  0.22717095  0.77282905  0.75000000  1
  Na  Na3  1  0.77282905  0.22717095  0.25000000  1
  Na  Na4  1  0.92814297  0.15429646  0.00140535  1
  Na  Na5  1  0.84570354  0.07185703  0.49859465  1
  Na  Na6  1  0.07185703  0.84570354  0.99859465  1
  Na  Na7  1  0.15429646  0.92814297  0.50140535  1
  Na  Na8  1  0.74843287  0.48596447  0.98335055  1
  Na  Na9  1  0.51403553  0.25156713  0.51664945  1
  Na  Na10  1  0.25156713  0.51403553  0.01664945  1
  Na  Na11  1  0.48596447  0.74843287  0.48335055  1
  Fe  Fe12  1  0.05562009  0.32642559  0.76848945  1
  Fe  Fe13  1  0.67357441  0.94437991  0.73151055  1
  Fe  Fe14  1  0.94437991  0.67357441  0.23151055  1
  Fe  Fe15  1  0.32642559  0.05562009  0.26848945  1
  H  H16  1  0.64680818  0.27130981  0.05413668  1
  H  H17  1  0.72869019  0.35319182  0.44586332  1
  H  H18  1  0.35319182  0.72869019  0.94586332  1
  H  H19  1  0.27130981  0.64680818  0.55413668  1
  H  H20  1  0.65379774  0.27779872  0.94759658  1
  H  H21  1  0.72220128  0.34620226  0.55240342  1
  H  H22  1  0.34620226  0.72220128  0.05240342  1
  H  H23  1  0.27779872  0.65379774  0.44759658  1
  H  H24  1  0.77859204  0.96424644  0.00648027  1
  H  H25  1  0.03575356  0.22140796  0.49351973  1
  H  H26  1  0.22140796  0.03575356  0.99351973  1
  H  H27  1  0.96424644  0.77859204  0.50648027  1
  H  H28  1  0.81106177  0.01187226  0.90664375  1
  H  H29  1  0.98812774  0.18893823  0.59335625  1
  H  H30  1  0.18893823  0.98812774  0.09335625  1
  H  H31  1  0.01187226  0.81106177  0.40664375  1
  H  H32  1  0.03719210  0.38166021  0.97755813  1
  H  H33  1  0.61833979  0.96280790  0.52244187  1
  H  H34  1  0.96280790  0.61833979  0.02244187  1
  H  H35  1  0.38166021  0.03719210  0.47755813  1
  H  H36  1  0.98896457  0.34169419  0.08002363  1
  H  H37  1  0.65830581  0.01103543  0.41997637  1
  H  H38  1  0.01103543  0.65830581  0.91997637  1
  H  H39  1  0.34169419  0.98896457  0.58002363  1
  H  H40  1  0.72776881  0.74971408  0.91639085  1
  H  H41  1  0.25028592  0.27223119  0.58360915  1
  H  H42  1  0.27223119  0.25028592  0.08360915  1
  H  H43  1  0.74971408  0.72776881  0.41639085  1
  H  H44  1  0.75308360  0.72804538  0.01761713  1
  H  H45  1  0.27195462  0.24691640  0.48238287  1
  H  H46  1  0.24691640  0.27195462  0.98238287  1
  H  H47  1  0.72804538  0.75308360  0.51761713  1
  H  H48  1  0.60046835  0.87552264  0.06392981  1
  H  H49  1  0.12447736  0.39953165  0.43607019  1
  H  H50  1  0.39953165  0.12447736  0.93607019  1
  H  H51  1  0.87552264  0.60046835  0.56392981  1
  H  H52  1  0.59074059  0.99101769  0.11700540  1
  H  H53  1  0.00898231  0.40925941  0.38299460  1
  H  H54  1  0.40925941  0.00898231  0.88299460  1
  H  H55  1  0.99101769  0.59074059  0.61700540  1
  C  C56  1  0.22282292  0.45745815  0.81481779  1
  C  C57  1  0.54254185  0.77717708  0.68518221  1
  C  C58  1  0.77717708  0.54254185  0.18518221  1
  C  C59  1  0.45745815  0.22282292  0.31481779  1
  C  C60  1  0.20025452  0.50877392  0.71502680  1
  C  C61  1  0.49122608  0.79974548  0.78497320  1
  C  C62  1  0.79974548  0.49122608  0.28497320  1
  C  C63  1  0.50877392  0.20025452  0.21502680  1
  C  C64  1  0.20544266  0.07707811  0.72712702  1
  C  C65  1  0.92292189  0.79455734  0.77287298  1
  C  C66  1  0.79455734  0.92292189  0.27287298  1
  C  C67  1  0.07707811  0.20544266  0.22712702  1
  C  C68  1  0.11850364  0.05451776  0.81592205  1
  C  C69  1  0.94548224  0.88149636  0.68407795  1
  C  C70  1  0.88149636  0.94548224  0.18407795  1
  C  C71  1  0.05451776  0.11850364  0.31592205  1
  C  C72  1  0.81172506  0.39461784  0.70063348  1
  C  C73  1  0.60538216  0.18827494  0.79936652  1
  C  C74  1  0.18827494  0.60538216  0.29936652  1
  C  C75  1  0.39461784  0.81172506  0.20063348  1
  C  C76  1  0.78929186  0.45842971  0.78937162  1
  C  C77  1  0.54157029  0.21070814  0.71062838  1
  C  C78  1  0.21070814  0.54157029  0.21062838  1
  C  C79  1  0.45842971  0.78929186  0.28937162  1
  O  O80  1  0.16255228  0.37268578  0.85132986  1
  O  O81  1  0.62731422  0.83744772  0.64867014  1
  O  O82  1  0.83744772  0.62731422  0.14867014  1
  O  O83  1  0.37268578  0.16255228  0.35132986  1
  O  O84  1  0.11429262  0.47032373  0.68512907  1
  O  O85  1  0.52967627  0.88570738  0.81487093  1
  O  O86  1  0.88570738  0.52967627  0.31487093  1
  O  O87  1  0.47032373  0.11429262  0.18512907  1
  O  O88  1  0.29139972  0.50167259  0.85294048  1
  O  O89  1  0.49832741  0.70860028  0.64705952  1
  O  O90  1  0.70860028  0.49832741  0.14705952  1
  O  O91  1  0.50167259  0.29139972  0.35294048  1
  O  O92  1  0.26107635  0.58389980  0.67280124  1
  O  O93  1  0.41610020  0.73892365  0.82719876  1
  O  O94  1  0.73892365  0.41610020  0.32719876  1
  O  O95  1  0.58389980  0.26107635  0.17280124  1
  O  O96  1  0.04459382  0.15934959  0.84680917  1
  O  O97  1  0.84065041  0.95540618  0.65319083  1
  O  O98  1  0.95540618  0.84065041  0.15319083  1
  O  O99  1  0.15934959  0.04459382  0.34680917  1
  O  O100  1  0.19371180  0.19662478  0.69725351  1
  O  O101  1  0.80337522  0.80628820  0.80274649  1
  O  O102  1  0.80628820  0.80337522  0.30274649  1
  O  O103  1  0.19662478  0.19371180  0.19725351  1
  O  O104  1  0.12400628  0.94245022  0.85007995  1
  O  O105  1  0.05754978  0.87599372  0.64992005  1
  O  O106  1  0.87599372  0.05754978  0.14992005  1
  O  O107  1  0.94245022  0.12400628  0.35007995  1
  O  O108  1  0.27786787  0.98203811  0.69124437  1
  O  O109  1  0.01796189  0.72213213  0.80875563  1
  O  O110  1  0.72213213  0.01796189  0.30875563  1
  O  O111  1  0.98203811  0.27786787  0.19124437  1
  O  O112  1  0.92851585  0.32321659  0.68253083  1
  O  O113  1  0.67678341  0.07148415  0.81746917  1
  O  O114  1  0.07148415  0.67678341  0.31746917  1
  O  O115  1  0.32321659  0.92851585  0.18253083  1
  O  O116  1  0.89202932  0.43543022  0.82978899  1
  O  O117  1  0.56456978  0.10797068  0.67021101  1
  O  O118  1  0.10797068  0.56456978  0.17021101  1
  O  O119  1  0.43543022  0.89202932  0.32978899  1
  O  O120  1  0.72068841  0.41354268  0.65514272  1
  O  O121  1  0.58645732  0.27931159  0.84485728  1
  O  O122  1  0.27931159  0.58645732  0.34485728  1
  O  O123  1  0.41354268  0.72068841  0.15514272  1
  O  O124  1  0.68041016  0.52240582  0.81820776  1
  O  O125  1  0.47759418  0.31958984  0.68179224  1
  O  O126  1  0.31958984  0.47759418  0.18179224  1
  O  O127  1  0.52240582  0.68041016  0.31820776  1
  O  O128  1  0.69899704  0.28870313  0.99678090  1
  O  O129  1  0.71129687  0.30100296  0.50321910  1
  O  O130  1  0.30100296  0.71129687  0.00321910  1
  O  O131  1  0.28870313  0.69899704  0.49678090  1
  O  O132  1  0.85083399  0.98121237  0.96282749  1
  O  O133  1  0.01878763  0.14916601  0.53717251  1
  O  O134  1  0.14916601  0.01878763  0.03717251  1
  O  O135  1  0.98121237  0.85083399  0.46282749  1
  O  O136  1  0.96467005  0.36183395  0.01750140  1
  O  O137  1  0.63816605  0.03532995  0.48249860  1
  O  O138  1  0.03532995  0.63816605  0.98249860  1
  O  O139  1  0.36183395  0.96467005  0.51750140  1
  O  O140  1  0.70272469  0.70846891  0.97614323  1
  O  O141  1  0.29153109  0.29727531  0.52385677  1
  O  O142  1  0.29727531  0.29153109  0.02385677  1
  O  O143  1  0.70846891  0.70272469  0.47614323  1
  O  O144  1  0.65265429  0.91854309  0.08850123  1
  O  O145  1  0.08145691  0.34734571  0.41149877  1
  O  O146  1  0.34734571  0.08145691  0.91149877  1
  O  O147  1  0.91854309  0.65265429  0.58850123  1
