# generated using pymatgen
data_MgTiF6
_symmetry_space_group_name_H-M   'P 1'
_cell_length_a   5.36884353
_cell_length_b   5.36884353
_cell_length_c   5.36884341
_cell_angle_alpha   58.13213706
_cell_angle_beta   58.13213697
_cell_angle_gamma   58.13214566
_symmetry_Int_Tables_number   1
_chemical_formula_structural   MgTiF6
_chemical_formula_sum   'Mg1 Ti1 F6'
_cell_volume   104.74244437
_cell_formula_units_Z   1
loop_
 _symmetry_equiv_pos_site_id
 _symmetry_equiv_pos_as_xyz
  1  'x, y, z'
loop_
 _atom_site_type_symbol
 _atom_site_label
 _atom_site_symmetry_multiplicity
 _atom_site_fract_x
 _atom_site_fract_y
 _atom_site_fract_z
 _atom_site_occupancy
  Mg  Mg0  1  0.50000000  0.50000000  0.50000000  1
  Ti  Ti1  1  0.00000000  -0.00000000  0.00000000  1
  F  F2  1  0.67161765  0.84245558  0.24224433  1
  F  F3  1  0.84245558  0.24224433  0.67161765  1
  F  F4  1  0.75775567  0.32838235  0.15754442  1
  F  F5  1  0.15754442  0.75775567  0.32838235  1
  F  F6  1  0.32838235  0.15754442  0.75775567  1
  F  F7  1  0.24224433  0.67161765  0.84245558  1
