# generated using pymatgen
data_KTb(WO4)2
_symmetry_space_group_name_H-M   'P 1'
_cell_length_a   7.47169136
_cell_length_b   7.47169136
_cell_length_c   7.53108980
_cell_angle_alpha   62.10479928
_cell_angle_beta   62.10479928
_cell_angle_gamma   88.52672493
_symmetry_Int_Tables_number   1
_chemical_formula_structural   KTb(WO4)2
_chemical_formula_sum   'K2 Tb2 W4 O16'
_cell_volume   318.20237431
_cell_formula_units_Z   2
loop_
 _symmetry_equiv_pos_site_id
 _symmetry_equiv_pos_as_xyz
  1  'x, y, z'
loop_
 _atom_site_type_symbol
 _atom_site_label
 _atom_site_symmetry_multiplicity
 _atom_site_fract_x
 _atom_site_fract_y
 _atom_site_fract_z
 _atom_site_occupancy
  K  K0  1  0.70364323  0.29635677  0.75000000  1
  K  K1  1  0.29635677  0.70364323  0.25000000  1
  Tb  Tb2  1  0.27249705  0.72750295  0.75000000  1
  Tb  Tb3  1  0.72750295  0.27249705  0.25000000  1
  W  W4  1  0.80308838  0.80344689  0.23448784  1
  W  W5  1  0.19655311  0.19691162  0.26551216  1
  W  W6  1  0.19691162  0.19655311  0.76551216  1
  W  W7  1  0.80344689  0.80308838  0.73448784  1
  O  O8  1  0.45661869  0.29113861  0.18622216  1
  O  O9  1  0.70886139  0.54338131  0.31377784  1
  O  O10  1  0.54338131  0.70886139  0.81377784  1
  O  O11  1  0.29113861  0.45661869  0.68622216  1
  O  O12  1  0.08522360  0.86860507  0.97098067  1
  O  O13  1  0.13139493  0.91477640  0.52901933  1
  O  O14  1  0.91477640  0.13139493  0.02901933  1
  O  O15  1  0.86860507  0.08522360  0.47098067  1
  O  O16  1  0.11786249  0.43333146  0.12615465  1
  O  O17  1  0.56666854  0.88213751  0.37384535  1
  O  O18  1  0.88213751  0.56666854  0.87384535  1
  O  O19  1  0.43333146  0.11786249  0.62615465  1
  O  O20  1  0.73551279  0.88229797  0.94547276  1
  O  O21  1  0.11770203  0.26448721  0.55452724  1
  O  O22  1  0.26448721  0.11770203  0.05452724  1
  O  O23  1  0.88229797  0.73551279  0.44547276  1
