# generated using pymatgen
data_Na3NbHO2F7
_symmetry_space_group_name_H-M   'P 1'
_cell_length_a   6.82393775
_cell_length_b   14.32045572
_cell_length_c   15.24663438
_cell_angle_alpha   90.00000000
_cell_angle_beta   90.00000000
_cell_angle_gamma   90.00000000
_symmetry_Int_Tables_number   1
_chemical_formula_structural   Na3NbHO2F7
_chemical_formula_sum   'Na24 Nb8 H8 O16 F56'
_cell_volume   1489.93005559
_cell_formula_units_Z   8
loop_
 _symmetry_equiv_pos_site_id
 _symmetry_equiv_pos_as_xyz
  1  'x, y, z'
loop_
 _atom_site_type_symbol
 _atom_site_label
 _atom_site_symmetry_multiplicity
 _atom_site_fract_x
 _atom_site_fract_y
 _atom_site_fract_z
 _atom_site_occupancy
  Na  Na0  1  0.80177958  0.15765689  0.26525224  1
  Na  Na1  1  0.69822042  0.65765689  0.23474776  1
  Na  Na2  1  0.30177958  0.84234311  0.23474776  1
  Na  Na3  1  0.19822042  0.34234311  0.26525224  1
  Na  Na4  1  0.19822042  0.84234311  0.73474776  1
  Na  Na5  1  0.30177958  0.34234311  0.76525224  1
  Na  Na6  1  0.69822042  0.15765689  0.76525224  1
  Na  Na7  1  0.80177958  0.65765689  0.73474776  1
  Na  Na8  1  0.73773602  0.43308872  0.37312378  1
  Na  Na9  1  0.76226398  0.93308872  0.12687622  1
  Na  Na10  1  0.23773602  0.56691128  0.12687622  1
  Na  Na11  1  0.26226398  0.06691128  0.37312378  1
  Na  Na12  1  0.26226398  0.56691128  0.62687622  1
  Na  Na13  1  0.23773602  0.06691128  0.87312378  1
  Na  Na14  1  0.76226398  0.43308872  0.87312378  1
  Na  Na15  1  0.73773602  0.93308872  0.62687622  1
  Na  Na16  1  0.72133456  0.13853751  0.50160833  1
  Na  Na17  1  0.77866544  0.63853751  0.99839167  1
  Na  Na18  1  0.22133456  0.86146249  0.99839167  1
  Na  Na19  1  0.27866544  0.36146249  0.50160833  1
  Na  Na20  1  0.27866544  0.86146249  0.49839167  1
  Na  Na21  1  0.22133456  0.36146249  0.00160833  1
  Na  Na22  1  0.77866544  0.13853751  0.00160833  1
  Na  Na23  1  0.72133456  0.63853751  0.49839167  1
  Nb  Nb24  1  0.74866410  0.39622376  0.13148543  1
  Nb  Nb25  1  0.75133590  0.89622376  0.36851457  1
  Nb  Nb26  1  0.24866410  0.60377624  0.36851457  1
  Nb  Nb27  1  0.25133590  0.10377624  0.13148543  1
  Nb  Nb28  1  0.25133590  0.60377624  0.86851457  1
  Nb  Nb29  1  0.24866410  0.10377624  0.63148543  1
  Nb  Nb30  1  0.75133590  0.39622376  0.63148543  1
  Nb  Nb31  1  0.74866410  0.89622376  0.86851457  1
  H  H32  1  0.50000000  0.25000000  0.37781938  1
  H  H33  1  0.00000000  0.75000000  0.12218062  1
  H  H34  1  0.50000000  0.75000000  0.62218062  1
  H  H35  1  0.00000000  0.25000000  0.87781938  1
  H  H36  1  0.00000000  0.25000000  0.40220141  1
  H  H37  1  0.50000000  0.75000000  0.09779859  1
  H  H38  1  0.00000000  0.75000000  0.59779859  1
  H  H39  1  0.50000000  0.25000000  0.90220141  1
  O  O40  1  0.47294310  0.42505609  0.10010512  1
  O  O41  1  0.02705690  0.92505609  0.39989488  1
  O  O42  1  0.97294310  0.57494391  0.39989488  1
  O  O43  1  0.52705690  0.07494391  0.10010512  1
  O  O44  1  0.52705690  0.57494391  0.89989488  1
  O  O45  1  0.97294310  0.07494391  0.60010512  1
  O  O46  1  0.02705690  0.42505609  0.60010512  1
  O  O47  1  0.47294310  0.92505609  0.89989488  1
  O  O48  1  0.48779198  0.35739914  0.17255738  1
  O  O49  1  0.01220802  0.85739914  0.32744262  1
  O  O50  1  0.98779198  0.64260086  0.32744262  1
  O  O51  1  0.51220802  0.14260086  0.17255738  1
  O  O52  1  0.51220802  0.64260086  0.82744262  1
  O  O53  1  0.98779198  0.14260086  0.67255738  1
  O  O54  1  0.01220802  0.35739914  0.67255738  1
  O  O55  1  0.48779198  0.85739914  0.82744262  1
  F  F56  1  0.82518729  0.31542650  0.23546419  1
  F  F57  1  0.67481271  0.81542650  0.26453581  1
  F  F58  1  0.32518729  0.68457350  0.26453581  1
  F  F59  1  0.17481271  0.18457350  0.23546419  1
  F  F60  1  0.17481271  0.68457350  0.76453581  1
  F  F61  1  0.32518729  0.18457350  0.73546419  1
  F  F62  1  0.67481271  0.31542650  0.73546419  1
  F  F63  1  0.82518729  0.81542650  0.76453581  1
  F  F64  1  0.78893559  0.47997714  0.02624643  1
  F  F65  1  0.71106441  0.97997714  0.47375357  1
  F  F66  1  0.28893559  0.52002286  0.47375357  1
  F  F67  1  0.21106441  0.02002286  0.02624643  1
  F  F68  1  0.21106441  0.52002286  0.97375357  1
  F  F69  1  0.28893559  0.02002286  0.52624643  1
  F  F70  1  0.71106441  0.47997714  0.52624643  1
  F  F71  1  0.78893559  0.97997714  0.97375357  1
  F  F72  1  0.78906354  0.28969013  0.05314771  1
  F  F73  1  0.71093646  0.78969013  0.44685229  1
  F  F74  1  0.28906354  0.71030987  0.44685229  1
  F  F75  1  0.21093646  0.21030987  0.05314771  1
  F  F76  1  0.21093646  0.71030987  0.94685229  1
  F  F77  1  0.28906354  0.21030987  0.55314771  1
  F  F78  1  0.71093646  0.28969013  0.55314771  1
  F  F79  1  0.78906354  0.78969013  0.94685229  1
  F  F80  1  0.76003371  0.50070659  0.21694837  1
  F  F81  1  0.73996629  0.00070659  0.28305163  1
  F  F82  1  0.26003371  0.49929341  0.28305163  1
  F  F83  1  0.23996629  0.99929341  0.21694837  1
  F  F84  1  0.23996629  0.49929341  0.78305163  1
  F  F85  1  0.26003371  0.99929341  0.71694837  1
  F  F86  1  0.73996629  0.50070659  0.71694837  1
  F  F87  1  0.76003371  0.00070659  0.78305163  1
  F  F88  1  0.04897266  0.41025822  0.13162680  1
  F  F89  1  0.45102734  0.91025822  0.36837320  1
  F  F90  1  0.54897266  0.58974178  0.36837320  1
  F  F91  1  0.95102734  0.08974178  0.13162680  1
  F  F92  1  0.95102734  0.58974178  0.86837320  1
  F  F93  1  0.54897266  0.08974178  0.63162680  1
  F  F94  1  0.45102734  0.41025822  0.63162680  1
  F  F95  1  0.04897266  0.91025822  0.86837320  1
  F  F96  1  0.53129139  0.17092715  0.37836998  1
  F  F97  1  0.96870861  0.67092715  0.12163002  1
  F  F98  1  0.03129139  0.82907285  0.12163002  1
  F  F99  1  0.46870861  0.32907285  0.37836998  1
  F  F100  1  0.46870861  0.82907285  0.62163002  1
  F  F101  1  0.03129139  0.32907285  0.87836998  1
  F  F102  1  0.96870861  0.17092715  0.87836998  1
  F  F103  1  0.53129139  0.67092715  0.62163002  1
  F  F104  1  0.97572089  0.17019665  0.40051156  1
  F  F105  1  0.52427911  0.67019665  0.09948844  1
  F  F106  1  0.47572089  0.82980335  0.09948844  1
  F  F107  1  0.02427911  0.32980335  0.40051156  1
  F  F108  1  0.02427911  0.82980335  0.59948844  1
  F  F109  1  0.47572089  0.32980335  0.90051156  1
  F  F110  1  0.52427911  0.17019665  0.90051156  1
  F  F111  1  0.97572089  0.67019665  0.59948844  1
