# generated using pymatgen
data_Ba4NaGa2B8(ClO6)3
_symmetry_space_group_name_H-M   'P 1'
_cell_length_a   6.95806327
_cell_length_b   12.27749113
_cell_length_c   12.27749113
_cell_angle_alpha   90.00000000
_cell_angle_beta   90.00000000
_cell_angle_gamma   90.00000000
_symmetry_Int_Tables_number   1
_chemical_formula_structural   Ba4NaGa2B8(ClO6)3
_chemical_formula_sum   'Ba8 Na2 Ga4 B16 Cl6 O36'
_cell_volume   1048.83611113
_cell_formula_units_Z   2
loop_
 _symmetry_equiv_pos_site_id
 _symmetry_equiv_pos_as_xyz
  1  'x, y, z'
loop_
 _atom_site_type_symbol
 _atom_site_label
 _atom_site_symmetry_multiplicity
 _atom_site_fract_x
 _atom_site_fract_y
 _atom_site_fract_z
 _atom_site_occupancy
  Ba  Ba0  1  0.66788065  0.01464084  0.72120896  1
  Ba  Ba1  1  0.66788065  0.98535916  0.27879104  1
  Ba  Ba2  1  0.16788065  0.51464084  0.77879104  1
  Ba  Ba3  1  0.16788065  0.48535916  0.22120896  1
  Ba  Ba4  1  0.66788065  0.27879104  0.98535916  1
  Ba  Ba5  1  0.66788065  0.72120896  0.01464084  1
  Ba  Ba6  1  0.16788065  0.77879104  0.51464084  1
  Ba  Ba7  1  0.16788065  0.22120896  0.48535916  1
  Na  Na8  1  0.00087937  -0.00000000  -0.00000000  1
  Na  Na9  1  0.50087937  0.50000000  0.50000000  1
  Ga  Ga10  1  0.67301209  0.70034979  0.70034979  1
  Ga  Ga11  1  0.67301209  0.29965021  0.29965021  1
  Ga  Ga12  1  0.17301209  0.20034979  0.79965021  1
  Ga  Ga13  1  0.17301209  0.79965021  0.20034979  1
  B  B14  1  0.20967518  0.96187412  0.76524905  1
  B  B15  1  0.20967518  0.03812588  0.23475095  1
  B  B16  1  0.70967518  0.46187412  0.73475095  1
  B  B17  1  0.70967518  0.53812588  0.26524905  1
  B  B18  1  0.20967518  0.23475095  0.03812588  1
  B  B19  1  0.20967518  0.76524905  0.96187412  1
  B  B20  1  0.70967518  0.73475095  0.46187412  1
  B  B21  1  0.70967518  0.26524905  0.53812588  1
  B  B22  1  0.29772916  0.76394962  0.76394962  1
  B  B23  1  0.29772916  0.23605038  0.23605038  1
  B  B24  1  0.79772916  0.26394962  0.73605038  1
  B  B25  1  0.79772916  0.73605038  0.26394962  1
  B  B26  1  0.97302562  0.81506203  0.81506203  1
  B  B27  1  0.97302562  0.18493797  0.18493797  1
  B  B28  1  0.47302562  0.31506203  0.68493797  1
  B  B29  1  0.47302562  0.68493797  0.31506203  1
  Cl  Cl30  1  0.93916152  0.00000000  0.50000000  1
  Cl  Cl31  1  0.43916152  0.50000000  -0.00000000  1
  Cl  Cl32  1  0.93916152  0.50000000  -0.00000000  1
  Cl  Cl33  1  0.43916152  -0.00000000  0.50000000  1
  Cl  Cl34  1  0.61172435  -0.00000000  -0.00000000  1
  Cl  Cl35  1  0.11172435  0.50000000  0.50000000  1
  O  O36  1  0.76855462  0.80033278  0.80033278  1
  O  O37  1  0.76855462  0.19966722  0.19966722  1
  O  O38  1  0.26855462  0.30033278  0.69966722  1
  O  O39  1  0.26855462  0.69966722  0.30033278  1
  O  O40  1  0.02416869  0.93521985  0.79729753  1
  O  O41  1  0.02416869  0.06478015  0.20270247  1
  O  O42  1  0.52416869  0.43521985  0.70270247  1
  O  O43  1  0.52416869  0.56478015  0.29729753  1
  O  O44  1  0.02416869  0.20270247  0.06478015  1
  O  O45  1  0.02416869  0.79729753  0.93521985  1
  O  O46  1  0.52416869  0.70270247  0.43521985  1
  O  O47  1  0.52416869  0.29729753  0.56478015  1
  O  O48  1  0.40698913  0.69295785  0.69295785  1
  O  O49  1  0.40698913  0.30704215  0.30704215  1
  O  O50  1  0.90698913  0.19295785  0.80704215  1
  O  O51  1  0.90698913  0.80704215  0.19295785  1
  O  O52  1  0.34173594  0.88105430  0.73962962  1
  O  O53  1  0.34173594  0.11894570  0.26037038  1
  O  O54  1  0.84173594  0.38105430  0.76037038  1
  O  O55  1  0.84173594  0.61894570  0.23962962  1
  O  O56  1  0.34173594  0.26037038  0.11894570  1
  O  O57  1  0.34173594  0.73962962  0.88105430  1
  O  O58  1  0.84173594  0.76037038  0.38105430  1
  O  O59  1  0.84173594  0.23962962  0.61894570  1
  O  O60  1  0.77545901  0.56627267  0.73899371  1
  O  O61  1  0.77545901  0.43372733  0.26100629  1
  O  O62  1  0.27545901  0.06627267  0.76100629  1
  O  O63  1  0.27545901  0.93372733  0.23899371  1
  O  O64  1  0.77545901  0.26100629  0.43372733  1
  O  O65  1  0.77545901  0.73899371  0.56627267  1
  O  O66  1  0.27545901  0.76100629  0.06627267  1
  O  O67  1  0.27545901  0.23899371  0.93372733  1
  O  O68  1  0.09083703  0.74520384  0.74520384  1
  O  O69  1  0.09083703  0.25479616  0.25479616  1
  O  O70  1  0.59083703  0.24520384  0.75479616  1
  O  O71  1  0.59083703  0.75479616  0.24520384  1
