# generated using pymatgen
data_K3Np(H3O4)2
_symmetry_space_group_name_H-M   'P 1'
_cell_length_a   7.68240022
_cell_length_b   7.80925661
_cell_length_c   8.31304160
_cell_angle_alpha   90.00000000
_cell_angle_beta   90.00000000
_cell_angle_gamma   119.55945121
_symmetry_Int_Tables_number   1
_chemical_formula_structural   K3Np(H3O4)2
_chemical_formula_sum   'K6 Np2 H12 O16'
_cell_volume   433.81851894
_cell_formula_units_Z   2
loop_
 _symmetry_equiv_pos_site_id
 _symmetry_equiv_pos_as_xyz
  1  'x, y, z'
loop_
 _atom_site_type_symbol
 _atom_site_label
 _atom_site_symmetry_multiplicity
 _atom_site_fract_x
 _atom_site_fract_y
 _atom_site_fract_z
 _atom_site_occupancy
  K  K0  1  0.50000000  0.50000000  -0.00000000  1
  K  K1  1  -0.00000000  0.50000000  0.50000000  1
  K  K2  1  0.54510292  0.08588703  0.19361799  1
  K  K3  1  0.95489708  0.91411297  0.69361799  1
  K  K4  1  0.45489708  0.91411297  0.80638201  1
  K  K5  1  0.04510292  0.08588703  0.30638201  1
  Np  Np6  1  -0.00000000  0.50000000  -0.00000000  1
  Np  Np7  1  0.50000000  0.50000000  0.50000000  1
  H  H8  1  0.14251647  0.30847264  0.78301573  1
  H  H9  1  0.35748353  0.69152736  0.28301573  1
  H  H10  1  0.85748353  0.69152736  0.21698427  1
  H  H11  1  0.64251647  0.30847264  0.71698427  1
  H  H12  1  0.12426879  0.92819284  0.03930579  1
  H  H13  1  0.37573121  0.07180716  0.53930579  1
  H  H14  1  0.87573121  0.07180716  0.96069421  1
  H  H15  1  0.62426879  0.92819284  0.46069421  1
  H  H16  1  0.18315791  0.13674023  0.96068500  1
  H  H17  1  0.31684209  0.86325977  0.46068500  1
  H  H18  1  0.81684209  0.86325977  0.03931500  1
  H  H19  1  0.68315791  0.13674023  0.53931500  1
  O  O20  1  0.73113372  0.32876596  0.93115890  1
  O  O21  1  0.76886628  0.67123404  0.43115890  1
  O  O22  1  0.26886628  0.67123404  0.06884110  1
  O  O23  1  0.23113372  0.32876596  0.56884110  1
  O  O24  1  0.94255642  0.36381877  0.19634364  1
  O  O25  1  0.55744358  0.63618123  0.69634364  1
  O  O26  1  0.05744358  0.63618123  0.80365636  1
  O  O27  1  0.44255642  0.36381877  0.30365636  1
  O  O28  1  0.09744475  0.27762983  0.89491997  1
  O  O29  1  0.40255525  0.72237017  0.39491997  1
  O  O30  1  0.90255525  0.72237017  0.10508003  1
  O  O31  1  0.59744475  0.27762983  0.60508003  1
  O  O32  1  0.23850684  0.05156666  -0.00112153  1
  O  O33  1  0.26149316  0.94843334  0.49887847  1
  O  O34  1  0.76149316  0.94843334  0.00112153  1
  O  O35  1  0.73850684  0.05156666  0.50112153  1
