# generated using pymatgen
data_MgAu4Se4(ClO3)4
_symmetry_space_group_name_H-M   'P 1'
_cell_length_a   4.85217317
_cell_length_b   10.08405847
_cell_length_c   11.14544092
_cell_angle_alpha   84.43708263
_cell_angle_beta   89.96484106
_cell_angle_gamma   87.05393398
_symmetry_Int_Tables_number   1
_chemical_formula_structural   MgAu4Se4(ClO3)4
_chemical_formula_sum   'Mg1 Au4 Se4 Cl4 O12'
_cell_volume   542.05098397
_cell_formula_units_Z   1
loop_
 _symmetry_equiv_pos_site_id
 _symmetry_equiv_pos_as_xyz
  1  'x, y, z'
loop_
 _atom_site_type_symbol
 _atom_site_label
 _atom_site_symmetry_multiplicity
 _atom_site_fract_x
 _atom_site_fract_y
 _atom_site_fract_z
 _atom_site_occupancy
  Mg  Mg0  1  0.21270021  0.86943815  0.12755707  1
  Au  Au1  1  0.00243108  0.57776194  0.17072451  1
  Au  Au2  1  0.91151197  0.01218934  0.96746477  1
  Au  Au3  1  0.99210805  0.41580542  0.80804880  1
  Au  Au4  1  0.07720989  0.99214271  0.51475485  1
  Se  Se5  1  0.72917964  0.83273212  0.32564709  1
  Se  Se6  1  0.09420429  0.72577460  0.88165814  1
  Se  Se7  1  0.80008569  0.29792162  0.07520952  1
  Se  Se8  1  0.36580715  0.15572063  0.72756038  1
  Cl  Cl9  1  0.31115390  0.49933813  0.67338481  1
  Cl  Cl10  1  0.74535755  0.47561579  0.32096596  1
  Cl  Cl11  1  0.30016029  0.17535251  0.43317071  1
  Cl  Cl12  1  0.85846250  0.80391292  0.59422990  1
  O  O13  1  0.56329804  0.89975360  0.19895282  1
  O  O14  1  0.69444592  0.34863904  0.92867110  1
  O  O15  1  0.01918676  0.74900547  0.25450299  1
  O  O16  1  0.03352237  0.16447258  0.06257249  1
  O  O17  1  0.07195271  0.40667705  0.09387904  1
  O  O18  1  0.82075246  0.83773607  0.89872802  1
  O  O19  1  0.21960645  0.69521384  0.03888131  1
  O  O20  1  0.02691493  0.23401065  0.74847084  1
  O  O21  1  0.92941696  0.96765446  0.34425686  1
  O  O22  1  0.88436050  0.59481694  0.87263572  1
  O  O23  1  0.44901095  0.08460814  0.86477359  1
  O  O24  1  0.22049274  0.00870627  0.68044170  1
