# generated using pymatgen
data_BaSeO4
_symmetry_space_group_name_H-M   'P 1'
_cell_length_a   5.69226862
_cell_length_b   7.40285603
_cell_length_c   9.09971333
_cell_angle_alpha   90.00000000
_cell_angle_beta   90.00000000
_cell_angle_gamma   90.00000000
_symmetry_Int_Tables_number   1
_chemical_formula_structural   BaSeO4
_chemical_formula_sum   'Ba4 Se4 O16'
_cell_volume   383.45323021
_cell_formula_units_Z   4
loop_
 _symmetry_equiv_pos_site_id
 _symmetry_equiv_pos_as_xyz
  1  'x, y, z'
loop_
 _atom_site_type_symbol
 _atom_site_label
 _atom_site_symmetry_multiplicity
 _atom_site_fract_x
 _atom_site_fract_y
 _atom_site_fract_z
 _atom_site_occupancy
  Ba  Ba0  1  0.25000000  0.34231200  0.68231527  1
  Ba  Ba1  1  0.75000000  0.65768800  0.31768473  1
  Ba  Ba2  1  0.75000000  0.84231200  0.81768473  1
  Ba  Ba3  1  0.25000000  0.15768800  0.18231527  1
  Se  Se4  1  0.25000000  0.81442804  0.56391439  1
  Se  Se5  1  0.75000000  0.18557196  0.43608561  1
  Se  Se6  1  0.75000000  0.31442804  0.93608561  1
  Se  Se7  1  0.25000000  0.68557196  0.06391439  1
  O  O8  1  0.51486813  0.31661774  0.41877453  1
  O  O9  1  0.01486813  0.68338226  0.58122547  1
  O  O10  1  0.48513187  0.81661774  0.08122547  1
  O  O11  1  0.98513187  0.18338226  0.91877453  1
  O  O12  1  0.48513187  0.68338226  0.58122547  1
  O  O13  1  0.98513187  0.31661774  0.41877453  1
  O  O14  1  0.51486813  0.18338226  0.91877453  1
  O  O15  1  0.01486813  0.81661774  0.08122547  1
  O  O16  1  0.25000000  0.59300065  0.89981023  1
  O  O17  1  0.75000000  0.40699935  0.10018977  1
  O  O18  1  0.75000000  0.09300065  0.60018977  1
  O  O19  1  0.25000000  0.90699935  0.39981023  1
  O  O20  1  0.25000000  0.53756985  0.19957090  1
  O  O21  1  0.75000000  0.46243015  0.80042910  1
  O  O22  1  0.75000000  0.03756985  0.30042910  1
  O  O23  1  0.25000000  0.96243015  0.69957090  1
