# generated using pymatgen
data_MgV12Zn6O24
_symmetry_space_group_name_H-M   'P 1'
_cell_length_a   6.03121196
_cell_length_b   6.08458207
_cell_length_c   17.90266950
_cell_angle_alpha   65.12051725
_cell_angle_beta   59.45339935
_cell_angle_gamma   60.04926248
_symmetry_Int_Tables_number   1
_chemical_formula_structural   MgV12Zn6O24
_chemical_formula_sum   'Mg1 V12 Zn6 O24'
_cell_volume   477.81251055
_cell_formula_units_Z   1
loop_
 _symmetry_equiv_pos_site_id
 _symmetry_equiv_pos_as_xyz
  1  'x, y, z'
loop_
 _atom_site_type_symbol
 _atom_site_label
 _atom_site_symmetry_multiplicity
 _atom_site_fract_x
 _atom_site_fract_y
 _atom_site_fract_z
 _atom_site_occupancy
  Mg  Mg0  1  0.24796916  0.50639741  0.99895819  1
  V  V1  1  0.04575112  0.37097212  0.17412909  1
  V  V2  1  0.52844754  0.37691216  0.17442663  1
  V  V3  1  0.98983164  0.50062920  0.50062895  1
  V  V4  1  0.53697019  0.88413610  0.17080178  1
  V  V5  1  0.51238886  0.44026673  0.33510625  1
  V  V6  1  0.48755004  0.50189987  0.50088799  1
  V  V7  1  0.94516810  0.63541407  0.82528643  1
  V  V8  1  0.48854192  0.00073722  0.50122205  1
  V  V9  1  0.43696755  0.12359086  0.83677284  1
  V  V10  1  0.46758738  0.56224334  0.66576715  1
  V  V11  1  0.45416640  0.63370230  0.82435288  1
  V  V12  1  0.77272852  0.02651858  0.97598876  1
  Zn  Zn13  1  0.18442012  0.95667292  0.05397977  1
  Zn  Zn14  1  0.13124397  0.07510008  0.38015822  1
  Zn  Zn15  1  0.74405879  0.51144226  0.99644224  1
  Zn  Zn16  1  0.08739489  0.20693103  0.70800508  1
  Zn  Zn17  1  0.88845463  0.79969488  0.29560463  1
  Zn  Zn18  1  0.84251517  0.92832403  0.62364767  1
  O  O19  1  0.35011510  0.11824230  0.07629021  1
  O  O20  1  0.30331503  0.15233995  0.24488479  1
  O  O21  1  0.32342213  0.57757971  0.08783233  1
  O  O22  1  0.78863936  0.11982655  0.07862823  1
  O  O23  1  0.30493668  0.65274507  0.24730064  1
  O  O24  1  0.26805256  0.22601148  0.42117608  1
  O  O25  1  0.75606252  0.18840176  0.24973837  1
  O  O26  1  0.81012751  0.60954425  0.08467972  1
  O  O27  1  0.26351656  0.68752525  0.41909708  1
  O  O28  1  0.23280979  0.29326667  0.57280153  1
  O  O29  1  0.75787617  0.65540976  0.24884531  1
  O  O30  1  0.71963255  0.23497454  0.42275371  1
  O  O31  1  0.25673842  0.76991636  0.57737077  1
  O  O32  1  0.22891713  0.34623400  0.75210907  1
  O  O33  1  0.71645340  0.31531154  0.58058850  1
  O  O34  1  0.74484686  0.70996761  0.42826517  1
  O  O35  1  0.18997816  0.41738736  0.90903866  1
  O  O36  1  0.23406953  0.81911038  0.74618909  1
  O  O37  1  0.71509494  0.77736046  0.57815615  1
  O  O38  1  0.67537684  0.35658796  0.75288905  1
  O  O39  1  0.17797829  0.89008917  0.92106831  1
  O  O40  1  0.67485883  0.85798508  0.75805248  1
  O  O41  1  0.66323610  0.41629793  0.91410087  1
  O  O42  1  0.66636455  0.90171870  0.91811727  1
