# generated using pymatgen
data_MgAg6Mo10O33
_symmetry_space_group_name_H-M   'P 1'
_cell_length_a   7.75816848
_cell_length_b   8.71372675
_cell_length_c   11.69110924
_cell_angle_alpha   77.30657934
_cell_angle_beta   76.53130864
_cell_angle_gamma   74.97770822
_symmetry_Int_Tables_number   1
_chemical_formula_structural   MgAg6Mo10O33
_chemical_formula_sum   'Mg1 Ag6 Mo10 O33'
_cell_volume   731.58170515
_cell_formula_units_Z   1
loop_
 _symmetry_equiv_pos_site_id
 _symmetry_equiv_pos_as_xyz
  1  'x, y, z'
loop_
 _atom_site_type_symbol
 _atom_site_label
 _atom_site_symmetry_multiplicity
 _atom_site_fract_x
 _atom_site_fract_y
 _atom_site_fract_z
 _atom_site_occupancy
  Mg  Mg0  1  0.85923148  0.60920656  0.30782344  1
  Ag  Ag1  1  0.34842471  0.99782601  0.24920135  1
  Ag  Ag2  1  0.65957158  0.00386984  0.74809249  1
  Ag  Ag3  1  0.24097055  0.35604479  0.20358692  1
  Ag  Ag4  1  0.80193934  0.56350823  0.81216122  1
  Ag  Ag5  1  0.44810543  0.64584711  0.29059761  1
  Ag  Ag6  1  0.49641364  0.42236747  0.74482963  1
  Mo  Mo7  1  0.45193113  0.23203008  0.47465840  1
  Mo  Mo8  1  0.55829196  0.79226472  0.53264436  1
  Mo  Mo9  1  0.95118026  0.22720332  0.48278247  1
  Mo  Mo10  1  0.05983323  0.77655635  0.52700825  1
  Mo  Mo11  1  0.84278476  0.81504240  0.04140746  1
  Mo  Mo12  1  0.13737046  0.18809257  0.95011559  1
  Mo  Mo13  1  0.70129879  0.19240433  0.00919546  1
  Mo  Mo14  1  0.30796021  0.77927386  0.98068941  1
  Mo  Mo15  1  0.81708905  0.01765139  0.32187583  1
  Mo  Mo16  1  0.19211953  0.99821072  0.67852994  1
  O  O17  1  0.95541381  0.01222694  0.99738043  1
  O  O18  1  0.09789791  0.69239320  0.02734035  1
  O  O19  1  0.88752585  0.32128764  0.95500030  1
  O  O20  1  0.63569688  0.98620990  0.09071956  1
  O  O21  1  0.33148322  0.99437882  0.91622267  1
  O  O22  1  0.50543791  0.32013425  0.07535361  1
  O  O23  1  0.49162908  0.63915588  0.92062914  1
  O  O24  1  0.77023546  0.65186411  0.14941366  1
  O  O25  1  0.25123455  0.33907182  0.87299674  1
  O  O26  1  0.16760357  0.16991648  0.09740273  1
  O  O27  1  0.79247086  0.80016285  0.90588708  1
  O  O28  1  0.34661063  0.77489300  0.12481833  1
  O  O29  1  0.65618413  0.19323492  0.86722413  1
  O  O30  1  0.79102051  0.16798537  0.19616987  1
  O  O31  1  0.21382495  0.82908723  0.79358921  1
  O  O32  1  0.89518067  0.83939032  0.25194645  1
  O  O33  1  0.11409991  0.15636148  0.76253035  1
  O  O34  1  0.42560670  0.37081913  0.34228282  1
  O  O35  1  0.59027103  0.65673625  0.66624182  1
  O  O36  1  0.98880770  0.38559895  0.33977154  1
  O  O37  1  0.02338922  0.63731748  0.65763710  1
  O  O38  1  0.03548099  0.02151556  0.37370012  1
  O  O39  1  0.97575116  0.99809069  0.62045137  1
  O  O40  1  0.55635772  0.01007544  0.38285498  1
  O  O41  1  0.45496452  0.00216845  0.62384095  1
  O  O42  1  0.15314766  0.66076221  0.41312068  1
  O  O43  1  0.83484241  0.33724508  0.59367321  1
  O  O44  1  0.62270454  0.66345183  0.41155629  1
  O  O45  1  0.41984429  0.34984206  0.58352214  1
  O  O46  1  0.71907693  0.18195284  0.44747572  1
  O  O47  1  0.28613620  0.82907166  0.54205100  1
  O  O48  1  0.81463131  0.83887649  0.49664936  1
  O  O49  1  0.21258859  0.17632193  0.50645745  1
