# generated using pymatgen
data_Na3Y(PO4)2
_symmetry_space_group_name_H-M   'P 1'
_cell_length_a   5.33506858
_cell_length_b   13.96928820
_cell_length_c   18.61023983
_cell_angle_alpha   90.00000000
_cell_angle_beta   90.00000000
_cell_angle_gamma   90.00000000
_symmetry_Int_Tables_number   1
_chemical_formula_structural   Na3Y(PO4)2
_chemical_formula_sum   'Na24 Y8 P16 O64'
_cell_volume   1386.96740137
_cell_formula_units_Z   8
loop_
 _symmetry_equiv_pos_site_id
 _symmetry_equiv_pos_as_xyz
  1  'x, y, z'
loop_
 _atom_site_type_symbol
 _atom_site_label
 _atom_site_symmetry_multiplicity
 _atom_site_fract_x
 _atom_site_fract_y
 _atom_site_fract_z
 _atom_site_occupancy
  Na  Na0  1  0.99127296  0.21702742  0.99214751  1
  Na  Na1  1  0.00872704  0.78297258  0.49214751  1
  Na  Na2  1  0.00872704  0.71702742  0.99214751  1
  Na  Na3  1  0.99127296  0.28297258  0.49214751  1
  Na  Na4  1  0.99273704  0.95207882  0.64912355  1
  Na  Na5  1  0.00726296  0.04792118  0.14912355  1
  Na  Na6  1  0.00726296  0.45207882  0.64912355  1
  Na  Na7  1  0.99273704  0.54792118  0.14912355  1
  Na  Na8  1  0.99719004  0.86137400  0.82775993  1
  Na  Na9  1  0.00280996  0.13862600  0.32775993  1
  Na  Na10  1  0.00280996  0.36137400  0.82775993  1
  Na  Na11  1  0.99719004  0.63862600  0.32775993  1
  Na  Na12  1  0.48005588  0.79712790  0.72906229  1
  Na  Na13  1  0.51994412  0.20287210  0.22906229  1
  Na  Na14  1  0.51994412  0.29712790  0.72906229  1
  Na  Na15  1  0.48005588  0.70287210  0.22906229  1
  Na  Na16  1  0.53806397  0.96882544  0.88801449  1
  Na  Na17  1  0.46193603  0.03117456  0.38801449  1
  Na  Na18  1  0.46193603  0.46882544  0.88801449  1
  Na  Na19  1  0.53806397  0.53117456  0.38801449  1
  Na  Na20  1  0.50037226  0.88814229  0.54952497  1
  Na  Na21  1  0.49962774  0.11185771  0.04952497  1
  Na  Na22  1  0.49962774  0.38814229  0.54952497  1
  Na  Na23  1  0.50037226  0.61185771  0.04952497  1
  Y  Y24  1  0.92897369  0.61116217  0.80433071  1
  Y  Y25  1  0.07102631  0.38883783  0.30433071  1
  Y  Y26  1  0.07102631  0.11116217  0.80433071  1
  Y  Y27  1  0.92897369  0.88883783  0.30433071  1
  Y  Y28  1  0.55599058  0.63849466  0.57273513  1
  Y  Y29  1  0.44400942  0.36150534  0.07273513  1
  Y  Y30  1  0.44400942  0.13849466  0.57273513  1
  Y  Y31  1  0.55599058  0.86150534  0.07273513  1
  P  P32  1  0.96921504  0.47542158  0.98115209  1
  P  P33  1  0.03078496  0.52457842  0.48115209  1
  P  P34  1  0.03078496  0.97542158  0.98115209  1
  P  P35  1  0.96921504  0.02457842  0.48115209  1
  P  P36  1  0.99240701  0.22268934  0.65270055  1
  P  P37  1  0.00759299  0.77731066  0.15270055  1
  P  P38  1  0.00759299  0.72268934  0.65270055  1
  P  P39  1  0.99240701  0.27731066  0.15270055  1
  P  P40  1  0.48039973  0.52662792  0.72479890  1
  P  P41  1  0.51960027  0.47337208  0.22479890  1
  P  P42  1  0.51960027  0.02662792  0.72479890  1
  P  P43  1  0.48039973  0.97337208  0.22479890  1
  P  P44  1  0.46163059  0.72644088  0.89613751  1
  P  P45  1  0.53836941  0.27355912  0.39613751  1
  P  P46  1  0.53836941  0.22644088  0.89613751  1
  P  P47  1  0.46163059  0.77355912  0.39613751  1
  O  O48  1  0.57353341  0.80828517  0.85058037  1
  O  O49  1  0.42646659  0.19171483  0.35058037  1
  O  O50  1  0.42646659  0.30828517  0.85058037  1
  O  O51  1  0.57353341  0.69171483  0.35058037  1
  O  O52  1  0.69803696  0.47242505  0.76359977  1
  O  O53  1  0.30196304  0.52757495  0.26359977  1
  O  O54  1  0.30196304  0.97242505  0.76359977  1
  O  O55  1  0.69803696  0.02757495  0.26359977  1
  O  O56  1  0.87886754  0.88135209  0.99411959  1
  O  O57  1  0.12113246  0.11864791  0.49411959  1
  O  O58  1  0.12113246  0.38135209  0.99411959  1
  O  O59  1  0.87886754  0.61864791  0.49411959  1
  O  O60  1  0.79246853  0.77582520  0.61185513  1
  O  O61  1  0.20753147  0.22417480  0.11185513  1
  O  O62  1  0.20753147  0.27582520  0.61185513  1
  O  O63  1  0.79246853  0.72417480  0.11185513  1
  O  O64  1  0.68653451  0.45921090  0.00058396  1
  O  O65  1  0.31346549  0.54078910  0.50058396  1
  O  O66  1  0.31346549  0.95921090  0.00058396  1
  O  O67  1  0.68653451  0.04078910  0.50058396  1
  O  O68  1  0.91979586  0.44288561  0.52703586  1
  O  O69  1  0.08020414  0.55711439  0.02703586  1
  O  O70  1  0.08020414  0.94288561  0.52703586  1
  O  O71  1  0.91979586  0.05711439  0.02703586  1
  O  O72  1  0.77218615  0.99986293  0.76142365  1
  O  O73  1  0.22781385  0.00013707  0.26142365  1
  O  O74  1  0.22781385  0.49986293  0.76142365  1
  O  O75  1  0.77218615  0.50013707  0.26142365  1
  O  O76  1  0.61465608  0.63242677  0.88470597  1
  O  O77  1  0.38534392  0.36757323  0.38470597  1
  O  O78  1  0.38534392  0.13242677  0.88470597  1
  O  O79  1  0.61465608  0.86757323  0.38470597  1
  O  O80  1  0.53540670  0.63491128  0.73074963  1
  O  O81  1  0.46459330  0.36508872  0.23074963  1
  O  O82  1  0.46459330  0.13491128  0.73074963  1
  O  O83  1  0.53540670  0.86508872  0.23074963  1
  O  O84  1  0.95374648  0.61437913  0.64778471  1
  O  O85  1  0.04625352  0.38562087  0.14778471  1
  O  O86  1  0.04625352  0.11437913  0.64778471  1
  O  O87  1  0.95374648  0.88562087  0.14778471  1
  O  O88  1  0.81907042  0.20893252  0.87434651  1
  O  O89  1  0.18092958  0.79106748  0.37434651  1
  O  O90  1  0.18092958  0.70893252  0.87434651  1
  O  O91  1  0.81907042  0.29106748  0.37434651  1
  O  O92  1  0.99184448  0.25364643  0.73313471  1
  O  O93  1  0.00815552  0.74635357  0.23313471  1
  O  O94  1  0.00815552  0.75364643  0.73313471  1
  O  O95  1  0.99184448  0.24635357  0.23313471  1
  O  O96  1  0.52658258  0.99744172  0.64401355  1
  O  O97  1  0.47341742  0.00255828  0.14401355  1
  O  O98  1  0.47341742  0.49744172  0.64401355  1
  O  O99  1  0.52658258  0.50255828  0.14401355  1
  O  O100  1  0.00702313  0.99801087  0.89923022  1
  O  O101  1  0.99297687  0.00198913  0.39923022  1
  O  O102  1  0.99297687  0.49801087  0.89923022  1
  O  O103  1  0.00702313  0.50198913  0.39923022  1
  O  O104  1  0.26245931  0.74949365  0.61779913  1
  O  O105  1  0.73754069  0.25050635  0.11779913  1
  O  O106  1  0.73754069  0.24949365  0.61779913  1
  O  O107  1  0.26245931  0.75050635  0.11779913  1
  O  O108  1  0.46831259  0.74940827  0.97814962  1
  O  O109  1  0.53168741  0.25059173  0.47814962  1
  O  O110  1  0.53168741  0.24940827  0.97814962  1
  O  O111  1  0.46831259  0.75059173  0.47814962  1
