# generated using pymatgen
data_Gd5C2Cl9
_symmetry_space_group_name_H-M   'P 1'
_cell_length_a   9.35102263
_cell_length_b   11.64295451
_cell_length_c   16.28351032
_cell_angle_alpha   90.00000000
_cell_angle_beta   90.00000000
_cell_angle_gamma   104.06976954
_symmetry_Int_Tables_number   1
_chemical_formula_structural   Gd5C2Cl9
_chemical_formula_sum   'Gd20 C8 Cl36'
_cell_volume   1719.65870732
_cell_formula_units_Z   4
loop_
 _symmetry_equiv_pos_site_id
 _symmetry_equiv_pos_as_xyz
  1  'x, y, z'
loop_
 _atom_site_type_symbol
 _atom_site_label
 _atom_site_symmetry_multiplicity
 _atom_site_fract_x
 _atom_site_fract_y
 _atom_site_fract_z
 _atom_site_occupancy
  Gd  Gd0  1  0.13546934  0.46087671  0.95474594  1
  Gd  Gd1  1  0.36453066  0.03912329  0.45474594  1
  Gd  Gd2  1  0.86453066  0.53912329  0.04525406  1
  Gd  Gd3  1  0.63546934  0.96087671  0.54525406  1
  Gd  Gd4  1  0.05954180  0.17901563  0.05838643  1
  Gd  Gd5  1  0.44045820  0.32098437  0.55838643  1
  Gd  Gd6  1  0.94045820  0.82098437  0.94161357  1
  Gd  Gd7  1  0.55954180  0.67901563  0.44161357  1
  Gd  Gd8  1  0.77590350  0.27465392  0.16700998  1
  Gd  Gd9  1  0.72409650  0.22534608  0.66700998  1
  Gd  Gd10  1  0.22409650  0.72534608  0.83299002  1
  Gd  Gd11  1  0.27590350  0.77465392  0.33299002  1
  Gd  Gd12  1  0.72289519  0.23184137  0.94475850  1
  Gd  Gd13  1  0.77710481  0.26815863  0.44475850  1
  Gd  Gd14  1  0.27710481  0.76815863  0.05524150  1
  Gd  Gd15  1  0.22289519  0.73184137  0.55524150  1
  Gd  Gd16  1  0.17912975  0.44239511  0.18798562  1
  Gd  Gd17  1  0.32087025  0.05760489  0.68798562  1
  Gd  Gd18  1  0.82087025  0.55760489  0.81201438  1
  Gd  Gd19  1  0.67912975  0.94239511  0.31201438  1
  C  C20  1  0.01147486  0.37670649  0.08939545  1
  C  C21  1  0.48852514  0.12329351  0.58939545  1
  C  C22  1  0.98852514  0.62329351  0.91060455  1
  C  C23  1  0.51147486  0.87670649  0.41060455  1
  C  C24  1  0.89916428  0.32661529  0.03172304  1
  C  C25  1  0.60083572  0.17338471  0.53172304  1
  C  C26  1  0.10083572  0.67338471  0.96827696  1
  C  C27  1  0.39916428  0.82661529  0.46827696  1
  Cl  Cl28  1  0.67595325  0.46642162  0.17461146  1
  Cl  Cl29  1  0.82404675  0.03357838  0.67461146  1
  Cl  Cl30  1  0.32404675  0.53357838  0.82538854  1
  Cl  Cl31  1  0.17595325  0.96642162  0.32538854  1
  Cl  Cl32  1  0.85857216  0.04527181  0.94366110  1
  Cl  Cl33  1  0.64142784  0.45472819  0.44366110  1
  Cl  Cl34  1  0.14142784  0.95472819  0.05633890  1
  Cl  Cl35  1  0.35857216  0.54527181  0.55633890  1
  Cl  Cl36  1  0.55250642  0.14746503  0.07128318  1
  Cl  Cl37  1  0.94749358  0.35253497  0.57128318  1
  Cl  Cl38  1  0.44749358  0.85253497  0.92871682  1
  Cl  Cl39  1  0.05250642  0.64746503  0.42871682  1
  Cl  Cl40  1  0.26550261  0.24351366  0.17919630  1
  Cl  Cl41  1  0.23449739  0.25648634  0.67919630  1
  Cl  Cl42  1  0.73449739  0.75648634  0.82080370  1
  Cl  Cl43  1  0.76550261  0.74351366  0.32080370  1
  Cl  Cl44  1  0.96084344  0.35829986  0.30289008  1
  Cl  Cl45  1  0.53915656  0.14170014  0.80289008  1
  Cl  Cl46  1  0.03915656  0.64170014  0.69710992  1
  Cl  Cl47  1  0.46084344  0.85829986  0.19710992  1
  Cl  Cl48  1  0.86891974  0.06775811  0.18072730  1
  Cl  Cl49  1  0.63108026  0.43224189  0.68072730  1
  Cl  Cl50  1  0.13108026  0.93224189  0.81927270  1
  Cl  Cl51  1  0.36891974  0.56775811  0.31927270  1
  Cl  Cl52  1  0.90375740  0.33536658  0.80773439  1
  Cl  Cl53  1  0.59624260  0.16463342  0.30773439  1
  Cl  Cl54  1  0.09624260  0.66463342  0.19226561  1
  Cl  Cl55  1  0.40375740  0.83536658  0.69226561  1
  Cl  Cl56  1  0.63215956  0.44163103  0.93325071  1
  Cl  Cl57  1  0.86784044  0.05836897  0.43325071  1
  Cl  Cl58  1  0.36784044  0.55836897  0.06674929  1
  Cl  Cl59  1  0.13215956  0.94163103  0.56674929  1
  Cl  Cl60  1  0.23900311  0.26092805  0.93618801  1
  Cl  Cl61  1  0.26099689  0.23907195  0.43618801  1
  Cl  Cl62  1  0.76099689  0.73907195  0.06381199  1
  Cl  Cl63  1  0.73900311  0.76092805  0.56381199  1
