# generated using pymatgen
data_NaHoCl4
_symmetry_space_group_name_H-M   'P 1'
_cell_length_a   6.58079651
_cell_length_b   6.67967015
_cell_length_c   6.93938127
_cell_angle_alpha   89.26545389
_cell_angle_beta   87.98911364
_cell_angle_gamma   78.76782862
_symmetry_Int_Tables_number   1
_chemical_formula_structural   NaHoCl4
_chemical_formula_sum   'Na2 Ho2 Cl8'
_cell_volume   299.00565469
_cell_formula_units_Z   2
loop_
 _symmetry_equiv_pos_site_id
 _symmetry_equiv_pos_as_xyz
  1  'x, y, z'
loop_
 _atom_site_type_symbol
 _atom_site_label
 _atom_site_symmetry_multiplicity
 _atom_site_fract_x
 _atom_site_fract_y
 _atom_site_fract_z
 _atom_site_occupancy
  Na  Na0  1  0.23139758  0.19615374  0.53461854  1
  Na  Na1  1  0.76860242  0.80384626  0.46538146  1
  Ho  Ho2  1  0.78936811  0.30018392  0.05417266  1
  Ho  Ho3  1  0.21063189  0.69981608  0.94582734  1
  Cl  Cl4  1  0.61004837  0.20728646  0.36700804  1
  Cl  Cl5  1  0.38995163  0.79271354  0.63299196  1
  Cl  Cl6  1  0.09821960  0.00183380  0.20603955  1
  Cl  Cl7  1  0.90178040  0.99816620  0.79396045  1
  Cl  Cl8  1  0.04737221  0.50216445  0.24386280  1
  Cl  Cl9  1  0.95262779  0.49783555  0.75613720  1
  Cl  Cl10  1  0.56585970  0.68756208  0.11982535  1
  Cl  Cl11  1  0.43414030  0.31243792  0.88017465  1
