# generated using pymatgen
data_Cs2Mo4O13
_symmetry_space_group_name_H-M   'P 1'
_cell_length_a   8.43423482
_cell_length_b   8.69187258
_cell_length_c   10.44424151
_cell_angle_alpha   106.29937705
_cell_angle_beta   103.39175806
_cell_angle_gamma   109.63450549
_symmetry_Int_Tables_number   1
_chemical_formula_structural   Cs2Mo4O13
_chemical_formula_sum   'Cs4 Mo8 O26'
_cell_volume   645.60946375
_cell_formula_units_Z   2
loop_
 _symmetry_equiv_pos_site_id
 _symmetry_equiv_pos_as_xyz
  1  'x, y, z'
loop_
 _atom_site_type_symbol
 _atom_site_label
 _atom_site_symmetry_multiplicity
 _atom_site_fract_x
 _atom_site_fract_y
 _atom_site_fract_z
 _atom_site_occupancy
  Cs  Cs0  1  0.57719893  0.12748690  0.30675212  1
  Cs  Cs1  1  0.42280107  0.87251310  0.69324788  1
  Cs  Cs2  1  0.85203364  0.80942939  0.58693766  1
  Cs  Cs3  1  0.14796636  0.19057061  0.41306234  1
  Mo  Mo4  1  0.62087820  0.43656065  0.73187140  1
  Mo  Mo5  1  0.37912180  0.56343935  0.26812860  1
  Mo  Mo6  1  0.64876160  0.71396245  0.04975392  1
  Mo  Mo7  1  0.35123840  0.28603755  0.95024608  1
  Mo  Mo8  1  0.00409337  0.41629014  0.71261554  1
  Mo  Mo9  1  0.99590663  0.58370986  0.28738446  1
  Mo  Mo10  1  0.96337378  0.28436130  0.96685675  1
  Mo  Mo11  1  0.03662622  0.71563870  0.03314325  1
  O  O12  1  0.15206377  0.93371419  0.14331163  1
  O  O13  1  0.84793623  0.06628581  0.85668837  1
  O  O14  1  0.81195298  0.49005065  0.66284923  1
  O  O15  1  0.18804702  0.50994935  0.33715077  1
  O  O16  1  0.48223352  0.56927086  0.11464140  1
  O  O17  1  0.51776648  0.43072914  0.88535860  1
  O  O18  1  0.20048796  0.29832376  0.07024226  1
  O  O19  1  0.79951204  0.70167624  0.92975774  1
  O  O20  1  0.84953889  0.39552218  0.87208348  1
  O  O21  1  0.15046111  0.60447782  0.12791652  1
  O  O22  1  0.84990174  0.48789477  0.36041925  1
  O  O23  1  0.15009826  0.51210523  0.63958075  1
  O  O24  1  0.14072838  0.38085853  0.86237407  1
  O  O25  1  0.85927162  0.61914147  0.13762593  1
  O  O26  1  0.88635609  0.19945590  0.59052874  1
  O  O27  1  0.11364391  0.80054410  0.40947126  1
  O  O28  1  0.51333278  0.53993538  0.65525828  1
  O  O29  1  0.48666722  0.46006462  0.34474172  1
  O  O30  1  0.77554684  0.90058334  0.20283193  1
  O  O31  1  0.22445316  0.09941666  0.79716807  1
  O  O32  1  0.49544729  0.21561401  0.62648762  1
  O  O33  1  0.50455271  0.78438599  0.37351238  1
  O  O34  1  0.89054284  0.30682932  0.11134738  1
  O  O35  1  0.10945716  0.69317068  0.88865262  1
  O  O36  1  0.51365996  0.77775627  0.95179577  1
  O  O37  1  0.48634004  0.22224373  0.04820423  1
