# generated using pymatgen
data_C
_symmetry_space_group_name_H-M   'P 1'
_cell_length_a   2.51016119
_cell_length_b   4.12460461
_cell_length_c   4.73889034
_cell_angle_alpha   96.77530555
_cell_angle_beta   105.35785796
_cell_angle_gamma   90.00000000
_symmetry_Int_Tables_number   1
_chemical_formula_structural   C
_chemical_formula_sum   C8
_cell_volume   46.95626833
_cell_formula_units_Z   8
loop_
 _symmetry_equiv_pos_site_id
 _symmetry_equiv_pos_as_xyz
  1  'x, y, z'
loop_
 _atom_site_type_symbol
 _atom_site_label
 _atom_site_symmetry_multiplicity
 _atom_site_fract_x
 _atom_site_fract_y
 _atom_site_fract_z
 _atom_site_occupancy
  C  C0  1  0.05727729  0.87963488  0.11455458  1
  C  C1  1  0.94272271  0.12036512  0.88544542  1
  C  C2  1  0.55819592  0.65376198  0.11639285  1
  C  C3  1  0.44180408  0.34623802  0.88360715  1
  C  C4  1  0.21431337  0.05936754  0.42862673  1
  C  C5  1  0.78568663  0.94063246  0.57137327  1
  C  C6  1  0.72873761  0.58539535  0.45747523  1
  C  C7  1  0.27126239  0.41460465  0.54252477  1
