# generated using pymatgen
data_Mo3(SeS2)2
_symmetry_space_group_name_H-M   'P 1'
_cell_length_a   3.22679709
_cell_length_b   3.22679731
_cell_length_c   29.12948744
_cell_angle_alpha   90.00035831
_cell_angle_beta   89.99970845
_cell_angle_gamma   119.99984173
_symmetry_Int_Tables_number   1
_chemical_formula_structural   Mo3(SeS2)2
_chemical_formula_sum   'Mo3 Se2 S4'
_cell_volume   262.66820738
_cell_formula_units_Z   1
loop_
 _symmetry_equiv_pos_site_id
 _symmetry_equiv_pos_as_xyz
  1  'x, y, z'
loop_
 _atom_site_type_symbol
 _atom_site_label
 _atom_site_symmetry_multiplicity
 _atom_site_fract_x
 _atom_site_fract_y
 _atom_site_fract_z
 _atom_site_occupancy
  Mo  Mo0  1  0.00000147  0.00000042  0.76883089  1
  Mo  Mo1  1  -0.00000353  0.00000102  0.23104809  1
  Mo  Mo2  1  0.33333407  0.66666674  0.00011607  1
  Se  Se3  1  0.00000543  -0.00000346  0.05804672  1
  Se  Se4  1  -0.00000347  0.00000292  0.94219507  1
  S  S5  1  0.33333781  0.66666223  0.71601689  1
  S  S6  1  0.33332916  0.66666781  0.17818741  1
  S  S7  1  0.33333197  0.66667023  0.82168790  1
  S  S8  1  0.33333209  0.66666708  0.28386997  1
