# generated using pymatgen
data_Nd2Mo4O15
_symmetry_space_group_name_H-M   'P 1'
_cell_length_a   7.37905689
_cell_length_b   7.51515152
_cell_length_c   11.72386776
_cell_angle_alpha   88.75207927
_cell_angle_beta   84.22025859
_cell_angle_gamma   83.84560377
_symmetry_Int_Tables_number   1
_chemical_formula_structural   Nd2Mo4O15
_chemical_formula_sum   'Nd4 Mo8 O30'
_cell_volume   643.07122025
_cell_formula_units_Z   2
loop_
 _symmetry_equiv_pos_site_id
 _symmetry_equiv_pos_as_xyz
  1  'x, y, z'
loop_
 _atom_site_type_symbol
 _atom_site_label
 _atom_site_symmetry_multiplicity
 _atom_site_fract_x
 _atom_site_fract_y
 _atom_site_fract_z
 _atom_site_occupancy
  Nd  Nd0  1  0.75306648  0.58871297  0.77613281  1
  Nd  Nd1  1  0.24693352  0.41128703  0.22386719  1
  Nd  Nd2  1  0.31851303  0.91068838  0.77599382  1
  Nd  Nd3  1  0.68148697  0.08931162  0.22400618  1
  Mo  Mo4  1  0.56062193  0.74661400  0.47099963  1
  Mo  Mo5  1  0.43937807  0.25338600  0.52900037  1
  Mo  Mo6  1  0.27248104  0.42963913  0.87085289  1
  Mo  Mo7  1  0.72751896  0.57036087  0.12914711  1
  Mo  Mo8  1  0.76908975  0.07400324  0.87131836  1
  Mo  Mo9  1  0.23091025  0.92599676  0.12868164  1
  Mo  Mo10  1  0.90805779  0.32716332  0.47047179  1
  Mo  Mo11  1  0.09194221  0.67283668  0.52952821  1
  O  O12  1  0.91748595  0.52440806  0.59571214  1
  O  O13  1  0.08251405  0.47559194  0.40428786  1
  O  O14  1  0.32907200  0.70949232  0.44263971  1
  O  O15  1  0.67092800  0.29050768  0.55736029  1
  O  O16  1  0.42362348  0.59393419  0.81893529  1
  O  O17  1  0.57637652  0.40606581  0.18106471  1
  O  O18  1  0.64658055  0.90634764  0.81350935  1
  O  O19  1  0.35341945  0.09365236  0.18649065  1
  O  O20  1  0.70329974  0.56921405  0.40860054  1
  O  O21  1  0.29670026  0.43078595  0.59139946  1
  O  O22  1  0.13071432  0.77343719  0.65702703  1
  O  O23  1  0.86928568  0.22656281  0.34297297  1
  O  O24  1  0.29878140  0.90131280  0.98250112  1
  O  O25  1  0.70121860  0.09868720  0.01749888  1
  O  O26  1  0.03973411  0.16896518  0.53683918  1
  O  O27  1  0.96026589  0.83103482  0.46316082  1
  O  O28  1  0.57889064  0.73363362  0.61984020  1
  O  O29  1  0.42110936  0.26636638  0.38015980  1
  O  O30  1  0.00230185  0.99892612  0.84942720  1
  O  O31  1  0.99769815  0.00107388  0.15057280  1
  O  O32  1  0.72208170  0.59225027  0.98110703  1
  O  O33  1  0.27791830  0.40774973  0.01889297  1
  O  O34  1  0.72817651  0.28415104  0.80434895  1
  O  O35  1  0.27182349  0.71584896  0.19565105  1
  O  O36  1  0.33813719  0.21675211  0.81251508  1
  O  O37  1  0.66186281  0.78324789  0.18748492  1
  O  O38  1  0.05123761  0.51108787  0.84057608  1
  O  O39  1  0.94876239  0.48891213  0.15942392  1
  O  O40  1  0.61758324  0.94789384  0.40554468  1
  O  O41  1  0.38241676  0.05210616  0.59445532  1
