# generated using pymatgen
data_KAl11O17
_symmetry_space_group_name_H-M   'P 1'
_cell_length_a   5.59101854
_cell_length_b   5.59102323
_cell_length_c   22.72231817
_cell_angle_alpha   89.99958681
_cell_angle_beta   90.00040665
_cell_angle_gamma   120.00020644
_symmetry_Int_Tables_number   1
_chemical_formula_structural   KAl11O17
_chemical_formula_sum   'K2 Al22 O34'
_cell_volume   615.12672206
_cell_formula_units_Z   2
loop_
 _symmetry_equiv_pos_site_id
 _symmetry_equiv_pos_as_xyz
  1  'x, y, z'
loop_
 _atom_site_type_symbol
 _atom_site_label
 _atom_site_symmetry_multiplicity
 _atom_site_fract_x
 _atom_site_fract_y
 _atom_site_fract_z
 _atom_site_occupancy
  K  K0  1  0.33183425  0.66816149  0.74999786  1
  K  K1  1  0.66817662  0.33183057  0.25000152  1
  Al  Al2  1  0.16729461  0.83271011  0.89422746  1
  Al  Al3  1  0.16729275  0.83270530  0.60577118  1
  Al  Al4  1  0.33354665  0.66645124  0.17515933  1
  Al  Al5  1  0.33336675  0.66664171  0.02489633  1
  Al  Al6  1  -0.00000082  0.00000437  0.00000546  1
  Al  Al7  1  0.33354914  0.66644986  0.32483575  1
  Al  Al8  1  0.99999642  0.00000176  0.49999579  1
  Al  Al9  1  0.33335940  0.66663884  0.47510352  1
  Al  Al10  1  0.16726682  0.33490042  0.60580973  1
  Al  Al11  1  0.16726750  0.33490089  0.89419311  1
  Al  Al12  1  0.66510496  0.83273754  0.89419311  1
  Al  Al13  1  0.66509849  0.83273524  0.60580986  1
  Al  Al14  1  0.33487157  0.16725321  0.39418381  1
  Al  Al15  1  0.33487207  0.16725170  0.10581618  1
  Al  Al16  1  0.83274724  0.66512879  0.39418365  1
  Al  Al17  1  0.66645935  0.33354445  0.67515789  1
  Al  Al18  1  0.66645553  0.33354932  0.82484434  1
  Al  Al19  1  0.66664021  0.33335807  0.52488375  1
  Al  Al20  1  0.66664059  0.33336376  0.97511613  1
  Al  Al21  1  0.83275324  0.66513396  0.10581678  1
  Al  Al22  1  0.83270470  0.16730450  0.10578556  1
  Al  Al23  1  0.83269738  0.16730122  0.39421302  1
  O  O24  1  0.15690050  0.84310858  0.04940007  1
  O  O25  1  0.15689387  0.84310497  0.45059978  1
  O  O26  1  0.00408945  0.50223868  0.64443958  1
  O  O27  1  0.00408149  0.50224141  0.85556064  1
  O  O28  1  0.33359605  0.66640391  0.25000608  1
  O  O29  1  0.15690510  0.31369143  0.45060494  1
  O  O30  1  0.00008464  0.99992153  0.14054255  1
  O  O31  1  0.00008333  0.99992208  0.35945781  1
  O  O32  1  0.33323915  0.66676022  0.55490095  1
  O  O33  1  0.99991841  0.00009170  0.85947429  1
  O  O34  1  0.99991930  0.00008051  0.64052481  1
  O  O35  1  0.33323945  0.66676523  0.94509947  1
  O  O36  1  0.15690636  0.31369339  0.04939338  1
  O  O37  1  0.49776222  0.99592175  0.85556021  1
  O  O38  1  0.49776018  0.99591261  0.64443951  1
  O  O39  1  0.31369250  0.15690052  0.54938264  1
  O  O40  1  0.31368973  0.15690421  0.95061819  1
  O  O41  1  0.49770257  0.50230697  0.64443720  1
  O  O42  1  0.49769785  0.50230768  0.85556082  1
  O  O43  1  0.50230811  0.49769161  0.35555330  1
  O  O44  1  0.50231572  0.49769044  0.14444931  1
  O  O45  1  0.68631285  0.84309753  0.04939371  1
  O  O46  1  0.68630795  0.84309406  0.45060537  1
  O  O47  1  0.50223691  0.00408806  0.35555178  1
  O  O48  1  0.66676142  0.33323708  0.44508752  1
  O  O49  1  0.50224054  0.00408352  0.14444900  1
  O  O50  1  0.84309816  0.68631386  0.95061799  1
  O  O51  1  0.84309894  0.68630587  0.54938258  1
  O  O52  1  0.66676956  0.33324258  0.05491220  1
  O  O53  1  0.66640392  0.33360082  0.74999328  1
  O  O54  1  0.99592278  0.49776611  0.14444892  1
  O  O55  1  0.99591088  0.49776231  0.35555179  1
  O  O56  1  0.84310260  0.15689888  0.95061210  1
  O  O57  1  0.84310207  0.15689557  0.54938911  1
