# generated using pymatgen
data_Al2ZnS4
_symmetry_space_group_name_H-M   'P 1'
_cell_length_a   6.39504460
_cell_length_b   6.39504460
_cell_length_c   6.39504460
_cell_angle_alpha   130.97990589
_cell_angle_beta   130.97990589
_cell_angle_gamma   71.84500630
_symmetry_Int_Tables_number   1
_chemical_formula_structural   Al2ZnS4
_chemical_formula_sum   'Al2 Zn1 S4'
_cell_volume   145.80170416
_cell_formula_units_Z   1
loop_
 _symmetry_equiv_pos_site_id
 _symmetry_equiv_pos_as_xyz
  1  'x, y, z'
loop_
 _atom_site_type_symbol
 _atom_site_label
 _atom_site_symmetry_multiplicity
 _atom_site_fract_x
 _atom_site_fract_y
 _atom_site_fract_z
 _atom_site_occupancy
  Al  Al0  1  0.50000000  0.50000000  0.00000000  1
  Al  Al1  1  0.25000000  0.75000000  0.50000000  1
  Zn  Zn2  1  -0.00000000  0.00000000  0.00000000  1
  S  S3  1  0.12785701  0.12738674  0.51344322  1
  S  S4  1  0.61394353  0.61441280  0.48655678  1
  S  S5  1  0.38558720  0.87214299  -0.00046927  1
  S  S6  1  0.87261326  0.38605647  0.00046927  1
