# generated using pymatgen
data_MnTe2O5
_symmetry_space_group_name_H-M   'P 1'
_cell_length_a   6.07938176
_cell_length_b   7.38117520
_cell_length_c   10.88245636
_cell_angle_alpha   90.00016687
_cell_angle_beta   89.99997593
_cell_angle_gamma   89.99967948
_symmetry_Int_Tables_number   1
_chemical_formula_structural   MnTe2O5
_chemical_formula_sum   'Mn4 Te8 O20'
_cell_volume   488.32826702
_cell_formula_units_Z   4
loop_
 _symmetry_equiv_pos_site_id
 _symmetry_equiv_pos_as_xyz
  1  'x, y, z'
loop_
 _atom_site_type_symbol
 _atom_site_label
 _atom_site_symmetry_multiplicity
 _atom_site_fract_x
 _atom_site_fract_y
 _atom_site_fract_z
 _atom_site_occupancy
  Mn  Mn0  1  0.24999097  0.99997519  0.05799640  1
  Mn  Mn1  1  0.75001091  0.50000169  0.44199916  1
  Mn  Mn2  1  0.75000838  0.00000253  0.94197624  1
  Mn  Mn3  1  0.24999475  0.50000140  0.55802521  1
  Te  Te4  1  0.01392412  0.86795590  0.34563493  1
  Te  Te5  1  0.51404565  0.63202391  0.15433120  1
  Te  Te6  1  0.98611439  0.36794811  0.15437703  1
  Te  Te7  1  0.48597627  0.13203943  0.34565693  1
  Te  Te8  1  0.51326008  0.86802584  0.65469927  1
  Te  Te9  1  0.01324300  0.63196175  0.84529039  1
  Te  Te10  1  0.48671692  0.36801818  0.84529460  1
  Te  Te11  1  0.98672428  0.13196894  0.65470473  1
  O  O12  1  0.94976933  0.34440614  0.56419802  1
  O  O13  1  0.44979330  0.15563529  0.93586077  1
  O  O14  1  0.05021933  0.84439145  0.93580869  1
  O  O15  1  0.55019894  0.65564434  0.56413238  1
  O  O16  1  0.05024054  0.65537110  0.43598479  1
  O  O17  1  0.55024362  0.84464340  0.06400523  1
  O  O18  1  0.94978595  0.15535240  0.06403386  1
  O  O19  1  0.44977672  0.34464983  0.43598035  1
  O  O20  1  0.81021051  0.19225402  0.78966783  1
  O  O21  1  0.31018599  0.30767408  0.71035553  1
  O  O22  1  0.18975344  0.69224579  0.71033293  1
  O  O23  1  0.68978405  0.80768781  0.78964154  1
  O  O24  1  0.24997244  0.00002791  0.43739379  1
  O  O25  1  0.75004052  0.49999784  0.06261665  1
  O  O26  1  0.74994992  0.00003266  0.56348040  1
  O  O27  1  0.24999940  0.50000429  0.93651008  1
  O  O28  1  0.30829919  0.19198120  0.21107360  1
  O  O29  1  0.80841875  0.30803921  0.28895364  1
  O  O30  1  0.69171612  0.69198980  0.28892375  1
  O  O31  1  0.19163025  0.80804758  0.21105707  1
