# generated using pymatgen
data_Dy(CuS)3
_symmetry_space_group_name_H-M   'P 1'
_cell_length_a   7.41250518
_cell_length_b   7.41250517
_cell_length_c   7.41250559
_cell_angle_alpha   53.28717130
_cell_angle_beta   53.28717132
_cell_angle_gamma   53.28718121
_symmetry_Int_Tables_number   1
_chemical_formula_structural   Dy(CuS)3
_chemical_formula_sum   'Dy2 Cu6 S6'
_cell_volume   242.72229391
_cell_formula_units_Z   2
loop_
 _symmetry_equiv_pos_site_id
 _symmetry_equiv_pos_as_xyz
  1  'x, y, z'
loop_
 _atom_site_type_symbol
 _atom_site_label
 _atom_site_symmetry_multiplicity
 _atom_site_fract_x
 _atom_site_fract_y
 _atom_site_fract_z
 _atom_site_occupancy
  Dy  Dy0  1  0.83348731  0.83348731  0.83348731  1
  Dy  Dy1  1  0.16651269  0.16651269  0.16651269  1
  Cu  Cu2  1  0.96415164  0.62363630  0.28154012  1
  Cu  Cu3  1  0.28154012  0.96415164  0.62363630  1
  Cu  Cu4  1  0.62363630  0.28154012  0.96415164  1
  Cu  Cu5  1  0.37636370  0.71845988  0.03584836  1
  Cu  Cu6  1  0.71845988  0.03584836  0.37636370  1
  Cu  Cu7  1  0.03584836  0.37636370  0.71845988  1
  S  S8  1  0.74709195  0.41688653  0.08410069  1
  S  S9  1  0.41688653  0.08410069  0.74709195  1
  S  S10  1  0.08410069  0.74709195  0.41688653  1
  S  S11  1  0.91589931  0.25290805  0.58311347  1
  S  S12  1  0.58311347  0.91589931  0.25290805  1
  S  S13  1  0.25290805  0.58311347  0.91589931  1
