# generated using pymatgen
data_KMg3(SiO3)4
_symmetry_space_group_name_H-M   'P 1'
_cell_length_a   5.30771390
_cell_length_b   5.30771390
_cell_length_c   32.06602281
_cell_angle_alpha   90.00000000
_cell_angle_beta   90.00000000
_cell_angle_gamma   120.00000674
_symmetry_Int_Tables_number   1
_chemical_formula_structural   KMg3(SiO3)4
_chemical_formula_sum   'K3 Mg9 Si12 O36'
_cell_volume   782.33130671
_cell_formula_units_Z   3
loop_
 _symmetry_equiv_pos_site_id
 _symmetry_equiv_pos_as_xyz
  1  'x, y, z'
loop_
 _atom_site_type_symbol
 _atom_site_label
 _atom_site_symmetry_multiplicity
 _atom_site_fract_x
 _atom_site_fract_y
 _atom_site_fract_z
 _atom_site_occupancy
  K  K0  1  0.72041225  0.44082449  0.16666700  1
  K  K1  1  0.72041225  0.27958775  0.83333300  1
  K  K2  1  0.55917551  0.27958775  0.50000000  1
  Mg  Mg3  1  0.88639115  0.77278229  0.66666700  1
  Mg  Mg4  1  0.88639115  0.11360885  0.33333300  1
  Mg  Mg5  1  0.22721771  0.11360885  0.00000000  1
  Mg  Mg6  1  0.55743264  0.11486527  0.66666700  1
  Mg  Mg7  1  0.55743264  0.44256736  0.33333300  1
  Mg  Mg8  1  0.88513473  0.44256736  0.00000000  1
  Mg  Mg9  1  0.22199781  0.44399561  0.66666700  1
  Mg  Mg10  1  0.22199781  0.77800219  0.33333300  1
  Mg  Mg11  1  0.55600439  0.77800219  0.00000000  1
  Si  Si12  1  0.89709360  0.10275402  0.58030246  1
  Si  Si13  1  0.20566042  0.10290640  0.24696946  1
  Si  Si14  1  0.20566042  0.10275402  0.75303054  1
  Si  Si15  1  0.89724598  0.79433958  0.91363546  1
  Si  Si16  1  0.89724598  0.10290640  0.08636454  1
  Si  Si17  1  0.89709360  0.79433958  0.41969754  1
  Si  Si18  1  0.54166569  0.77152114  0.75302644  1
  Si  Si19  1  0.22985545  0.45833431  0.41969344  1
  Si  Si20  1  0.22985545  0.77152114  0.58030656  1
  Si  Si21  1  0.22847886  0.77014455  0.08635944  1
  Si  Si22  1  0.22847886  0.45833431  0.91364056  1
  Si  Si23  1  0.54166569  0.77014455  0.24697356  1
  O  O24  1  0.56272434  0.61638580  0.89388487  1
  O  O25  1  0.05366146  0.43727566  0.56055187  1
  O  O26  1  0.05366146  0.61638580  0.43944813  1
  O  O27  1  0.38361420  0.94633854  0.22721787  1
  O  O28  1  0.38361420  0.43727566  0.77278213  1
  O  O29  1  0.56272434  0.94633854  0.10611513  1
  O  O30  1  0.88051476  0.44368999  0.69685247  1
  O  O31  1  0.56317523  0.11948524  0.36351947  1
  O  O32  1  0.56317523  0.44368999  0.63648053  1
  O  O33  1  0.55631001  0.43682477  0.03018547  1
  O  O34  1  0.55631001  0.11948524  0.96981453  1
  O  O35  1  0.88051476  0.43682477  0.30314753  1
  O  O36  1  0.89596520  0.10244215  0.63036118  1
  O  O37  1  0.20647696  0.10403480  0.29702818  1
  O  O38  1  0.20647696  0.10244215  0.70297182  1
  O  O39  1  0.89755785  0.79352304  0.96369418  1
  O  O40  1  0.89755785  0.10403480  0.03630582  1
  O  O41  1  0.89596520  0.79352304  0.36963882  1
  O  O42  1  0.87377502  0.94770186  0.77362857  1
  O  O43  1  0.07392684  0.12622498  0.44029557  1
  O  O44  1  0.07392684  0.94770186  0.55970443  1
  O  O45  1  0.05229814  0.92607316  0.10696157  1
  O  O46  1  0.05229814  0.12622498  0.89303843  1
  O  O47  1  0.87377502  0.92607316  0.22637143  1
  O  O48  1  0.54581482  0.78194670  0.70306074  1
  O  O49  1  0.23613187  0.45418518  0.36972774  1
  O  O50  1  0.23613187  0.78194670  0.63027226  1
  O  O51  1  0.21805330  0.76386813  0.03639374  1
  O  O52  1  0.21805330  0.45418518  0.96360626  1
  O  O53  1  0.54581482  0.76386813  0.29693926  1
  O  O54  1  0.56378446  0.63389968  0.44001976  1
  O  O55  1  0.07011522  0.43621554  0.10668676  1
  O  O56  1  0.07011522  0.63389968  0.89331324  1
  O  O57  1  0.36610032  0.92988478  0.77335276  1
  O  O58  1  0.36610032  0.43621554  0.22664724  1
  O  O59  1  0.56378446  0.92988478  0.55998024  1
