# generated using pymatgen
data_Ba2Re6S11
_symmetry_space_group_name_H-M   'P 1'
_cell_length_a   11.98777167
_cell_length_b   11.98777167
_cell_length_c   11.98777194
_cell_angle_alpha   45.51852894
_cell_angle_beta   45.51852894
_cell_angle_gamma   45.51852754
_symmetry_Int_Tables_number   1
_chemical_formula_structural   Ba2Re6S11
_chemical_formula_sum   'Ba4 Re12 S22'
_cell_volume   799.06402702
_cell_formula_units_Z   2
loop_
 _symmetry_equiv_pos_site_id
 _symmetry_equiv_pos_as_xyz
  1  'x, y, z'
loop_
 _atom_site_type_symbol
 _atom_site_label
 _atom_site_symmetry_multiplicity
 _atom_site_fract_x
 _atom_site_fract_y
 _atom_site_fract_z
 _atom_site_occupancy
  Ba  Ba0  1  0.31159331  0.31159331  0.31159331  1
  Ba  Ba1  1  0.18840669  0.18840669  0.18840669  1
  Ba  Ba2  1  0.68840669  0.68840669  0.68840669  1
  Ba  Ba3  1  0.81159331  0.81159331  0.81159331  1
  Re  Re4  1  0.61675339  0.29379797  0.48830330  1
  Re  Re5  1  0.48830330  0.61675339  0.29379797  1
  Re  Re6  1  0.79379797  0.11675339  0.98830330  1
  Re  Re7  1  0.98830330  0.79379797  0.11675339  1
  Re  Re8  1  0.11675339  0.98830330  0.79379797  1
  Re  Re9  1  0.70620203  0.51169670  0.38324661  1
  Re  Re10  1  0.38324661  0.70620203  0.51169670  1
  Re  Re11  1  0.51169670  0.38324661  0.70620203  1
  Re  Re12  1  0.29379797  0.48830330  0.61675339  1
  Re  Re13  1  0.88324661  0.01169670  0.20620203  1
  Re  Re14  1  0.01169670  0.20620203  0.88324661  1
  Re  Re15  1  0.20620203  0.88324661  0.01169670  1
  S  S16  1  0.09076230  0.09076230  0.09076230  1
  S  S17  1  0.40923770  0.40923770  0.40923770  1
  S  S18  1  0.90923770  0.90923770  0.90923770  1
  S  S19  1  0.59076230  0.59076230  0.59076230  1
  S  S20  1  0.25000000  0.98098351  0.51901649  1
  S  S21  1  0.51901649  0.25000000  0.98098351  1
  S  S22  1  0.98098351  0.51901649  0.25000000  1
  S  S23  1  0.75000000  0.01901649  0.48098351  1
  S  S24  1  0.48098351  0.75000000  0.01901649  1
  S  S25  1  0.01901649  0.48098351  0.75000000  1
  S  S26  1  0.07161153  0.71040509  0.30857707  1
  S  S27  1  0.30857707  0.07161153  0.71040509  1
  S  S28  1  0.71040509  0.30857707  0.07161153  1
  S  S29  1  0.42838847  0.19142293  0.78959491  1
  S  S30  1  0.78959491  0.42838847  0.19142293  1
  S  S31  1  0.19142293  0.78959491  0.42838847  1
  S  S32  1  0.80857707  0.21040509  0.57161153  1
  S  S33  1  0.21040509  0.57161153  0.80857707  1
  S  S34  1  0.57161153  0.80857707  0.21040509  1
  S  S35  1  0.28959491  0.69142293  0.92838847  1
  S  S36  1  0.69142293  0.92838847  0.28959491  1
  S  S37  1  0.92838847  0.28959491  0.69142293  1
