# generated using pymatgen
data_NdVO4
_symmetry_space_group_name_H-M   'P 1'
_cell_length_a   6.12338227
_cell_length_b   6.12338264
_cell_length_c   6.12338263
_cell_angle_alpha   106.10399101
_cell_angle_beta   106.10398692
_cell_angle_gamma   116.43849132
_symmetry_Int_Tables_number   1
_chemical_formula_structural   NdVO4
_chemical_formula_sum   'Nd2 V2 O8'
_cell_volume   174.76402249
_cell_formula_units_Z   2
loop_
 _symmetry_equiv_pos_site_id
 _symmetry_equiv_pos_as_xyz
  1  'x, y, z'
loop_
 _atom_site_type_symbol
 _atom_site_label
 _atom_site_symmetry_multiplicity
 _atom_site_fract_x
 _atom_site_fract_y
 _atom_site_fract_z
 _atom_site_occupancy
  Nd  Nd0  1  0.87500000  0.12500000  0.75000000  1
  Nd  Nd1  1  0.12500000  0.87500000  0.25000000  1
  V  V2  1  0.62500000  0.37500000  0.25000000  1
  V  V3  1  0.37500000  0.62500000  0.75000000  1
  O  O4  1  0.79453167  0.36445559  0.06992392  1
  O  O5  1  0.79453167  0.72460875  0.43007608  1
  O  O6  1  0.63554441  0.20546833  0.43007608  1
  O  O7  1  0.20546833  0.27539125  0.56992392  1
  O  O8  1  0.20546833  0.63554441  0.93007608  1
  O  O9  1  0.27539125  0.20546833  0.06992392  1
  O  O10  1  0.72460875  0.79453167  0.93007608  1
  O  O11  1  0.36445559  0.79453167  0.56992392  1
