# generated using pymatgen
data_K3GdCl6
_symmetry_space_group_name_H-M   'P 1'
_cell_length_a   7.79303566
_cell_length_b   12.54824035
_cell_length_c   13.09632694
_cell_angle_alpha   70.90995798
_cell_angle_beta   90.00000000
_cell_angle_gamma   90.00000000
_symmetry_Int_Tables_number   1
_chemical_formula_structural   K3GdCl6
_chemical_formula_sum   'K12 Gd4 Cl24'
_cell_volume   1210.24545377
_cell_formula_units_Z   4
loop_
 _symmetry_equiv_pos_site_id
 _symmetry_equiv_pos_as_xyz
  1  'x, y, z'
loop_
 _atom_site_type_symbol
 _atom_site_label
 _atom_site_symmetry_multiplicity
 _atom_site_fract_x
 _atom_site_fract_y
 _atom_site_fract_z
 _atom_site_occupancy
  K  K0  1  0.43742052  0.73568605  0.31386305  1
  K  K1  1  0.56257948  0.26431395  0.68613695  1
  K  K2  1  0.93742052  0.76431395  0.68613695  1
  K  K3  1  0.06257948  0.23568605  0.31386305  1
  K  K4  1  0.96338434  0.64118921  0.09947519  1
  K  K5  1  0.03661566  0.35881079  0.90052481  1
  K  K6  1  0.46338434  0.85881079  0.90052481  1
  K  K7  1  0.53661566  0.14118921  0.09947519  1
  K  K8  1  0.92779224  0.88787539  0.32061422  1
  K  K9  1  0.07220776  0.11212461  0.67938578  1
  K  K10  1  0.42779224  0.61212461  0.67938578  1
  K  K11  1  0.57220776  0.38787539  0.32061422  1
  Gd  Gd12  1  0.00000000  0.50000000  0.50000000  1
  Gd  Gd13  1  0.50000000  0.00000000  0.50000000  1
  Gd  Gd14  1  0.00000000  0.00000000  -0.00000000  1
  Gd  Gd15  1  0.50000000  0.50000000  -0.00000000  1
  Cl  Cl16  1  0.49613472  0.63686822  0.11537889  1
  Cl  Cl17  1  0.50386528  0.36313178  0.88462111  1
  Cl  Cl18  1  0.99613472  0.86313178  0.88462111  1
  Cl  Cl19  1  0.00386528  0.13686822  0.11537889  1
  Cl  Cl20  1  0.28487123  0.99635713  0.34344924  1
  Cl  Cl21  1  0.71512877  0.00364287  0.65655076  1
  Cl  Cl22  1  0.78487123  0.50364287  0.65655076  1
  Cl  Cl23  1  0.21512877  0.49635713  0.34344924  1
  Cl  Cl24  1  0.78562907  0.60933183  0.34029272  1
  Cl  Cl25  1  0.21437093  0.39066817  0.65970728  1
  Cl  Cl26  1  0.28562907  0.89066817  0.65970728  1
  Cl  Cl27  1  0.71437093  0.10933183  0.34029272  1
  Cl  Cl28  1  0.64066381  0.80374542  0.50008422  1
  Cl  Cl29  1  0.35933619  0.19625458  0.49991578  1
  Cl  Cl30  1  0.14066381  0.69625458  0.49991578  1
  Cl  Cl31  1  0.85933619  0.30374542  0.50008422  1
  Cl  Cl32  1  0.16482800  0.83737737  0.14895941  1
  Cl  Cl33  1  0.83517200  0.16262263  0.85104059  1
  Cl  Cl34  1  0.66482800  0.66262263  0.85104059  1
  Cl  Cl35  1  0.33517200  0.33737737  0.14895941  1
  Cl  Cl36  1  0.70457926  0.91135943  0.10226501  1
  Cl  Cl37  1  0.29542074  0.08864057  0.89773499  1
  Cl  Cl38  1  0.20457926  0.58864057  0.89773499  1
  Cl  Cl39  1  0.79542074  0.41135943  0.10226501  1
