# generated using pymatgen
data_La3FeO6
_symmetry_space_group_name_H-M   'P 1'
_cell_length_a   7.54200520
_cell_length_b   7.54200520
_cell_length_c   5.69667244
_cell_angle_alpha   90.00000000
_cell_angle_beta   90.00000000
_cell_angle_gamma   103.04378991
_symmetry_Int_Tables_number   1
_chemical_formula_structural   La3FeO6
_chemical_formula_sum   'La6 Fe2 O12'
_cell_volume   315.67636832
_cell_formula_units_Z   2
loop_
 _symmetry_equiv_pos_site_id
 _symmetry_equiv_pos_as_xyz
  1  'x, y, z'
loop_
 _atom_site_type_symbol
 _atom_site_label
 _atom_site_symmetry_multiplicity
 _atom_site_fract_x
 _atom_site_fract_y
 _atom_site_fract_z
 _atom_site_occupancy
  La  La0  1  0.41335708  0.19952411  0.53559712  1
  La  La1  1  0.80047589  0.58664292  0.53559712  1
  La  La2  1  0.58664292  0.80047589  0.03559712  1
  La  La3  1  0.19952411  0.41335708  0.03559712  1
  La  La4  1  0.10543776  0.89456224  0.07285181  1
  La  La5  1  0.89456224  0.10543776  0.57285181  1
  Fe  Fe6  1  0.30802298  0.69197702  0.50018110  1
  Fe  Fe7  1  0.69197702  0.30802298  0.00018110  1
  O  O8  1  0.17083969  0.14792396  0.80172248  1
  O  O9  1  0.85207604  0.82916031  0.80172248  1
  O  O10  1  0.82916031  0.85207604  0.30172248  1
  O  O11  1  0.14792396  0.17083969  0.30172248  1
  O  O12  1  0.60818303  0.08787732  0.83293805  1
  O  O13  1  0.91212268  0.39181697  0.83293805  1
  O  O14  1  0.39181697  0.91212268  0.33293805  1
  O  O15  1  0.08787732  0.60818303  0.33293805  1
  O  O16  1  0.54498769  0.45501231  0.86872046  1
  O  O17  1  0.45501231  0.54498769  0.36872046  1
  O  O18  1  0.28530982  0.71469018  0.82784932  1
  O  O19  1  0.71469018  0.28530982  0.32784932  1
