# generated using pymatgen
data_La3Se4Cl
_symmetry_space_group_name_H-M   'P 1'
_cell_length_a   8.01133979
_cell_length_b   8.58512553
_cell_length_c   12.83273789
_cell_angle_alpha   90.00000000
_cell_angle_beta   90.00000000
_cell_angle_gamma   90.00000000
_symmetry_Int_Tables_number   1
_chemical_formula_structural   La3Se4Cl
_chemical_formula_sum   'La12 Se16 Cl4'
_cell_volume   882.61463765
_cell_formula_units_Z   4
loop_
 _symmetry_equiv_pos_site_id
 _symmetry_equiv_pos_as_xyz
  1  'x, y, z'
loop_
 _atom_site_type_symbol
 _atom_site_label
 _atom_site_symmetry_multiplicity
 _atom_site_fract_x
 _atom_site_fract_y
 _atom_site_fract_z
 _atom_site_occupancy
  La  La0  1  0.41936337  0.25194564  0.50957095  1
  La  La1  1  0.08063663  0.25194564  0.00957095  1
  La  La2  1  0.58063663  0.75194564  0.49042905  1
  La  La3  1  0.91936337  0.75194564  0.99042905  1
  La  La4  1  0.47366887  0.99906734  0.81695634  1
  La  La5  1  0.01180517  0.49810804  0.32639090  1
  La  La6  1  0.52633113  0.49906734  0.18304366  1
  La  La7  1  0.98819483  0.99810804  0.67360910  1
  La  La8  1  0.51180517  0.99810804  0.17360910  1
  La  La9  1  0.97366887  0.49906734  0.68304366  1
  La  La10  1  0.48819483  0.49810804  0.82639090  1
  La  La11  1  0.02633113  0.99906734  0.31695634  1
  Se  Se12  1  0.20020866  0.25195054  0.78137679  1
  Se  Se13  1  0.29979134  0.25195054  0.28137679  1
  Se  Se14  1  0.79979134  0.75195054  0.21862321  1
  Se  Se15  1  0.70020866  0.75195054  0.71862321  1
  Se  Se16  1  0.03614442  0.25424254  0.50158673  1
  Se  Se17  1  0.46385558  0.25424254  0.00158673  1
  Se  Se18  1  0.96385558  0.75424254  0.49841327  1
  Se  Se19  1  0.53614442  0.75424254  0.99841327  1
  Se  Se20  1  0.67318166  0.24880328  0.68835160  1
  Se  Se21  1  0.82681834  0.24880328  0.18835160  1
  Se  Se22  1  0.32681834  0.74880328  0.31164840  1
  Se  Se23  1  0.17318166  0.74880328  0.81164840  1
  Se  Se24  1  0.83836831  0.45381774  0.90194356  1
  Se  Se25  1  0.16163169  0.95381774  0.09805644  1
  Se  Se26  1  0.33836831  0.95381774  0.59805644  1
  Se  Se27  1  0.66163169  0.45381774  0.40194356  1
  Cl  Cl28  1  0.65853967  0.04206487  0.39584249  1
  Cl  Cl29  1  0.34146033  0.54206487  0.60415751  1
  Cl  Cl30  1  0.15853967  0.54206487  0.10415751  1
  Cl  Cl31  1  0.84146033  0.04206487  0.89584249  1
