# generated using pymatgen
data_CoO
_symmetry_space_group_name_H-M   'P 1'
_cell_length_a   3.19764617
_cell_length_b   5.22870971
_cell_length_c   3.19764532
_cell_angle_alpha   90.00000000
_cell_angle_beta   120.00000315
_cell_angle_gamma   90.00000000
_symmetry_Int_Tables_number   1
_chemical_formula_structural   CoO
_chemical_formula_sum   'Co2 O2'
_cell_volume   46.30051750
_cell_formula_units_Z   2
loop_
 _symmetry_equiv_pos_site_id
 _symmetry_equiv_pos_as_xyz
  1  'x, y, z'
loop_
 _atom_site_type_symbol
 _atom_site_label
 _atom_site_symmetry_multiplicity
 _atom_site_fract_x
 _atom_site_fract_y
 _atom_site_fract_z
 _atom_site_occupancy
  Co  Co0  1  0.66666700  0.00347414  0.33333300  1
  Co  Co1  1  0.33333300  0.50336241  0.66666700  1
  O  O2  1  0.66666700  0.37160885  0.33333300  1
  O  O3  1  0.33333300  0.87155560  0.66666700  1
