# generated using pymatgen
data_AlTl2F5
_symmetry_space_group_name_H-M   'P 1'
_cell_length_a   6.23231815
_cell_length_b   6.23231749
_cell_length_c   7.42025038
_cell_angle_alpha   90.00000000
_cell_angle_beta   90.00000000
_cell_angle_gamma   89.97684402
_symmetry_Int_Tables_number   1
_chemical_formula_structural   AlTl2F5
_chemical_formula_sum   'Al2 Tl4 F10'
_cell_volume   288.21574923
_cell_formula_units_Z   2
loop_
 _symmetry_equiv_pos_site_id
 _symmetry_equiv_pos_as_xyz
  1  'x, y, z'
loop_
 _atom_site_type_symbol
 _atom_site_label
 _atom_site_symmetry_multiplicity
 _atom_site_fract_x
 _atom_site_fract_y
 _atom_site_fract_z
 _atom_site_occupancy
  Al  Al0  1  0.00000000  -0.00000000  0.50000000  1
  Al  Al1  1  0.00000000  -0.00000000  0.00000000  1
  Tl  Tl2  1  0.49832149  0.99781830  0.75000000  1
  Tl  Tl3  1  0.50167851  0.00218170  0.25000000  1
  Tl  Tl4  1  0.99781830  0.49832149  0.75000000  1
  Tl  Tl5  1  0.00218170  0.50167851  0.25000000  1
  F  F6  1  0.79646298  0.79646298  0.49544410  1
  F  F7  1  0.20361773  0.79638227  0.00000000  1
  F  F8  1  0.99597621  0.99597621  0.75000000  1
  F  F9  1  0.79638227  0.20361773  -0.00000000  1
  F  F10  1  0.79638227  0.20361773  0.50000000  1
  F  F11  1  0.20361773  0.79638227  0.50000000  1
  F  F12  1  0.20353702  0.20353702  0.50455590  1
  F  F13  1  0.79646298  0.79646298  0.00455590  1
  F  F14  1  0.20353702  0.20353702  0.99544410  1
  F  F15  1  0.00402379  0.00402379  0.25000000  1
