# generated using pymatgen
data_Cs3CoI4NO3
_symmetry_space_group_name_H-M   'P 1'
_cell_length_a   10.12113327
_cell_length_b   11.66119259
_cell_length_c   14.32064469
_cell_angle_alpha   90.00000000
_cell_angle_beta   90.00000000
_cell_angle_gamma   90.00000000
_symmetry_Int_Tables_number   1
_chemical_formula_structural   Cs3CoI4NO3
_chemical_formula_sum   'Cs12 Co4 I16 N4 O12'
_cell_volume   1690.18670425
_cell_formula_units_Z   4
loop_
 _symmetry_equiv_pos_site_id
 _symmetry_equiv_pos_as_xyz
  1  'x, y, z'
loop_
 _atom_site_type_symbol
 _atom_site_label
 _atom_site_symmetry_multiplicity
 _atom_site_fract_x
 _atom_site_fract_y
 _atom_site_fract_z
 _atom_site_occupancy
  Cs  Cs0  1  0.07542522  0.25000000  0.55273518  1
  Cs  Cs1  1  0.57542522  0.25000000  0.94726482  1
  Cs  Cs2  1  0.92457478  0.75000000  0.44726482  1
  Cs  Cs3  1  0.42457478  0.75000000  0.05273518  1
  Cs  Cs4  1  0.39975557  0.98872400  0.31902898  1
  Cs  Cs5  1  0.89975557  0.51127600  0.18097102  1
  Cs  Cs6  1  0.60024443  0.48872400  0.68097102  1
  Cs  Cs7  1  0.10024443  0.01127600  0.81902898  1
  Cs  Cs8  1  0.60024443  0.01127600  0.68097102  1
  Cs  Cs9  1  0.10024443  0.48872400  0.81902898  1
  Cs  Cs10  1  0.39975557  0.51127600  0.31902898  1
  Cs  Cs11  1  0.89975557  0.98872400  0.18097102  1
  Co  Co12  1  0.67514733  0.25000000  0.40185006  1
  Co  Co13  1  0.17514733  0.25000000  0.09814994  1
  Co  Co14  1  0.32485267  0.75000000  0.59814994  1
  Co  Co15  1  0.82485267  0.75000000  0.90185006  1
  I  I16  1  0.79935667  0.06289358  0.44295715  1
  I  I17  1  0.29935667  0.43710642  0.05704285  1
  I  I18  1  0.20064333  0.56289358  0.55704285  1
  I  I19  1  0.70064333  0.93710642  0.94295715  1
  I  I20  1  0.20064333  0.93710642  0.55704285  1
  I  I21  1  0.70064333  0.56289358  0.94295715  1
  I  I22  1  0.79935667  0.43710642  0.44295715  1
  I  I23  1  0.29935667  0.06289358  0.05704285  1
  I  I24  1  0.46041037  0.25000000  0.50119853  1
  I  I25  1  0.96041037  0.25000000  0.99880147  1
  I  I26  1  0.53958963  0.75000000  0.49880147  1
  I  I27  1  0.03958963  0.75000000  0.00119853  1
  I  I28  1  0.62726934  0.25000000  0.22413420  1
  I  I29  1  0.12726934  0.25000000  0.27586580  1
  I  I30  1  0.37273066  0.75000000  0.77586580  1
  I  I31  1  0.87273066  0.75000000  0.72413420  1
  N  N32  1  0.17466743  0.75000000  0.27301300  1
  N  N33  1  0.67466743  0.75000000  0.22698700  1
  N  N34  1  0.82533257  0.25000000  0.72698700  1
  N  N35  1  0.32533257  0.25000000  0.77301300  1
  O  O36  1  0.29313356  0.75000000  0.24490001  1
  O  O37  1  0.79313356  0.75000000  0.25509999  1
  O  O38  1  0.70686644  0.25000000  0.75509999  1
  O  O39  1  0.20686644  0.25000000  0.74490001  1
  O  O40  1  0.11641009  0.65614334  0.28780867  1
  O  O41  1  0.61641009  0.84385666  0.21219133  1
  O  O42  1  0.88358991  0.15614334  0.71219133  1
  O  O43  1  0.38358991  0.34385666  0.78780867  1
  O  O44  1  0.88358991  0.34385666  0.71219133  1
  O  O45  1  0.38358991  0.15614334  0.78780867  1
  O  O46  1  0.11641009  0.84385666  0.28780867  1
  O  O47  1  0.61641009  0.65614334  0.21219133  1
