# generated using pymatgen
data_NdH6SNO10
_symmetry_space_group_name_H-M   'P 1'
_cell_length_a   6.15457797
_cell_length_b   6.97092337
_cell_length_c   8.92426997
_cell_angle_alpha   90.00000000
_cell_angle_beta   93.69777155
_cell_angle_gamma   90.00000000
_symmetry_Int_Tables_number   1
_chemical_formula_structural   NdH6SNO10
_chemical_formula_sum   'Nd2 H12 S2 N2 O20'
_cell_volume   382.08166520
_cell_formula_units_Z   2
loop_
 _symmetry_equiv_pos_site_id
 _symmetry_equiv_pos_as_xyz
  1  'x, y, z'
loop_
 _atom_site_type_symbol
 _atom_site_label
 _atom_site_symmetry_multiplicity
 _atom_site_fract_x
 _atom_site_fract_y
 _atom_site_fract_z
 _atom_site_occupancy
  Nd  Nd0  1  0.15787210  0.25000000  0.78835546  1
  Nd  Nd1  1  0.84212790  0.75000000  0.21164454  1
  H  H2  1  0.78291260  0.36417727  0.55741313  1
  H  H3  1  0.21708740  0.86417727  0.44258687  1
  H  H4  1  0.21708740  0.63582273  0.44258687  1
  H  H5  1  0.78291260  0.13582273  0.55741313  1
  H  H6  1  0.39184596  0.91224543  0.09793111  1
  H  H7  1  0.60815404  0.41224543  0.90206889  1
  H  H8  1  0.60815404  0.08775457  0.90206889  1
  H  H9  1  0.39184596  0.58775457  0.09793111  1
  H  H10  1  0.47199600  0.05277546  0.22644401  1
  H  H11  1  0.52800400  0.55277546  0.77355599  1
  H  H12  1  0.52800400  0.94722454  0.77355599  1
  H  H13  1  0.47199600  0.44722454  0.22644401  1
  S  S14  1  0.99468933  0.25000000  0.11590289  1
  S  S15  1  0.00531067  0.75000000  0.88409711  1
  N  N16  1  0.32330578  0.25000000  0.47526344  1
  N  N17  1  0.67669422  0.75000000  0.52473656  1
  O  O18  1  0.21604239  0.25000000  0.05959061  1
  O  O19  1  0.78395761  0.75000000  0.94040939  1
  O  O20  1  0.84360443  0.25000000  0.97841921  1
  O  O21  1  0.15639557  0.75000000  0.02158079  1
  O  O22  1  0.96468203  0.42098020  0.20798299  1
  O  O23  1  0.03531797  0.92098020  0.79201701  1
  O  O24  1  0.03531797  0.57901980  0.79201701  1
  O  O25  1  0.96468203  0.07901980  0.20798299  1
  O  O26  1  0.41839472  0.25000000  0.35710581  1
  O  O27  1  0.58160528  0.75000000  0.64289419  1
  O  O28  1  0.27438802  0.40516681  0.53950229  1
  O  O29  1  0.72561198  0.90516681  0.46049771  1
  O  O30  1  0.72561198  0.59483319  0.46049771  1
  O  O31  1  0.27438802  0.09483319  0.53950229  1
  O  O32  1  0.83095264  0.25000000  0.61345822  1
  O  O33  1  0.16904736  0.75000000  0.38654178  1
  O  O34  1  0.48167654  0.05045843  0.83742256  1
  O  O35  1  0.51832346  0.55045843  0.16257744  1
  O  O36  1  0.51832346  0.94954157  0.16257744  1
  O  O37  1  0.48167654  0.44954157  0.83742256  1
