# generated using pymatgen
data_Ho(CuS)3
_symmetry_space_group_name_H-M   'P 1'
_cell_length_a   7.39536358
_cell_length_b   7.39536357
_cell_length_c   7.39536413
_cell_angle_alpha   53.34020029
_cell_angle_beta   53.34020029
_cell_angle_gamma   53.34019344
_symmetry_Int_Tables_number   1
_chemical_formula_structural   Ho(CuS)3
_chemical_formula_sum   'Ho2 Cu6 S6'
_cell_volume   241.40541429
_cell_formula_units_Z   2
loop_
 _symmetry_equiv_pos_site_id
 _symmetry_equiv_pos_as_xyz
  1  'x, y, z'
loop_
 _atom_site_type_symbol
 _atom_site_label
 _atom_site_symmetry_multiplicity
 _atom_site_fract_x
 _atom_site_fract_y
 _atom_site_fract_z
 _atom_site_occupancy
  Ho  Ho0  1  0.83350653  0.83350653  0.83350653  1
  Ho  Ho1  1  0.16649347  0.16649347  0.16649347  1
  Cu  Cu2  1  0.28182537  0.96401073  0.62386768  1
  Cu  Cu3  1  0.62386768  0.28182537  0.96401073  1
  Cu  Cu4  1  0.96401073  0.62386768  0.28182537  1
  Cu  Cu5  1  0.03598927  0.37613232  0.71817463  1
  Cu  Cu6  1  0.37613232  0.71817463  0.03598927  1
  Cu  Cu7  1  0.71817463  0.03598927  0.37613232  1
  S  S8  1  0.08410987  0.74788933  0.41745526  1
  S  S9  1  0.74788933  0.41745526  0.08410987  1
  S  S10  1  0.41745526  0.08410987  0.74788933  1
  S  S11  1  0.58254474  0.91589013  0.25211067  1
  S  S12  1  0.25211067  0.58254474  0.91589013  1
  S  S13  1  0.91589013  0.25211067  0.58254474  1
