# generated using pymatgen
data_Mo3WS8
_symmetry_space_group_name_H-M   'P 1'
_cell_length_a   3.18273814
_cell_length_b   3.18273814
_cell_length_c   34.75486717
_cell_angle_alpha   90.00000000
_cell_angle_beta   90.00000000
_cell_angle_gamma   120.00000093
_symmetry_Int_Tables_number   1
_chemical_formula_structural   Mo3WS8
_chemical_formula_sum   'Mo3 W1 S8'
_cell_volume   304.89343903
_cell_formula_units_Z   1
loop_
 _symmetry_equiv_pos_site_id
 _symmetry_equiv_pos_as_xyz
  1  'x, y, z'
loop_
 _atom_site_type_symbol
 _atom_site_label
 _atom_site_symmetry_multiplicity
 _atom_site_fract_x
 _atom_site_fract_y
 _atom_site_fract_z
 _atom_site_occupancy
  Mo  Mo0  1  -0.00000000  0.00000000  0.09437138  1
  Mo  Mo1  1  0.33333300  0.66666700  0.28176599  1
  Mo  Mo2  1  0.33333300  0.66666700  0.65741109  1
  W  W3  1  -0.00000000  -0.00000000  0.46936820  1
  S  S4  1  -0.00000000  0.00000000  0.32642185  1
  S  S5  1  -0.00000000  0.00000000  0.70206791  1
  S  S6  1  0.33333300  0.66666700  0.04971539  1
  S  S7  1  0.33333300  0.66666700  0.42449712  1
  S  S8  1  0.33333300  0.66666700  0.13903752  1
  S  S9  1  0.33333300  0.66666700  0.51425078  1
  S  S10  1  -0.00000000  0.00000000  0.23709287  1
  S  S11  1  -0.00000000  0.00000000  0.61274991  1
