# generated using pymatgen
data_MgAu4Se4(ClO3)4
_symmetry_space_group_name_H-M   'P 1'
_cell_length_a   4.75257453
_cell_length_b   9.99133291
_cell_length_c   11.10974113
_cell_angle_alpha   84.18010625
_cell_angle_beta   97.64325839
_cell_angle_gamma   87.25095578
_symmetry_Int_Tables_number   1
_chemical_formula_structural   MgAu4Se4(ClO3)4
_chemical_formula_sum   'Mg1 Au4 Se4 Cl4 O12'
_cell_volume   519.14800709
_cell_formula_units_Z   1
loop_
 _symmetry_equiv_pos_site_id
 _symmetry_equiv_pos_as_xyz
  1  'x, y, z'
loop_
 _atom_site_type_symbol
 _atom_site_label
 _atom_site_symmetry_multiplicity
 _atom_site_fract_x
 _atom_site_fract_y
 _atom_site_fract_z
 _atom_site_occupancy
  Mg  Mg0  1  0.11171100  0.43945300  0.43358300  1
  Au  Au1  1  0.04178700  0.57968100  0.20309500  1
  Au  Au2  1  0.01738200  0.99708200  0.99684700  1
  Au  Au3  1  0.97313400  0.41937000  0.80914900  1
  Au  Au4  1  0.98136500  0.00942800  0.49278700  1
  Se  Se5  1  0.74905500  0.86711400  0.24551300  1
  Se  Se6  1  0.21540000  0.71260700  0.89587900  1
  Se  Se7  1  0.83819600  0.28949400  0.09010200  1
  Se  Se8  1  0.25048100  0.13058100  0.74740500  1
  Cl  Cl9  1  0.24415600  0.48712700  0.65468000  1
  Cl  Cl10  1  0.60875300  0.48204500  0.42206400  1
  Cl  Cl11  1  0.25938600  0.19479700  0.45473200  1
  Cl  Cl12  1  0.71995500  0.82593300  0.52663000  1
  O  O13  1  0.70217900  0.94943900  0.09776600  1
  O  O14  1  0.72452700  0.36262700  0.94006100  1
  O  O15  1  0.06376700  0.76856000  0.26069200  1
  O  O16  1  0.10622800  0.16829700  0.07587200  1
  O  O17  1  0.08898600  0.38596300  0.16202100  1
  O  O18  1  0.93207600  0.83246900  0.91371300  1
  O  O19  1  0.36368500  0.65599000  0.03664600  1
  O  O20  1  0.93979200  0.23022300  0.75254000  1
  O  O21  1  0.88398900  0.01069200  0.31085700  1
  O  O22  1  0.92740000  0.60435300  0.85990800  1
  O  O23  1  0.32862200  0.04551400  0.89250200  1
  O  O24  1  0.08076600  0.00116100  0.67733900  1
