# generated using pymatgen
data_Gd2InSbO7
_symmetry_space_group_name_H-M   'P 1'
_cell_length_a   7.42983620
_cell_length_b   7.42983620
_cell_length_c   7.42983620
_cell_angle_alpha   120.71693276
_cell_angle_beta   119.19441031
_cell_angle_gamma   90.08184672
_symmetry_Int_Tables_number   1
_chemical_formula_structural   Gd2InSbO7
_chemical_formula_sum   'Gd4 In2 Sb2 O14'
_cell_volume   290.14657720
_cell_formula_units_Z   2
loop_
 _symmetry_equiv_pos_site_id
 _symmetry_equiv_pos_as_xyz
  1  'x, y, z'
loop_
 _atom_site_type_symbol
 _atom_site_label
 _atom_site_symmetry_multiplicity
 _atom_site_fract_x
 _atom_site_fract_y
 _atom_site_fract_z
 _atom_site_occupancy
  Gd  Gd0  1  0.50000000  0.00000000  0.00000000  1
  Gd  Gd1  1  0.50000000  0.50000000  0.50000000  1
  Gd  Gd2  1  0.50000000  0.00000000  0.50000000  1
  Gd  Gd3  1  -0.00000000  0.00000000  0.00000000  1
  In  In4  1  -0.00000000  0.50000000  0.00000000  1
  In  In5  1  -0.00000000  0.00000000  0.50000000  1
  Sb  Sb6  1  -0.00000000  0.50000000  0.50000000  1
  Sb  Sb7  1  0.50000000  0.50000000  0.00000000  1
  O  O8  1  0.89629829  0.14629829  0.75000000  1
  O  O9  1  0.31534959  0.56534959  0.75000000  1
  O  O10  1  0.90015622  0.57448443  0.72407812  1
  O  O11  1  0.35040630  0.17607810  0.77592188  1
  O  O12  1  0.90015622  0.17607810  0.32567180  1
  O  O13  1  0.35040630  0.57448443  0.17432820  1
  O  O14  1  0.10370171  0.85370171  0.25000000  1
  O  O15  1  0.68465041  0.43465041  0.25000000  1
  O  O16  1  0.09984378  0.42551557  0.27592188  1
  O  O17  1  0.64959370  0.82392190  0.22407812  1
  O  O18  1  0.09984378  0.82392190  0.67432820  1
  O  O19  1  0.64959370  0.42551557  0.82567180  1
  O  O20  1  0.62131722  0.87131722  0.75000000  1
  O  O21  1  0.37868278  0.12868278  0.25000000  1
