# generated using pymatgen
data_HoAgS2
_symmetry_space_group_name_H-M   'P 1'
_cell_length_a   7.59829866
_cell_length_b   7.59603242
_cell_length_c   12.38076158
_cell_angle_alpha   89.97946133
_cell_angle_beta   90.00000000
_cell_angle_gamma   90.00000000
_symmetry_Int_Tables_number   1
_chemical_formula_structural   HoAgS2
_chemical_formula_sum   'Ho8 Ag8 S16'
_cell_volume   714.57941629
_cell_formula_units_Z   8
loop_
 _symmetry_equiv_pos_site_id
 _symmetry_equiv_pos_as_xyz
  1  'x, y, z'
loop_
 _atom_site_type_symbol
 _atom_site_label
 _atom_site_symmetry_multiplicity
 _atom_site_fract_x
 _atom_site_fract_y
 _atom_site_fract_z
 _atom_site_occupancy
  Ho  Ho0  1  0.49884475  0.25145620  0.00333190  1
  Ho  Ho1  1  -0.00115525  0.74854380  0.99666810  1
  Ho  Ho2  1  0.74795165  -0.00006239  0.75334502  1
  Ho  Ho3  1  0.24795165  0.00006239  0.24665498  1
  Ho  Ho4  1  0.25001575  0.49908312  0.74670549  1
  Ho  Ho5  1  0.75001575  0.50091688  0.25329451  1
  Ho  Ho6  1  -0.00098387  0.24924578  0.50347236  1
  Ho  Ho7  1  0.49901613  0.75075422  0.49652764  1
  Ag  Ag8  1  0.75471599  0.49704800  0.81134409  1
  Ag  Ag9  1  0.25471599  0.50295200  0.18865591  1
  Ag  Ag10  1  0.22868072  0.98641159  0.69025696  1
  Ag  Ag11  1  0.72868072  0.01358841  0.30974304  1
  Ag  Ag12  1  0.98272046  0.23026770  0.05992832  1
  Ag  Ag13  1  0.48272046  0.76973230  0.94007168  1
  Ag  Ag14  1  0.50120269  0.25836713  0.56099342  1
  Ag  Ag15  1  0.00120269  0.74163287  0.43900658  1
  S  S16  1  0.22532717  0.97685917  0.46730508  1
  S  S17  1  0.72532717  0.02314083  0.53269492  1
  S  S18  1  0.76791692  0.51928314  0.47416016  1
  S  S19  1  0.26791692  0.48071686  0.52583984  1
  S  S20  1  0.47848407  0.27033619  0.22458832  1
  S  S21  1  0.97848407  0.72966381  0.77541168  1
  S  S22  1  0.52071085  0.27189460  0.78293386  1
  S  S23  1  0.02071085  0.72810540  0.21706614  1
  S  S24  1  0.01732017  0.23073591  0.72426404  1
  S  S25  1  0.51732017  0.76926409  0.27573596  1
  S  S26  1  0.47515219  0.77324123  0.71741967  1
  S  S27  1  0.97515219  0.22675877  0.28258033  1
  S  S28  1  0.72875744  0.98012947  0.97456568  1
  S  S29  1  0.22875744  0.01987053  0.02543432  1
  S  S30  1  0.27078205  0.52220577  0.96731137  1
  S  S31  1  0.77078205  0.47779423  0.03268863  1
