# generated using pymatgen
data_Cs4Ni3F10
_symmetry_space_group_name_H-M   'P 1'
_cell_length_a   7.82652202
_cell_length_b   7.82652202
_cell_length_c   13.69341342
_cell_angle_alpha   90.00000000
_cell_angle_beta   90.00000000
_cell_angle_gamma   133.84780777
_symmetry_Int_Tables_number   1
_chemical_formula_structural   Cs4Ni3F10
_chemical_formula_sum   'Cs8 Ni6 F20'
_cell_volume   604.91519397
_cell_formula_units_Z   2
loop_
 _symmetry_equiv_pos_site_id
 _symmetry_equiv_pos_as_xyz
  1  'x, y, z'
loop_
 _atom_site_type_symbol
 _atom_site_label
 _atom_site_symmetry_multiplicity
 _atom_site_fract_x
 _atom_site_fract_y
 _atom_site_fract_z
 _atom_site_occupancy
  Cs  Cs0  1  0.25426150  0.74573850  0.61327589  1
  Cs  Cs1  1  0.74573850  0.25426150  0.38672411  1
  Cs  Cs2  1  0.24573850  0.75426150  0.11327589  1
  Cs  Cs3  1  0.75426150  0.24573850  0.88672411  1
  Cs  Cs4  1  0.95345328  0.04654672  0.63919115  1
  Cs  Cs5  1  0.04654672  0.95345328  0.36080885  1
  Cs  Cs6  1  0.54654672  0.45345328  0.13919115  1
  Cs  Cs7  1  0.45345328  0.54654672  0.86080885  1
  Ni  Ni8  1  0.61663244  0.38336756  0.65388721  1
  Ni  Ni9  1  0.38336756  0.61663244  0.34611279  1
  Ni  Ni10  1  0.88336756  0.11663244  0.15388721  1
  Ni  Ni11  1  0.11663244  0.88336756  0.84611279  1
  Ni  Ni12  1  0.50000000  0.50000000  0.50000000  1
  Ni  Ni13  1  0.00000000  -0.00000000  0.00000000  1
  F  F14  1  0.61400881  0.81209260  0.46106625  1
  F  F15  1  0.81209260  0.61400881  0.53893375  1
  F  F16  1  0.88599119  0.68790740  0.96106625  1
  F  F17  1  0.68790740  0.88599119  0.03893375  1
  F  F18  1  0.38599119  0.18790740  0.53893375  1
  F  F19  1  0.18790740  0.38599119  0.46106625  1
  F  F20  1  0.11400881  0.31209260  0.03893375  1
  F  F21  1  0.31209260  0.11400881  0.96106625  1
  F  F22  1  0.47292484  0.52707516  0.64337701  1
  F  F23  1  0.52707516  0.47292484  0.35662299  1
  F  F24  1  0.02707516  0.97292484  0.14337701  1
  F  F25  1  0.97292484  0.02707516  0.85662299  1
  F  F26  1  0.75104318  0.24895682  0.65041746  1
  F  F27  1  0.24895682  0.75104318  0.34958254  1
  F  F28  1  0.36092777  0.13907223  0.75000000  1
  F  F29  1  0.13907223  0.36092777  0.25000000  1
  F  F30  1  0.63907223  0.86092777  0.25000000  1
  F  F31  1  0.86092777  0.63907223  0.75000000  1
  F  F32  1  0.25104318  0.74895682  0.84958254  1
  F  F33  1  0.74895682  0.25104318  0.15041746  1
