# generated using pymatgen
data_Cs4MgMn4H16(Cl3O2)4
_symmetry_space_group_name_H-M   'P 1'
_cell_length_a   8.05932716
_cell_length_b   9.12067176
_cell_length_c   11.78056317
_cell_angle_alpha   91.71989577
_cell_angle_beta   90.00000000
_cell_angle_gamma   90.00000000
_symmetry_Int_Tables_number   1
_chemical_formula_structural   Cs4MgMn4H16(Cl3O2)4
_chemical_formula_sum   'Cs4 Mg1 Mn4 H16 Cl12 O8'
_cell_volume   865.55759230
_cell_formula_units_Z   1
loop_
 _symmetry_equiv_pos_site_id
 _symmetry_equiv_pos_as_xyz
  1  'x, y, z'
loop_
 _atom_site_type_symbol
 _atom_site_label
 _atom_site_symmetry_multiplicity
 _atom_site_fract_x
 _atom_site_fract_y
 _atom_site_fract_z
 _atom_site_occupancy
  Cs  Cs0  1  0.04042906  0.68311233  0.38333556  1
  Cs  Cs1  1  0.04042906  0.31688767  0.11666444  1
  Cs  Cs2  1  0.00311630  0.23744667  0.65048028  1
  Cs  Cs3  1  0.00311630  0.76255333  0.84951972  1
  Mg  Mg4  1  0.86968081  0.00000000  0.25000000  1
  Mn  Mn5  1  0.43466076  0.00000000  0.25000000  1
  Mn  Mn6  1  0.52310606  0.50000000  0.25000000  1
  Mn  Mn7  1  0.53309671  0.00000000  0.75000000  1
  Mn  Mn8  1  0.48884309  0.50000000  0.75000000  1
  H  H9  1  0.66778812  0.98031477  0.05781612  1
  H  H10  1  0.33179395  0.52931389  0.04947665  1
  H  H11  1  0.33179395  0.47068611  0.45052335  1
  H  H12  1  0.66778812  0.01968523  0.44218388  1
  H  H13  1  0.32277761  0.02647562  0.94217075  1
  H  H14  1  0.68538582  0.47936413  0.94765354  1
  H  H15  1  0.68538582  0.52063587  0.55234646  1
  H  H16  1  0.32277761  0.97352438  0.55782925  1
  H  H17  1  0.66996517  0.82299906  0.11443618  1
  H  H18  1  0.31309721  0.67971738  0.11783228  1
  H  H19  1  0.31309721  0.32028262  0.38216772  1
  H  H20  1  0.66996517  0.17700094  0.38556382  1
  H  H21  1  0.32005925  0.18046369  0.88212487  1
  H  H22  1  0.69254618  0.32370142  0.88342386  1
  H  H23  1  0.69254618  0.67629858  0.61657614  1
  H  H24  1  0.32005925  0.81953631  0.61787513  1
  Cl  Cl25  1  0.48068931  0.75259158  0.34446061  1
  Cl  Cl26  1  0.48068931  0.24740842  0.15553939  1
  Cl  Cl27  1  0.51656254  0.24718602  0.65565652  1
  Cl  Cl28  1  0.51656254  0.75281398  0.84434348  1
  Cl  Cl29  1  0.25143562  0.90553467  0.09320374  1
  Cl  Cl30  1  0.74427671  0.58998643  0.11105717  1
  Cl  Cl31  1  0.74427671  0.41001357  0.38894283  1
  Cl  Cl32  1  0.25143562  0.09446533  0.40679626  1
  Cl  Cl33  1  0.75767402  0.09022246  0.89381319  1
  Cl  Cl34  1  0.25488672  0.41845979  0.88395565  1
  Cl  Cl35  1  0.25488672  0.58154021  0.61604435  1
  Cl  Cl36  1  0.75767402  0.90977754  0.60618681  1
  O  O37  1  0.65555333  0.93001966  0.13099626  1
  O  O38  1  0.32363522  0.57207535  0.12741014  1
  O  O39  1  0.32363522  0.42792465  0.37258986  1
  O  O40  1  0.65555333  0.06998034  0.36900374  1
  O  O41  1  0.32682342  0.07339218  0.86735637  1
  O  O42  1  0.68556074  0.43059466  0.87134573  1
  O  O43  1  0.68556074  0.56940534  0.62865427  1
  O  O44  1  0.32682342  0.92660782  0.63264363  1
