# generated using pymatgen
data_CuP4S3Br
_symmetry_space_group_name_H-M   'P 1'
_cell_length_a   6.51850859
_cell_length_b   9.32306357
_cell_length_c   15.84757428
_cell_angle_alpha   98.07345779
_cell_angle_beta   97.12128936
_cell_angle_gamma   107.94702603
_symmetry_Int_Tables_number   1
_chemical_formula_structural   CuP4S3Br
_chemical_formula_sum   'Cu4 P16 S12 Br4'
_cell_volume   892.73812719
_cell_formula_units_Z   4
loop_
 _symmetry_equiv_pos_site_id
 _symmetry_equiv_pos_as_xyz
  1  'x, y, z'
loop_
 _atom_site_type_symbol
 _atom_site_label
 _atom_site_symmetry_multiplicity
 _atom_site_fract_x
 _atom_site_fract_y
 _atom_site_fract_z
 _atom_site_occupancy
  Cu  Cu0  1  0.01925650  0.11184404  0.79990107  1
  Cu  Cu1  1  0.98074350  0.88815596  0.20009893  1
  Cu  Cu2  1  0.66295555  0.33990141  0.91821699  1
  Cu  Cu3  1  0.33704445  0.66009859  0.08178301  1
  P  P4  1  0.13271036  0.35381668  0.51436799  1
  P  P5  1  0.86728964  0.64618332  0.48563201  1
  P  P6  1  0.46450906  0.34763493  0.68676993  1
  P  P7  1  0.53549094  0.65236507  0.31323007  1
  P  P8  1  0.34581048  0.11650468  0.59789782  1
  P  P9  1  0.65418952  0.88349532  0.40210218  1
  P  P10  1  0.12804296  0.18671895  0.68118549  1
  P  P11  1  0.87195704  0.81328105  0.31881451  1
  P  P12  1  0.97589976  0.11048461  0.17038248  1
  P  P13  1  0.02410024  0.88951539  0.82961752  1
  P  P14  1  0.81301427  0.31063021  0.04611627  1
  P  P15  1  0.18698573  0.68936979  0.95388373  1
  P  P16  1  0.14673425  0.44279795  0.11838302  1
  P  P17  1  0.85326575  0.55720205  0.88161698  1
  P  P18  1  0.85846924  0.42751248  0.18585806  1
  P  P19  1  0.14153076  0.57248752  0.81414194  1
  S  S20  1  0.40648220  0.49617791  0.60688644  1
  S  S21  1  0.59351780  0.50382209  0.39311356  1
  S  S22  1  0.24165565  0.16701696  0.47902967  1
  S  S23  1  0.75834435  0.83298304  0.52097033  1
  S  S24  1  0.92503251  0.26315750  0.59939251  1
  S  S25  1  0.07496749  0.73684250  0.40060749  1
  S  S26  1  0.78051638  0.08341667  0.05025938  1
  S  S27  1  0.21948362  0.91658333  0.94974062  1
  S  S28  1  0.26927526  0.27523081  0.15689438  1
  S  S29  1  0.73072474  0.72476919  0.84310562  1
  S  S30  1  0.85117578  0.24776873  0.25184971  1
  S  S31  1  0.14882422  0.75223127  0.74815029  1
  Br  Br32  1  0.65394503  0.12157250  0.81016831  1
  Br  Br33  1  0.34605497  0.87842750  0.18983169  1
  Br  Br34  1  0.27533560  0.30573244  0.91989652  1
  Br  Br35  1  0.72466440  0.69426756  0.08010348  1
