# generated using pymatgen
data_CaP4(Br3O)4
_symmetry_space_group_name_H-M   'P 1'
_cell_length_a   6.93710831
_cell_length_b   10.38693839
_cell_length_c   10.88190922
_cell_angle_alpha   90.38811562
_cell_angle_beta   89.58863627
_cell_angle_gamma   99.28457239
_symmetry_Int_Tables_number   1
_chemical_formula_structural   CaP4(Br3O)4
_chemical_formula_sum   'Ca1 P4 Br12 O4'
_cell_volume   773.79460869
_cell_formula_units_Z   1
loop_
 _symmetry_equiv_pos_site_id
 _symmetry_equiv_pos_as_xyz
  1  'x, y, z'
loop_
 _atom_site_type_symbol
 _atom_site_label
 _atom_site_symmetry_multiplicity
 _atom_site_fract_x
 _atom_site_fract_y
 _atom_site_fract_z
 _atom_site_occupancy
  Ca  Ca0  1  0.62689600  0.78436500  0.24208900  1
  P  P1  1  0.37239600  0.30845400  0.24437900  1
  P  P2  1  0.62804500  0.68368400  0.74642200  1
  P  P3  1  0.90056200  0.18807200  0.74538100  1
  P  P4  1  0.10687200  0.84159700  0.24719000  1
  Br  Br5  1  0.81599400  0.65115200  0.58763700  1
  Br  Br6  1  0.84525400  0.02775300  0.24281900  1
  Br  Br7  1  0.31932100  0.76681400  0.41804500  1
  Br  Br8  1  0.70908900  0.14707500  0.90659100  1
  Br  Br9  1  0.20790600  0.35464700  0.40681900  1
  Br  Br10  1  0.81450200  0.65281900  0.90492500  1
  Br  Br11  1  0.39115100  0.51633600  0.74680300  1
  Br  Br12  1  0.71074200  0.14299800  0.58506100  1
  Br  Br13  1  0.08791900  0.03597100  0.74611900  1
  Br  Br14  1  0.20832200  0.35853100  0.08517600  1
  Br  Br15  1  0.31615800  0.77539000  0.07021900  1
  Br  Br16  1  0.64180400  0.46103300  0.24545500  1
  O  O17  1  0.56289900  0.81186200  0.74679300  1
  O  O18  1  0.01273900  0.32185800  0.74435500  1
  O  O19  1  0.42278200  0.17620600  0.24186500  1
  O  O20  1  0.93406400  0.73088400  0.24600100  1
