# generated using pymatgen
data_Nd2Pd2O5
_symmetry_space_group_name_H-M   'P 1'
_cell_length_a   6.59447375
_cell_length_b   6.59447375
_cell_length_c   5.57725277
_cell_angle_alpha   90.00000000
_cell_angle_beta   90.00000000
_cell_angle_gamma   90.00000000
_symmetry_Int_Tables_number   1
_chemical_formula_structural   Nd2Pd2O5
_chemical_formula_sum   'Nd4 Pd4 O10'
_cell_volume   242.53845992
_cell_formula_units_Z   2
loop_
 _symmetry_equiv_pos_site_id
 _symmetry_equiv_pos_as_xyz
  1  'x, y, z'
loop_
 _atom_site_type_symbol
 _atom_site_label
 _atom_site_symmetry_multiplicity
 _atom_site_fract_x
 _atom_site_fract_y
 _atom_site_fract_z
 _atom_site_occupancy
  Nd  Nd0  1  0.10682027  0.26116576  0.00000000  1
  Nd  Nd1  1  0.89317973  0.73883424  -0.00000000  1
  Nd  Nd2  1  0.26116576  0.89317973  0.50000000  1
  Nd  Nd3  1  0.73883424  0.10682027  0.50000000  1
  Pd  Pd4  1  0.59618890  0.30535622  0.00000000  1
  Pd  Pd5  1  0.40381110  0.69464378  -0.00000000  1
  Pd  Pd6  1  0.30535622  0.40381110  0.50000000  1
  Pd  Pd7  1  0.69464378  0.59618890  0.50000000  1
  O  O8  1  0.40260136  0.19607480  0.25843826  1
  O  O9  1  0.59739864  0.80392520  0.74156174  1
  O  O10  1  0.59739864  0.80392520  0.25843826  1
  O  O11  1  0.19607480  0.59739864  0.75843826  1
  O  O12  1  0.40260136  0.19607480  0.74156174  1
  O  O13  1  0.80392520  0.40260136  0.24156174  1
  O  O14  1  0.80392520  0.40260136  0.75843826  1
  O  O15  1  0.19607480  0.59739864  0.24156174  1
  O  O16  1  -0.00000000  0.00000000  0.25000000  1
  O  O17  1  -0.00000000  0.00000000  0.75000000  1
