# generated using pymatgen
data_NdSi3N5
_symmetry_space_group_name_H-M   'P 1'
_cell_length_a   4.77584388
_cell_length_b   7.82054176
_cell_length_c   11.21266233
_cell_angle_alpha   90.00000000
_cell_angle_beta   90.00000000
_cell_angle_gamma   90.00000000
_symmetry_Int_Tables_number   1
_chemical_formula_structural   NdSi3N5
_chemical_formula_sum   'Nd4 Si12 N20'
_cell_volume   418.78942289
_cell_formula_units_Z   4
loop_
 _symmetry_equiv_pos_site_id
 _symmetry_equiv_pos_as_xyz
  1  'x, y, z'
loop_
 _atom_site_type_symbol
 _atom_site_label
 _atom_site_symmetry_multiplicity
 _atom_site_fract_x
 _atom_site_fract_y
 _atom_site_fract_z
 _atom_site_occupancy
  Nd  Nd0  1  0.50453816  0.06058115  0.17130522  1
  Nd  Nd1  1  0.99546184  0.93941885  0.67130522  1
  Nd  Nd2  1  0.49546184  0.56058115  0.32869478  1
  Nd  Nd3  1  0.00453816  0.43941885  0.82869478  1
  Si  Si4  1  0.01416413  0.20724713  0.41699733  1
  Si  Si5  1  0.48583587  0.79275287  0.91699733  1
  Si  Si6  1  0.98583587  0.70724713  0.08300267  1
  Si  Si7  1  0.51416413  0.29275287  0.58300267  1
  Si  Si8  1  0.52679087  0.46663785  0.04093350  1
  Si  Si9  1  0.97320913  0.53336215  0.54093350  1
  Si  Si10  1  0.47320913  0.96663785  0.45906650  1
  Si  Si11  1  0.02679087  0.03336215  0.95906650  1
  Si  Si12  1  0.01727948  0.33802691  0.16162770  1
  Si  Si13  1  0.48272052  0.66197309  0.66162770  1
  Si  Si14  1  0.98272052  0.83802691  0.33837230  1
  Si  Si15  1  0.51727948  0.16197309  0.83837230  1
  N  N16  1  0.17006486  0.29325925  0.29576761  1
  N  N17  1  0.32993514  0.70674075  0.79576761  1
  N  N18  1  0.82993514  0.79325925  0.20423239  1
  N  N19  1  0.67006486  0.20674075  0.70423239  1
  N  N20  1  0.18834821  0.51922261  0.09437485  1
  N  N21  1  0.31165179  0.48077739  0.59437485  1
  N  N22  1  0.81165179  0.01922261  0.40562515  1
  N  N23  1  0.68834821  0.98077739  0.90562515  1
  N  N24  1  0.67253547  0.38777669  0.16816362  1
  N  N25  1  0.82746453  0.61222331  0.66816362  1
  N  N26  1  0.32746453  0.88777669  0.33183638  1
  N  N27  1  0.17253547  0.11222331  0.83183638  1
  N  N28  1  0.04838710  0.15786459  0.08012659  1
  N  N29  1  0.45161290  0.84213541  0.58012659  1
  N  N30  1  0.95161290  0.65786459  0.41987341  1
  N  N31  1  0.54838710  0.34213541  0.91987341  1
  N  N32  1  0.29118005  0.14865903  0.51185028  1
  N  N33  1  0.20881995  0.85134097  0.01185028  1
  N  N34  1  0.70881995  0.64865903  0.98814972  1
  N  N35  1  0.79118005  0.35134097  0.48814972  1
