# generated using pymatgen
data_Cs3LaI6
_symmetry_space_group_name_H-M   'P 1'
_cell_length_a   10.72609421
_cell_length_b   10.72609421
_cell_length_c   8.84658565
_cell_angle_alpha   90.00000000
_cell_angle_beta   90.00000000
_cell_angle_gamma   90.00000000
_symmetry_Int_Tables_number   1
_chemical_formula_structural   Cs3LaI6
_chemical_formula_sum   'Cs6 La2 I12'
_cell_volume   1017.79169058
_cell_formula_units_Z   2
loop_
 _symmetry_equiv_pos_site_id
 _symmetry_equiv_pos_as_xyz
  1  'x, y, z'
loop_
 _atom_site_type_symbol
 _atom_site_label
 _atom_site_symmetry_multiplicity
 _atom_site_fract_x
 _atom_site_fract_y
 _atom_site_fract_z
 _atom_site_occupancy
  Cs  Cs0  1  -0.00000000  -0.00000000  0.50000000  1
  Cs  Cs1  1  -0.00000000  -0.00000000  0.00000000  1
  Cs  Cs2  1  0.23206143  0.58838225  0.50000000  1
  Cs  Cs3  1  0.76793857  0.41161775  0.50000000  1
  Cs  Cs4  1  0.41161775  0.23206143  0.00000000  1
  Cs  Cs5  1  0.58838225  0.76793857  0.00000000  1
  La  La6  1  0.50000000  -0.00000000  0.50000000  1
  La  La7  1  -0.00000000  0.50000000  0.00000000  1
  I  I8  1  0.70148334  0.06166417  0.75225942  1
  I  I9  1  0.29851666  0.93833583  0.75225942  1
  I  I10  1  0.93833583  0.70148334  0.25225942  1
  I  I11  1  0.06166417  0.29851666  0.25225942  1
  I  I12  1  0.29851666  0.93833583  0.24774058  1
  I  I13  1  0.70148334  0.06166417  0.24774058  1
  I  I14  1  0.06166417  0.29851666  0.74774058  1
  I  I15  1  0.93833583  0.70148334  0.74774058  1
  I  I16  1  0.57115442  0.71354589  0.50000000  1
  I  I17  1  0.42884558  0.28645411  0.50000000  1
  I  I18  1  0.28645411  0.57115442  0.00000000  1
  I  I19  1  0.71354589  0.42884558  0.00000000  1
