# generated using pymatgen
data_MoS2
_symmetry_space_group_name_H-M   'P 1'
_cell_length_a   3.18371962
_cell_length_b   3.18371828
_cell_length_c   34.47923848
_cell_angle_alpha   90.00000000
_cell_angle_beta   90.00000000
_cell_angle_gamma   120.00001394
_symmetry_Int_Tables_number   1
_chemical_formula_structural   MoS2
_chemical_formula_sum   'Mo4 S8'
_cell_volume   302.66184877
_cell_formula_units_Z   4
loop_
 _symmetry_equiv_pos_site_id
 _symmetry_equiv_pos_as_xyz
  1  'x, y, z'
loop_
 _atom_site_type_symbol
 _atom_site_label
 _atom_site_symmetry_multiplicity
 _atom_site_fract_x
 _atom_site_fract_y
 _atom_site_fract_z
 _atom_site_occupancy
  Mo  Mo0  1  0.66666700  0.33333300  0.28068337  1
  Mo  Mo1  1  0.66666700  0.33333300  0.65333597  1
  Mo  Mo2  1  0.33333300  0.66666700  0.09514303  1
  Mo  Mo3  1  0.33333300  0.66666700  0.46779463  1
  S  S4  1  0.33333300  0.66666700  0.32569270  1
  S  S5  1  0.33333300  0.66666700  0.69832725  1
  S  S6  1  0.66666700  0.33333300  0.14014934  1
  S  S7  1  0.66666700  0.33333300  0.51280769  1
  S  S8  1  0.33333300  0.66666700  0.23567031  1
  S  S9  1  0.33333300  0.66666700  0.60832866  1
  S  S10  1  0.66666700  0.33333300  0.05015075  1
  S  S11  1  0.66666700  0.33333300  0.42278630  1
