# generated using pymatgen
data_Ca2B2O5
_symmetry_space_group_name_H-M   'P 1'
_cell_length_a   6.35817880
_cell_length_b   3.54450209
_cell_length_c   19.28689936
_cell_angle_alpha   87.76668225
_cell_angle_beta   90.00000000
_cell_angle_gamma   90.00000000
_symmetry_Int_Tables_number   1
_chemical_formula_structural   Ca2B2O5
_chemical_formula_sum   'Ca8 B8 O20'
_cell_volume   434.33055518
_cell_formula_units_Z   4
loop_
 _symmetry_equiv_pos_site_id
 _symmetry_equiv_pos_as_xyz
  1  'x, y, z'
loop_
 _atom_site_type_symbol
 _atom_site_label
 _atom_site_symmetry_multiplicity
 _atom_site_fract_x
 _atom_site_fract_y
 _atom_site_fract_z
 _atom_site_occupancy
  Ca  Ca0  1  0.44947902  0.71301967  0.71069486  1
  Ca  Ca1  1  0.94947902  0.28698033  0.78930514  1
  Ca  Ca2  1  0.55052098  0.28698033  0.28930514  1
  Ca  Ca3  1  0.05052098  0.71301967  0.21069486  1
  Ca  Ca4  1  0.69325496  0.24727532  0.56200755  1
  Ca  Ca5  1  0.19325496  0.75272468  0.93799245  1
  Ca  Ca6  1  0.30674504  0.75272468  0.43799245  1
  Ca  Ca7  1  0.80674504  0.24727532  0.06200755  1
  B  B8  1  0.96640038  0.83615030  0.65656087  1
  B  B9  1  0.46640038  0.16384970  0.84343913  1
  B  B10  1  0.03359962  0.16384970  0.34343913  1
  B  B11  1  0.53359962  0.83615030  0.15656087  1
  B  B12  1  0.75186934  0.82249427  0.91758348  1
  B  B13  1  0.25186934  0.17750573  0.58241652  1
  B  B14  1  0.24813066  0.17750573  0.08241652  1
  B  B15  1  0.74813066  0.82249427  0.41758348  1
  O  O16  1  0.30754313  0.24321542  0.51517329  1
  O  O17  1  0.80754313  0.75678458  0.98482671  1
  O  O18  1  0.69245687  0.75678458  0.48482671  1
  O  O19  1  0.19245687  0.24321542  0.01517329  1
  O  O20  1  0.39076194  0.23279540  0.63468235  1
  O  O21  1  0.89076194  0.76720460  0.86531765  1
  O  O22  1  0.60923806  0.76720460  0.36531765  1
  O  O23  1  0.10923806  0.23279540  0.13468235  1
  O  O24  1  0.76606021  0.71113980  0.64797911  1
  O  O25  1  0.26606021  0.28886020  0.85202089  1
  O  O26  1  0.23393979  0.28886020  0.35202089  1
  O  O27  1  0.73393979  0.71113980  0.14797911  1
  O  O28  1  0.04842373  0.03188170  0.59653946  1
  O  O29  1  0.54842373  0.96811830  0.90346054  1
  O  O30  1  0.95157627  0.96811830  0.40346054  1
  O  O31  1  0.45157627  0.03188170  0.09653946  1
  O  O32  1  0.07642234  0.79784958  0.71690948  1
  O  O33  1  0.57642234  0.20215042  0.78309052  1
  O  O34  1  0.92357766  0.20215042  0.28309052  1
  O  O35  1  0.42357766  0.79784958  0.21690948  1
