# generated using pymatgen
data_KCaNi2H3(SeO5)2
_symmetry_space_group_name_H-M   'P 1'
_cell_length_a   5.54785563
_cell_length_b   6.64126745
_cell_length_c   9.45854967
_cell_angle_alpha   59.14245239
_cell_angle_beta   69.61773913
_cell_angle_gamma   67.33792902
_symmetry_Int_Tables_number   1
_chemical_formula_structural   KCaNi2H3(SeO5)2
_chemical_formula_sum   'K1 Ca1 Ni2 H3 Se2 O10'
_cell_volume   271.03005745
_cell_formula_units_Z   1
loop_
 _symmetry_equiv_pos_site_id
 _symmetry_equiv_pos_as_xyz
  1  'x, y, z'
loop_
 _atom_site_type_symbol
 _atom_site_label
 _atom_site_symmetry_multiplicity
 _atom_site_fract_x
 _atom_site_fract_y
 _atom_site_fract_z
 _atom_site_occupancy
  K  K0  1  0.65657600  0.37272500  0.45369800  1
  Ca  Ca1  1  0.95546000  0.51996200  0.68328300  1
  Ni  Ni2  1  0.00806200  0.47024700  0.98847300  1
  Ni  Ni3  1  0.48960200  0.08912800  0.99941700  1
  H  H4  1  0.56301300  0.77844300  0.88374100  1
  H  H5  1  0.31901600  0.29677000  0.20400300  1
  H  H6  1  0.49794700  0.49881100  0.00015100  1
  Se  Se7  1  0.94259000  0.92542600  0.23420900  1
  Se  Se8  1  0.10927400  0.99906900  0.76819000  1
  O  O9  1  0.81748000  0.76363800  0.43425900  1
  O  O10  1  0.20575800  0.21062300  0.57012800  1
  O  O11  1  0.27732800  0.83150000  0.20491700  1
  O  O12  1  0.83536700  0.21582300  0.20757100  1
  O  O13  1  0.76938900  0.17256400  0.78545400  1
  O  O14  1  0.08570900  0.76455100  0.74323900  1
  O  O15  1  0.64723300  0.60651100  0.91495200  1
  O  O16  1  0.33670300  0.35614600  0.08385600  1
  O  O17  1  0.81791900  0.86698300  0.12358400  1
  O  O18  1  0.19190800  0.25170000  0.88120800  1
