# generated using pymatgen
data_Nb5P7O30
_symmetry_space_group_name_H-M   'P 1'
_cell_length_a   15.89900400
_cell_length_b   15.89900400
_cell_length_c   8.93350418
_cell_angle_alpha   88.40364333
_cell_angle_beta   88.40364333
_cell_angle_gamma   32.41439043
_symmetry_Int_Tables_number   1
_chemical_formula_structural   Nb5P7O30
_chemical_formula_sum   'Nb10 P14 O60'
_cell_volume   1209.97139889
_cell_formula_units_Z   2
loop_
 _symmetry_equiv_pos_site_id
 _symmetry_equiv_pos_as_xyz
  1  'x, y, z'
loop_
 _atom_site_type_symbol
 _atom_site_label
 _atom_site_symmetry_multiplicity
 _atom_site_fract_x
 _atom_site_fract_y
 _atom_site_fract_z
 _atom_site_occupancy
  Nb  Nb0  1  0.79360100  0.30403600  0.96195500  1
  Nb  Nb1  1  0.20639900  0.69596400  0.03804500  1
  Nb  Nb2  1  0.69596400  0.20639900  0.53804500  1
  Nb  Nb3  1  0.08136300  0.59436000  0.55354500  1
  Nb  Nb4  1  0.40564000  0.91863700  0.94645500  1
  Nb  Nb5  1  0.59436000  0.08136300  0.05354500  1
  Nb  Nb6  1  0.30403600  0.79360100  0.46195500  1
  Nb  Nb7  1  0.50000000  0.00000000  0.50000000  1
  Nb  Nb8  1  0.00000000  0.50000000  0.00000000  1
  Nb  Nb9  1  0.91863700  0.40564000  0.44645500  1
  P  P10  1  0.74806200  0.96499600  0.40872900  1
  P  P11  1  0.67976000  0.72734200  0.23082900  1
  P  P12  1  0.44783300  0.67278400  0.10346900  1
  P  P13  1  0.32024000  0.27265800  0.76917100  1
  P  P14  1  0.55216700  0.32721600  0.89653100  1
  P  P15  1  0.97050700  0.02949300  0.25000000  1
  P  P16  1  0.02949300  0.97050700  0.75000000  1
  P  P17  1  0.96499600  0.74806200  0.90872900  1
  P  P18  1  0.27265800  0.32024000  0.26917100  1
  P  P19  1  0.67278400  0.44783300  0.60346900  1
  P  P20  1  0.72734200  0.67976000  0.73082900  1
  P  P21  1  0.25193800  0.03500400  0.59127100  1
  P  P22  1  0.03500400  0.25193800  0.09127100  1
  P  P23  1  0.32721600  0.55216700  0.39653100  1
  O  O24  1  0.79654000  0.92215900  0.92679500  1
  O  O25  1  0.66092500  0.31526300  0.93186700  1
  O  O26  1  0.28926000  0.92812400  0.49566300  1
  O  O27  1  0.57638300  0.29402000  0.72500800  1
  O  O28  1  0.10360800  0.96454700  0.33327900  1
  O  O29  1  0.38586200  0.15525400  0.65977500  1
  O  O30  1  0.27063500  0.39745000  0.67849300  1
  O  O31  1  0.10358900  0.84715000  0.86275100  1
  O  O32  1  0.62112200  0.49434800  0.08732500  1
  O  O33  1  0.39078900  0.04407400  0.91409600  1
  O  O34  1  0.02123000  0.35833600  0.02420300  1
  O  O35  1  0.82381100  0.64459200  0.14819300  1
  O  O36  1  0.71074000  0.07187600  0.50433700  1
  O  O37  1  0.58504600  0.22944500  0.99564300  1
  O  O38  1  0.89641100  0.15285000  0.13724900  1
  O  O39  1  0.92812400  0.28926000  0.99566300  1
  O  O40  1  0.72936500  0.60255000  0.32150700  1
  O  O41  1  0.28962900  0.98679400  0.75399400  1
  O  O42  1  0.41495400  0.77055500  0.00435700  1
  O  O43  1  0.64166400  0.97877000  0.47579700  1
  O  O44  1  0.29402000  0.57638300  0.22500800  1
  O  O45  1  0.07784100  0.20346000  0.57320500  1
  O  O46  1  0.04407400  0.39078900  0.41409600  1
  O  O47  1  0.17618900  0.35540800  0.85180700  1
  O  O48  1  0.15525400  0.38586200  0.15977500  1
  O  O49  1  0.61413800  0.84474600  0.34022500  1
  O  O50  1  0.31526300  0.66092500  0.43186700  1
  O  O51  1  0.77055500  0.41495400  0.50435700  1
  O  O52  1  0.92215900  0.79654000  0.42679500  1
  O  O53  1  0.39745000  0.27063500  0.17849300  1
  O  O54  1  0.22944500  0.58504600  0.49564300  1
  O  O55  1  0.42361700  0.70598000  0.27499200  1
  O  O56  1  0.95592600  0.60921100  0.58590400  1
  O  O57  1  0.55143900  0.81000700  0.12397300  1
  O  O58  1  0.01320600  0.71037100  0.74600600  1
  O  O59  1  0.84474600  0.61413800  0.84022500  1
  O  O60  1  0.07187600  0.71074000  0.00433700  1
  O  O61  1  0.03545300  0.89639200  0.16672100  1
  O  O62  1  0.60255000  0.72936500  0.82150700  1
  O  O63  1  0.35540800  0.17618900  0.35180700  1
  O  O64  1  0.50565200  0.37887800  0.41267500  1
  O  O65  1  0.49434800  0.62112200  0.58732500  1
  O  O66  1  0.15285000  0.89641100  0.63724900  1
  O  O67  1  0.96454700  0.10360800  0.83327900  1
  O  O68  1  0.35833600  0.02123000  0.52420300  1
  O  O69  1  0.37887800  0.50565200  0.91267500  1
  O  O70  1  0.97877000  0.64166400  0.97579700  1
  O  O71  1  0.71037100  0.01320600  0.24600600  1
  O  O72  1  0.81000700  0.55143900  0.62397300  1
  O  O73  1  0.44856100  0.18999300  0.87602700  1
  O  O74  1  0.64459200  0.82381100  0.64819300  1
  O  O75  1  0.98679400  0.28962900  0.25399400  1
  O  O76  1  0.70827000  0.42795500  0.77457400  1
  O  O77  1  0.19371700  0.45143600  0.37392300  1
  O  O78  1  0.60921100  0.95592600  0.08590400  1
  O  O79  1  0.84715000  0.10358900  0.36275100  1
  O  O80  1  0.33907500  0.68473700  0.06813300  1
  O  O81  1  0.89639200  0.03545300  0.66672100  1
  O  O82  1  0.68473700  0.33907500  0.56813300  1
  O  O83  1  0.20346000  0.07784100  0.07320500  1
