# generated using pymatgen
data_Na3Sc2(PO4)3
_symmetry_space_group_name_H-M   'P 1'
_cell_length_a   8.87545981
_cell_length_b   8.87546044
_cell_length_c   9.07933739
_cell_angle_alpha   61.53223100
_cell_angle_beta   61.53222991
_cell_angle_gamma   60.21324407
_symmetry_Int_Tables_number   1
_chemical_formula_structural   Na3Sc2(PO4)3
_chemical_formula_sum   'Na6 Sc4 P6 O24'
_cell_volume   517.99512570
_cell_formula_units_Z   2
loop_
 _symmetry_equiv_pos_site_id
 _symmetry_equiv_pos_as_xyz
  1  'x, y, z'
loop_
 _atom_site_type_symbol
 _atom_site_label
 _atom_site_symmetry_multiplicity
 _atom_site_fract_x
 _atom_site_fract_y
 _atom_site_fract_z
 _atom_site_occupancy
  Na  Na0  1  0.04049459  0.33771722  0.43882716  1
  Na  Na1  1  0.33771722  0.04049459  0.93882716  1
  Na  Na2  1  0.60355781  0.38208086  0.76437549  1
  Na  Na3  1  0.38208086  0.60355781  0.26437549  1
  Na  Na4  1  0.90312139  0.75400521  0.67903192  1
  Na  Na5  1  0.75400521  0.90312139  0.17903192  1
  Sc  Sc6  1  0.85443138  0.34816836  0.94344447  1
  Sc  Sc7  1  0.34816836  0.85443138  0.44344447  1
  Sc  Sc8  1  0.15532639  0.64882451  0.04834954  1
  Sc  Sc9  1  0.64882451  0.15532639  0.54834954  1
  P  P10  1  0.53241095  0.75173847  0.75957704  1
  P  P11  1  0.75173847  0.53241095  0.25957704  1
  P  P12  1  0.46925542  0.25042792  0.23701191  1
  P  P13  1  0.25042792  0.46925542  0.73701191  1
  P  P14  1  0.95189146  0.04333556  0.74948957  1
  P  P15  1  0.04333556  0.95189146  0.24948957  1
  O  O16  1  0.77788774  0.05750662  0.73817335  1
  O  O17  1  0.05750662  0.77788774  0.23817335  1
  O  O18  1  0.22678567  0.92204800  0.25534910  1
  O  O19  1  0.92204800  0.22678567  0.75534910  1
  O  O20  1  0.37671641  0.74014889  0.93704223  1
  O  O21  1  0.74014889  0.37671641  0.43704223  1
  O  O22  1  0.62663139  0.26165931  0.06219679  1
  O  O23  1  0.26165931  0.62663139  0.56219579  1
  O  O24  1  0.48337803  0.74965697  0.62124572  1
  O  O25  1  0.74965697  0.48337803  0.12124572  1
  O  O26  1  0.51441554  0.26017598  0.37420394  1
  O  O27  1  0.26017598  0.51441554  0.87420394  1
  O  O28  1  0.56877289  0.92547062  0.70521059  1
  O  O29  1  0.92547062  0.56877289  0.20521059  1
  O  O30  1  0.44296122  0.07057319  0.29648806  1
  O  O31  1  0.07057319  0.44296122  0.79648806  1
  O  O32  1  0.70777623  0.58659432  0.78097503  1
  O  O33  1  0.58659432  0.70777623  0.28097503  1
  O  O34  1  0.29198486  0.41275077  0.21753468  1
  O  O35  1  0.41275077  0.29198486  0.71753468  1
  O  O36  1  0.98956982  0.88574503  0.91407539  1
  O  O37  1  0.88574503  0.98956982  0.41407539  1
  O  O38  1  0.01189381  0.11131119  0.08259703  1
  O  O39  1  0.11131119  0.01189381  0.58259703  1
