# generated using pymatgen
data_K2MgV2O7
_symmetry_space_group_name_H-M   'P 1'
_cell_length_a   8.38034339
_cell_length_b   8.38034339
_cell_length_c   11.33005932
_cell_angle_alpha   90.00000000
_cell_angle_beta   90.00000000
_cell_angle_gamma   90.00000000
_symmetry_Int_Tables_number   1
_chemical_formula_structural   K2MgV2O7
_chemical_formula_sum   'K8 Mg4 V8 O28'
_cell_volume   795.71182599
_cell_formula_units_Z   4
loop_
 _symmetry_equiv_pos_site_id
 _symmetry_equiv_pos_as_xyz
  1  'x, y, z'
loop_
 _atom_site_type_symbol
 _atom_site_label
 _atom_site_symmetry_multiplicity
 _atom_site_fract_x
 _atom_site_fract_y
 _atom_site_fract_z
 _atom_site_occupancy
  K  K0  1  0.81941926  0.81941926  -0.00000000  1
  K  K1  1  0.68058074  0.31941926  0.50000000  1
  K  K2  1  0.31941926  0.68058074  0.50000000  1
  K  K3  1  0.18058074  0.18058074  -0.00000000  1
  K  K4  1  0.64601049  0.35398951  -0.00000000  1
  K  K5  1  0.14601049  0.14601049  0.50000000  1
  K  K6  1  0.85398951  0.85398951  0.50000000  1
  K  K7  1  0.35398951  0.64601049  -0.00000000  1
  Mg  Mg8  1  -0.00000000  0.50000000  0.75000000  1
  Mg  Mg9  1  -0.00000000  0.50000000  0.25000000  1
  Mg  Mg10  1  0.50000000  -0.00000000  0.75000000  1
  Mg  Mg11  1  0.50000000  -0.00000000  0.25000000  1
  V  V12  1  0.64205348  0.64205348  0.71186259  1
  V  V13  1  0.35794652  0.35794652  0.71186259  1
  V  V14  1  0.64205348  0.64205348  0.28813741  1
  V  V15  1  0.14205348  0.85794652  0.21186259  1
  V  V16  1  0.85794652  0.14205348  0.21186259  1
  V  V17  1  0.85794652  0.14205348  0.78813741  1
  V  V18  1  0.14205348  0.85794652  0.78813741  1
  V  V19  1  0.35794652  0.35794652  0.28813741  1
  O  O20  1  0.64086395  0.64086395  0.85843527  1
  O  O21  1  0.35913605  0.35913605  0.85843527  1
  O  O22  1  0.64086395  0.64086395  0.14156473  1
  O  O23  1  0.14086395  0.85913605  0.35843527  1
  O  O24  1  0.85913605  0.14086395  0.35843527  1
  O  O25  1  0.85913605  0.14086395  0.64156473  1
  O  O26  1  0.14086395  0.85913605  0.64156473  1
  O  O27  1  0.35913605  0.35913605  0.14156473  1
  O  O28  1  0.41120302  0.17550796  0.34346676  1
  O  O29  1  0.58879698  0.82449204  0.34346676  1
  O  O30  1  0.17550796  0.41120302  0.65653324  1
  O  O31  1  0.67550796  0.08879698  0.84346676  1
  O  O32  1  0.32449204  0.91120302  0.84346676  1
  O  O33  1  0.08879698  0.67550796  0.15653324  1
  O  O34  1  0.91120302  0.32449204  0.15653324  1
  O  O35  1  0.82449204  0.58879698  0.65653324  1
  O  O36  1  0.58879698  0.82449204  0.65653324  1
  O  O37  1  0.41120302  0.17550796  0.65653324  1
  O  O38  1  0.82449204  0.58879698  0.34346676  1
  O  O39  1  0.32449204  0.91120302  0.15653324  1
  O  O40  1  -0.00000000  -0.00000000  0.15436045  1
  O  O41  1  0.50000000  0.50000000  0.65436045  1
  O  O42  1  0.50000000  0.50000000  0.34563955  1
  O  O43  1  -0.00000000  -0.00000000  0.84563955  1
  O  O44  1  0.17550796  0.41120302  0.34346676  1
  O  O45  1  0.08879698  0.67550796  0.84346676  1
  O  O46  1  0.91120302  0.32449204  0.84346676  1
  O  O47  1  0.67550796  0.08879698  0.15653324  1
