# generated using pymatgen
data_CsMoO2F3
_symmetry_space_group_name_H-M   'P 1'
_cell_length_a   5.59936161
_cell_length_b   6.39824871
_cell_length_c   8.26978970
_cell_angle_alpha   112.75830968
_cell_angle_beta   109.78813744
_cell_angle_gamma   90.00000000
_symmetry_Int_Tables_number   1
_chemical_formula_structural   CsMoO2F3
_chemical_formula_sum   'Cs2 Mo2 O4 F6'
_cell_volume   254.13015673
_cell_formula_units_Z   2
loop_
 _symmetry_equiv_pos_site_id
 _symmetry_equiv_pos_as_xyz
  1  'x, y, z'
loop_
 _atom_site_type_symbol
 _atom_site_label
 _atom_site_symmetry_multiplicity
 _atom_site_fract_x
 _atom_site_fract_y
 _atom_site_fract_z
 _atom_site_occupancy
  Cs  Cs0  1  0.36906356  0.11906356  0.73812811  1
  Cs  Cs1  1  0.63093644  0.88093644  0.26187189  1
  Mo  Mo2  1  0.86584851  0.61584851  0.73169702  1
  Mo  Mo3  1  0.13415149  0.38415149  0.26830298  1
  O  O4  1  0.70545462  0.69067852  0.88135703  1
  O  O5  1  0.82409759  0.30932148  0.11864297  1
  O  O6  1  0.29454538  0.30932148  0.11864297  1
  O  O7  1  0.17590241  0.69067852  0.88135703  1
  F  F8  1  0.50000000  0.50000000  0.50000000  1
  F  F9  1  0.00000000  0.50000000  0.50000000  1
  F  F10  1  0.83401910  0.87478940  0.66803920  1
  F  F11  1  0.16598090  0.12521060  0.33196080  1
  F  F12  1  0.16598090  0.70675019  0.33196080  1
  F  F13  1  0.83401910  0.29324981  0.66803920  1
