# generated using pymatgen
data_Li3Er3(TeO6)2
_symmetry_space_group_name_H-M   'P 1'
_cell_length_a   10.54511761
_cell_length_b   10.54511761
_cell_length_c   10.54511761
_cell_angle_alpha   109.47122063
_cell_angle_beta   109.47122063
_cell_angle_gamma   109.47122063
_symmetry_Int_Tables_number   1
_chemical_formula_structural   Li3Er3(TeO6)2
_chemical_formula_sum   'Li12 Er12 Te8 O48'
_cell_volume   902.67703244
_cell_formula_units_Z   4
loop_
 _symmetry_equiv_pos_site_id
 _symmetry_equiv_pos_as_xyz
  1  'x, y, z'
loop_
 _atom_site_type_symbol
 _atom_site_label
 _atom_site_symmetry_multiplicity
 _atom_site_fract_x
 _atom_site_fract_y
 _atom_site_fract_z
 _atom_site_occupancy
  Li  Li0  1  0.25000000  0.62500000  0.37500000  1
  Li  Li1  1  0.75000000  0.37500000  0.62500000  1
  Li  Li2  1  0.75000000  0.87500000  0.12500000  1
  Li  Li3  1  0.37500000  0.25000000  0.62500000  1
  Li  Li4  1  0.62500000  0.75000000  0.37500000  1
  Li  Li5  1  0.25000000  0.12500000  0.87500000  1
  Li  Li6  1  0.12500000  0.75000000  0.87500000  1
  Li  Li7  1  0.87500000  0.25000000  0.12500000  1
  Li  Li8  1  0.62500000  0.37500000  0.25000000  1
  Li  Li9  1  0.37500000  0.62500000  0.75000000  1
  Li  Li10  1  0.87500000  0.12500000  0.75000000  1
  Li  Li11  1  0.12500000  0.87500000  0.25000000  1
  Er  Er12  1  0.25000000  0.37500000  0.12500000  1
  Er  Er13  1  0.75000000  0.62500000  0.87500000  1
  Er  Er14  1  0.75000000  0.12500000  0.37500000  1
  Er  Er15  1  0.12500000  0.25000000  0.37500000  1
  Er  Er16  1  0.37500000  0.75000000  0.12500000  1
  Er  Er17  1  0.25000000  0.87500000  0.62500000  1
  Er  Er18  1  0.87500000  0.75000000  0.62500000  1
  Er  Er19  1  0.62500000  0.25000000  0.87500000  1
  Er  Er20  1  0.37500000  0.12500000  0.25000000  1
  Er  Er21  1  0.62500000  0.87500000  0.75000000  1
  Er  Er22  1  0.12500000  0.37500000  0.75000000  1
  Er  Er23  1  0.87500000  0.62500000  0.25000000  1
  Te  Te24  1  0.00000000  0.00000000  0.00000000  1
  Te  Te25  1  0.50000000  0.00000000  0.50000000  1
  Te  Te26  1  0.00000000  0.50000000  0.50000000  1
  Te  Te27  1  0.50000000  0.00000000  0.00000000  1
  Te  Te28  1  0.50000000  0.50000000  0.00000000  1
  Te  Te29  1  0.50000000  0.50000000  0.50000000  1
  Te  Te30  1  0.00000000  0.00000000  0.50000000  1
  Te  Te31  1  0.00000000  0.50000000  0.00000000  1
  O  O32  1  0.47207593  0.37940917  0.29970281  1
  O  O33  1  0.52792407  0.62059083  0.70029719  1
  O  O34  1  0.57970636  0.17237312  0.20029719  1
  O  O35  1  0.92029364  0.12059083  0.59266676  1
  O  O36  1  0.29970281  0.47207593  0.37940917  1
  O  O37  1  0.32762688  0.92029364  0.29970281  1
  O  O38  1  0.42029364  0.82762688  0.79970281  1
  O  O39  1  0.07970636  0.87940917  0.40733224  1
  O  O40  1  0.70029719  0.52792407  0.62059083  1
  O  O41  1  0.67237312  0.07970636  0.70029719  1
  O  O42  1  0.02792407  0.32762688  0.90733324  1
  O  O43  1  0.20029719  0.57970636  0.17237312  1
  O  O44  1  0.12059083  0.02792407  0.20029719  1
  O  O45  1  0.97207593  0.67237312  0.09266776  1
  O  O46  1  0.79970281  0.42029364  0.82762688  1
  O  O47  1  0.87940917  0.97207593  0.79970281  1
  O  O48  1  0.59266676  0.92029364  0.12059083  1
  O  O49  1  0.17237312  0.47207593  0.59266776  1
  O  O50  1  0.40733224  0.07970636  0.87940917  1
  O  O51  1  0.82762688  0.52792407  0.40733324  1
  O  O52  1  0.90733224  0.02792407  0.32762688  1
  O  O53  1  0.37940917  0.57970636  0.90733324  1
  O  O54  1  0.09266676  0.97207593  0.67237312  1
  O  O55  1  0.62059083  0.42029364  0.09266776  1
  O  O56  1  0.37940917  0.29970281  0.47207593  1
  O  O57  1  0.57970636  0.90733324  0.37940917  1
  O  O58  1  0.62059083  0.70029719  0.52792407  1
  O  O59  1  0.42029364  0.09266676  0.62059083  1
  O  O60  1  0.12059083  0.59266676  0.92029364  1
  O  O61  1  0.02792407  0.20029719  0.12059083  1
  O  O62  1  0.87940917  0.40733224  0.07970636  1
  O  O63  1  0.97207593  0.79970281  0.87940917  1
  O  O64  1  0.32762688  0.90733224  0.02792407  1
  O  O65  1  0.92029364  0.29970281  0.32762688  1
  O  O66  1  0.67237312  0.09266676  0.97207593  1
  O  O67  1  0.07970636  0.70029719  0.67237312  1
  O  O68  1  0.17237312  0.20029719  0.57970636  1
  O  O69  1  0.47207593  0.59266676  0.17237312  1
  O  O70  1  0.82762688  0.79970281  0.42029364  1
  O  O71  1  0.52792407  0.40733224  0.82762688  1
  O  O72  1  0.29970281  0.32762688  0.92029364  1
  O  O73  1  0.70029719  0.67237312  0.07970636  1
  O  O74  1  0.20029719  0.12059083  0.02792407  1
  O  O75  1  0.79970281  0.87940917  0.97207593  1
  O  O76  1  0.90733224  0.37940917  0.57970636  1
  O  O77  1  0.09266676  0.62059083  0.42029364  1
  O  O78  1  0.59266776  0.17237312  0.47207593  1
  O  O79  1  0.40733224  0.82762688  0.52792407  1
