# generated using pymatgen
data_HfCdO3
_symmetry_space_group_name_H-M   'P 1'
_cell_length_a   5.49403226
_cell_length_b   5.65745168
_cell_length_c   7.95897904
_cell_angle_alpha   90.00000000
_cell_angle_beta   90.00000000
_cell_angle_gamma   90.00000000
_symmetry_Int_Tables_number   1
_chemical_formula_structural   HfCdO3
_chemical_formula_sum   'Hf4 Cd4 O12'
_cell_volume   247.38275373
_cell_formula_units_Z   4
loop_
 _symmetry_equiv_pos_site_id
 _symmetry_equiv_pos_as_xyz
  1  'x, y, z'
loop_
 _atom_site_type_symbol
 _atom_site_label
 _atom_site_symmetry_multiplicity
 _atom_site_fract_x
 _atom_site_fract_y
 _atom_site_fract_z
 _atom_site_occupancy
  Hf  Hf0  1  -0.00000000  -0.00000000  0.00000000  1
  Hf  Hf1  1  0.50000000  0.50000000  0.00000000  1
  Hf  Hf2  1  -0.00000000  -0.00000000  0.50000000  1
  Hf  Hf3  1  0.50000000  0.50000000  0.50000000  1
  Cd  Cd4  1  0.01049482  0.45468192  0.25000000  1
  Cd  Cd5  1  0.98950518  0.54531808  0.75000000  1
  Cd  Cd6  1  0.51049482  0.04531808  0.75000000  1
  Cd  Cd7  1  0.48950518  0.95468192  0.25000000  1
  O  O8  1  0.30825682  0.19539614  0.05743702  1
  O  O9  1  0.69174318  0.80460386  0.94256298  1
  O  O10  1  0.80825682  0.30460386  0.94256298  1
  O  O11  1  0.69174318  0.80460386  0.55743702  1
  O  O12  1  0.19174318  0.69539614  0.05743702  1
  O  O13  1  0.30825682  0.19539614  0.44256298  1
  O  O14  1  0.19174318  0.69539614  0.44256298  1
  O  O15  1  0.80825682  0.30460386  0.55743702  1
  O  O16  1  0.60798625  0.54538394  0.25000000  1
  O  O17  1  0.39201375  0.45461606  0.75000000  1
  O  O18  1  0.10798625  0.95461606  0.75000000  1
  O  O19  1  0.89201375  0.04538394  0.25000000  1
