# generated using pymatgen
data_Rb2YCl5
_symmetry_space_group_name_H-M   'P 1'
_cell_length_a   7.36078105
_cell_length_b   9.38573691
_cell_length_c   14.76368667
_cell_angle_alpha   90.00000000
_cell_angle_beta   90.00000000
_cell_angle_gamma   90.00000000
_symmetry_Int_Tables_number   1
_chemical_formula_structural   Rb2YCl5
_chemical_formula_sum   'Rb8 Y4 Cl20'
_cell_volume   1019.96928935
_cell_formula_units_Z   4
loop_
 _symmetry_equiv_pos_site_id
 _symmetry_equiv_pos_as_xyz
  1  'x, y, z'
loop_
 _atom_site_type_symbol
 _atom_site_label
 _atom_site_symmetry_multiplicity
 _atom_site_fract_x
 _atom_site_fract_y
 _atom_site_fract_z
 _atom_site_occupancy
  Rb  Rb0  1  0.25000000  0.66821508  0.91622754  1
  Rb  Rb1  1  0.75000000  0.33178492  0.08377246  1
  Rb  Rb2  1  0.75000000  0.83178492  0.41622754  1
  Rb  Rb3  1  0.25000000  0.16821508  0.58377246  1
  Rb  Rb4  1  0.25000000  0.97079925  0.20947250  1
  Rb  Rb5  1  0.75000000  0.02920075  0.79052750  1
  Rb  Rb6  1  0.75000000  0.52920075  0.70947250  1
  Rb  Rb7  1  0.25000000  0.47079925  0.29052750  1
  Y  Y8  1  0.25000000  0.68970328  0.56336554  1
  Y  Y9  1  0.75000000  0.31029672  0.43663446  1
  Y  Y10  1  0.75000000  0.81029672  0.06336554  1
  Y  Y11  1  0.25000000  0.18970328  0.93663446  1
  Cl  Cl12  1  0.25000000  0.53325118  0.70768358  1
  Cl  Cl13  1  0.75000000  0.46674882  0.29231642  1
  Cl  Cl14  1  0.75000000  0.96674882  0.20768358  1
  Cl  Cl15  1  0.25000000  0.03325118  0.79231642  1
  Cl  Cl16  1  0.51067791  0.85274044  0.61301972  1
  Cl  Cl17  1  0.48932209  0.14725956  0.38698028  1
  Cl  Cl18  1  0.48932209  0.64725956  0.11301972  1
  Cl  Cl19  1  0.01067791  0.14725956  0.38698028  1
  Cl  Cl20  1  0.51067791  0.35274044  0.88698028  1
  Cl  Cl21  1  0.98932209  0.85274044  0.61301972  1
  Cl  Cl22  1  0.98932209  0.35274044  0.88698028  1
  Cl  Cl23  1  0.01067791  0.64725956  0.11301972  1
  Cl  Cl24  1  0.25000000  0.78361478  0.39483113  1
  Cl  Cl25  1  0.75000000  0.21638522  0.60516887  1
  Cl  Cl26  1  0.75000000  0.71638522  0.89483113  1
  Cl  Cl27  1  0.25000000  0.28361478  0.10516887  1
  Cl  Cl28  1  0.00000000  0.50000000  0.50000000  1
  Cl  Cl29  1  0.00000000  -0.00000000  -0.00000000  1
  Cl  Cl30  1  0.50000000  0.50000000  0.50000000  1
  Cl  Cl31  1  0.50000000  -0.00000000  -0.00000000  1
