# generated using pymatgen
data_Mg4FeO5
_symmetry_space_group_name_H-M   'P 1'
_cell_length_a   5.95687073
_cell_length_b   8.97845452
_cell_length_c   7.33272876
_cell_angle_alpha   105.83195832
_cell_angle_beta   89.33212131
_cell_angle_gamma   89.74811859
_symmetry_Int_Tables_number   1
_chemical_formula_structural   Mg4FeO5
_chemical_formula_sum   'Mg16 Fe4 O20'
_cell_volume   377.26564823
_cell_formula_units_Z   4
loop_
 _symmetry_equiv_pos_site_id
 _symmetry_equiv_pos_as_xyz
  1  'x, y, z'
loop_
 _atom_site_type_symbol
 _atom_site_label
 _atom_site_symmetry_multiplicity
 _atom_site_fract_x
 _atom_site_fract_y
 _atom_site_fract_z
 _atom_site_occupancy
  Mg  Mg0  1  0.25357107  0.70064746  0.90228932  1
  Mg  Mg1  1  0.99957141  0.20282268  0.40580124  1
  Mg  Mg2  1  0.75557255  0.70219239  0.90158670  1
  Mg  Mg3  1  0.49976951  0.20072127  0.40331814  1
  Mg  Mg4  1  0.74641375  0.29938106  0.09771451  1
  Mg  Mg5  1  0.50025869  0.79928098  0.59669323  1
  Mg  Mg6  1  0.24441909  0.29778700  0.09841470  1
  Mg  Mg7  1  0.00054800  0.79716575  0.59418449  1
  Mg  Mg8  1  0.49680709  0.39990464  0.80001861  1
  Mg  Mg9  1  0.24889870  0.90390438  0.29943830  1
  Mg  Mg10  1  0.99660705  0.39999976  0.80017115  1
  Mg  Mg11  1  0.75252813  0.90189632  0.30099220  1
  Mg  Mg12  1  0.50318959  0.60010056  0.19998635  1
  Mg  Mg13  1  0.24748309  0.09808498  0.69902948  1
  Mg  Mg14  1  0.00341134  0.59999959  0.19982798  1
  Mg  Mg15  1  0.75111925  0.09609676  0.70053244  1
  Fe  Fe16  1  0.49988770  0.99999869  0.99998305  1
  Fe  Fe17  1  0.25107529  0.49984121  0.49986087  1
  Fe  Fe18  1  0.74906918  0.50015086  0.50015929  1
  Fe  Fe19  1  0.99968508  0.00002273  0.00000185  1
  O  O20  1  0.74858803  0.50002868  0.99955372  1
  O  O21  1  0.50001103  0.00000673  0.50000198  1
  O  O22  1  0.25141739  0.49996111  0.00045362  1
  O  O23  1  0.00002915  0.00000398  0.49999994  1
  O  O24  1  0.49819224  0.19717339  0.90146384  1
  O  O25  1  0.25243980  0.70436219  0.39533439  1
  O  O26  1  0.99809704  0.20413185  0.89834145  1
  O  O27  1  0.75067718  0.70355552  0.39436200  1
  O  O28  1  0.50184378  0.80282410  0.09853431  1
  O  O29  1  0.24931293  0.29644594  0.60562542  1
  O  O30  1  0.00190403  0.79585866  0.10165419  1
  O  O31  1  0.74756240  0.29564540  0.60466243  1
  O  O32  1  0.51011060  0.60248016  0.70586584  1
  O  O33  1  0.24917706  0.10695065  0.21218997  1
  O  O34  1  0.01112930  0.60138962  0.70497770  1
  O  O35  1  0.75611318  0.10397452  0.20717127  1
  O  O36  1  0.48989493  0.39751738  0.29415903  1
  O  O37  1  0.24390352  0.89605347  0.79286700  1
  O  O38  1  0.98885369  0.39860664  0.29502898  1
  O  O39  1  0.75085417  0.89303195  0.78775202  1
