# generated using pymatgen
data_MgV8O16
_symmetry_space_group_name_H-M   'P 1'
_cell_length_a   5.20382262
_cell_length_b   5.89989822
_cell_length_c   10.38125230
_cell_angle_alpha   90.02024998
_cell_angle_beta   90.01798450
_cell_angle_gamma   87.27568728
_symmetry_Int_Tables_number   1
_chemical_formula_structural   MgV8O16
_chemical_formula_sum   'Mg1 V8 O16'
_cell_volume   318.36519685
_cell_formula_units_Z   1
loop_
 _symmetry_equiv_pos_site_id
 _symmetry_equiv_pos_as_xyz
  1  'x, y, z'
loop_
 _atom_site_type_symbol
 _atom_site_label
 _atom_site_symmetry_multiplicity
 _atom_site_fract_x
 _atom_site_fract_y
 _atom_site_fract_z
 _atom_site_occupancy
  Mg  Mg0  1  0.15430800  0.25402100  0.25001300  1
  V  V1  1  0.48949800  0.75621700  0.47984700  1
  V  V2  1  0.48950300  0.75621300  0.01997300  1
  V  V3  1  0.51218100  0.25186900  0.50202100  1
  V  V4  1  0.51209800  0.25184700  0.99808000  1
  V  V5  1  0.99832900  0.50176800  0.50412300  1
  V  V6  1  0.00497300  0.99563800  0.99603400  1
  V  V7  1  0.00510400  0.99560800  0.50394100  1
  V  V8  1  0.99829800  0.50183800  0.99595300  1
  O  O9  1  0.84338100  0.74197400  0.40322500  1
  O  O10  1  0.84348900  0.74217100  0.09677000  1
  O  O11  1  0.16848200  0.25958500  0.59139800  1
  O  O12  1  0.16819400  0.25949000  0.90860600  1
  O  O13  1  0.18186900  0.74119600  0.58923900  1
  O  O14  1  0.18158600  0.74126900  0.91078500  1
  O  O15  1  0.84744400  0.25217000  0.39706900  1
  O  O16  1  0.84765600  0.25236600  0.10301300  1
  O  O17  1  0.65427600  0.50979400  0.58392800  1
  O  O18  1  0.64314000  0.99979000  0.91476500  1
  O  O19  1  0.33533800  0.00764300  0.38888500  1
  O  O20  1  0.32525000  0.48014600  0.10817600  1
  O  O21  1  0.32519300  0.47989900  0.39181800  1
  O  O22  1  0.33549800  0.00779000  0.11111600  1
  O  O23  1  0.64322200  0.99987100  0.58522900  1
  O  O24  1  0.65418800  0.50983000  0.91599700  1
