# generated using pymatgen
data_CsNdS2
_symmetry_space_group_name_H-M   'P 1'
_cell_length_a   4.23005363
_cell_length_b   4.23005441
_cell_length_c   16.19660256
_cell_angle_alpha   90.00000941
_cell_angle_beta   89.99998571
_cell_angle_gamma   119.99984294
_symmetry_Int_Tables_number   1
_chemical_formula_structural   CsNdS2
_chemical_formula_sum   'Cs2 Nd2 S4'
_cell_volume   250.98459795
_cell_formula_units_Z   2
loop_
 _symmetry_equiv_pos_site_id
 _symmetry_equiv_pos_as_xyz
  1  'x, y, z'
loop_
 _atom_site_type_symbol
 _atom_site_label
 _atom_site_symmetry_multiplicity
 _atom_site_fract_x
 _atom_site_fract_y
 _atom_site_fract_z
 _atom_site_occupancy
  Cs  Cs0  1  0.66668048  0.33332045  0.74999999  1
  Cs  Cs1  1  0.33331952  0.66667955  0.25000001  1
  Nd  Nd2  1  0.00000000  -0.00000000  0.50000000  1
  Nd  Nd3  1  0.00000000  -0.00000000  0.00000000  1
  S  S4  1  0.66666484  0.33333504  0.09369957  1
  S  S5  1  0.33333516  0.66666496  0.90630043  1
  S  S6  1  0.33333527  0.66666492  0.59369955  1
  S  S7  1  0.66666473  0.33333508  0.40630045  1
