# generated using pymatgen
data_Cs3Y2Cl9
_symmetry_space_group_name_H-M   'P 1'
_cell_length_a   9.75063445
_cell_length_b   9.75063445
_cell_length_c   9.75063447
_cell_angle_alpha   84.57247856
_cell_angle_beta   84.57247856
_cell_angle_gamma   84.57247973
_symmetry_Int_Tables_number   1
_chemical_formula_structural   Cs3Y2Cl9
_chemical_formula_sum   'Cs6 Y4 Cl18'
_cell_volume   915.30979832
_cell_formula_units_Z   2
loop_
 _symmetry_equiv_pos_site_id
 _symmetry_equiv_pos_as_xyz
  1  'x, y, z'
loop_
 _atom_site_type_symbol
 _atom_site_label
 _atom_site_symmetry_multiplicity
 _atom_site_fract_x
 _atom_site_fract_y
 _atom_site_fract_z
 _atom_site_occupancy
  Cs  Cs0  1  0.41082207  0.08917793  0.75000000  1
  Cs  Cs1  1  0.75000000  0.41082207  0.08917793  1
  Cs  Cs2  1  0.08917793  0.75000000  0.41082207  1
  Cs  Cs3  1  0.25000000  0.58917793  0.91082207  1
  Cs  Cs4  1  0.91082207  0.25000000  0.58917793  1
  Cs  Cs5  1  0.58917793  0.91082207  0.25000000  1
  Y  Y6  1  0.85174633  0.85174633  0.85174633  1
  Y  Y7  1  0.35174633  0.35174633  0.35174633  1
  Y  Y8  1  0.14825367  0.14825367  0.14825367  1
  Y  Y9  1  0.64825367  0.64825367  0.64825367  1
  Cl  Cl10  1  0.25000000  0.09706788  0.40293212  1
  Cl  Cl11  1  0.40293212  0.25000000  0.09706788  1
  Cl  Cl12  1  0.09706788  0.40293212  0.25000000  1
  Cl  Cl13  1  0.90293212  0.59706788  0.75000000  1
  Cl  Cl14  1  0.75000000  0.90293212  0.59706788  1
  Cl  Cl15  1  0.59706788  0.75000000  0.90293212  1
  Cl  Cl16  1  0.58473340  0.23672285  0.41983837  1
  Cl  Cl17  1  0.41983837  0.58473340  0.23672285  1
  Cl  Cl18  1  0.23672285  0.41983837  0.58473340  1
  Cl  Cl19  1  0.91983837  0.73672285  0.08473340  1
  Cl  Cl20  1  0.08473340  0.91983837  0.73672285  1
  Cl  Cl21  1  0.73672285  0.08473340  0.91983837  1
  Cl  Cl22  1  0.41526660  0.76327715  0.58016163  1
  Cl  Cl23  1  0.58016163  0.41526660  0.76327715  1
  Cl  Cl24  1  0.76327715  0.58016163  0.41526660  1
  Cl  Cl25  1  0.08016163  0.26327715  0.91526660  1
  Cl  Cl26  1  0.91526660  0.08016163  0.26327715  1
  Cl  Cl27  1  0.26327715  0.91526660  0.08016163  1
