# generated using pymatgen
data_LiMg14BO16
_symmetry_space_group_name_H-M   'P 1'
_cell_length_a   8.39579292
_cell_length_b   8.39579292
_cell_length_c   4.25042969
_cell_angle_alpha   90.00000000
_cell_angle_beta   90.00000000
_cell_angle_gamma   90.00000000
_symmetry_Int_Tables_number   1
_chemical_formula_structural   LiMg14BO16
_chemical_formula_sum   'Li1 Mg14 B1 O16'
_cell_volume   299.60997827
_cell_formula_units_Z   1
loop_
 _symmetry_equiv_pos_site_id
 _symmetry_equiv_pos_as_xyz
  1  'x, y, z'
loop_
 _atom_site_type_symbol
 _atom_site_label
 _atom_site_symmetry_multiplicity
 _atom_site_fract_x
 _atom_site_fract_y
 _atom_site_fract_z
 _atom_site_occupancy
  Li  Li0  1  -0.00000000  0.00000000  0.00000000  1
  Mg  Mg1  1  -0.00000000  0.50000000  0.00000000  1
  Mg  Mg2  1  0.50000000  0.00000000  0.00000000  1
  Mg  Mg3  1  -0.00000000  0.24397935  0.50000000  1
  Mg  Mg4  1  -0.00000000  0.75602065  0.50000000  1
  Mg  Mg5  1  0.50000000  0.25785845  0.50000000  1
  Mg  Mg6  1  0.50000000  0.74214155  0.50000000  1
  Mg  Mg7  1  0.24397935  0.00000000  0.50000000  1
  Mg  Mg8  1  0.25785845  0.50000000  0.50000000  1
  Mg  Mg9  1  0.75602065  -0.00000000  0.50000000  1
  Mg  Mg10  1  0.74214155  0.50000000  0.50000000  1
  Mg  Mg11  1  0.24786648  0.24786648  0.00000000  1
  Mg  Mg12  1  0.24786648  0.75213352  -0.00000000  1
  Mg  Mg13  1  0.75213352  0.24786648  0.00000000  1
  Mg  Mg14  1  0.75213352  0.75213352  -0.00000000  1
  B  B15  1  0.50000000  0.50000000  0.00000000  1
  O  O16  1  0.26335812  0.00000000  -0.00000000  1
  O  O17  1  0.29192099  0.50000000  0.00000000  1
  O  O18  1  0.73664188  -0.00000000  0.00000000  1
  O  O19  1  0.70807901  0.50000000  0.00000000  1
  O  O20  1  0.25111344  0.25111344  0.50000000  1
  O  O21  1  0.25111344  0.74888656  0.50000000  1
  O  O22  1  0.74888656  0.25111344  0.50000000  1
  O  O23  1  0.74888656  0.74888656  0.50000000  1
  O  O24  1  -0.00000000  -0.00000000  0.50000000  1
  O  O25  1  -0.00000000  0.50000000  0.50000000  1
  O  O26  1  0.50000000  -0.00000000  0.50000000  1
  O  O27  1  0.50000000  0.50000000  0.50000000  1
  O  O28  1  -0.00000000  0.26335812  0.00000000  1
  O  O29  1  -0.00000000  0.73664188  -0.00000000  1
  O  O30  1  0.50000000  0.29192099  -0.00000000  1
  O  O31  1  0.50000000  0.70807901  0.00000000  1
