# generated using pymatgen
data_Ba7GeB3BrO13
_symmetry_space_group_name_H-M   'P 1'
_cell_length_a   7.56704942
_cell_length_b   11.33207780
_cell_length_c   20.66018911
_cell_angle_alpha   90.00000000
_cell_angle_beta   90.00000000
_cell_angle_gamma   90.00000000
_symmetry_Int_Tables_number   1
_chemical_formula_structural   Ba7GeB3BrO13
_chemical_formula_sum   'Ba28 Ge4 B12 Br4 O52'
_cell_volume   1771.61933035
_cell_formula_units_Z   4
loop_
 _symmetry_equiv_pos_site_id
 _symmetry_equiv_pos_as_xyz
  1  'x, y, z'
loop_
 _atom_site_type_symbol
 _atom_site_label
 _atom_site_symmetry_multiplicity
 _atom_site_fract_x
 _atom_site_fract_y
 _atom_site_fract_z
 _atom_site_occupancy
  Ba  Ba0  1  0.53231730  0.50000000  0.72565549  1
  Ba  Ba1  1  0.46768270  0.50000000  0.27434451  1
  Ba  Ba2  1  0.96768270  0.50000000  0.22565549  1
  Ba  Ba3  1  0.03231730  0.50000000  0.77434451  1
  Ba  Ba4  1  0.61774637  -0.00000000  0.62764919  1
  Ba  Ba5  1  0.38225363  -0.00000000  0.37235081  1
  Ba  Ba6  1  0.88225363  -0.00000000  0.12764919  1
  Ba  Ba7  1  0.11774637  -0.00000000  0.87235081  1
  Ba  Ba8  1  0.86594680  0.50000000  0.58348846  1
  Ba  Ba9  1  0.13405320  0.50000000  0.41651154  1
  Ba  Ba10  1  0.63405320  0.50000000  0.08348846  1
  Ba  Ba11  1  0.36594680  0.50000000  0.91651154  1
  Ba  Ba12  1  -0.00000000  0.18832309  0.50000000  1
  Ba  Ba13  1  0.50000000  0.81167691  -0.00000000  1
  Ba  Ba14  1  -0.00000000  0.81167691  0.50000000  1
  Ba  Ba15  1  0.50000000  0.18832309  0.00000000  1
  Ba  Ba16  1  0.50000000  0.26921868  0.50000000  1
  Ba  Ba17  1  -0.00000000  0.73078132  0.00000000  1
  Ba  Ba18  1  0.50000000  0.73078132  0.50000000  1
  Ba  Ba19  1  -0.00000000  0.26921868  0.00000000  1
  Ba  Ba20  1  0.20877505  0.23550848  0.68410000  1
  Ba  Ba21  1  0.79122495  0.23550848  0.31590000  1
  Ba  Ba22  1  0.29122495  0.76449152  0.18410000  1
  Ba  Ba23  1  0.70877505  0.76449152  0.81590000  1
  Ba  Ba24  1  0.79122495  0.76449152  0.31590000  1
  Ba  Ba25  1  0.20877505  0.76449152  0.68410000  1
  Ba  Ba26  1  0.70877505  0.23550848  0.81590000  1
  Ba  Ba27  1  0.29122495  0.23550848  0.18410000  1
  Ge  Ge28  1  0.29103096  0.50000000  0.58293064  1
  Ge  Ge29  1  0.70896904  0.50000000  0.41706936  1
  Ge  Ge30  1  0.20896904  0.50000000  0.08293064  1
  Ge  Ge31  1  0.79103096  0.50000000  0.91706936  1
  B  B32  1  0.72600764  0.27825555  0.65958283  1
  B  B33  1  0.27399236  0.27825555  0.34041717  1
  B  B34  1  0.77399236  0.72174445  0.15958283  1
  B  B35  1  0.22600764  0.72174445  0.84041717  1
  B  B36  1  0.27399236  0.72174445  0.34041717  1
  B  B37  1  0.72600764  0.72174445  0.65958283  1
  B  B38  1  0.22600764  0.27825555  0.84041717  1
  B  B39  1  0.77399236  0.27825555  0.15958283  1
  B  B40  1  0.28052304  -0.00000000  0.54870007  1
  B  B41  1  0.71947696  -0.00000000  0.45129993  1
  B  B42  1  0.21947696  -0.00000000  0.04870007  1
  B  B43  1  0.78052304  -0.00000000  0.95129993  1
  Br  Br44  1  0.95336377  -0.00000000  0.72138457  1
  Br  Br45  1  0.04663623  -0.00000000  0.27861543  1
  Br  Br46  1  0.54663623  -0.00000000  0.22138457  1
  Br  Br47  1  0.45336377  -0.00000000  0.77861543  1
  O  O48  1  0.77702979  -0.00000000  0.51513724  1
  O  O49  1  0.22297021  -0.00000000  0.48486276  1
  O  O50  1  0.72297021  -0.00000000  0.01513724  1
  O  O51  1  0.27702979  -0.00000000  0.98486276  1
  O  O52  1  0.33307763  0.64453334  0.80403550  1
  O  O53  1  0.66692237  0.64453334  0.19596450  1
  O  O54  1  0.16692237  0.35546666  0.30403550  1
  O  O55  1  0.83307763  0.35546666  0.69596450  1
  O  O56  1  0.66692237  0.35546666  0.19596450  1
  O  O57  1  0.33307763  0.35546666  0.80403550  1
  O  O58  1  0.83307763  0.64453334  0.69596450  1
  O  O59  1  0.16692237  0.64453334  0.30403550  1
  O  O60  1  0.56697640  0.24169434  0.68689701  1
  O  O61  1  0.43302360  0.24169434  0.31310299  1
  O  O62  1  0.93302360  0.75830566  0.18689701  1
  O  O63  1  0.06697640  0.75830566  0.81310299  1
  O  O64  1  0.43302360  0.75830566  0.31310299  1
  O  O65  1  0.56697640  0.75830566  0.68689701  1
  O  O66  1  0.06697640  0.24169434  0.81310299  1
  O  O67  1  0.93302360  0.24169434  0.18689701  1
  O  O68  1  0.31103234  0.10686256  0.58017375  1
  O  O69  1  0.68896766  0.10686256  0.41982625  1
  O  O70  1  0.18896766  0.89313744  0.08017375  1
  O  O71  1  0.81103234  0.89313744  0.91982625  1
  O  O72  1  0.68896766  0.89313744  0.41982625  1
  O  O73  1  0.31103234  0.89313744  0.58017375  1
  O  O74  1  0.81103234  0.10686256  0.91982625  1
  O  O75  1  0.18896766  0.10686256  0.08017375  1
  O  O76  1  0.77828258  0.24397052  0.59799139  1
  O  O77  1  0.22171742  0.24397052  0.40200861  1
  O  O78  1  0.72171742  0.75602948  0.09799139  1
  O  O79  1  0.27828258  0.75602948  0.90200861  1
  O  O80  1  0.22171742  0.75602948  0.40200861  1
  O  O81  1  0.77828258  0.75602948  0.59799139  1
  O  O82  1  0.27828258  0.24397052  0.90200861  1
  O  O83  1  0.72171742  0.24397052  0.09799139  1
  O  O84  1  0.19376247  0.37433635  0.54557989  1
  O  O85  1  0.80623753  0.37433635  0.45442011  1
  O  O86  1  0.30623753  0.62566365  0.04557989  1
  O  O87  1  0.69376247  0.62566365  0.95442011  1
  O  O88  1  0.80623753  0.62566365  0.45442011  1
  O  O89  1  0.19376247  0.62566365  0.54557989  1
  O  O90  1  0.69376247  0.37433635  0.95442011  1
  O  O91  1  0.30623753  0.37433635  0.04557989  1
  O  O92  1  0.21802095  0.50000000  0.66525088  1
  O  O93  1  0.78197905  0.50000000  0.33474912  1
  O  O94  1  0.28197905  0.50000000  0.16525088  1
  O  O95  1  0.71802095  0.50000000  0.83474912  1
  O  O96  1  0.52333089  0.50000000  0.58075055  1
  O  O97  1  0.47666911  0.50000000  0.41924945  1
  O  O98  1  0.97666911  0.50000000  0.08075055  1
  O  O99  1  0.02333089  0.50000000  0.91924945  1
