# generated using pymatgen
data_BaV2O6
_symmetry_space_group_name_H-M   'P 1'
_cell_length_a   7.64205356
_cell_length_b   7.64202934
_cell_length_c   7.96181936
_cell_angle_alpha   90.00006844
_cell_angle_beta   89.99989606
_cell_angle_gamma   112.29047396
_symmetry_Int_Tables_number   1
_chemical_formula_structural   BaV2O6
_chemical_formula_sum   'Ba3 V6 O18'
_cell_volume   430.23019786
_cell_formula_units_Z   3
loop_
 _symmetry_equiv_pos_site_id
 _symmetry_equiv_pos_as_xyz
  1  'x, y, z'
loop_
 _atom_site_type_symbol
 _atom_site_label
 _atom_site_symmetry_multiplicity
 _atom_site_fract_x
 _atom_site_fract_y
 _atom_site_fract_z
 _atom_site_occupancy
  Ba  Ba0  1  0.83690180  0.16309737  0.49999904  1
  Ba  Ba1  1  0.16309677  0.83690226  0.50000078  1
  Ba  Ba2  1  -0.00000110  0.00000044  -0.00000132  1
  V  V3  1  0.00000062  0.50000107  0.93517282  1
  V  V4  1  0.50000109  -0.00000006  0.06483085  1
  V  V5  1  0.25095201  0.39768292  0.25999363  1
  V  V6  1  0.74904736  0.60231669  0.25999413  1
  V  V7  1  0.60231519  0.74904936  0.74000511  1
  V  V8  1  0.39768329  0.25094991  0.74000629  1
  O  O9  1  0.85745335  0.59101136  0.06195898  1
  O  O10  1  0.14254648  0.40898973  0.06195825  1
  O  O11  1  0.59101019  0.85745313  0.93804153  1
  O  O12  1  0.40898645  0.14254418  0.93804261  1
  O  O13  1  0.82796049  0.50775119  0.41334465  1
  O  O14  1  0.17203871  0.49224735  0.41334549  1
  O  O15  1  0.50774998  0.82796128  0.58665313  1
  O  O16  1  0.49224942  0.17203927  0.58665328  1
  O  O17  1  0.13187557  0.68166422  0.81835464  1
  O  O18  1  0.49999914  0.49999992  0.75495511  1
  O  O19  1  0.50000022  0.50000019  0.24504476  1
  O  O20  1  0.16542988  0.16854244  0.69983326  1
  O  O21  1  0.83456914  0.83145708  0.69983305  1
  O  O22  1  0.86812442  0.31833557  0.81835417  1
  O  O23  1  0.83145572  0.83457100  0.30016441  1
  O  O24  1  0.31834581  0.86812213  0.18165415  1
  O  O25  1  0.68167043  0.13188117  0.18164202  1
  O  O26  1  0.16854459  0.16542884  0.30016417  1
