# generated using pymatgen
data_Na3CaSc3Zn(SiO3)8
_symmetry_space_group_name_H-M   'P 1'
_cell_length_a   5.51977715
_cell_length_b   28.71463942
_cell_length_c   11.28854150
_cell_angle_alpha   38.16292813
_cell_angle_beta   63.66889631
_cell_angle_gamma   69.58910130
_symmetry_Int_Tables_number   1
_chemical_formula_structural   Na3CaSc3Zn(SiO3)8
_chemical_formula_sum   'Na6 Ca2 Sc6 Zn2 Si16 O48'
_cell_volume   990.85000726
_cell_formula_units_Z   2
loop_
 _symmetry_equiv_pos_site_id
 _symmetry_equiv_pos_as_xyz
  1  'x, y, z'
loop_
 _atom_site_type_symbol
 _atom_site_label
 _atom_site_symmetry_multiplicity
 _atom_site_fract_x
 _atom_site_fract_y
 _atom_site_fract_z
 _atom_site_occupancy
  Na  Na0  1  0.25000000  0.35495777  0.29008447  1
  Na  Na1  1  0.25000000  0.60484360  0.29031181  1
  Na  Na2  1  0.25000000  0.85630103  0.28739894  1
  Na  Na3  1  0.75000000  0.39369897  0.71260106  1
  Na  Na4  1  0.75000000  0.64515640  0.70968819  1
  Na  Na5  1  0.75000000  0.89504223  0.70991553  1
  Ca  Ca6  1  0.25000000  0.10965761  0.28068279  1
  Ca  Ca7  1  0.75000000  0.14034239  0.71931721  1
  Sc  Sc8  1  0.25000000  0.30584638  0.88830624  1
  Sc  Sc9  1  0.25000000  0.55207441  0.89585318  1
  Sc  Sc10  1  0.75000000  0.44793072  0.10413957  1
  Sc  Sc11  1  0.25000000  0.80206928  0.89586043  1
  Sc  Sc12  1  0.75000000  0.69792559  0.10414682  1
  Sc  Sc13  1  0.75000000  0.94415362  0.11169376  1
  Zn  Zn14  1  0.25000000  0.05199863  0.89600074  1
  Zn  Zn15  1  0.75000000  0.19800137  0.10399926  1
  Si  Si16  1  0.23486871  0.26290093  0.20980226  1
  Si  Si17  1  0.26513129  0.26290093  0.73859301  1
  Si  Si18  1  0.22533477  0.51360989  0.21085386  1
  Si  Si19  1  0.73486871  0.98709907  0.26140699  1
  Si  Si20  1  0.27466523  0.51360989  0.73470557  1
  Si  Si21  1  0.22582174  0.76508403  0.20773264  1
  Si  Si22  1  0.76513129  0.98709907  0.79019774  1
  Si  Si23  1  0.73815315  0.23566401  0.25913048  1
  Si  Si24  1  0.27417826  0.76508403  0.73192825  1
  Si  Si25  1  0.23815315  0.01433599  0.20179053  1
  Si  Si26  1  0.76184685  0.23566401  0.79820947  1
  Si  Si27  1  0.72582174  0.48491597  0.26807175  1
  Si  Si28  1  0.26184685  0.01433599  0.74086952  1
  Si  Si29  1  0.77417826  0.48491597  0.79226736  1
  Si  Si30  1  0.72533477  0.73639011  0.26529443  1
  Si  Si31  1  0.77466523  0.73639011  0.78914614  1
  O  O32  1  0.09354595  0.25117662  0.67444389  1
  O  O33  1  0.19869986  0.09435674  0.65771956  1
  O  O34  1  0.33586993  0.20670662  0.19399587  1
  O  O35  1  0.10409021  0.50412904  0.66471553  1
  O  O36  1  0.16413007  0.20670662  0.97917766  1
  O  O37  1  0.21950714  0.34381033  0.64754970  1
  O  O38  1  0.59354595  -0.00117662  0.67914835  1
  O  O39  1  0.30130014  0.09435674  0.96485146  1
  O  O40  1  0.33056350  0.45704531  0.19555929  1
  O  O41  1  0.69869986  0.15564326  0.03514754  1
  O  O42  1  0.40645405  0.25117662  0.32085165  1
  O  O43  1  0.83586993  0.04329338  0.02082234  1
  O  O44  1  0.10419725  0.75579706  0.66146297  1
  O  O45  1  0.16943650  0.45704531  0.97625949  1
  O  O46  1  0.22632972  0.59384216  0.64905180  1
  O  O47  1  0.59699879  0.24144904  0.69165762  1
  O  O48  1  0.28049286  0.34381033  0.97721298  1
  O  O49  1  0.66413007  0.04329338  0.80600413  1
  O  O50  1  0.33087119  0.70776464  0.19479083  1
  O  O51  1  0.72608550  0.40507397  0.02805025  1
  O  O52  1  0.39590979  0.50412904  0.31876633  1
  O  O53  1  0.80130014  0.15564326  0.34228044  1
  O  O54  1  0.84060412  0.29785350  0.01814460  1
  O  O55  1  0.09699879  0.00855096  0.65745076  1
  O  O56  1  0.90645405  -0.00117662  0.32555611  1
  O  O57  1  0.16912881  0.70776464  0.97415162  1
  O  O58  1  0.22608550  0.84492603  0.64834815  1
  O  O59  1  0.60419725  0.49420294  0.68465022  1
  O  O60  1  0.27367028  0.59384216  0.97558156  1
  O  O61  1  0.65939588  0.29785350  0.79044240  1
  O  O62  1  0.34060412  0.95214650  0.20955760  1
  O  O63  1  0.72632972  0.65615784  0.02441844  1
  O  O64  1  0.39580275  0.75579706  0.31534978  1
  O  O65  1  0.77391450  0.40507397  0.35165185  1
  O  O66  1  0.83087119  0.54223536  0.02584838  1
  O  O67  1  0.90300121  0.24144904  0.34254924  1
  O  O68  1  0.15939588  0.95214650  0.98185540  1
  O  O69  1  0.60409021  0.74587096  0.68123367  1
  O  O70  1  0.27391450  0.84492603  0.97194975  1
  O  O71  1  0.66912881  0.54223536  0.80520917  1
  O  O72  1  0.71950714  0.90618967  0.02278702  1
  O  O73  1  0.40300121  0.00855096  0.30834238  1
  O  O74  1  0.77367028  0.65615784  0.35094820  1
  O  O75  1  0.83056350  0.79295469  0.02374051  1
  O  O76  1  0.89580275  0.49420294  0.33853703  1
  O  O77  1  0.66943650  0.79295469  0.80444071  1
  O  O78  1  0.78049286  0.90618967  0.35245030  1
  O  O79  1  0.89590979  0.74587096  0.33528447  1
