# generated using pymatgen
data_Ge3F8
_symmetry_space_group_name_H-M   'P 1'
_cell_length_a   4.95938389
_cell_length_b   5.07969646
_cell_length_c   11.67625190
_cell_angle_alpha   90.00000000
_cell_angle_beta   90.84565690
_cell_angle_gamma   90.00000000
_symmetry_Int_Tables_number   1
_chemical_formula_structural   Ge3F8
_chemical_formula_sum   'Ge6 F16'
_cell_volume   294.11802374
_cell_formula_units_Z   2
loop_
 _symmetry_equiv_pos_site_id
 _symmetry_equiv_pos_as_xyz
  1  'x, y, z'
loop_
 _atom_site_type_symbol
 _atom_site_label
 _atom_site_symmetry_multiplicity
 _atom_site_fract_x
 _atom_site_fract_y
 _atom_site_fract_z
 _atom_site_occupancy
  Ge  Ge0  1  0.45316528  0.59384835  0.83138686  1
  Ge  Ge1  1  0.95316528  0.90615165  0.33138686  1
  Ge  Ge2  1  0.54683472  0.40615165  0.16861314  1
  Ge  Ge3  1  0.04683472  0.09384835  0.66861314  1
  Ge  Ge4  1  0.00000000  -0.00000000  -0.00000000  1
  Ge  Ge5  1  0.50000000  0.50000000  0.50000000  1
  F  F6  1  0.16333391  0.69844068  0.94311520  1
  F  F7  1  0.66333391  0.80155932  0.44311520  1
  F  F8  1  0.83666609  0.30155932  0.05688480  1
  F  F9  1  0.33666609  0.19844068  0.55688480  1
  F  F10  1  0.71047516  0.81193968  0.03565403  1
  F  F11  1  0.21047516  0.68806032  0.53565403  1
  F  F12  1  0.28952484  0.18806032  0.96434597  1
  F  F13  1  0.78952484  0.31193968  0.46434597  1
  F  F14  1  0.14600014  0.94240413  0.14005955  1
  F  F15  1  0.64600014  0.55759587  0.64005955  1
  F  F16  1  0.85399986  0.05759587  0.85994045  1
  F  F17  1  0.35399986  0.44240413  0.35994045  1
  F  F18  1  0.33949130  0.92094834  0.75224936  1
  F  F19  1  0.83949130  0.57905166  0.25224936  1
  F  F20  1  0.66050870  0.07905166  0.24775064  1
  F  F21  1  0.16050870  0.42094834  0.74775064  1
