# generated using pymatgen
data_MgCu2B2H8(ClO4)2
_symmetry_space_group_name_H-M   'P 1'
_cell_length_a   5.25332100
_cell_length_b   6.64212140
_cell_length_c   6.63109638
_cell_angle_alpha   89.88417580
_cell_angle_beta   90.00168048
_cell_angle_gamma   89.99894440
_symmetry_Int_Tables_number   1
_chemical_formula_structural   MgCu2B2H8(ClO4)2
_chemical_formula_sum   'Mg1 Cu2 B2 H8 Cl2 O8'
_cell_volume   231.37967176
_cell_formula_units_Z   1
loop_
 _symmetry_equiv_pos_site_id
 _symmetry_equiv_pos_as_xyz
  1  'x, y, z'
loop_
 _atom_site_type_symbol
 _atom_site_label
 _atom_site_symmetry_multiplicity
 _atom_site_fract_x
 _atom_site_fract_y
 _atom_site_fract_z
 _atom_site_occupancy
  Mg  Mg0  1  0.00050900  0.00001400  0.00003000  1
  Cu  Cu1  1  0.59664900  0.00000700  0.50000600  1
  Cu  Cu2  1  0.39979100  0.49999900  0.99999300  1
  B  B3  1  0.49976700  0.50000200  0.49999700  1
  B  B4  1  0.50040200  0.99999700  0.00000000  1
  H  H5  1  0.77511400  0.64149200  0.33435500  1
  H  H6  1  0.77511000  0.35851200  0.66566100  1
  H  H7  1  0.35595100  0.18520300  0.77186400  1
  H  H8  1  0.35599200  0.81477200  0.22812400  1
  H  H9  1  0.22454200  0.33463900  0.35852400  1
  H  H10  1  0.22454100  0.66536800  0.64146300  1
  H  H11  1  0.64595500  0.77191800  0.81608300  1
  H  H12  1  0.64591300  0.22808200  0.18393600  1
  Cl  Cl13  1  0.14053100  0.00000900  0.49997900  1
  Cl  Cl14  1  0.85900300  0.49998700  0.99999400  1
  O  O15  1  0.67937800  0.08587500  0.15001700  1
  O  O16  1  0.67939800  0.91412800  0.85000000  1
  O  O17  1  0.34347100  0.55744800  0.67773300  1
  O  O18  1  0.34347500  0.44255200  0.32225300  1
  O  O19  1  0.32154100  0.14979300  0.91385300  1
  O  O20  1  0.32155500  0.85019600  0.08614000  1
  O  O21  1  0.65569900  0.67762900  0.44203000  1
  O  O22  1  0.65571400  0.32237900  0.55796700  1
