# generated using pymatgen
data_Ni5H2Se6(ClO4)4
_symmetry_space_group_name_H-M   'P 1'
_cell_length_a   8.38591185
_cell_length_b   11.64708767
_cell_length_c   12.63118901
_cell_angle_alpha   116.16946038
_cell_angle_beta   90.00000000
_cell_angle_gamma   111.10021906
_symmetry_Int_Tables_number   1
_chemical_formula_structural   Ni5H2Se6(ClO4)4
_chemical_formula_sum   'Ni10 H4 Se12 Cl8 O32'
_cell_volume   1014.26469604
_cell_formula_units_Z   2
loop_
 _symmetry_equiv_pos_site_id
 _symmetry_equiv_pos_as_xyz
  1  'x, y, z'
loop_
 _atom_site_type_symbol
 _atom_site_label
 _atom_site_symmetry_multiplicity
 _atom_site_fract_x
 _atom_site_fract_y
 _atom_site_fract_z
 _atom_site_occupancy
  Ni  Ni0  1  0.08875413  0.32824389  0.18921243  1
  Ni  Ni1  1  0.76051024  0.67175611  0.31078757  1
  Ni  Ni2  1  0.91124587  0.67175611  0.81078757  1
  Ni  Ni3  1  0.23948976  0.32824389  0.68921243  1
  Ni  Ni4  1  0.96123979  0.51337033  0.12533893  1
  Ni  Ni5  1  0.44787046  0.48662967  0.37466107  1
  Ni  Ni6  1  0.03876021  0.48662967  0.87466107  1
  Ni  Ni7  1  0.55212954  0.51337033  0.62533893  1
  Ni  Ni8  1  -0.00000000  0.00000000  -0.00000000  1
  Ni  Ni9  1  -0.00000000  0.00000000  0.50000000  1
  H  H10  1  0.68307286  0.05403670  0.94306279  1
  H  H11  1  0.62903615  0.94596330  0.55693721  1
  H  H12  1  0.31692714  0.94596330  0.05693721  1
  H  H13  1  0.37096385  0.05403670  0.44306279  1
  Se  Se14  1  0.75144295  0.35896073  0.29177162  1
  Se  Se15  1  0.39248121  0.64103927  0.20822838  1
  Se  Se16  1  0.24855705  0.64103927  0.70822838  1
  Se  Se17  1  0.60751879  0.35896073  0.79177162  1
  Se  Se18  1  0.59028433  0.77126684  0.90391466  1
  Se  Se19  1  0.81901749  0.22873316  0.59608534  1
  Se  Se20  1  0.40971567  0.22873316  0.09608534  1
  Se  Se21  1  0.18098251  0.77126684  0.40391466  1
  Se  Se22  1  0.90262561  0.19486056  0.89948546  1
  Se  Se23  1  0.70776505  0.80513944  0.60051454  1
  Se  Se24  1  0.09737439  0.80513944  0.10051454  1
  Se  Se25  1  0.29223495  0.19486056  0.39948546  1
  Cl  Cl26  1  0.95595889  0.12099680  0.19956599  1
  Cl  Cl27  1  0.83496208  0.87900320  0.30043401  1
  Cl  Cl28  1  0.04404111  0.87900320  0.80043401  1
  Cl  Cl29  1  0.16503792  0.12099680  0.69956599  1
  Cl  Cl30  1  0.16613508  0.47558299  0.40225630  1
  Cl  Cl31  1  0.69055309  0.52441701  0.09774370  1
  Cl  Cl32  1  0.83386492  0.52441701  0.59774370  1
  Cl  Cl33  1  0.30944691  0.47558299  0.90225630  1
  O  O34  1  0.87430706  0.37179856  0.18769463  1
  O  O35  1  0.50250850  0.62820144  0.31230537  1
  O  O36  1  0.12569294  0.62820144  0.81230537  1
  O  O37  1  0.49749150  0.37179856  0.68769463  1
  O  O38  1  0.74054001  0.93198414  0.94735177  1
  O  O39  1  0.80855587  0.06801586  0.55264823  1
  O  O40  1  0.25945999  0.06801586  0.05264823  1
  O  O41  1  0.19144413  0.93198414  0.44735177  1
  O  O42  1  0.03269862  0.19607923  0.00479262  1
  O  O43  1  0.83661940  0.80392077  0.49520738  1
  O  O44  1  0.96730138  0.80392077  0.99520738  1
  O  O45  1  0.16338060  0.19607923  0.50479262  1
  O  O46  1  0.68896490  0.49307563  0.33301173  1
  O  O47  1  0.19588927  0.50692437  0.16698827  1
  O  O48  1  0.31103510  0.50692437  0.66698827  1
  O  O49  1  0.80411073  0.49307563  0.83301173  1
  O  O50  1  0.32908809  0.33003974  0.20528298  1
  O  O51  1  -0.00095265  0.66996026  0.29471702  1
  O  O52  1  0.67091191  0.66996026  0.79471702  1
  O  O53  1  0.00095265  0.33003974  0.70528298  1
  O  O54  1  0.55212834  0.21449230  0.19449276  1
  O  O55  1  0.33763605  0.78550770  0.30550724  1
  O  O56  1  0.44787166  0.78550770  0.80550724  1
  O  O57  1  0.66236395  0.21449230  0.69449276  1
  O  O58  1  0.07370666  0.63665094  0.04737156  1
  O  O59  1  0.43705573  0.36334906  0.45262844  1
  O  O60  1  0.92629334  0.36334906  0.95262844  1
  O  O61  1  0.56294427  0.63665094  0.54737156  1
  O  O62  1  0.69592377  0.13984192  0.93833085  1
  O  O63  1  0.55608185  0.86015808  0.56166915  1
  O  O64  1  0.30407623  0.86015808  0.06166915  1
  O  O65  1  0.44391815  0.13984192  0.43833085  1
