# generated using pymatgen
data_MgFe8(OF)8
_symmetry_space_group_name_H-M   'P 1'
_cell_length_a   5.32923535
_cell_length_b   5.09305462
_cell_length_c   11.67544529
_cell_angle_alpha   90.39679502
_cell_angle_beta   89.23224996
_cell_angle_gamma   90.60588540
_symmetry_Int_Tables_number   1
_chemical_formula_structural   MgFe8(OF)8
_chemical_formula_sum   'Mg1 Fe8 O8 F8'
_cell_volume   316.84249015
_cell_formula_units_Z   1
loop_
 _symmetry_equiv_pos_site_id
 _symmetry_equiv_pos_as_xyz
  1  'x, y, z'
loop_
 _atom_site_type_symbol
 _atom_site_label
 _atom_site_symmetry_multiplicity
 _atom_site_fract_x
 _atom_site_fract_y
 _atom_site_fract_z
 _atom_site_occupancy
  Mg  Mg0  1  0.97023800  0.48614000  0.74195100  1
  Fe  Fe1  1  0.92742100  0.93918600  0.99698700  1
  Fe  Fe2  1  0.06899300  0.06758600  0.24810900  1
  Fe  Fe3  1  0.93946200  0.92650500  0.49825300  1
  Fe  Fe4  1  0.20874700  0.99394800  0.74631400  1
  Fe  Fe5  1  0.58022500  0.42656800  0.12782100  1
  Fe  Fe6  1  0.47530300  0.52392500  0.61377800  1
  Fe  Fe7  1  0.43530000  0.55388700  0.88837100  1
  Fe  Fe8  1  0.42413600  0.57176200  0.36927600  1
  O  O9  1  0.15439000  0.81725500  0.36745200  1
  O  O10  1  0.11816000  0.75754500  0.62337900  1
  O  O11  1  0.13721300  0.75704200  0.87983800  1
  O  O12  1  0.33946100  0.31999700  0.24412500  1
  O  O13  1  0.33014600  0.34670900  0.75511100  1
  O  O14  1  0.65674500  0.68528900  0.00488500  1
  O  O15  1  0.64261500  0.71846800  0.48783300  1
  O  O16  1  0.84715500  0.18231900  0.12197300  1
  F  F17  1  0.15771400  0.81157500  0.11948100  1
  F  F18  1  0.36128400  0.27304100  0.99994400  1
  F  F19  1  0.30844300  0.30711800  0.48254700  1
  F  F20  1  0.67006800  0.69091300  0.24635500  1
  F  F21  1  0.67080300  0.70681900  0.76497800  1
  F  F22  1  0.84278800  0.19271700  0.37350900  1
  F  F23  1  0.83494200  0.23473700  0.62058200  1
  F  F24  1  0.87047200  0.20894700  0.86985900  1
