# generated using pymatgen
data_Li4Fe7(OF7)2
_symmetry_space_group_name_H-M   'P 1'
_cell_length_a   6.14684000
_cell_length_b   6.15558049
_cell_length_c   10.76420876
_cell_angle_alpha   105.69174293
_cell_angle_beta   91.42641944
_cell_angle_gamma   118.72400209
_symmetry_Int_Tables_number   1
_chemical_formula_structural   Li4Fe7(OF7)2
_chemical_formula_sum   'Li4 Fe7 O2 F14'
_cell_volume   338.02361810
_cell_formula_units_Z   1
loop_
 _symmetry_equiv_pos_site_id
 _symmetry_equiv_pos_as_xyz
  1  'x, y, z'
loop_
 _atom_site_type_symbol
 _atom_site_label
 _atom_site_symmetry_multiplicity
 _atom_site_fract_x
 _atom_site_fract_y
 _atom_site_fract_z
 _atom_site_occupancy
  Li  Li0  1  0.35908000  0.65023800  0.44484000  1
  Li  Li1  1  0.62641600  0.81852000  0.05704200  1
  Li  Li2  1  0.37867900  0.18022100  0.94759600  1
  Li  Li3  1  0.62915300  0.33136300  0.55808800  1
  Fe  Fe4  1  0.00310200  0.51509800  0.99073000  1
  Fe  Fe5  1  0.47606200  0.25085300  0.25209400  1
  Fe  Fe6  1  0.01508800  0.77164700  0.24260100  1
  Fe  Fe7  1  0.01327500  0.00544700  0.50297800  1
  Fe  Fe8  1  0.00225300  0.24394300  0.74961700  1
  Fe  Fe9  1  0.01816000  0.24875400  0.25232400  1
  Fe  Fe10  1  0.49869900  0.75225800  0.74841400  1
  O  O11  1  0.22727700  0.33194100  0.37602400  1
  O  O12  1  0.23265300  0.11155500  0.13773600  1
  F  F13  1  0.75460600  0.61930700  0.12087500  1
  F  F14  1  0.26211800  0.61335500  0.63732100  1
  F  F15  1  0.76645100  0.16566900  0.12926900  1
  F  F16  1  0.74907900  0.12456100  0.62996200  1
  F  F17  1  0.24649500  0.14816600  0.62918200  1
  F  F18  1  0.23659100  0.61704400  0.12217600  1
  F  F19  1  0.24369700  0.86329500  0.37872900  1
  F  F20  1  0.74844500  0.86738100  0.37566700  1
  F  F21  1  0.76731400  0.34870600  0.87588500  1
  F  F22  1  0.25343000  0.85773700  0.88134600  1
  F  F23  1  0.75104600  0.65712200  0.61304200  1
  F  F24  1  0.72555200  0.87726700  0.86760300  1
  F  F25  1  0.77124200  0.39855500  0.35360200  1
  F  F26  1  0.24403900  0.37999500  0.87525700  1
