# generated using pymatgen
data_K3NbO8
_symmetry_space_group_name_H-M   'P 1'
_cell_length_a   6.19378575
_cell_length_b   6.19378614
_cell_length_c   6.19378595
_cell_angle_alpha   102.59317867
_cell_angle_beta   113.01588704
_cell_angle_gamma   113.01590371
_symmetry_Int_Tables_number   1
_chemical_formula_structural   K3NbO8
_chemical_formula_sum   'K3 Nb1 O8'
_cell_volume   180.96990938
_cell_formula_units_Z   1
loop_
 _symmetry_equiv_pos_site_id
 _symmetry_equiv_pos_as_xyz
  1  'x, y, z'
loop_
 _atom_site_type_symbol
 _atom_site_label
 _atom_site_symmetry_multiplicity
 _atom_site_fract_x
 _atom_site_fract_y
 _atom_site_fract_z
 _atom_site_occupancy
  K  K0  1  0.50000000  0.25000000  0.75000000  1
  K  K1  1  0.50000000  0.75000000  0.25000000  1
  K  K2  1  0.00000000  0.50000000  0.50000000  1
  Nb  Nb3  1  0.00000000  -0.00000000  0.00000000  1
  O  O4  1  0.57123722  0.80726940  0.80726940  1
  O  O5  1  -0.00000000  0.19273060  0.76396782  1
  O  O6  1  0.00000000  0.76396782  0.19273060  1
  O  O7  1  0.42876278  0.23603218  0.23603218  1
  O  O8  1  0.28438438  0.33470485  0.33470485  1
  O  O9  1  -0.00000000  0.66529515  0.94967853  1
  O  O10  1  0.00000000  0.94967853  0.66529515  1
  O  O11  1  0.71561562  0.05032147  0.05032147  1
