# generated using pymatgen
data_Cs3Sm7Te12
_symmetry_space_group_name_H-M   'P 1'
_cell_length_a   4.53152192
_cell_length_b   13.88235096
_cell_length_c   28.65366925
_cell_angle_alpha   90.00000000
_cell_angle_beta   90.00000000
_cell_angle_gamma   90.00000000
_symmetry_Int_Tables_number   1
_chemical_formula_structural   Cs3Sm7Te12
_chemical_formula_sum   'Cs6 Sm14 Te24'
_cell_volume   1802.55011626
_cell_formula_units_Z   2
loop_
 _symmetry_equiv_pos_site_id
 _symmetry_equiv_pos_as_xyz
  1  'x, y, z'
loop_
 _atom_site_type_symbol
 _atom_site_label
 _atom_site_symmetry_multiplicity
 _atom_site_fract_x
 _atom_site_fract_y
 _atom_site_fract_z
 _atom_site_occupancy
  Cs  Cs0  1  0.50000000  0.02978293  0.37198358  1
  Cs  Cs1  1  0.50000000  0.46144325  0.63404868  1
  Cs  Cs2  1  0.00000000  0.53855675  0.13404868  1
  Cs  Cs3  1  0.00000000  0.97021707  0.87198358  1
  Cs  Cs4  1  0.50000000  0.30804548  0.02730490  1
  Cs  Cs5  1  0.00000000  0.69195452  0.52730490  1
  Sm  Sm6  1  0.50000000  0.66979239  0.31825635  1
  Sm  Sm7  1  0.50000000  0.83225745  0.68215684  1
  Sm  Sm8  1  -0.00000000  0.16774255  0.18215684  1
  Sm  Sm9  1  0.00000000  0.33020761  0.81825635  1
  Sm  Sm10  1  0.50000000  0.33795545  0.28743560  1
  Sm  Sm11  1  0.50000000  0.16014646  0.71275698  1
  Sm  Sm12  1  -0.00000000  0.83985354  0.21275698  1
  Sm  Sm13  1  0.00000000  0.66204455  0.78743560  1
  Sm  Sm14  1  0.50000000  0.25237962  0.50037307  1
  Sm  Sm15  1  0.00000000  0.74762038  0.00037307  1
  Sm  Sm16  1  0.50000000  0.53355320  0.91484676  1
  Sm  Sm17  1  0.50000000  0.96480421  0.08331977  1
  Sm  Sm18  1  0.00000000  0.03519579  0.58331977  1
  Sm  Sm19  1  0.00000000  0.46644680  0.41484676  1
  Te  Te20  1  0.50000000  0.62184206  0.42401052  1
  Te  Te21  1  0.50000000  0.88089323  0.57617787  1
  Te  Te22  1  -0.00000000  0.11910677  0.07617787  1
  Te  Te23  1  -0.00000000  0.37815794  0.92401052  1
  Te  Te24  1  0.50000000  0.32237694  0.17647875  1
  Te  Te25  1  0.50000000  0.17778034  0.82167968  1
  Te  Te26  1  -0.00000000  0.82221966  0.32167968  1
  Te  Te27  1  -0.00000000  0.67762306  0.67647875  1
  Te  Te28  1  0.50000000  0.59132553  0.01979232  1
  Te  Te29  1  0.50000000  0.89985194  0.98064534  1
  Te  Te30  1  -0.00000000  0.10014806  0.48064534  1
  Te  Te31  1  -0.00000000  0.40867447  0.51979232  1
  Te  Te32  1  0.50000000  0.31346715  0.39593740  1
  Te  Te33  1  0.50000000  0.18680227  0.60406644  1
  Te  Te34  1  0.00000000  0.81319773  0.10406644  1
  Te  Te35  1  0.00000000  0.68653285  0.89593740  1
  Te  Te36  1  0.50000000  0.49793951  0.80248277  1
  Te  Te37  1  0.50000000  0.00281359  0.19672655  1
  Te  Te38  1  0.00000000  0.99718641  0.69672655  1
  Te  Te39  1  0.00000000  0.50206049  0.30248277  1
  Te  Te40  1  0.50000000  0.68930581  0.21091038  1
  Te  Te41  1  0.50000000  0.81275706  0.78960746  1
  Te  Te42  1  -0.00000000  0.18724294  0.28960746  1
  Te  Te43  1  -0.00000000  0.31069419  0.71091038  1
