# generated using pymatgen
data_Na3AuS2
_symmetry_space_group_name_H-M   'P 1'
_cell_length_a   7.06164249
_cell_length_b   7.06164290
_cell_length_c   7.06164190
_cell_angle_alpha   64.69879928
_cell_angle_beta   64.69879368
_cell_angle_gamma   64.69879689
_symmetry_Int_Tables_number   1
_chemical_formula_structural   Na3AuS2
_chemical_formula_sum   'Na6 Au2 S4'
_cell_volume   274.61812239
_cell_formula_units_Z   2
loop_
 _symmetry_equiv_pos_site_id
 _symmetry_equiv_pos_as_xyz
  1  'x, y, z'
loop_
 _atom_site_type_symbol
 _atom_site_label
 _atom_site_symmetry_multiplicity
 _atom_site_fract_x
 _atom_site_fract_y
 _atom_site_fract_z
 _atom_site_occupancy
  Na  Na0  1  0.96612834  0.53387166  0.25000000  1
  Na  Na1  1  0.25000000  0.96612834  0.53387166  1
  Na  Na2  1  0.53387166  0.25000000  0.96612834  1
  Na  Na3  1  0.03387166  0.46612834  0.75000000  1
  Na  Na4  1  0.75000000  0.03387166  0.46612834  1
  Na  Na5  1  0.46612834  0.75000000  0.03387166  1
  Au  Au6  1  0.50000000  0.50000000  0.50000000  1
  Au  Au7  1  -0.00000000  0.00000000  -0.00000000  1
  S  S8  1  0.63845393  0.63845393  0.63845393  1
  S  S9  1  0.86154607  0.86154607  0.86154607  1
  S  S10  1  0.13845393  0.13845393  0.13845393  1
  S  S11  1  0.36154607  0.36154607  0.36154607  1
