# generated using pymatgen
data_Ba6Y2Fe4O15
_symmetry_space_group_name_H-M   'P 1'
_cell_length_a   5.99300379
_cell_length_b   8.06644855
_cell_length_c   18.50938436
_cell_angle_alpha   88.79110681
_cell_angle_beta   90.00000000
_cell_angle_gamma   90.00000000
_symmetry_Int_Tables_number   1
_chemical_formula_structural   Ba6Y2Fe4O15
_chemical_formula_sum   'Ba12 Y4 Fe8 O30'
_cell_volume   894.58624950
_cell_formula_units_Z   2
loop_
 _symmetry_equiv_pos_site_id
 _symmetry_equiv_pos_as_xyz
  1  'x, y, z'
loop_
 _atom_site_type_symbol
 _atom_site_label
 _atom_site_symmetry_multiplicity
 _atom_site_fract_x
 _atom_site_fract_y
 _atom_site_fract_z
 _atom_site_occupancy
  Ba  Ba0  1  0.28217591  0.00000000  0.25000000  1
  Ba  Ba1  1  0.71782409  0.00000000  0.75000000  1
  Ba  Ba2  1  0.33145143  0.50000000  0.25000000  1
  Ba  Ba3  1  0.66854857  0.50000000  0.75000000  1
  Ba  Ba4  1  0.74974158  0.97499541  0.08946100  1
  Ba  Ba5  1  0.74974158  0.02500459  0.41053900  1
  Ba  Ba6  1  0.25025842  0.02500459  0.91053900  1
  Ba  Ba7  1  0.25025842  0.97499541  0.58946100  1
  Ba  Ba8  1  0.24647931  0.50042754  0.57711772  1
  Ba  Ba9  1  0.24647931  0.49957246  0.92288228  1
  Ba  Ba10  1  0.75352069  0.49957246  0.42288228  1
  Ba  Ba11  1  0.75352069  0.50042754  0.07711772  1
  Y  Y12  1  0.25204025  0.75390559  0.40946501  1
  Y  Y13  1  0.25204025  0.24609441  0.09053499  1
  Y  Y14  1  0.74795975  0.24609441  0.59053499  1
  Y  Y15  1  0.74795975  0.75390559  0.90946501  1
  Fe  Fe16  1  0.25316253  0.75451703  0.06010934  1
  Fe  Fe17  1  0.25316253  0.24548297  0.43989066  1
  Fe  Fe18  1  0.74683747  0.24548297  0.93989066  1
  Fe  Fe19  1  0.74683747  0.75451703  0.56010934  1
  Fe  Fe20  1  0.77600471  0.76893341  0.26553245  1
  Fe  Fe21  1  0.77600471  0.23106659  0.23446755  1
  Fe  Fe22  1  0.22399529  0.23106659  0.73446755  1
  Fe  Fe23  1  0.22399529  0.76893341  0.76553245  1
  O  O24  1  0.80012503  0.00000000  0.25000000  1
  O  O25  1  0.19987497  0.00000000  0.75000000  1
  O  O26  1  0.76571631  0.95848076  0.60813659  1
  O  O27  1  0.76571631  0.04151924  0.89186341  1
  O  O28  1  0.23428369  0.04151924  0.39186341  1
  O  O29  1  0.23428369  0.95848076  0.10813659  1
  O  O30  1  0.24300122  0.52898501  0.08880307  1
  O  O31  1  0.24300122  0.47101499  0.41119693  1
  O  O32  1  0.75699878  0.47101499  0.91119693  1
  O  O33  1  0.75699878  0.52898501  0.58880307  1
  O  O34  1  0.05240971  0.72346533  0.30752963  1
  O  O35  1  0.05240971  0.27653467  0.19247037  1
  O  O36  1  0.94759029  0.27653467  0.69247037  1
  O  O37  1  0.94759029  0.72346533  0.80752963  1
  O  O38  1  0.55506976  0.74883518  0.33802111  1
  O  O39  1  0.55506976  0.25116482  0.16197889  1
  O  O40  1  0.44493024  0.25116482  0.66197889  1
  O  O41  1  0.44493024  0.74883518  0.83802111  1
  O  O42  1  0.48913661  0.76634635  0.50208328  1
  O  O43  1  0.48913661  0.23365365  0.99791672  1
  O  O44  1  0.51086339  0.23365365  0.49791672  1
  O  O45  1  0.51086339  0.76634635  0.00208328  1
  O  O46  1  0.01542942  0.76786382  0.99235092  1
  O  O47  1  0.01542942  0.23213618  0.50764908  1
  O  O48  1  0.98457058  0.23213618  0.00764908  1
  O  O49  1  0.98457058  0.76786382  0.49235092  1
  O  O50  1  0.34132666  0.69401316  0.68089685  1
  O  O51  1  0.34132666  0.30598684  0.81910315  1
  O  O52  1  0.65867334  0.30598684  0.31910315  1
  O  O53  1  0.65867334  0.69401316  0.18089685  1
