# generated using pymatgen
data_Al4CO4
_symmetry_space_group_name_H-M   'P 1'
_cell_length_a   5.13861225
_cell_length_b   5.13861163
_cell_length_c   9.08764383
_cell_angle_alpha   90.00000000
_cell_angle_beta   90.00000000
_cell_angle_gamma   112.19859657
_symmetry_Int_Tables_number   1
_chemical_formula_structural   Al4CO4
_chemical_formula_sum   'Al8 C2 O8'
_cell_volume   222.17621761
_cell_formula_units_Z   2
loop_
 _symmetry_equiv_pos_site_id
 _symmetry_equiv_pos_as_xyz
  1  'x, y, z'
loop_
 _atom_site_type_symbol
 _atom_site_label
 _atom_site_symmetry_multiplicity
 _atom_site_fract_x
 _atom_site_fract_y
 _atom_site_fract_z
 _atom_site_occupancy
  Al  Al0  1  0.89290217  0.56473712  0.49951880  1
  Al  Al1  1  0.10709783  0.43526288  0.99951880  1
  Al  Al2  1  0.43526288  0.10709783  0.49951880  1
  Al  Al3  1  0.56473712  0.89290217  0.99951880  1
  Al  Al4  1  0.60151191  0.39848809  0.20964874  1
  Al  Al5  1  0.39848809  0.60151191  0.70964874  1
  Al  Al6  1  0.93815096  0.06184904  0.28979757  1
  Al  Al7  1  0.06184904  0.93815096  0.78979757  1
  C  C8  1  0.80472452  0.19527548  0.11517316  1
  C  C9  1  0.19527548  0.80472452  0.61517316  1
  O  O10  1  0.82010667  0.68995552  0.32381139  1
  O  O11  1  0.17989333  0.31004448  0.82381139  1
  O  O12  1  0.31004448  0.17989333  0.32381139  1
  O  O13  1  0.68995552  0.82010667  0.82381139  1
  O  O14  1  0.44201113  0.55798887  0.08902291  1
  O  O15  1  0.55798887  0.44201113  0.58902291  1
  O  O16  1  0.19538788  0.80461212  0.94489823  1
  O  O17  1  0.80461212  0.19538788  0.44489823  1
