# generated using pymatgen
data_MgVFe(P2O7)2
_symmetry_space_group_name_H-M   'P 1'
_cell_length_a   5.00758261
_cell_length_b   8.43126831
_cell_length_c   6.91122483
_cell_angle_alpha   88.77544948
_cell_angle_beta   108.76028056
_cell_angle_gamma   92.24066555
_symmetry_Int_Tables_number   1
_chemical_formula_structural   MgVFe(P2O7)2
_chemical_formula_sum   'Mg1 V1 Fe1 P4 O14'
_cell_volume   276.06832298
_cell_formula_units_Z   1
loop_
 _symmetry_equiv_pos_site_id
 _symmetry_equiv_pos_as_xyz
  1  'x, y, z'
loop_
 _atom_site_type_symbol
 _atom_site_label
 _atom_site_symmetry_multiplicity
 _atom_site_fract_x
 _atom_site_fract_y
 _atom_site_fract_z
 _atom_site_occupancy
  Mg  Mg0  1  0.80377400  0.36289500  0.31741800  1
  V  V1  1  0.22312000  0.50436600  0.74432000  1
  Fe  Fe2  1  0.81815600  0.97505700  0.27667100  1
  P  P3  1  0.38098200  0.18087600  0.53066200  1
  P  P4  1  0.23799500  0.77663900  0.09132200  1
  P  P5  1  0.76294400  0.27985500  0.92810700  1
  P  P6  1  0.62637900  0.67749800  0.48863600  1
  O  O7  1  0.98936900  0.34279800  0.84357200  1
  O  O8  1  0.14901500  0.67960800  0.89621600  1
  O  O9  1  0.17906900  0.03898200  0.48211200  1
  O  O10  1  0.22283600  0.33891400  0.51843300  1
  O  O11  1  0.48362000  0.64029100  0.64710700  1
  O  O12  1  0.58850500  0.41041400  0.98183800  1
  O  O13  1  0.55894700  0.15757800  0.76973100  1
  O  O14  1  0.40024100  0.64614900  0.26383700  1
  O  O15  1  0.43965900  0.91718800  0.09247800  1
  O  O16  1  0.58770400  0.19342500  0.40905500  1
  O  O17  1  0.74143900  0.84707100  0.49609300  1
  O  O18  1  0.85091100  0.55313700  0.49381800  1
  O  O19  1  0.87902900  0.18521600  0.13026600  1
  O  O20  1  0.97913700  0.82319400  0.14445700  1
