# generated using pymatgen
data_CsTb2Cl7
_symmetry_space_group_name_H-M   'P 1'
_cell_length_a   7.00645764
_cell_length_b   12.72291826
_cell_length_c   13.54704878
_cell_angle_alpha   90.00000000
_cell_angle_beta   90.00000000
_cell_angle_gamma   90.00000000
_symmetry_Int_Tables_number   1
_chemical_formula_structural   CsTb2Cl7
_chemical_formula_sum   'Cs4 Tb8 Cl28'
_cell_volume   1207.61898592
_cell_formula_units_Z   4
loop_
 _symmetry_equiv_pos_site_id
 _symmetry_equiv_pos_as_xyz
  1  'x, y, z'
loop_
 _atom_site_type_symbol
 _atom_site_label
 _atom_site_symmetry_multiplicity
 _atom_site_fract_x
 _atom_site_fract_y
 _atom_site_fract_z
 _atom_site_occupancy
  Cs  Cs0  1  0.25000000  0.79998619  0.04090406  1
  Cs  Cs1  1  0.75000000  0.20001381  0.95909594  1
  Cs  Cs2  1  0.75000000  0.29998619  0.45909594  1
  Cs  Cs3  1  0.25000000  0.70001381  0.54090406  1
  Tb  Tb4  1  0.25000000  0.45491871  0.23995638  1
  Tb  Tb5  1  0.75000000  0.54508129  0.76004362  1
  Tb  Tb6  1  0.75000000  0.95491871  0.26004362  1
  Tb  Tb7  1  0.25000000  0.04508129  0.73995638  1
  Tb  Tb8  1  0.25000000  0.15097683  0.24913344  1
  Tb  Tb9  1  0.75000000  0.84902317  0.75086656  1
  Tb  Tb10  1  0.75000000  0.65097683  0.25086656  1
  Tb  Tb11  1  0.25000000  0.34902317  0.74913344  1
  Cl  Cl12  1  0.00861699  0.30179284  0.17934211  1
  Cl  Cl13  1  0.99138301  0.69820716  0.82065789  1
  Cl  Cl14  1  0.99138301  0.80179284  0.32065789  1
  Cl  Cl15  1  0.50861699  0.69820716  0.82065789  1
  Cl  Cl16  1  0.00861699  0.19820716  0.67934211  1
  Cl  Cl17  1  0.49138301  0.30179284  0.17934211  1
  Cl  Cl18  1  0.49138301  0.19820716  0.67934211  1
  Cl  Cl19  1  0.50861699  0.80179284  0.32065789  1
  Cl  Cl20  1  0.00888660  0.56942509  0.12510662  1
  Cl  Cl21  1  0.99111340  0.43057491  0.87489338  1
  Cl  Cl22  1  0.99111340  0.06942509  0.37489338  1
  Cl  Cl23  1  0.50888660  0.43057491  0.87489338  1
  Cl  Cl24  1  0.00888660  0.93057491  0.62510662  1
  Cl  Cl25  1  0.49111340  0.56942509  0.12510662  1
  Cl  Cl26  1  0.49111340  0.93057491  0.62510662  1
  Cl  Cl27  1  0.50888660  0.06942509  0.37489338  1
  Cl  Cl28  1  0.00937670  0.03608859  0.13240957  1
  Cl  Cl29  1  0.99062330  0.96391141  0.86759043  1
  Cl  Cl30  1  0.99062330  0.53608859  0.36759043  1
  Cl  Cl31  1  0.50937670  0.96391141  0.86759043  1
  Cl  Cl32  1  0.00937670  0.46391141  0.63240957  1
  Cl  Cl33  1  0.49062330  0.03608859  0.13240957  1
  Cl  Cl34  1  0.49062330  0.46391141  0.63240957  1
  Cl  Cl35  1  0.50937670  0.53608859  0.36759043  1
  Cl  Cl36  1  0.25000000  0.30529238  0.39080323  1
  Cl  Cl37  1  0.75000000  0.69470762  0.60919677  1
  Cl  Cl38  1  0.75000000  0.80529238  0.10919677  1
  Cl  Cl39  1  0.25000000  0.19470762  0.89080323  1
