# generated using pymatgen
data_MnSeO3
_symmetry_space_group_name_H-M   'P 1'
_cell_length_a   8.27751532
_cell_length_b   5.24718107
_cell_length_c   13.76165274
_cell_angle_alpha   81.27241742
_cell_angle_beta   90.00000000
_cell_angle_gamma   90.00000000
_symmetry_Int_Tables_number   1
_chemical_formula_structural   MnSeO3
_chemical_formula_sum   'Mn8 Se8 O24'
_cell_volume   590.79741054
_cell_formula_units_Z   8
loop_
 _symmetry_equiv_pos_site_id
 _symmetry_equiv_pos_as_xyz
  1  'x, y, z'
loop_
 _atom_site_type_symbol
 _atom_site_label
 _atom_site_symmetry_multiplicity
 _atom_site_fract_x
 _atom_site_fract_y
 _atom_site_fract_z
 _atom_site_occupancy
  Mn  Mn0  1  0.57622348  0.08069071  0.60179275  1
  Mn  Mn1  1  0.07622348  0.91930929  0.89820725  1
  Mn  Mn2  1  0.42377652  0.91930929  0.39820725  1
  Mn  Mn3  1  0.92377652  0.08069071  0.10179275  1
  Mn  Mn4  1  0.76599148  0.47155862  0.74984499  1
  Mn  Mn5  1  0.26599148  0.52844138  0.75015501  1
  Mn  Mn6  1  0.23400852  0.52844138  0.25015501  1
  Mn  Mn7  1  0.73400852  0.47155862  0.24984499  1
  Se  Se8  1  0.78631918  0.63502731  0.49652910  1
  Se  Se9  1  0.28631918  0.36497269  0.00347090  1
  Se  Se10  1  0.21368082  0.36497269  0.50347090  1
  Se  Se11  1  0.71368082  0.63502731  0.99652910  1
  Se  Se12  1  0.46456807  0.01317742  0.81461847  1
  Se  Se13  1  0.96456807  0.98682258  0.68538153  1
  Se  Se14  1  0.53543193  0.98682258  0.18538153  1
  Se  Se15  1  0.03543193  0.01317742  0.31461847  1
  O  O16  1  0.43552390  0.82865433  0.72363550  1
  O  O17  1  0.93552390  0.17134567  0.77636450  1
  O  O18  1  0.56447610  0.17134567  0.27636450  1
  O  O19  1  0.06447610  0.82865433  0.22363550  1
  O  O20  1  0.54577607  0.27062005  0.73877681  1
  O  O21  1  0.04577607  0.72937995  0.76122319  1
  O  O22  1  0.45422393  0.72937995  0.26122319  1
  O  O23  1  0.95422393  0.27062005  0.23877681  1
  O  O24  1  0.27594523  0.14490928  0.82348362  1
  O  O25  1  0.77594523  0.85509072  0.67651638  1
  O  O26  1  0.72405477  0.85509072  0.17651638  1
  O  O27  1  0.22405477  0.14490928  0.32348362  1
  O  O28  1  0.75582657  0.38015183  0.58962841  1
  O  O29  1  0.25582657  0.61984817  0.91037159  1
  O  O30  1  0.24417343  0.61984817  0.41037159  1
  O  O31  1  0.74417343  0.38015183  0.08962841  1
  O  O32  1  0.60787751  0.80735505  0.49834849  1
  O  O33  1  0.10787751  0.19264495  0.00165151  1
  O  O34  1  0.39212249  0.19264495  0.50165151  1
  O  O35  1  0.89212249  0.80735505  0.99834849  1
  O  O36  1  0.76760658  0.49252953  0.39589366  1
  O  O37  1  0.26760658  0.50747047  0.10410634  1
  O  O38  1  0.23239342  0.50747047  0.60410634  1
  O  O39  1  0.73239342  0.49252953  0.89589366  1
