# generated using pymatgen
data_PrGeBO5
_symmetry_space_group_name_H-M   'P 1'
_cell_length_a   6.96564296
_cell_length_b   6.96564283
_cell_length_c   6.78635678
_cell_angle_alpha   90.00000000
_cell_angle_beta   90.00000000
_cell_angle_gamma   119.99999648
_symmetry_Int_Tables_number   1
_chemical_formula_structural   PrGeBO5
_chemical_formula_sum   'Pr3 Ge3 B3 O15'
_cell_volume   285.16074900
_cell_formula_units_Z   3
loop_
 _symmetry_equiv_pos_site_id
 _symmetry_equiv_pos_as_xyz
  1  'x, y, z'
loop_
 _atom_site_type_symbol
 _atom_site_label
 _atom_site_symmetry_multiplicity
 _atom_site_fract_x
 _atom_site_fract_y
 _atom_site_fract_z
 _atom_site_occupancy
  Pr  Pr0  1  0.41616992  0.41379786  0.67026875  1
  Pr  Pr1  1  0.99762894  0.58383008  0.33693475  1
  Pr  Pr2  1  0.58620214  0.00237106  0.00360175  1
  Ge  Ge3  1  0.41702299  0.42281756  0.17058195  1
  Ge  Ge4  1  0.00579357  0.58297701  0.83724795  1
  Ge  Ge5  1  0.57718244  0.99420643  0.50391495  1
  B  B6  1  0.89962675  0.88304499  0.63812877  1
  B  B7  1  0.98341824  0.10037325  0.30479577  1
  B  B8  1  0.11695501  0.01658176  0.97146177  1
  O  O9  1  0.15740137  0.54483787  0.65639784  1
  O  O10  1  0.38743650  0.84259863  0.32306484  1
  O  O11  1  0.45516213  0.61256350  0.98973184  1
  O  O12  1  0.06595409  0.04420816  0.76955848  1
  O  O13  1  0.95579184  0.02174693  0.10289148  1
  O  O14  1  0.97825307  0.93404591  0.43622548  1
  O  O15  1  0.35129073  0.19501344  0.01217880  1
  O  O16  1  0.80498656  0.15627829  0.34551180  1
  O  O17  1  0.84372171  0.64870927  0.67884580  1
  O  O18  1  0.18478106  0.32582207  0.33115112  1
  O  O19  1  0.67417793  0.85895898  0.66448412  1
  O  O20  1  0.14104102  0.81521894  0.99781812  1
  O  O21  1  0.61275651  0.47286606  0.34770029  1
  O  O22  1  0.52713394  0.13989045  0.68103329  1
  O  O23  1  0.86010955  0.38724349  0.01436629  1
