# generated using pymatgen
data_Cs2CoCl4
_symmetry_space_group_name_H-M   'P 1'
_cell_length_a   7.37622009
_cell_length_b   9.82313553
_cell_length_c   12.94976419
_cell_angle_alpha   90.00000000
_cell_angle_beta   90.00000000
_cell_angle_gamma   90.00000000
_symmetry_Int_Tables_number   1
_chemical_formula_structural   Cs2CoCl4
_chemical_formula_sum   'Cs8 Co4 Cl16'
_cell_volume   938.30895865
_cell_formula_units_Z   4
loop_
 _symmetry_equiv_pos_site_id
 _symmetry_equiv_pos_as_xyz
  1  'x, y, z'
loop_
 _atom_site_type_symbol
 _atom_site_label
 _atom_site_symmetry_multiplicity
 _atom_site_fract_x
 _atom_site_fract_y
 _atom_site_fract_z
 _atom_site_occupancy
  Cs  Cs0  1  0.25000000  0.86054819  0.59788793  1
  Cs  Cs1  1  0.25000000  0.36054819  0.90211207  1
  Cs  Cs2  1  0.75000000  0.13945181  0.40211207  1
  Cs  Cs3  1  0.75000000  0.63945181  0.09788793  1
  Cs  Cs4  1  0.25000000  0.52094521  0.32608362  1
  Cs  Cs5  1  0.25000000  0.02094521  0.17391638  1
  Cs  Cs6  1  0.75000000  0.47905479  0.67391638  1
  Cs  Cs7  1  0.75000000  0.97905479  0.82608362  1
  Co  Co8  1  0.25000000  0.26512777  0.57788040  1
  Co  Co9  1  0.25000000  0.76512777  0.92211960  1
  Co  Co10  1  0.75000000  0.73487223  0.42211960  1
  Co  Co11  1  0.75000000  0.23487223  0.07788040  1
  Cl  Cl12  1  0.25000000  0.49314679  0.59881491  1
  Cl  Cl13  1  0.25000000  0.99314679  0.90118509  1
  Cl  Cl14  1  0.75000000  0.50685321  0.40118509  1
  Cl  Cl15  1  0.75000000  0.00685321  0.09881491  1
  Cl  Cl16  1  0.25000000  0.18801281  0.41371273  1
  Cl  Cl17  1  0.25000000  0.68801281  0.08628727  1
  Cl  Cl18  1  0.75000000  0.81198719  0.58628727  1
  Cl  Cl19  1  0.75000000  0.31198719  0.91371273  1
  Cl  Cl20  1  0.49844360  0.17671927  0.65242478  1
  Cl  Cl21  1  0.00155640  0.67671927  0.84757522  1
  Cl  Cl22  1  -0.00155640  0.82328073  0.34757522  1
  Cl  Cl23  1  0.50155640  0.32328073  0.15242478  1
  Cl  Cl24  1  0.50155640  0.82328073  0.34757522  1
  Cl  Cl25  1  -0.00155640  0.32328073  0.15242478  1
  Cl  Cl26  1  0.00155640  0.17671927  0.65242478  1
  Cl  Cl27  1  0.49844360  0.67671927  0.84757522  1
