# generated using pymatgen
data_La2ZrSe5
_symmetry_space_group_name_H-M   'P 1'
_cell_length_a   7.77354927
_cell_length_b   8.57047752
_cell_length_c   12.07556869
_cell_angle_alpha   90.00000000
_cell_angle_beta   90.00000000
_cell_angle_gamma   90.00000000
_symmetry_Int_Tables_number   1
_chemical_formula_structural   La2ZrSe5
_chemical_formula_sum   'La8 Zr4 Se20'
_cell_volume   804.51096628
_cell_formula_units_Z   4
loop_
 _symmetry_equiv_pos_site_id
 _symmetry_equiv_pos_as_xyz
  1  'x, y, z'
loop_
 _atom_site_type_symbol
 _atom_site_label
 _atom_site_symmetry_multiplicity
 _atom_site_fract_x
 _atom_site_fract_y
 _atom_site_fract_z
 _atom_site_occupancy
  La  La0  1  0.94463817  0.00001522  0.17266751  1
  La  La1  1  0.55536183  0.49998478  0.67266751  1
  La  La2  1  0.05536183  0.50001522  0.82733249  1
  La  La3  1  0.44463817  -0.00001522  0.32733249  1
  La  La4  1  0.05536183  -0.00001522  0.82733249  1
  La  La5  1  0.44463817  0.50001522  0.32733249  1
  La  La6  1  0.94463817  0.49998478  0.17266751  1
  La  La7  1  0.55536183  0.00001522  0.67266751  1
  Zr  Zr8  1  0.42498419  0.75000000  0.00954354  1
  Zr  Zr9  1  0.07501581  0.75000000  0.50954354  1
  Zr  Zr10  1  0.57501581  0.25000000  0.99045646  1
  Zr  Zr11  1  0.92498419  0.25000000  0.49045646  1
  Se  Se12  1  0.82393779  0.96408956  0.42446335  1
  Se  Se13  1  0.67606221  0.53591044  0.92446335  1
  Se  Se14  1  0.17606221  0.46408956  0.57553665  1
  Se  Se15  1  0.32393779  0.03591044  0.07553665  1
  Se  Se16  1  0.17606221  0.03591044  0.57553665  1
  Se  Se17  1  0.32393779  0.46408956  0.07553665  1
  Se  Se18  1  0.82393779  0.53591044  0.42446335  1
  Se  Se19  1  0.67606221  0.96408956  0.92446335  1
  Se  Se20  1  0.64292837  0.75000000  0.19066206  1
  Se  Se21  1  0.85707163  0.75000000  0.69066206  1
  Se  Se22  1  0.35707163  0.25000000  0.80933794  1
  Se  Se23  1  0.14292837  0.25000000  0.30933794  1
  Se  Se24  1  0.44352603  0.75000000  0.50472119  1
  Se  Se25  1  0.05647397  0.75000000  0.00472119  1
  Se  Se26  1  0.55647397  0.25000000  0.49527881  1
  Se  Se27  1  0.94352603  0.25000000  0.99527881  1
  Se  Se28  1  0.16131522  0.75000000  0.29131500  1
  Se  Se29  1  0.33868478  0.75000000  0.79131500  1
  Se  Se30  1  0.83868478  0.25000000  0.70868500  1
  Se  Se31  1  0.66131522  0.25000000  0.20868500  1
