# generated using pymatgen
data_Ca4SiN4
_symmetry_space_group_name_H-M   'P 1'
_cell_length_a   5.97133320
_cell_length_b   9.16306784
_cell_length_c   10.97700527
_cell_angle_alpha   63.68272506
_cell_angle_beta   90.00000000
_cell_angle_gamma   90.00000000
_symmetry_Int_Tables_number   1
_chemical_formula_structural   Ca4SiN4
_chemical_formula_sum   'Ca16 Si4 N16'
_cell_volume   538.36282125
_cell_formula_units_Z   4
loop_
 _symmetry_equiv_pos_site_id
 _symmetry_equiv_pos_as_xyz
  1  'x, y, z'
loop_
 _atom_site_type_symbol
 _atom_site_label
 _atom_site_symmetry_multiplicity
 _atom_site_fract_x
 _atom_site_fract_y
 _atom_site_fract_z
 _atom_site_occupancy
  Ca  Ca0  1  0.92209092  0.35091494  0.65427262  1
  Ca  Ca1  1  0.42209092  0.64908506  0.84572738  1
  Ca  Ca2  1  0.07790908  0.64908506  0.34572738  1
  Ca  Ca3  1  0.57790908  0.35091494  0.15427262  1
  Ca  Ca4  1  0.91911638  0.45403522  0.87872604  1
  Ca  Ca5  1  0.41911638  0.54596478  0.62127396  1
  Ca  Ca6  1  0.08088362  0.54596478  0.12127396  1
  Ca  Ca7  1  0.58088362  0.45403522  0.37872604  1
  Ca  Ca8  1  0.84902371  0.85491982  0.76861656  1
  Ca  Ca9  1  0.34902371  0.14508018  0.73138344  1
  Ca  Ca10  1  0.15097629  0.14508018  0.23138344  1
  Ca  Ca11  1  0.65097629  0.85491982  0.26861656  1
  Ca  Ca12  1  0.25613950  0.91934323  0.54351317  1
  Ca  Ca13  1  0.75613950  0.08065677  0.95648683  1
  Ca  Ca14  1  0.74386050  0.08065677  0.45648683  1
  Ca  Ca15  1  0.24386050  0.91934323  0.04351317  1
  Si  Si16  1  0.85348712  0.73299340  0.54830917  1
  Si  Si17  1  0.35348712  0.26700660  0.95169083  1
  Si  Si18  1  0.14651288  0.26700660  0.45169083  1
  Si  Si19  1  0.64651288  0.73299340  0.04830917  1
  N  N20  1  0.74588372  0.59457660  0.98849872  1
  N  N21  1  0.24588372  0.40542340  0.51150128  1
  N  N22  1  0.25411628  0.40542340  0.01150128  1
  N  N23  1  0.75411628  0.59457660  0.48849872  1
  N  N24  1  0.06804287  0.66244542  0.67402810  1
  N  N25  1  0.56804287  0.33755458  0.82597190  1
  N  N26  1  0.93195713  0.33755458  0.32597190  1
  N  N27  1  0.43195713  0.66244542  0.17402810  1
  N  N28  1  0.62126001  0.79980736  0.61154418  1
  N  N29  1  0.12126001  0.20019264  0.88845582  1
  N  N30  1  0.37873999  0.20019264  0.38845582  1
  N  N31  1  0.87873999  0.79980736  0.11154418  1
  N  N32  1  0.53113294  0.89829772  0.89549636  1
  N  N33  1  0.03113294  0.10170228  0.60450364  1
  N  N34  1  0.46886706  0.10170228  0.10450364  1
  N  N35  1  0.96886706  0.89829772  0.39549636  1
