# generated using pymatgen
data_MgFe8(OF)8
_symmetry_space_group_name_H-M   'P 1'
_cell_length_a   5.37459148
_cell_length_b   5.31791536
_cell_length_c   11.58248304
_cell_angle_alpha   89.02297118
_cell_angle_beta   87.61815172
_cell_angle_gamma   93.09989271
_symmetry_Int_Tables_number   1
_chemical_formula_structural   MgFe8(OF)8
_chemical_formula_sum   'Mg1 Fe8 O8 F8'
_cell_volume   330.21437467
_cell_formula_units_Z   1
loop_
 _symmetry_equiv_pos_site_id
 _symmetry_equiv_pos_as_xyz
  1  'x, y, z'
loop_
 _atom_site_type_symbol
 _atom_site_label
 _atom_site_symmetry_multiplicity
 _atom_site_fract_x
 _atom_site_fract_y
 _atom_site_fract_z
 _atom_site_occupancy
  Mg  Mg0  1  0.49155300  0.06414600  0.84697100  1
  Fe  Fe1  1  0.94518800  0.91802200  0.00819000  1
  Fe  Fe2  1  0.09756300  0.06130400  0.24827500  1
  Fe  Fe3  1  0.94273000  0.89031100  0.49393400  1
  Fe  Fe4  1  0.05591800  0.04218900  0.73501500  1
  Fe  Fe5  1  0.62314600  0.41153200  0.12771200  1
  Fe  Fe6  1  0.41198400  0.56333500  0.62484700  1
  Fe  Fe7  1  0.39903800  0.56628600  0.89348600  1
  Fe  Fe8  1  0.43174200  0.56832100  0.36842400  1
  O  O9  1  0.18156300  0.81202200  0.36561200  1
  O  O10  1  0.14380100  0.77904700  0.61862400  1
  O  O11  1  0.17900400  0.85138700  0.88417900  1
  O  O12  1  0.36235500  0.31898800  0.24616500  1
  O  O13  1  0.34427700  0.32762700  0.75412400  1
  O  O14  1  0.67626500  0.67094700  0.00582000  1
  O  O15  1  0.64149300  0.67716200  0.49613500  1
  O  O16  1  0.87937400  0.17525000  0.12355700  1
  F  F17  1  0.17204400  0.80399600  0.12699900  1
  F  F18  1  0.41022500  0.24201600  0.00198400  1
  F  F19  1  0.28988300  0.33923400  0.49635400  1
  F  F20  1  0.70375900  0.66822900  0.24915800  1
  F  F21  1  0.60638500  0.78096600  0.75034800  1
  F  F22  1  0.85688000  0.15014900  0.37003700  1
  F  F23  1  0.83791000  0.15120300  0.60321500  1
  F  F24  1  0.82981100  0.16633100  0.87854300  1
