# generated using pymatgen
data_LiTe4H4(O3F4)2
_symmetry_space_group_name_H-M   'P 1'
_cell_length_a   5.03585370
_cell_length_b   6.57458897
_cell_length_c   11.55292615
_cell_angle_alpha   82.35186097
_cell_angle_beta   78.55988363
_cell_angle_gamma   67.20715010
_symmetry_Int_Tables_number   1
_chemical_formula_structural   LiTe4H4(O3F4)2
_chemical_formula_sum   'Li1 Te4 H4 O6 F8'
_cell_volume   344.95671243
_cell_formula_units_Z   1
loop_
 _symmetry_equiv_pos_site_id
 _symmetry_equiv_pos_as_xyz
  1  'x, y, z'
loop_
 _atom_site_type_symbol
 _atom_site_label
 _atom_site_symmetry_multiplicity
 _atom_site_fract_x
 _atom_site_fract_y
 _atom_site_fract_z
 _atom_site_occupancy
  Li  Li0  1  0.99142700  0.40738900  0.64259400  1
  Te  Te1  1  0.74603100  0.19922100  0.92389700  1
  Te  Te2  1  0.89098500  0.73491900  0.11981400  1
  Te  Te3  1  0.39875500  0.78864800  0.58643300  1
  Te  Te4  1  0.77797000  0.29449300  0.38575600  1
  H  H5  1  0.22762700  0.13959600  0.80359100  1
  H  H6  1  0.16056300  0.74859300  0.27285500  1
  H  H7  1  0.65132000  0.78741000  0.75078200  1
  H  H8  1  0.20433500  0.23616000  0.21739000  1
  O  O9  1  0.83842100  0.44139500  0.49779300  1
  O  O10  1  0.00326000  0.91986800  0.98156900  1
  O  O11  1  0.63819100  0.66456400  0.71399100  1
  O  O12  1  0.03763800  0.36698800  0.24948600  1
  O  O13  1  0.03123800  0.18076800  0.78031900  1
  O  O14  1  0.97864800  0.85265500  0.24343000  1
  F  F15  1  0.49414700  0.59558400  0.32126300  1
  F  F16  1  0.27851600  0.51899500  0.64134000  1
  F  F17  1  0.52617100  0.03488600  0.13300300  1
  F  F18  1  0.58277400  0.02973800  0.83270200  1
  F  F19  1  0.14777200  0.03390600  0.41260500  1
  F  F20  1  0.56502900  0.03207400  0.56795700  1
  F  F21  1  0.31268000  0.56465800  0.07559700  1
  F  F22  1  0.96250300  0.34415800  0.98869000  1
