# generated using pymatgen
data_MgMnO2
_symmetry_space_group_name_H-M   'P 1'
_cell_length_a   3.05471892
_cell_length_b   3.05473894
_cell_length_c   5.31206303
_cell_angle_alpha   73.31184807
_cell_angle_beta   73.31068406
_cell_angle_gamma   60.01173083
_symmetry_Int_Tables_number   1
_chemical_formula_structural   MgMnO2
_chemical_formula_sum   'Mg1 Mn1 O2'
_cell_volume   40.50352478
_cell_formula_units_Z   1
loop_
 _symmetry_equiv_pos_site_id
 _symmetry_equiv_pos_as_xyz
  1  'x, y, z'
loop_
 _atom_site_type_symbol
 _atom_site_label
 _atom_site_symmetry_multiplicity
 _atom_site_fract_x
 _atom_site_fract_y
 _atom_site_fract_z
 _atom_site_occupancy
  Mg  Mg0  1  0.50000061  0.50000317  0.49999905  1
  Mn  Mn1  1  0.99999852  0.00000101  0.99999911  1
  O  O2  1  0.24519697  0.24517147  0.26476194  1
  O  O3  1  0.75480389  0.75484035  0.73523689  1
