# generated using pymatgen
data_Na2Zn2S3
_symmetry_space_group_name_H-M   'P 1'
_cell_length_a   9.78927997
_cell_length_b   9.78928041
_cell_length_c   6.66210105
_cell_angle_alpha   70.45202595
_cell_angle_beta   70.45204589
_cell_angle_gamma   83.47819312
_symmetry_Int_Tables_number   1
_chemical_formula_structural   Na2Zn2S3
_chemical_formula_sum   'Na8 Zn8 S12'
_cell_volume   566.95328761
_cell_formula_units_Z   4
loop_
 _symmetry_equiv_pos_site_id
 _symmetry_equiv_pos_as_xyz
  1  'x, y, z'
loop_
 _atom_site_type_symbol
 _atom_site_label
 _atom_site_symmetry_multiplicity
 _atom_site_fract_x
 _atom_site_fract_y
 _atom_site_fract_z
 _atom_site_occupancy
  Na  Na0  1  0.81217274  0.98429450  0.62736352  1
  Na  Na1  1  0.01570551  0.18782732  0.87263662  1
  Na  Na2  1  0.18782725  0.01570525  0.37263652  1
  Na  Na3  1  0.98429475  0.81217268  0.12736336  1
  Na  Na4  1  0.71782507  0.28217494  0.75000009  1
  Na  Na5  1  0.28217500  0.71782510  0.25000006  1
  Na  Na6  1  0.43061193  0.56938792  0.75000020  1
  Na  Na7  1  0.56938790  0.43061208  0.25000003  1
  Zn  Zn8  1  0.36208652  0.20940948  0.79830655  1
  Zn  Zn9  1  0.79059017  0.63791349  0.70169338  1
  Zn  Zn10  1  0.63791389  0.79059067  0.20169311  1
  Zn  Zn11  1  0.20940950  0.36208629  0.29830665  1
  Zn  Zn12  1  0.08356068  0.54988092  0.75952621  1
  Zn  Zn13  1  0.45011908  0.91643950  0.74047359  1
  Zn  Zn14  1  0.91643939  0.45011896  0.24047390  1
  Zn  Zn15  1  0.54988084  0.08356063  0.25952630  1
  S  S16  1  0.27350640  0.42217927  0.57186790  1
  S  S17  1  0.57782064  0.72649388  0.92813199  1
  S  S18  1  0.72649344  0.57782066  0.42813181  1
  S  S19  1  0.42217938  0.27350644  0.07186825  1
  S  S20  1  0.57844289  0.14628653  0.55510771  1
  S  S21  1  0.85371323  0.42155694  0.94489228  1
  S  S22  1  0.42155689  0.85371323  0.44489240  1
  S  S23  1  0.14628683  0.57844322  0.05510747  1
  S  S24  1  0.00499885  0.76825875  0.55692526  1
  S  S25  1  0.23174144  0.99500130  0.94307447  1
  S  S26  1  0.99500144  0.23174157  0.44307437  1
  S  S27  1  0.76825836  0.00499849  0.05692598  1
