# generated using pymatgen
data_GdPtF7
_symmetry_space_group_name_H-M   'P 1'
_cell_length_a   5.49303584
_cell_length_b   8.92341694
_cell_length_c   12.00164512
_cell_angle_alpha   62.02378353
_cell_angle_beta   90.00000000
_cell_angle_gamma   90.00000000
_symmetry_Int_Tables_number   1
_chemical_formula_structural   GdPtF7
_chemical_formula_sum   'Gd4 Pt4 F28'
_cell_volume   519.53538534
_cell_formula_units_Z   4
loop_
 _symmetry_equiv_pos_site_id
 _symmetry_equiv_pos_as_xyz
  1  'x, y, z'
loop_
 _atom_site_type_symbol
 _atom_site_label
 _atom_site_symmetry_multiplicity
 _atom_site_fract_x
 _atom_site_fract_y
 _atom_site_fract_z
 _atom_site_occupancy
  Gd  Gd0  1  0.76095794  0.81241208  0.76432977  1
  Gd  Gd1  1  0.26095794  0.18758792  0.73567023  1
  Gd  Gd2  1  0.23904206  0.18758792  0.23567023  1
  Gd  Gd3  1  0.73904206  0.81241208  0.26432977  1
  Pt  Pt4  1  0.75659647  0.27236712  0.95732509  1
  Pt  Pt5  1  0.25659647  0.72763288  0.54267491  1
  Pt  Pt6  1  0.24340353  0.72763288  0.04267491  1
  Pt  Pt7  1  0.74340353  0.27236712  0.45732509  1
  F  F8  1  0.43329946  0.70671783  0.91384134  1
  F  F9  1  0.93329946  0.29328217  0.58615866  1
  F  F10  1  0.56670054  0.29328217  0.08615866  1
  F  F11  1  0.06670054  0.70671783  0.41384134  1
  F  F12  1  0.44063592  0.27845033  0.53993067  1
  F  F13  1  0.94063592  0.72154967  0.96006933  1
  F  F14  1  0.55936408  0.72154967  0.46006933  1
  F  F15  1  0.05936408  0.27845033  0.03993067  1
  F  F16  1  0.76954851  0.51844861  0.86031613  1
  F  F17  1  0.26954851  0.48155139  0.63968387  1
  F  F18  1  0.23045149  0.48155139  0.13968387  1
  F  F19  1  0.73045149  0.51844861  0.36031613  1
  F  F20  1  0.75569104  0.02584315  0.04996013  1
  F  F21  1  0.25569104  0.97415685  0.45003987  1
  F  F22  1  0.24430896  0.97415685  0.95003987  1
  F  F23  1  0.74430896  0.02584315  0.54996013  1
  F  F24  1  0.96010976  0.72565186  0.63172828  1
  F  F25  1  0.46010976  0.27434814  0.86827172  1
  F  F26  1  0.03989024  0.27434814  0.36827172  1
  F  F27  1  0.53989024  0.72565186  0.13172828  1
  F  F28  1  0.05941107  0.74311905  0.17530796  1
  F  F29  1  0.55941107  0.25688095  0.32469204  1
  F  F30  1  0.94058893  0.25688095  0.82469204  1
  F  F31  1  0.44058893  0.74311905  0.67530796  1
  F  F32  1  0.40024620  0.96398512  0.23103963  1
  F  F33  1  0.90024620  0.03601488  0.26896037  1
  F  F34  1  0.59975380  0.03601488  0.76896037  1
  F  F35  1  0.09975380  0.96398512  0.73103963  1
