# generated using pymatgen
data_CsHo3Te5
_symmetry_space_group_name_H-M   'P 1'
_cell_length_a   4.39759229
_cell_length_b   13.14126371
_cell_length_c   23.73917205
_cell_angle_alpha   90.00000000
_cell_angle_beta   90.00000000
_cell_angle_gamma   90.00000000
_symmetry_Int_Tables_number   1
_chemical_formula_structural   CsHo3Te5
_chemical_formula_sum   'Cs4 Ho12 Te20'
_cell_volume   1371.88485297
_cell_formula_units_Z   4
loop_
 _symmetry_equiv_pos_site_id
 _symmetry_equiv_pos_as_xyz
  1  'x, y, z'
loop_
 _atom_site_type_symbol
 _atom_site_label
 _atom_site_symmetry_multiplicity
 _atom_site_fract_x
 _atom_site_fract_y
 _atom_site_fract_z
 _atom_site_occupancy
  Cs  Cs0  1  0.25000000  0.35457760  0.08875760  1
  Cs  Cs1  1  0.75000000  0.64542240  0.91124240  1
  Cs  Cs2  1  0.75000000  0.85457760  0.41124240  1
  Cs  Cs3  1  0.25000000  0.14542240  0.58875760  1
  Ho  Ho4  1  0.25000000  0.45393498  0.69765464  1
  Ho  Ho5  1  0.75000000  0.54606502  0.30234536  1
  Ho  Ho6  1  0.75000000  0.95393498  0.80234536  1
  Ho  Ho7  1  0.25000000  0.04606502  0.19765464  1
  Ho  Ho8  1  0.25000000  0.79749379  0.67486275  1
  Ho  Ho9  1  0.75000000  0.20250621  0.32513725  1
  Ho  Ho10  1  0.75000000  0.29749379  0.82513725  1
  Ho  Ho11  1  0.25000000  0.70250621  0.17486275  1
  Ho  Ho12  1  0.25000000  0.39213649  0.44442046  1
  Ho  Ho13  1  0.75000000  0.60786351  0.55557954  1
  Ho  Ho14  1  0.75000000  0.89213649  0.05557954  1
  Ho  Ho15  1  0.25000000  0.10786351  0.94442046  1
  Te  Te16  1  0.25000000  0.44420180  0.56878696  1
  Te  Te17  1  0.75000000  0.55579820  0.43121304  1
  Te  Te18  1  0.75000000  0.94420180  0.93121304  1
  Te  Te19  1  0.25000000  0.05579820  0.06878696  1
  Te  Te20  1  0.25000000  0.76897363  0.54714553  1
  Te  Te21  1  0.75000000  0.23102637  0.45285447  1
  Te  Te22  1  0.75000000  0.26897363  0.95285447  1
  Te  Te23  1  0.25000000  0.73102637  0.04714553  1
  Te  Te24  1  0.25000000  0.79818535  0.80284649  1
  Te  Te25  1  0.75000000  0.20181465  0.19715351  1
  Te  Te26  1  0.75000000  0.29818535  0.69715351  1
  Te  Te27  1  0.25000000  0.70181465  0.30284649  1
  Te  Te28  1  0.25000000  0.45489277  0.82557121  1
  Te  Te29  1  0.75000000  0.54510723  0.17442879  1
  Te  Te30  1  0.75000000  0.95489277  0.67442879  1
  Te  Te31  1  0.25000000  0.04510723  0.32557121  1
  Te  Te32  1  0.25000000  0.37498381  0.31387733  1
  Te  Te33  1  0.75000000  0.62501619  0.68612267  1
  Te  Te34  1  0.75000000  0.87498381  0.18612267  1
  Te  Te35  1  0.25000000  0.12501619  0.81387733  1
