# generated using pymatgen
data_Ni(AsO2)2
_symmetry_space_group_name_H-M   'P 1'
_cell_length_a   8.22575459
_cell_length_b   8.22575459
_cell_length_c   5.62437595
_cell_angle_alpha   90.00000000
_cell_angle_beta   90.00000000
_cell_angle_gamma   90.00000000
_symmetry_Int_Tables_number   1
_chemical_formula_structural   Ni(AsO2)2
_chemical_formula_sum   'Ni4 As8 O16'
_cell_volume   380.56236686
_cell_formula_units_Z   4
loop_
 _symmetry_equiv_pos_site_id
 _symmetry_equiv_pos_as_xyz
  1  'x, y, z'
loop_
 _atom_site_type_symbol
 _atom_site_label
 _atom_site_symmetry_multiplicity
 _atom_site_fract_x
 _atom_site_fract_y
 _atom_site_fract_z
 _atom_site_occupancy
  Ni  Ni0  1  0.50000000  -0.00000000  0.25000000  1
  Ni  Ni1  1  0.00000000  0.50000000  0.75000000  1
  Ni  Ni2  1  0.50000000  -0.00000000  0.75000000  1
  Ni  Ni3  1  0.00000000  0.50000000  0.25000000  1
  As  As4  1  0.17034101  0.18284096  -0.00000000  1
  As  As5  1  0.18284096  0.82965899  0.50000000  1
  As  As6  1  0.82965899  0.81715904  0.00000000  1
  As  As7  1  0.81715904  0.17034101  0.50000000  1
  As  As8  1  0.32965899  0.68284096  -0.00000000  1
  As  As9  1  0.67034101  0.31715904  0.00000000  1
  As  As10  1  0.68284096  0.67034101  0.50000000  1
  As  As11  1  0.31715904  0.32965899  0.50000000  1
  O  O12  1  0.31884176  0.18115824  0.25000000  1
  O  O13  1  0.18115824  0.68115824  0.75000000  1
  O  O14  1  0.68115824  0.81884176  0.25000000  1
  O  O15  1  0.81884176  0.31884176  0.75000000  1
  O  O16  1  0.68115824  0.81884176  0.75000000  1
  O  O17  1  0.81884176  0.31884176  0.25000000  1
  O  O18  1  0.31884176  0.18115824  0.75000000  1
  O  O19  1  0.18115824  0.68115824  0.25000000  1
  O  O20  1  0.63746000  0.10798010  -0.00000000  1
  O  O21  1  0.10798010  0.36254000  0.50000000  1
  O  O22  1  0.36254000  0.89201990  0.00000000  1
  O  O23  1  0.89201990  0.63746000  0.50000000  1
  O  O24  1  0.86254000  0.60798010  -0.00000000  1
  O  O25  1  0.13746000  0.39201990  0.00000000  1
  O  O26  1  0.60798010  0.13746000  0.50000000  1
  O  O27  1  0.39201990  0.86254000  0.50000000  1
