# generated using pymatgen
data_MgV12Zn6O24
_symmetry_space_group_name_H-M   'P 1'
_cell_length_a   6.20414872
_cell_length_b   6.01473820
_cell_length_c   18.12388394
_cell_angle_alpha   60.22309201
_cell_angle_beta   60.23862150
_cell_angle_gamma   60.65385517
_symmetry_Int_Tables_number   1
_chemical_formula_structural   MgV12Zn6O24
_chemical_formula_sum   'Mg1 V12 Zn6 O24'
_cell_volume   482.23316556
_cell_formula_units_Z   1
loop_
 _symmetry_equiv_pos_site_id
 _symmetry_equiv_pos_as_xyz
  1  'x, y, z'
loop_
 _atom_site_type_symbol
 _atom_site_label
 _atom_site_symmetry_multiplicity
 _atom_site_fract_x
 _atom_site_fract_y
 _atom_site_fract_z
 _atom_site_occupancy
  Mg  Mg0  1  0.49927378  0.00444764  0.66554337  1
  V  V1  1  0.00223162  0.49780634  0.16698217  1
  V  V2  1  0.49862133  0.49813731  0.16677410  1
  V  V3  1  0.01206989  0.48909036  0.50384195  1
  V  V4  1  0.49918183  0.00254428  0.16652244  1
  V  V5  1  0.50449960  0.50038367  0.33194417  1
  V  V6  1  0.52790541  0.49388047  0.49340669  1
  V  V7  1  0.99240725  0.50348298  0.83172082  1
  V  V8  1  0.52799773  0.00039566  0.49318410  1
  V  V9  1  0.46980898  0.00122653  0.83876217  1
  V  V10  1  0.51240190  0.50359226  0.66178988  1
  V  V11  1  0.46993567  0.51386431  0.83924782  1
  V  V12  1  0.85795236  0.87913100  0.95909543  1
  Zn  Zn13  1  0.10837640  0.12645090  0.04671789  1
  Zn  Zn14  1  0.13838546  0.12044475  0.37425492  1
  Zn  Zn15  1  0.48868766  0.50064300  0.00256543  1
  Zn  Zn16  1  0.02829073  0.14643592  0.72591015  1
  Zn  Zn17  1  0.88782256  0.87264179  0.28880261  1
  Zn  Zn18  1  0.96949777  0.83496126  0.61798791  1
  O  O19  1  0.24909403  0.24862994  0.09345666  1
  O  O20  1  0.25968194  0.25859890  0.24120924  1
  O  O21  1  0.24988404  0.72181665  0.09309522  1
  O  O22  1  0.71301067  0.25446141  0.09153891  1
  O  O23  1  0.28886507  0.73403161  0.24850089  1
  O  O24  1  0.26939637  0.25676570  0.42211014  1
  O  O25  1  0.74160113  0.28132730  0.24500923  1
  O  O26  1  0.74080164  0.74208748  0.09083584  1
  O  O27  1  0.26834306  0.70915571  0.42420603  1
  O  O28  1  0.28449304  0.24034163  0.57851494  1
  O  O29  1  0.74105811  0.73786233  0.24648281  1
  O  O30  1  0.73404850  0.26078806  0.41473308  1
  O  O31  1  0.32970676  0.73938303  0.56570726  1
  O  O32  1  0.24796120  0.26572365  0.74553946  1
  O  O33  1  0.75658467  0.24866183  0.57982275  1
  O  O34  1  0.76663006  0.73065192  0.42513783  1
  O  O35  1  0.22685183  0.28488631  0.90829565  1
  O  O36  1  0.25440335  0.75499886  0.74625381  1
  O  O37  1  0.75675756  0.75627727  0.57983314  1
  O  O38  1  0.66952342  0.27849928  0.76196990  1
  O  O39  1  0.24188288  0.74399199  0.91931650  1
  O  O40  1  0.73071962  0.75015688  0.75202346  1
  O  O41  1  0.73819597  0.27632234  0.91018388  1
  O  O42  1  0.74514914  0.74543852  0.90902336  1
