# generated using pymatgen
data_Ba2SrUO6
_symmetry_space_group_name_H-M   'P 1'
_cell_length_a   6.20805874
_cell_length_b   6.20805874
_cell_length_c   6.20805825
_cell_angle_alpha   61.23716480
_cell_angle_beta   61.23716479
_cell_angle_gamma   61.23715962
_symmetry_Int_Tables_number   1
_chemical_formula_structural   Ba2SrUO6
_chemical_formula_sum   'Ba2 Sr1 U1 O6'
_cell_volume   173.88826603
_cell_formula_units_Z   1
loop_
 _symmetry_equiv_pos_site_id
 _symmetry_equiv_pos_as_xyz
  1  'x, y, z'
loop_
 _atom_site_type_symbol
 _atom_site_label
 _atom_site_symmetry_multiplicity
 _atom_site_fract_x
 _atom_site_fract_y
 _atom_site_fract_z
 _atom_site_occupancy
  Ba  Ba0  1  0.74670044  0.74670044  0.74670044  1
  Ba  Ba1  1  0.25329956  0.25329956  0.25329956  1
  Sr  Sr2  1  0.00000000  0.00000000  -0.00000000  1
  U  U3  1  0.50000000  0.50000000  0.50000000  1
  O  O4  1  0.35011568  0.71974619  0.19338502  1
  O  O5  1  0.71974619  0.19338502  0.35011568  1
  O  O6  1  0.19338502  0.35011568  0.71974619  1
  O  O7  1  0.64988432  0.28025381  0.80661498  1
  O  O8  1  0.28025381  0.80661498  0.64988432  1
  O  O9  1  0.80661498  0.64988432  0.28025381  1
