# generated using pymatgen
data_Ho5IrBr9
_symmetry_space_group_name_H-M   'P 1'
_cell_length_a   12.76463158
_cell_length_b   12.76463158
_cell_length_c   24.41619096
_cell_angle_alpha   105.15296437
_cell_angle_beta   105.15296439
_cell_angle_gamma   90.00000000
_symmetry_Int_Tables_number   1
_chemical_formula_structural   Ho5IrBr9
_chemical_formula_sum   'Ho40 Ir8 Br72'
_cell_volume   3696.46206207
_cell_formula_units_Z   8
loop_
 _symmetry_equiv_pos_site_id
 _symmetry_equiv_pos_as_xyz
  1  'x, y, z'
loop_
 _atom_site_type_symbol
 _atom_site_label
 _atom_site_symmetry_multiplicity
 _atom_site_fract_x
 _atom_site_fract_y
 _atom_site_fract_z
 _atom_site_occupancy
  Ho  Ho0  1  0.10717146  0.24463374  0.31847559  1
  Ho  Ho1  1  0.21130413  0.57384184  0.31847559  1
  Ho  Ho2  1  0.74463374  0.71130413  0.81847559  1
  Ho  Ho3  1  0.07384184  0.60717146  0.81847559  1
  Ho  Ho4  1  0.89282854  0.75536626  0.68152441  1
  Ho  Ho5  1  0.78869587  0.42615816  0.68152441  1
  Ho  Ho6  1  0.25536626  0.28869587  0.18152441  1
  Ho  Ho7  1  0.92615816  0.39282854  0.18152441  1
  Ho  Ho8  1  0.83431733  0.35933393  0.31052558  1
  Ho  Ho9  1  0.47620825  0.45119165  0.31052558  1
  Ho  Ho10  1  0.85933393  0.97620825  0.81052558  1
  Ho  Ho11  1  0.95119165  0.33431733  0.81052558  1
  Ho  Ho12  1  0.16568267  0.64066607  0.68947442  1
  Ho  Ho13  1  0.52379175  0.54880835  0.68947442  1
  Ho  Ho14  1  0.14066607  0.02379175  0.18947442  1
  Ho  Ho15  1  0.04880835  0.66568267  0.18947442  1
  Ho  Ho16  1  0.91788944  0.62869882  0.30771613  1
  Ho  Ho17  1  0.38982669  0.17901731  0.30771613  1
  Ho  Ho18  1  0.12869882  0.88982669  0.80771613  1
  Ho  Ho19  1  0.67901731  0.41788944  0.80771613  1
  Ho  Ho20  1  0.08211056  0.37130118  0.69228387  1
  Ho  Ho21  1  0.61017331  0.82098269  0.69228387  1
  Ho  Ho22  1  0.87130118  0.11017331  0.19228387  1
  Ho  Ho23  1  0.32098269  0.58211056  0.19228387  1
  Ho  Ho24  1  0.86804348  0.91690798  0.43317676  1
  Ho  Ho25  1  0.56513328  0.01626879  0.43317676  1
  Ho  Ho26  1  0.41690798  0.06513328  0.93317676  1
  Ho  Ho27  1  0.51626879  0.36804348  0.93317676  1
  Ho  Ho28  1  0.13195652  0.08309202  0.56682324  1
  Ho  Ho29  1  0.43486672  0.98373121  0.56682324  1
  Ho  Ho30  1  0.58309202  0.93486672  0.06682324  1
  Ho  Ho31  1  0.48373121  0.63195652  0.06682324  1
  Ho  Ho32  1  0.06964319  0.50626560  0.42186472  1
  Ho  Ho33  1  0.35222153  0.41559912  0.42186472  1
  Ho  Ho34  1  0.00626560  0.85222153  0.92186472  1
  Ho  Ho35  1  0.91559912  0.56964319  0.92186472  1
  Ho  Ho36  1  0.93035681  0.49373440  0.57813528  1
  Ho  Ho37  1  0.64777847  0.58440088  0.57813528  1
  Ho  Ho38  1  0.99373440  0.14777847  0.07813528  1
  Ho  Ho39  1  0.08440088  0.43035681  0.07813528  1
  Ir  Ir40  1  0.02335220  0.44240144  0.30358028  1
  Ir  Ir41  1  0.28022809  0.36117883  0.30358028  1
  Ir  Ir42  1  0.94240144  0.78022809  0.80358028  1
  Ir  Ir43  1  0.86117883  0.52335220  0.80358028  1
  Ir  Ir44  1  0.97664780  0.55759856  0.69641972  1
  Ir  Ir45  1  0.71977191  0.63882117  0.69641972  1
  Ir  Ir46  1  0.05759856  0.21977191  0.19641972  1
  Ir  Ir47  1  0.13882117  0.47664780  0.19641972  1
  Br  Br48  1  0.97161113  0.71670999  0.43486545  1
  Br  Br49  1  0.46325432  0.21815547  0.43486545  1
  Br  Br50  1  0.21670999  0.96325432  0.93486545  1
  Br  Br51  1  0.71815547  0.47161113  0.93486545  1
  Br  Br52  1  0.02838887  0.28329001  0.56513455  1
  Br  Br53  1  0.53674568  0.78184453  0.56513455  1
  Br  Br54  1  0.78329001  0.03674568  0.06513455  1
  Br  Br55  1  0.28184453  0.52838887  0.06513455  1
  Br  Br56  1  0.81020267  0.83750456  0.31499995  1
  Br  Br57  1  0.50479729  0.97749539  0.31499995  1
  Br  Br58  1  0.33750456  0.00479729  0.81499995  1
  Br  Br59  1  0.47749539  0.31020267  0.81499995  1
  Br  Br60  1  0.18979733  0.16249544  0.68500005  1
  Br  Br61  1  0.49520271  0.02250461  0.68500005  1
  Br  Br62  1  0.66249544  0.99520271  0.18500005  1
  Br  Br63  1  0.52250461  0.68979733  0.18500005  1
  Br  Br64  1  0.17810314  0.32365481  0.45210325  1
  Br  Br65  1  0.27400011  0.62844844  0.45210325  1
  Br  Br66  1  0.82365481  0.77400011  0.95210325  1
  Br  Br67  1  0.12844844  0.67810314  0.95210325  1
  Br  Br68  1  0.82189686  0.67634519  0.54789675  1
  Br  Br69  1  0.72599989  0.37155156  0.54789675  1
  Br  Br70  1  0.17634519  0.22599989  0.04789675  1
  Br  Br71  1  0.87155156  0.32189686  0.04789675  1
  Br  Br72  1  0.89078069  0.14348203  0.31541669  1
  Br  Br73  1  0.42463599  0.67193467  0.31541669  1
  Br  Br74  1  0.64348203  0.92463599  0.81541669  1
  Br  Br75  1  0.17193467  0.39078069  0.81541669  1
  Br  Br76  1  0.10921931  0.85651797  0.68458331  1
  Br  Br77  1  0.57536401  0.32806533  0.68458331  1
  Br  Br78  1  0.35651797  0.07536401  0.18458331  1
  Br  Br79  1  0.82806533  0.60921931  0.18458331  1
  Br  Br80  1  0.71234850  0.54578503  0.31481202  1
  Br  Br81  1  0.60246352  0.26902698  0.31481202  1
  Br  Br82  1  0.04578503  0.10246352  0.81481202  1
  Br  Br83  1  0.76902698  0.21234850  0.81481202  1
  Br  Br84  1  0.28765150  0.45421497  0.68518798  1
  Br  Br85  1  0.39753648  0.73097302  0.68518798  1
  Br  Br86  1  0.95421497  0.89753648  0.18518798  1
  Br  Br87  1  0.23097302  0.78765150  0.18518798  1
  Br  Br88  1  0.88120860  0.41504122  0.43810929  1
  Br  Br89  1  0.55690069  0.52306808  0.43810929  1
  Br  Br90  1  0.91504122  0.05690069  0.93810929  1
  Br  Br91  1  0.02306808  0.38120860  0.93810929  1
  Br  Br92  1  0.11879140  0.58495878  0.56189071  1
  Br  Br93  1  0.44309931  0.47693192  0.56189071  1
  Br  Br94  1  0.08495878  0.94309931  0.06189071  1
  Br  Br95  1  0.97693192  0.61879140  0.06189071  1
  Br  Br96  1  0.21746460  0.03854388  0.31334598  1
  Br  Br97  1  0.09588138  0.77480210  0.31334598  1
  Br  Br98  1  0.53854388  0.59588138  0.81334598  1
  Br  Br99  1  0.27480210  0.71746460  0.81334598  1
  Br  Br100  1  0.78253540  0.96145612  0.68665402  1
  Br  Br101  1  0.90411862  0.22519790  0.68665402  1
  Br  Br102  1  0.46145612  0.40411862  0.18665402  1
  Br  Br103  1  0.72519790  0.28253540  0.18665402  1
  Br  Br104  1  0.76618599  0.10908282  0.43873065  1
  Br  Br105  1  0.67254466  0.82964783  0.43873065  1
  Br  Br106  1  0.60908282  0.17254466  0.93873065  1
  Br  Br107  1  0.32964783  0.26618599  0.93873065  1
  Br  Br108  1  0.23381401  0.89091718  0.56126935  1
  Br  Br109  1  0.32745534  0.17035217  0.56126935  1
  Br  Br110  1  0.39091718  0.82745534  0.06126935  1
  Br  Br111  1  0.67035217  0.73381401  0.06126935  1
  Br  Br112  1  0.06127809  0.02797445  0.44234471  1
  Br  Br113  1  0.38106662  0.91437026  0.44234471  1
  Br  Br114  1  0.52797445  0.88106662  0.94234471  1
  Br  Br115  1  0.41437026  0.56127809  0.94234471  1
  Br  Br116  1  0.93872191  0.97202555  0.55765529  1
  Br  Br117  1  0.61893338  0.08562974  0.55765529  1
  Br  Br118  1  0.47202555  0.11893338  0.05765529  1
  Br  Br119  1  0.58562974  0.43872191  0.05765529  1
