# generated using pymatgen
data_MgFeF4
_symmetry_space_group_name_H-M   'P 1'
_cell_length_a   6.28280183
_cell_length_b   6.28280183
_cell_length_c   5.07868496
_cell_angle_alpha   66.35517004
_cell_angle_beta   66.35517004
_cell_angle_gamma   47.90628690
_symmetry_Int_Tables_number   1
_chemical_formula_structural   MgFeF4
_chemical_formula_sum   'Mg2 Fe2 F8'
_cell_volume   133.67041998
_cell_formula_units_Z   2
loop_
 _symmetry_equiv_pos_site_id
 _symmetry_equiv_pos_as_xyz
  1  'x, y, z'
loop_
 _atom_site_type_symbol
 _atom_site_label
 _atom_site_symmetry_multiplicity
 _atom_site_fract_x
 _atom_site_fract_y
 _atom_site_fract_z
 _atom_site_occupancy
  Mg  Mg0  1  0.74739300  0.25260700  0.00000000  1
  Mg  Mg1  1  0.24888700  0.75111300  0.50000000  1
  Fe  Fe2  1  0.00281200  0.49573200  0.25423500  1
  Fe  Fe3  1  0.50426800  0.99718800  0.74576500  1
  F  F4  1  0.08511700  0.15072600  0.15652700  1
  F  F5  1  0.34132500  0.42281100  0.89691700  1
  F  F6  1  0.91081300  0.84799600  0.34813800  1
  F  F7  1  0.84927400  0.91488300  0.84347300  1
  F  F8  1  0.65123800  0.58375900  0.60180300  1
  F  F9  1  0.57718900  0.65867500  0.10308300  1
  F  F10  1  0.15200400  0.08918700  0.65186200  1
  F  F11  1  0.41624100  0.34876200  0.39819700  1
