# generated using pymatgen
data_KAsO3
_symmetry_space_group_name_H-M   'P 1'
_cell_length_a   8.94064430
_cell_length_b   19.12823845
_cell_length_c   12.23769435
_cell_angle_alpha   90.00000000
_cell_angle_beta   90.27242595
_cell_angle_gamma   90.00000000
_symmetry_Int_Tables_number   1
_chemical_formula_structural   KAsO3
_chemical_formula_sum   'K24 As24 O72'
_cell_volume   2092.85185186
_cell_formula_units_Z   24
loop_
 _symmetry_equiv_pos_site_id
 _symmetry_equiv_pos_as_xyz
  1  'x, y, z'
loop_
 _atom_site_type_symbol
 _atom_site_label
 _atom_site_symmetry_multiplicity
 _atom_site_fract_x
 _atom_site_fract_y
 _atom_site_fract_z
 _atom_site_occupancy
  K  K0  1  0.60565527  0.57592507  0.19991120  1
  K  K1  1  0.39434473  0.07592507  0.30008880  1
  K  K2  1  0.39434473  0.42407493  0.80008880  1
  K  K3  1  0.60565527  0.92407493  0.69991120  1
  K  K4  1  0.36101486  0.42606010  0.45395801  1
  K  K5  1  0.63898514  0.92606010  0.04604199  1
  K  K6  1  0.63898514  0.57393990  0.54604199  1
  K  K7  1  0.36101486  0.07393990  0.95395801  1
  K  K8  1  0.88094478  0.42592295  0.29154357  1
  K  K9  1  0.11905522  0.92592295  0.20845643  1
  K  K10  1  0.11905522  0.57407705  0.70845643  1
  K  K11  1  0.88094478  0.07407705  0.79154357  1
  K  K12  1  0.11889509  0.57814549  0.04879502  1
  K  K13  1  0.88110491  0.07814549  0.45120498  1
  K  K14  1  0.88110491  0.42185451  0.95120498  1
  K  K15  1  0.11889509  0.92185451  0.54879502  1
  K  K16  1  0.87128503  0.74865646  0.63477440  1
  K  K17  1  0.12871497  0.24865646  0.86522560  1
  K  K18  1  0.12871497  0.25134354  0.36522560  1
  K  K19  1  0.87128503  0.75134354  0.13477440  1
  K  K20  1  0.37308202  0.74791542  0.61471693  1
  K  K21  1  0.62691798  0.24791542  0.88528307  1
  K  K22  1  0.62691798  0.25208458  0.38528307  1
  K  K23  1  0.37308202  0.75208458  0.11471693  1
  As  As24  1  0.29065423  0.60528984  0.33654105  1
  As  As25  1  0.70934577  0.10528984  0.16345895  1
  As  As26  1  0.70934577  0.39471016  0.66345895  1
  As  As27  1  0.29065423  0.89471016  0.83654105  1
  As  As28  1  0.04463403  0.39585458  0.58967630  1
  As  As29  1  0.95536597  0.89585458  0.91032370  1
  As  As30  1  0.95536597  0.60414542  0.41032370  1
  As  As31  1  0.04463403  0.10414542  0.08967630  1
  As  As32  1  0.54524048  0.39435492  0.16514435  1
  As  As33  1  0.45475952  0.89435492  0.33485565  1
  As  As34  1  0.45475952  0.60564508  0.83485565  1
  As  As35  1  0.54524048  0.10564508  0.66514435  1
  As  As36  1  0.78679571  0.60494762  0.91865705  1
  As  As37  1  0.21320429  0.10494762  0.58134295  1
  As  As38  1  0.21320429  0.39505238  0.08134295  1
  As  As39  1  0.78679571  0.89505238  0.41865705  1
  As  As40  1  0.12151331  0.74589584  0.37508715  1
  As  As41  1  0.87848669  0.24589584  0.12491285  1
  As  As42  1  0.87848669  0.25410416  0.62491285  1
  As  As43  1  0.12151331  0.75410416  0.87508715  1
  As  As44  1  0.62343641  0.74598806  0.87413703  1
  As  As45  1  0.37656359  0.24598806  0.62586297  1
  As  As46  1  0.37656359  0.25401194  0.12586297  1
  As  As47  1  0.62343641  0.75401194  0.37413703  1
  O  O48  1  0.29613404  0.62134608  0.20421219  1
  O  O49  1  0.70386596  0.12134608  0.29578781  1
  O  O50  1  0.70386596  0.37865392  0.79578781  1
  O  O51  1  0.29613404  0.87865392  0.70421219  1
  O  O52  1  0.04731098  0.38241486  0.45651084  1
  O  O53  1  0.95268902  0.88241486  0.04348916  1
  O  O54  1  0.95268902  0.61758514  0.54348916  1
  O  O55  1  0.04731098  0.11758514  0.95651084  1
  O  O56  1  0.54194794  0.38110158  0.29831083  1
  O  O57  1  0.45805206  0.88110158  0.20168917  1
  O  O58  1  0.45805206  0.61889842  0.70168917  1
  O  O59  1  0.54194794  0.11889842  0.79831083  1
  O  O60  1  0.78735052  0.62188625  0.05076648  1
  O  O61  1  0.21264948  0.12188625  0.44923352  1
  O  O62  1  0.21264948  0.37811375  0.94923352  1
  O  O63  1  0.78735052  0.87811375  0.55076648  1
  O  O64  1  0.42782609  0.56056604  0.39330182  1
  O  O65  1  0.57217391  0.06056604  0.10669818  1
  O  O66  1  0.57217391  0.43943396  0.60669818  1
  O  O67  1  0.42782609  0.93943396  0.89330182  1
  O  O68  1  0.18254392  0.43984705  0.64706341  1
  O  O69  1  0.81745608  0.93984705  0.85293659  1
  O  O70  1  0.81745608  0.56015295  0.35293659  1
  O  O71  1  0.18254392  0.06015295  0.14706341  1
  O  O72  1  0.68486479  0.43972868  0.11377098  1
  O  O73  1  0.31513521  0.93972868  0.38622902  1
  O  O74  1  0.31513521  0.56027132  0.88622902  1
  O  O75  1  0.68486479  0.06027132  0.61377098  1
  O  O76  1  0.92548893  0.55795698  0.86948711  1
  O  O77  1  0.07451107  0.05795698  0.63051289  1
  O  O78  1  0.07451107  0.44204302  0.13051289  1
  O  O79  1  0.92548893  0.94204302  0.36948711  1
  O  O80  1  0.12293434  0.56056632  0.37168608  1
  O  O81  1  0.87706566  0.06056632  0.12831392  1
  O  O82  1  0.87706566  0.43943368  0.62831392  1
  O  O83  1  0.12293434  0.93943368  0.87168608  1
  O  O84  1  0.62003726  0.56130030  0.87800507  1
  O  O85  1  0.37996274  0.06130030  0.62199493  1
  O  O86  1  0.37996274  0.43869970  0.12199493  1
  O  O87  1  0.62003726  0.93869970  0.37800507  1
  O  O88  1  0.26729583  0.68503179  0.40927879  1
  O  O89  1  0.73270417  0.18503179  0.09072121  1
  O  O90  1  0.73270417  0.31496821  0.59072121  1
  O  O91  1  0.26729583  0.81496821  0.90927879  1
  O  O92  1  0.02384160  0.31497438  0.65997641  1
  O  O93  1  0.97615840  0.81497438  0.84002359  1
  O  O94  1  0.97615840  0.68502562  0.34002359  1
  O  O95  1  0.02384160  0.18502562  0.15997641  1
  O  O96  1  0.52491641  0.31401256  0.09329832  1
  O  O97  1  0.47508359  0.81401256  0.40670168  1
  O  O98  1  0.47508359  0.68598744  0.90670168  1
  O  O99  1  0.52491641  0.18598744  0.59329832  1
  O  O100  1  0.76896430  0.68418915  0.84329549  1
  O  O101  1  0.23103570  0.18418915  0.65670451  1
  O  O102  1  0.23103570  0.31581085  0.15670451  1
  O  O103  1  0.76896430  0.81581085  0.34329549  1
  O  O104  1  0.15083275  0.78786713  0.25976839  1
  O  O105  1  0.84916725  0.28786713  0.24023161  1
  O  O106  1  0.84916725  0.21213287  0.74023161  1
  O  O107  1  0.15083275  0.71213287  0.75976839  1
  O  O108  1  0.09179300  0.78647130  0.49151107  1
  O  O109  1  0.90820700  0.28647130  0.00848893  1
  O  O110  1  0.90820700  0.21352870  0.50848893  1
  O  O111  1  0.09179300  0.71352870  0.99151107  1
  O  O112  1  0.59649649  0.78634009  0.75704958  1
  O  O113  1  0.40350351  0.28634009  0.74295042  1
  O  O114  1  0.40350351  0.21365991  0.24295042  1
  O  O115  1  0.59649649  0.71365991  0.25704958  1
  O  O116  1  0.65134982  0.78782913  0.98982641  1
  O  O117  1  0.34865018  0.28782913  0.51017359  1
  O  O118  1  0.34865018  0.21217087  0.01017359  1
  O  O119  1  0.65134982  0.71217087  0.48982641  1
