# generated using pymatgen
data_CsInTe2
_symmetry_space_group_name_H-M   'P 1'
_cell_length_a   8.89209290
_cell_length_b   8.89209290
_cell_length_c   18.31159199
_cell_angle_alpha   83.05628673
_cell_angle_beta   83.05628673
_cell_angle_gamma   89.95088478
_symmetry_Int_Tables_number   1
_chemical_formula_structural   CsInTe2
_chemical_formula_sum   'Cs8 In8 Te16'
_cell_volume   1426.58454616
_cell_formula_units_Z   8
loop_
 _symmetry_equiv_pos_site_id
 _symmetry_equiv_pos_as_xyz
  1  'x, y, z'
loop_
 _atom_site_type_symbol
 _atom_site_label
 _atom_site_symmetry_multiplicity
 _atom_site_fract_x
 _atom_site_fract_y
 _atom_site_fract_z
 _atom_site_occupancy
  Cs  Cs0  1  0.77892087  0.65279613  0.38738795  1
  Cs  Cs1  1  0.34720387  0.22107913  0.11261205  1
  Cs  Cs2  1  0.22107913  0.34720387  0.61261205  1
  Cs  Cs3  1  0.65279613  0.77892087  0.88738795  1
  Cs  Cs4  1  0.84851092  0.22300946  0.10371781  1
  Cs  Cs5  1  0.77699054  0.15148908  0.39628219  1
  Cs  Cs6  1  0.15148908  0.77699054  0.89628219  1
  Cs  Cs7  1  0.22300946  0.84851092  0.60371781  1
  In  In8  1  0.08487596  0.70901374  0.16544653  1
  In  In9  1  0.29098626  0.91512404  0.33455347  1
  In  In10  1  0.91512404  0.29098626  0.83455347  1
  In  In11  1  0.70901374  0.08487596  0.66544653  1
  In  In12  1  0.29098253  0.41791183  0.33333277  1
  In  In13  1  0.58208817  0.70901747  0.16666723  1
  In  In14  1  0.70901747  0.58208817  0.66666723  1
  In  In15  1  0.41791183  0.29098253  0.83333277  1
  Te  Te16  1  0.26602429  0.64125542  0.42980226  1
  Te  Te17  1  0.35874458  0.73397571  0.07019774  1
  Te  Te18  1  0.73397571  0.35874458  0.57019774  1
  Te  Te19  1  0.64125542  0.26602429  0.92980226  1
  Te  Te20  1  0.85612286  0.73374142  0.07037768  1
  Te  Te21  1  0.26625858  0.14387714  0.42962232  1
  Te  Te22  1  0.14387714  0.26625858  0.92962232  1
  Te  Te23  1  0.73374142  0.85612286  0.57037768  1
  Te  Te24  1  0.04859242  0.42370498  0.24906909  1
  Te  Te25  1  0.57629502  0.95140758  0.25093091  1
  Te  Te26  1  0.95140758  0.57629502  0.75093091  1
  Te  Te27  1  0.42370498  0.04859242  0.74906909  1
  Te  Te28  1  0.04864593  0.95135407  0.25000000  1
  Te  Te29  1  0.95135407  0.04864593  0.75000000  1
  Te  Te30  1  0.57645857  0.42354143  0.25000000  1
  Te  Te31  1  0.42354143  0.57645857  0.75000000  1
