# generated using pymatgen
data_Al2CdBr8
_symmetry_space_group_name_H-M   'P 1'
_cell_length_a   7.10775147
_cell_length_b   7.49616844
_cell_length_c   13.71379040
_cell_angle_alpha   87.86123155
_cell_angle_beta   90.00000000
_cell_angle_gamma   90.00000000
_symmetry_Int_Tables_number   1
_chemical_formula_structural   Al2CdBr8
_chemical_formula_sum   'Al4 Cd2 Br16'
_cell_volume   730.17411003
_cell_formula_units_Z   2
loop_
 _symmetry_equiv_pos_site_id
 _symmetry_equiv_pos_as_xyz
  1  'x, y, z'
loop_
 _atom_site_type_symbol
 _atom_site_label
 _atom_site_symmetry_multiplicity
 _atom_site_fract_x
 _atom_site_fract_y
 _atom_site_fract_z
 _atom_site_occupancy
  Al  Al0  1  0.93300637  0.22401542  0.57908774  1
  Al  Al1  1  0.06699363  0.22401542  0.07908774  1
  Al  Al2  1  0.57664363  0.63834033  0.77652883  1
  Al  Al3  1  0.42335637  0.63834033  0.27652883  1
  Cd  Cd4  1  0.75587487  0.07618694  0.81327532  1
  Cd  Cd5  1  0.24412513  0.07618694  0.31327532  1
  Br  Br6  1  0.41964882  0.61124124  0.63565086  1
  Br  Br7  1  0.58035118  0.61124124  0.13565086  1
  Br  Br8  1  0.88780883  0.73328664  0.75777553  1
  Br  Br9  1  0.11219117  0.73328664  0.25777553  1
  Br  Br10  1  0.93595914  0.48592936  0.49436785  1
  Br  Br11  1  0.06404086  0.48592936  0.99436785  1
  Br  Br12  1  0.91245756  0.99677844  0.99812058  1
  Br  Br13  1  0.08754244  0.99677844  0.49812058  1
  Br  Br14  1  0.62912016  0.12324244  0.61730455  1
  Br  Br15  1  0.37087984  0.12324244  0.11730455  1
  Br  Br16  1  0.56719838  0.37678962  0.87646373  1
  Br  Br17  1  0.43280162  0.37678962  0.37646373  1
  Br  Br18  1  0.44523453  0.86487673  0.86921509  1
  Br  Br19  1  0.55476547  0.86487673  0.36921509  1
  Br  Br20  1  0.92690961  0.23671184  0.23441091  1
  Br  Br21  1  0.07309039  0.23671184  0.73441091  1
