# generated using pymatgen
data_NaCd2Ag
_symmetry_space_group_name_H-M   'P 1'
_cell_length_a   11.70273263
_cell_length_b   12.45942900
_cell_length_c   12.45942915
_cell_angle_alpha   61.34581025
_cell_angle_beta   61.98948543
_cell_angle_gamma   61.98948810
_symmetry_Int_Tables_number   1
_chemical_formula_structural   NaCd2Ag
_chemical_formula_sum   'Na1 Cd2 Ag1'
_cell_volume   1335.57816667
_cell_formula_units_Z   1
loop_
 _symmetry_equiv_pos_site_id
 _symmetry_equiv_pos_as_xyz
  1  'x, y, z'
loop_
 _atom_site_type_symbol
 _atom_site_label
 _atom_site_symmetry_multiplicity
 _atom_site_fract_x
 _atom_site_fract_y
 _atom_site_fract_z
 _atom_site_occupancy
  Na  Na0  1  0.00000000  -0.00000000  -0.00000000  1
  Cd  Cd1  1  0.73801683  1.00000000  0.00000000  1
  Cd  Cd2  1  0.26198317  0.00000000  1.00000000  1
  Ag  Ag3  1  0.50000000  -0.00000000  -0.00000000  1
