# generated using pymatgen
data_Dy2MgS4
_symmetry_space_group_name_H-M   'P 1'
_cell_length_a   13.42869511
_cell_length_b   7.86718449
_cell_length_c   6.50527763
_cell_angle_alpha   90.00000566
_cell_angle_beta   90.00000262
_cell_angle_gamma   89.99999498
_symmetry_Int_Tables_number   1
_chemical_formula_structural   Dy2MgS4
_chemical_formula_sum   'Dy8 Mg4 S16'
_cell_volume   687.25670290
_cell_formula_units_Z   4
loop_
 _symmetry_equiv_pos_site_id
 _symmetry_equiv_pos_as_xyz
  1  'x, y, z'
loop_
 _atom_site_type_symbol
 _atom_site_label
 _atom_site_symmetry_multiplicity
 _atom_site_fract_x
 _atom_site_fract_y
 _atom_site_fract_z
 _atom_site_occupancy
  Dy  Dy0  1  0.00000001  -0.00000002  0.50000001  1
  Dy  Dy1  1  0.49999992  -0.00000027  0.00000004  1
  Dy  Dy2  1  0.50000000  0.50000014  -0.00000017  1
  Dy  Dy3  1  -0.00000005  0.49999986  0.50000005  1
  Dy  Dy4  1  0.23095405  0.75000035  0.99051754  1
  Dy  Dy5  1  0.76904588  0.25000039  0.00948255  1
  Dy  Dy6  1  0.26904590  0.25000041  0.49051758  1
  Dy  Dy7  1  0.73095400  0.75000016  0.50948282  1
  Mg  Mg8  1  0.09671880  0.25000048  0.91864088  1
  Mg  Mg9  1  0.90328113  0.74999956  0.08135870  1
  Mg  Mg10  1  0.40328118  0.74999975  0.41864121  1
  Mg  Mg11  1  0.59671890  0.24999952  0.58135987  1
  S  S12  1  0.17073151  0.00940635  0.73479584  1
  S  S13  1  0.82926834  0.99059386  0.26520424  1
  S  S14  1  0.32926837  0.99059353  0.23479580  1
  S  S15  1  0.67073173  0.00940623  0.76520467  1
  S  S16  1  0.67073156  0.49059331  0.76520416  1
  S  S17  1  0.32926839  0.50940669  0.23479552  1
  S  S18  1  0.82926829  0.50940615  0.26520397  1
  S  S19  1  0.17073147  0.49059403  0.73479564  1
  S  S20  1  0.06955030  0.75000002  0.24387350  1
  S  S21  1  0.93044941  0.24999989  0.75612618  1
  S  S22  1  0.43044967  0.24999992  0.74387369  1
  S  S23  1  0.56955036  0.75000001  0.25612681  1
  S  S24  1  0.09001126  0.24999992  0.28542941  1
  S  S25  1  0.90998863  0.75000003  0.71457042  1
  S  S26  1  0.40998844  0.74999993  0.78542942  1
  S  S27  1  0.59001156  0.24999979  0.21457065  1
