# generated using pymatgen
data_NaB6S4(Br3O4)2
_symmetry_space_group_name_H-M   'P 1'
_cell_length_a   10.15172945
_cell_length_b   10.33113662
_cell_length_c   21.72555558
_cell_angle_alpha   90.00000000
_cell_angle_beta   90.00000000
_cell_angle_gamma   103.58156598
_symmetry_Int_Tables_number   1
_chemical_formula_structural   NaB6S4(Br3O4)2
_chemical_formula_sum   'Na4 B24 S16 Br24 O32'
_cell_volume   2214.83638945
_cell_formula_units_Z   4
loop_
 _symmetry_equiv_pos_site_id
 _symmetry_equiv_pos_as_xyz
  1  'x, y, z'
loop_
 _atom_site_type_symbol
 _atom_site_label
 _atom_site_symmetry_multiplicity
 _atom_site_fract_x
 _atom_site_fract_y
 _atom_site_fract_z
 _atom_site_occupancy
  Na  Na0  1  0.85109669  0.87529854  0.84429056  1
  Na  Na1  1  0.14890331  0.62470146  0.34429056  1
  Na  Na2  1  0.14890331  0.12470146  0.15570944  1
  Na  Na3  1  0.85109669  0.37529854  0.65570944  1
  B  B4  1  0.46681299  0.64573463  0.02460270  1
  B  B5  1  0.53318701  0.85426537  0.52460270  1
  B  B6  1  0.53318701  0.35426537  0.97539730  1
  B  B7  1  0.46681299  0.14573463  0.47539730  1
  B  B8  1  0.34943994  0.53085975  0.97725968  1
  B  B9  1  0.65056006  0.96914025  0.47725968  1
  B  B10  1  0.65056006  0.46914025  0.02274032  1
  B  B11  1  0.34943994  0.03085975  0.52274032  1
  B  B12  1  0.37944943  0.48869919  0.05515747  1
  B  B13  1  0.62055057  0.01130081  0.55515747  1
  B  B14  1  0.62055057  0.51130081  0.94484253  1
  B  B15  1  0.37944943  0.98869919  0.44484253  1
  B  B16  1  0.55531033  0.55243846  0.07218227  1
  B  B17  1  0.44468967  0.94756154  0.57218227  1
  B  B18  1  0.44468967  0.44756154  0.92781773  1
  B  B19  1  0.55531033  0.05243846  0.42781773  1
  B  B20  1  0.63389240  0.63314249  0.00436133  1
  B  B21  1  0.36610760  0.86685751  0.50436133  1
  B  B22  1  0.36610760  0.36685751  0.99563867  1
  B  B23  1  0.63389240  0.13314249  0.49563867  1
  B  B24  1  0.50717681  0.62000847  0.94602768  1
  B  B25  1  0.49282319  0.87999153  0.44602768  1
  B  B26  1  0.49282319  0.37999153  0.05397232  1
  B  B27  1  0.50717681  0.12000847  0.55397232  1
  S  S28  1  0.10244247  0.08834990  0.73112531  1
  S  S29  1  0.89755753  0.41165010  0.23112531  1
  S  S30  1  0.89755753  0.91165010  0.26887469  1
  S  S31  1  0.10244247  0.58834990  0.76887469  1
  S  S32  1  0.22680572  0.93130893  0.89705982  1
  S  S33  1  0.77319428  0.56869107  0.39705982  1
  S  S34  1  0.77319428  0.06869107  0.10294018  1
  S  S35  1  0.22680572  0.43130893  0.60294018  1
  S  S36  1  0.93474391  0.23030522  0.90332618  1
  S  S37  1  0.06525609  0.26969478  0.40332618  1
  S  S38  1  0.06525609  0.76969478  0.09667382  1
  S  S39  1  0.93474391  0.73030522  0.59667382  1
  S  S40  1  0.62058663  0.64015872  0.72755087  1
  S  S41  1  0.37941337  0.85984128  0.22755087  1
  S  S42  1  0.37941337  0.35984128  0.27244913  1
  S  S43  1  0.62058663  0.14015872  0.77244913  1
  Br  Br44  1  0.42953153  0.81451635  0.05201578  1
  Br  Br45  1  0.57046847  0.68548365  0.55201578  1
  Br  Br46  1  0.57046847  0.18548365  0.94798422  1
  Br  Br47  1  0.42953153  0.31451635  0.44798422  1
  Br  Br48  1  0.17649665  0.56733430  0.95191934  1
  Br  Br49  1  0.82350335  0.93266570  0.45191934  1
  Br  Br50  1  0.82350335  0.43266570  0.04808066  1
  Br  Br51  1  0.17649665  0.06733430  0.54808066  1
  Br  Br52  1  0.23946813  0.47321363  0.11895117  1
  Br  Br53  1  0.76053187  0.02678637  0.61895117  1
  Br  Br54  1  0.76053187  0.52678637  0.88104883  1
  Br  Br55  1  0.23946813  0.97321363  0.38104883  1
  Br  Br56  1  0.61656442  0.61128513  0.15549347  1
  Br  Br57  1  0.38343558  0.88871487  0.65549347  1
  Br  Br58  1  0.38343558  0.38871487  0.84450653  1
  Br  Br59  1  0.61656442  0.11128513  0.34450653  1
  Br  Br60  1  0.78875311  0.78924083  0.00583624  1
  Br  Br61  1  0.21124689  0.71075917  0.50583624  1
  Br  Br62  1  0.21124689  0.21075917  0.99416376  1
  Br  Br63  1  0.78875311  0.28924083  0.49416376  1
  Br  Br64  1  0.51771092  0.76072831  0.88414388  1
  Br  Br65  1  0.48228908  0.73927169  0.38414388  1
  Br  Br66  1  0.48228908  0.23927169  0.11585612  1
  Br  Br67  1  0.51771092  0.26072831  0.61585612  1
  O  O68  1  0.07342122  0.20274156  0.70012346  1
  O  O69  1  0.92657878  0.29725844  0.20012346  1
  O  O70  1  0.92657878  0.79725844  0.29987654  1
  O  O71  1  0.07342122  0.70274156  0.79987654  1
  O  O72  1  0.99174674  0.00272045  0.76453639  1
  O  O73  1  0.00825326  0.49727955  0.26453639  1
  O  O74  1  0.00825326  0.99727955  0.23546361  1
  O  O75  1  0.99174674  0.50272045  0.73546361  1
  O  O76  1  0.07977894  0.89776832  0.90190095  1
  O  O77  1  0.92022106  0.60223168  0.40190095  1
  O  O78  1  0.92022106  0.10223168  0.09809905  1
  O  O79  1  0.07977894  0.39776832  0.59809905  1
  O  O80  1  0.28451408  0.98999319  0.83949469  1
  O  O81  1  0.71548592  0.51000681  0.33949469  1
  O  O82  1  0.71548592  0.01000681  0.16050531  1
  O  O83  1  0.28451408  0.48999319  0.66050531  1
  O  O84  1  0.88522292  0.08602401  0.90582895  1
  O  O85  1  0.11477708  0.41397599  0.40582895  1
  O  O86  1  0.11477708  0.91397599  0.09417105  1
  O  O87  1  0.88522292  0.58602401  0.59417105  1
  O  O88  1  0.99707883  0.28512945  0.84597530  1
  O  O89  1  0.00292117  0.21487055  0.34597530  1
  O  O90  1  0.00292117  0.71487055  0.15402470  1
  O  O91  1  0.99707883  0.78512945  0.65402470  1
  O  O92  1  0.72641964  0.74969243  0.75051307  1
  O  O93  1  0.27358036  0.75030757  0.25051307  1
  O  O94  1  0.27358036  0.25030757  0.24948693  1
  O  O95  1  0.72641964  0.24969243  0.74948693  1
  O  O96  1  0.66352437  0.52795382  0.70101301  1
  O  O97  1  0.33647563  0.97204618  0.20101301  1
  O  O98  1  0.33647563  0.47204618  0.29898699  1
  O  O99  1  0.66352437  0.02795382  0.79898699  1
