# generated using pymatgen
data_Cs6Cr2O7
_symmetry_space_group_name_H-M   'P 1'
_cell_length_a   7.24551940
_cell_length_b   9.81900027
_cell_length_c   9.89226206
_cell_angle_alpha   89.99825766
_cell_angle_beta   90.89857345
_cell_angle_gamma   90.00020682
_symmetry_Int_Tables_number   1
_chemical_formula_structural   Cs6Cr2O7
_chemical_formula_sum   'Cs12 Cr4 O14'
_cell_volume   703.68614002
_cell_formula_units_Z   2
loop_
 _symmetry_equiv_pos_site_id
 _symmetry_equiv_pos_as_xyz
  1  'x, y, z'
loop_
 _atom_site_type_symbol
 _atom_site_label
 _atom_site_symmetry_multiplicity
 _atom_site_fract_x
 _atom_site_fract_y
 _atom_site_fract_z
 _atom_site_occupancy
  Cs  Cs0  1  0.62270908  0.28560469  0.71989631  1
  Cs  Cs1  1  0.87733602  0.78559683  0.78010133  1
  Cs  Cs2  1  0.37730028  0.71440224  0.28010023  1
  Cs  Cs3  1  0.12266573  0.21440196  0.21989779  1
  Cs  Cs4  1  0.25245448  0.97351628  0.54924947  1
  Cs  Cs5  1  0.24754231  0.47350030  0.95074070  1
  Cs  Cs6  1  0.74755482  0.02649908  0.45074255  1
  Cs  Cs7  1  0.75246713  0.52649047  0.04925730  1
  Cs  Cs8  1  0.37372464  0.85485186  0.91562600  1
  Cs  Cs9  1  0.12628692  0.35484479  0.58438739  1
  Cs  Cs10  1  0.62628956  0.14514647  0.08437580  1
  Cs  Cs11  1  0.87370741  0.64515837  0.41562001  1
  Cr  Cr12  1  0.04534078  0.13357728  0.87233064  1
  Cr  Cr13  1  0.54531856  0.36643434  0.37234131  1
  Cr  Cr14  1  0.45467021  0.63358006  0.62766112  1
  Cr  Cr15  1  0.95466523  0.86640382  0.12767423  1
  O  O16  1  0.49996158  0.50000664  0.49999760  1
  O  O17  1  0.00003202  0.99997718  0.00000160  1
  O  O18  1  0.55097324  0.58335469  0.78420196  1
  O  O19  1  0.94903864  0.08336457  0.71579044  1
  O  O20  1  0.44901325  0.41664754  0.21580610  1
  O  O21  1  0.05096203  0.91663258  0.28421509  1
  O  O22  1  0.56679650  0.78170048  0.56963891  1
  O  O23  1  0.93321113  0.28170177  0.93035850  1
  O  O24  1  0.43320210  0.21830836  0.43035284  1
  O  O25  1  0.06680294  0.71829420  0.06963666  1
  O  O26  1  0.21465201  0.66105689  0.63822470  1
  O  O27  1  0.28535525  0.16105585  0.86177940  1
  O  O28  1  0.78532739  0.33895039  0.36177968  1
  O  O29  1  0.71463777  0.83894001  0.13821435  1
