# generated using pymatgen
data_Cs3SbSe3
_symmetry_space_group_name_H-M   'P 1'
_cell_length_a   10.73779602
_cell_length_b   10.73779602
_cell_length_c   10.73779602
_cell_angle_alpha   90.00000000
_cell_angle_beta   90.00000000
_cell_angle_gamma   90.00000000
_symmetry_Int_Tables_number   1
_chemical_formula_structural   Cs3SbSe3
_chemical_formula_sum   'Cs12 Sb4 Se12'
_cell_volume   1238.07070909
_cell_formula_units_Z   4
loop_
 _symmetry_equiv_pos_site_id
 _symmetry_equiv_pos_as_xyz
  1  'x, y, z'
loop_
 _atom_site_type_symbol
 _atom_site_label
 _atom_site_symmetry_multiplicity
 _atom_site_fract_x
 _atom_site_fract_y
 _atom_site_fract_z
 _atom_site_occupancy
  Cs  Cs0  1  0.18519297  0.68519297  0.81480703  1
  Cs  Cs1  1  0.68519297  0.81480703  0.18519297  1
  Cs  Cs2  1  0.81480703  0.18519297  0.68519297  1
  Cs  Cs3  1  0.31480703  0.31480703  0.31480703  1
  Cs  Cs4  1  0.92535241  0.42535241  0.07464759  1
  Cs  Cs5  1  0.42535241  0.07464759  0.92535241  1
  Cs  Cs6  1  0.07464759  0.92535241  0.42535241  1
  Cs  Cs7  1  0.57464759  0.57464759  0.57464759  1
  Cs  Cs8  1  0.68891312  0.18891312  0.31108688  1
  Cs  Cs9  1  0.18891312  0.31108688  0.68891312  1
  Cs  Cs10  1  0.31108688  0.68891312  0.18891312  1
  Cs  Cs11  1  0.81108688  0.81108688  0.81108688  1
  Sb  Sb12  1  0.47434977  0.97434977  0.52565023  1
  Sb  Sb13  1  0.97434977  0.52565023  0.47434977  1
  Sb  Sb14  1  0.52565023  0.47434977  0.97434977  1
  Sb  Sb15  1  0.02565023  0.02565023  0.02565023  1
  Se  Se16  1  0.00665025  0.79693762  0.09582060  1
  Se  Se17  1  0.90417940  0.50665025  0.70306238  1
  Se  Se18  1  0.29693762  0.40417940  0.99334975  1
  Se  Se19  1  0.50665025  0.70306238  0.90417940  1
  Se  Se20  1  0.40417940  0.99334975  0.29693762  1
  Se  Se21  1  0.79693762  0.09582060  0.00665025  1
  Se  Se22  1  0.99334975  0.29693762  0.40417940  1
  Se  Se23  1  0.09582060  0.00665025  0.79693762  1
  Se  Se24  1  0.70306238  0.90417940  0.50665025  1
  Se  Se25  1  0.49334975  0.20306238  0.59582060  1
  Se  Se26  1  0.59582060  0.49334975  0.20306238  1
  Se  Se27  1  0.20306238  0.59582060  0.49334975  1
