# generated using pymatgen
data_MgAu4Se4(ClO3)4
_symmetry_space_group_name_H-M   'P 1'
_cell_length_a   4.80783414
_cell_length_b   10.05346511
_cell_length_c   11.40056724
_cell_angle_alpha   84.26200796
_cell_angle_beta   86.67055267
_cell_angle_gamma   93.91201165
_symmetry_Int_Tables_number   1
_chemical_formula_structural   MgAu4Se4(ClO3)4
_chemical_formula_sum   'Mg1 Au4 Se4 Cl4 O12'
_cell_volume   545.84206554
_cell_formula_units_Z   1
loop_
 _symmetry_equiv_pos_site_id
 _symmetry_equiv_pos_as_xyz
  1  'x, y, z'
loop_
 _atom_site_type_symbol
 _atom_site_label
 _atom_site_symmetry_multiplicity
 _atom_site_fract_x
 _atom_site_fract_y
 _atom_site_fract_z
 _atom_site_occupancy
  Mg  Mg0  1  0.83762504  0.26757356  0.30364537  1
  Au  Au1  1  0.05746388  0.54982744  0.20193091  1
  Au  Au2  1  0.02053494  0.98972913  0.99519578  1
  Au  Au3  1  0.02473197  0.41422801  0.81175930  1
  Au  Au4  1  0.99067411  0.03587910  0.50023437  1
  Se  Se5  1  0.78238445  0.89501918  0.27054207  1
  Se  Se6  1  0.24137954  0.69403781  0.92531059  1
  Se  Se7  1  0.65809391  0.22565272  0.03395146  1
  Se  Se8  1  0.29101885  0.13618939  0.73402126  1
  Cl  Cl9  1  0.38894603  0.48362974  0.67660059  1
  Cl  Cl10  1  0.79963320  0.48282973  0.37677717  1
  Cl  Cl11  1  0.26547488  0.23618125  0.44179355  1
  Cl  Cl12  1  0.70314920  0.84440500  0.54853036  1
  O  O13  1  0.70865196  0.95467160  0.12474958  1
  O  O14  1  0.67398789  0.35746967  0.92222945  1
  O  O15  1  0.10479451  0.85224119  0.26122477  1
  O  O16  1  0.01766122  0.18433929  0.02732524  1
  O  O17  1  0.65056672  0.30225435  0.15937438  1
  O  O18  1  0.97477571  0.79272095  0.97336092  1
  O  O19  1  0.31362528  0.60052008  0.05138728  1
  O  O20  1  0.99511890  0.22277570  0.76050720  1
  O  O21  1  0.83730730  0.06516337  0.33711924  1
  O  O22  1  0.98081077  0.59990601  0.85747628  1
  O  O23  1  0.33516585  0.03800222  0.86599977  1
  O  O24  1  0.12420189  0.00600352  0.66633411  1
