# generated using pymatgen
data_MgH32(N2O)4
_symmetry_space_group_name_H-M   'P 1'
_cell_length_a   9.78733096
_cell_length_b   10.31772074
_cell_length_c   4.73514831
_cell_angle_alpha   81.40089841
_cell_angle_beta   91.20743831
_cell_angle_gamma   94.17187391
_symmetry_Int_Tables_number   1
_chemical_formula_structural   MgH32(N2O)4
_chemical_formula_sum   'Mg1 H32 N8 O4'
_cell_volume   471.51604464
_cell_formula_units_Z   1
loop_
 _symmetry_equiv_pos_site_id
 _symmetry_equiv_pos_as_xyz
  1  'x, y, z'
loop_
 _atom_site_type_symbol
 _atom_site_label
 _atom_site_symmetry_multiplicity
 _atom_site_fract_x
 _atom_site_fract_y
 _atom_site_fract_z
 _atom_site_occupancy
  Mg  Mg0  1  0.96195310  0.09859933  0.82704297  1
  H  H1  1  0.47376678  0.76290776  0.42646066  1
  H  H2  1  0.31834564  0.96954420  0.78480461  1
  H  H3  1  0.37799452  0.63474998  0.44279451  1
  H  H4  1  0.61486088  0.61841021  0.31942354  1
  H  H5  1  0.31119240  0.85729702  0.07632137  1
  H  H6  1  0.36345562  0.56554156  0.92260140  1
  H  H7  1  0.51829019  0.81222504  0.87539207  1
  H  H8  1  0.15131275  0.68388164  0.25437976  1
  H  H9  1  0.03619960  0.56440009  0.20506764  1
  H  H10  1  0.00637254  0.36763832  0.74721933  1
  H  H11  1  0.37368167  0.15819065  0.34861507  1
  H  H12  1  0.08449595  0.10003750  0.32947575  1
  H  H13  1  0.84177526  0.03353500  0.34536561  1
  H  H14  1  0.23692652  0.47836317  0.79082611  1
  H  H15  1  0.97155243  0.32789530  0.08935271  1
  H  H16  1  0.18024758  0.04236708  0.09405118  1
  H  H17  1  0.54866101  0.94228364  0.62219931  1
  H  H18  1  0.51451727  0.15761811  0.17355126  1
  H  H19  1  0.52019290  0.20947180  0.48673830  1
  H  H20  1  0.64647920  0.43181908  0.61014145  1
  H  H21  1  0.70818573  0.01923935  0.12145866  1
  H  H22  1  0.60714550  0.37717031  0.93414170  1
  H  H23  1  0.39657852  0.44150986  0.75644085  1
  H  H24  1  0.85080592  0.37715051  0.85618188  1
  H  H25  1  0.95406685  0.72460746  0.92751313  1
  H  H26  1  0.17744880  0.87697224  0.85911870  1
  H  H27  1  0.75438895  0.56047830  0.20785791  1
  H  H28  1  0.76071849  0.62808857  0.50066653  1
  H  H29  1  0.66612410  0.83272272  0.70785096  1
  H  H30  1  0.00461668  0.67193010  0.42303443  1
  H  H31  1  0.92599683  0.84742269  0.69410616  1
  H  H32  1  0.81851057  0.90524466  0.17202341  1
  N  N33  1  0.04844653  0.66119721  0.23314346  1
  N  N34  1  0.47490244  0.13951179  0.37505769  1
  N  N35  1  0.95199729  0.39356192  0.91074989  1
  N  N36  1  0.56338151  0.84423248  0.68179512  1
  N  N37  1  0.70008051  0.56882687  0.38566291  1
  N  N38  1  0.81028919  0.00493549  0.15004770  1
  N  N39  1  0.33480585  0.51778455  0.75351221  1
  N  N40  1  0.25702224  0.92666111  0.95029454  1
  O  O41  1  0.41929989  0.70759666  0.29694359  1
  O  O42  1  0.11863470  0.11571090  0.12682239  1
  O  O43  1  0.61253603  0.34969175  0.74719748  1
  O  O44  1  0.89627010  0.75347599  0.75161514  1
