# generated using pymatgen
data_CaH24C6Br2(N2O)6
_symmetry_space_group_name_H-M   'P 1'
_cell_length_a   10.12124833
_cell_length_b   7.84318824
_cell_length_c   12.99348175
_cell_angle_alpha   90.00000000
_cell_angle_beta   93.52503847
_cell_angle_gamma   90.00000000
_symmetry_Int_Tables_number   1
_chemical_formula_structural   CaH24C6Br2(N2O)6
_chemical_formula_sum   'Ca2 H48 C12 Br4 N24 O12'
_cell_volume   1029.50819340
_cell_formula_units_Z   2
loop_
 _symmetry_equiv_pos_site_id
 _symmetry_equiv_pos_as_xyz
  1  'x, y, z'
loop_
 _atom_site_type_symbol
 _atom_site_label
 _atom_site_symmetry_multiplicity
 _atom_site_fract_x
 _atom_site_fract_y
 _atom_site_fract_z
 _atom_site_occupancy
  Ca  Ca0  1  0.00000000  0.50000000  0.50000000  1
  Ca  Ca1  1  0.00000000  -0.00000000  -0.00000000  1
  H  H2  1  0.44416168  0.69587684  0.47639642  1
  H  H3  1  0.55583832  0.19587684  0.02360358  1
  H  H4  1  0.55583832  0.30412316  0.52360358  1
  H  H5  1  0.44416168  0.80412316  0.97639642  1
  H  H6  1  0.46170524  0.66617329  0.34335555  1
  H  H7  1  0.53829476  0.16617329  0.15664445  1
  H  H8  1  0.53829476  0.33382671  0.65664445  1
  H  H9  1  0.46170524  0.83382671  0.84335555  1
  H  H10  1  0.29883459  0.53915013  0.24423675  1
  H  H11  1  0.70116541  0.03915013  0.25576325  1
  H  H12  1  0.70116541  0.46084987  0.75576325  1
  H  H13  1  0.29883459  0.96084987  0.74423675  1
  H  H14  1  0.14504841  0.49917701  0.29496523  1
  H  H15  1  0.85495159  0.99917701  0.20503477  1
  H  H16  1  0.85495159  0.50082299  0.70503477  1
  H  H17  1  0.14504841  0.00082299  0.79496523  1
  H  H18  1  0.29342841  0.33666119  0.55564076  1
  H  H19  1  0.70657159  0.83666119  0.94435924  1
  H  H20  1  0.70657159  0.66333881  0.44435924  1
  H  H21  1  0.29342841  0.16333881  0.05564076  1
  H  H22  1  0.37176465  0.13800709  0.57236136  1
  H  H23  1  0.62823535  0.63800709  0.92763864  1
  H  H24  1  0.62823535  0.86199291  0.42763864  1
  H  H25  1  0.37176465  0.36199291  0.07236136  1
  H  H26  1  0.25422528  0.89643017  0.54761144  1
  H  H27  1  0.74577472  0.39643017  0.95238856  1
  H  H28  1  0.74577472  0.10356983  0.45238856  1
  H  H29  1  0.25422528  0.60356983  0.04761144  1
  H  H30  1  0.08353936  0.90139375  0.51932875  1
  H  H31  1  0.91646064  0.40139375  0.98067125  1
  H  H32  1  0.91646064  0.09860625  0.48067125  1
  H  H33  1  0.08353936  0.59860625  0.01932875  1
  H  H34  1  0.27256625  0.65631962  0.66638381  1
  H  H35  1  0.72743375  0.15631962  0.83361619  1
  H  H36  1  0.72743375  0.34368038  0.33361619  1
  H  H37  1  0.27256625  0.84368038  0.16638381  1
  H  H38  1  0.34262877  0.52209141  0.76106734  1
  H  H39  1  0.65737123  0.02209141  0.73893266  1
  H  H40  1  0.65737123  0.47790859  0.23893266  1
  H  H41  1  0.34262877  0.97790859  0.26106734  1
  H  H42  1  0.21819013  0.31217230  0.82692800  1
  H  H43  1  0.78180987  0.81217230  0.67307200  1
  H  H44  1  0.78180987  0.68782770  0.17307200  1
  H  H45  1  0.21819013  0.18782770  0.32692800  1
  H  H46  1  0.04970637  0.29766971  0.79738826  1
  H  H47  1  0.95029363  0.79766971  0.70261174  1
  H  H48  1  0.95029363  0.70233029  0.20261174  1
  H  H49  1  0.04970637  0.20233029  0.29738826  1
  C  C50  1  0.28916220  0.58077254  0.39873034  1
  C  C51  1  0.71083780  0.08077254  0.10126966  1
  C  C52  1  0.71083780  0.41922746  0.60126966  1
  C  C53  1  0.28916220  0.91922746  0.89873034  1
  C  C54  1  0.17081966  0.13271769  0.54665295  1
  C  C55  1  0.82918034  0.63271769  0.95334705  1
  C  C56  1  0.82918034  0.86728231  0.45334705  1
  C  C57  1  0.17081966  0.36728231  0.04665295  1
  C  C58  1  0.14194400  0.49637332  0.72992222  1
  C  C59  1  0.85805600  0.99637332  0.77007778  1
  C  C60  1  0.85805600  0.50362668  0.27007778  1
  C  C61  1  0.14194400  0.00362668  0.22992222  1
  Br  Br62  1  0.50761829  0.35714027  0.85847891  1
  Br  Br63  1  0.49238171  0.85714027  0.64152109  1
  Br  Br64  1  0.49238171  0.64285973  0.14152109  1
  Br  Br65  1  0.50761829  0.14285973  0.35847891  1
  N  N66  1  0.41259541  0.64405358  0.40766825  1
  N  N67  1  0.58740459  0.14405358  0.09233175  1
  N  N68  1  0.58740459  0.35594642  0.59233175  1
  N  N69  1  0.41259541  0.85594642  0.90766825  1
  N  N70  1  0.24356612  0.52269332  0.30591730  1
  N  N71  1  0.75643388  0.02269332  0.19408270  1
  N  N72  1  0.75643388  0.47730668  0.69408270  1
  N  N73  1  0.24356612  0.97730668  0.80591730  1
  N  N74  1  0.28824863  0.20956794  0.56794701  1
  N  N75  1  0.71175137  0.70956794  0.93205299  1
  N  N76  1  0.71175137  0.79043206  0.43205299  1
  N  N77  1  0.28824863  0.29043206  0.06794701  1
  N  N78  1  0.16775156  0.96134544  0.54738105  1
  N  N79  1  0.83224844  0.46134544  0.95261895  1
  N  N80  1  0.83224844  0.03865456  0.45261895  1
  N  N81  1  0.16775156  0.53865456  0.04738105  1
  N  N82  1  0.26048062  0.56867826  0.72172365  1
  N  N83  1  0.73951938  0.06867826  0.77827635  1
  N  N84  1  0.73951938  0.43132174  0.27827635  1
  N  N85  1  0.26048062  0.93132174  0.22172365  1
  N  N86  1  0.13386720  0.36706226  0.79703765  1
  N  N87  1  0.86613280  0.86706226  0.70296235  1
  N  N88  1  0.86613280  0.63293774  0.20296235  1
  N  N89  1  0.13386720  0.13293774  0.29703765  1
  O  O90  1  0.21969858  0.57147581  0.47668750  1
  O  O91  1  0.78030142  0.07147581  0.02331250  1
  O  O92  1  0.78030142  0.42852419  0.52331250  1
  O  O93  1  0.21969858  0.92852419  0.97668750  1
  O  O94  1  0.06612128  0.21938782  0.52982877  1
  O  O95  1  0.93387872  0.71938782  0.97017123  1
  O  O96  1  0.93387872  0.78061218  0.47017123  1
  O  O97  1  0.06612128  0.28061218  0.02982877  1
  O  O98  1  0.03997461  0.55057176  0.67741849  1
  O  O99  1  0.96002539  0.05057176  0.82258151  1
  O  O100  1  0.96002539  0.44942824  0.32258151  1
  O  O101  1  0.03997461  0.94942824  0.17741849  1
