# generated using pymatgen
data_Cs2BiPWO8
_symmetry_space_group_name_H-M   'P 1'
_cell_length_a   12.93340536
_cell_length_b   12.93340536
_cell_length_c   12.93340536
_cell_angle_alpha   147.82407432
_cell_angle_beta   121.68891123
_cell_angle_gamma   68.17802152
_symmetry_Int_Tables_number   1
_chemical_formula_structural   Cs2BiPWO8
_chemical_formula_sum   'Cs8 Bi4 P4 W4 O32'
_cell_volume   967.53132973
_cell_formula_units_Z   4
loop_
 _symmetry_equiv_pos_site_id
 _symmetry_equiv_pos_as_xyz
  1  'x, y, z'
loop_
 _atom_site_type_symbol
 _atom_site_label
 _atom_site_symmetry_multiplicity
 _atom_site_fract_x
 _atom_site_fract_y
 _atom_site_fract_z
 _atom_site_occupancy
  Cs  Cs0  1  0.24418021  0.68995601  0.61585857  1
  Cs  Cs1  1  0.57409745  0.62832165  0.88414143  1
  Cs  Cs2  1  0.92590255  0.81004399  0.05422420  1
  Cs  Cs3  1  0.25581979  0.87167835  0.44577580  1
  Cs  Cs4  1  0.75581979  0.31004399  0.38414143  1
  Cs  Cs5  1  0.42590255  0.37167835  0.11585857  1
  Cs  Cs6  1  0.07409745  0.18995601  0.94577580  1
  Cs  Cs7  1  0.74418021  0.12832165  0.55422420  1
  Bi  Bi8  1  0.83405810  0.75000000  0.58405810  1
  Bi  Bi9  1  0.66594190  0.25000000  0.91594190  1
  Bi  Bi10  1  0.16594190  0.25000000  0.41594190  1
  Bi  Bi11  1  0.33405810  0.75000000  0.08405810  1
  P  P12  1  0.07376665  0.75000000  0.82376665  1
  P  P13  1  0.42623335  0.25000000  0.67623335  1
  P  P14  1  0.92623335  0.25000000  0.17623335  1
  P  P15  1  0.57376665  0.75000000  0.32376665  1
  W  W16  1  0.90636398  0.65636398  0.25000000  1
  W  W17  1  0.59363602  0.84363602  0.75000000  1
  W  W18  1  0.09363602  0.34363602  0.75000000  1
  W  W19  1  0.40636398  0.15636398  0.25000000  1
  O  O20  1  0.15799925  0.59014222  0.73174766  1
  O  O21  1  0.35839356  0.42625159  0.76825234  1
  O  O22  1  0.14160644  0.90985778  0.06785702  1
  O  O23  1  0.34200075  0.07374841  0.43214298  1
  O  O24  1  0.84200075  0.40985778  0.26825234  1
  O  O25  1  0.64160644  0.57374841  0.23174766  1
  O  O26  1  0.85839356  0.09014222  0.93214298  1
  O  O27  1  0.65799925  0.92625159  0.56785702  1
  O  O28  1  0.94290037  0.67093474  0.72689602  1
  O  O29  1  0.44403872  0.21600335  0.77310398  1
  O  O30  1  0.05596128  0.82906526  0.77196563  1
  O  O31  1  0.55709963  0.28399665  0.72803437  1
  O  O32  1  0.05709963  0.32906526  0.27310398  1
  O  O33  1  0.55596128  0.78399665  0.22689602  1
  O  O34  1  0.94403872  0.17093474  0.22803437  1
  O  O35  1  0.44290037  0.71600335  0.27196563  1
  O  O36  1  0.89323484  0.80933604  0.48405085  1
  O  O37  1  0.82528519  0.40918400  0.01594915  1
  O  O38  1  0.67471481  0.69066396  0.58389881  1
  O  O39  1  0.60676516  0.09081600  0.91610119  1
  O  O40  1  0.10676516  0.19066396  0.51594915  1
  O  O41  1  0.17471481  0.59081600  0.98405085  1
  O  O42  1  0.32528519  0.30933604  0.41610119  1
  O  O43  1  0.39323484  0.90918400  0.08389881  1
  O  O44  1  0.84502015  0.76638747  0.20247757  1
  O  O45  1  0.06390990  0.64254258  0.29752243  1
  O  O46  1  0.43609010  0.73361253  0.57863269  1
  O  O47  1  0.65497985  0.85745742  0.92136731  1
  O  O48  1  0.15497985  0.23361253  0.79752243  1
  O  O49  1  0.93609010  0.35745742  0.70247757  1
  O  O50  1  0.56390990  0.26638747  0.42136731  1
  O  O51  1  0.34502015  0.14254258  0.07863269  1
