# generated using pymatgen
data_K4Ge(PSe3)4
_symmetry_space_group_name_H-M   'P 1'
_cell_length_a   7.40728122
_cell_length_b   14.31038951
_cell_length_c   24.53616663
_cell_angle_alpha   90.00000000
_cell_angle_beta   90.00000000
_cell_angle_gamma   90.00000000
_symmetry_Int_Tables_number   1
_chemical_formula_structural   K4Ge(PSe3)4
_chemical_formula_sum   'K16 Ge4 P16 Se48'
_cell_volume   2600.86014879
_cell_formula_units_Z   4
loop_
 _symmetry_equiv_pos_site_id
 _symmetry_equiv_pos_as_xyz
  1  'x, y, z'
loop_
 _atom_site_type_symbol
 _atom_site_label
 _atom_site_symmetry_multiplicity
 _atom_site_fract_x
 _atom_site_fract_y
 _atom_site_fract_z
 _atom_site_occupancy
  K  K0  1  0.30283998  0.47406115  0.56389588  1
  K  K1  1  0.69716002  0.52593885  0.06389588  1
  K  K2  1  0.30283998  0.02593885  0.06389588  1
  K  K3  1  0.69716002  0.97406115  0.56389588  1
  K  K4  1  0.18158141  0.12433648  0.65935545  1
  K  K5  1  0.81841859  0.87566352  0.15935545  1
  K  K6  1  0.18158141  0.37566352  0.15935545  1
  K  K7  1  0.81841859  0.62433648  0.65935545  1
  K  K8  1  0.17238001  0.82464984  0.78156702  1
  K  K9  1  0.82761999  0.17535016  0.28156702  1
  K  K10  1  0.17238001  0.67535016  0.28156702  1
  K  K11  1  0.82761999  0.32464984  0.78156702  1
  K  K12  1  0.19967538  0.66395781  0.93972769  1
  K  K13  1  0.80032462  0.33604219  0.43972769  1
  K  K14  1  0.19967538  0.83604219  0.43972769  1
  K  K15  1  0.80032462  0.16395781  0.93972769  1
  Ge  Ge16  1  0.34353510  0.41991896  0.86822170  1
  Ge  Ge17  1  0.65646490  0.58008104  0.36822170  1
  Ge  Ge18  1  0.34353510  0.08008104  0.36822170  1
  Ge  Ge19  1  0.65646490  0.91991896  0.86822170  1
  P  P20  1  0.31293982  0.40608995  0.71953635  1
  P  P21  1  0.68706018  0.59391005  0.21953635  1
  P  P22  1  0.31293982  0.09391005  0.21953635  1
  P  P23  1  0.68706018  0.90608995  0.71953635  1
  P  P24  1  0.74904664  0.05198268  0.75547796  1
  P  P25  1  0.25095336  0.94801732  0.25547796  1
  P  P26  1  0.74904664  0.44801732  0.25547796  1
  P  P27  1  0.25095336  0.55198268  0.75547796  1
  P  P28  1  0.13446158  0.39303393  0.99984223  1
  P  P29  1  0.86553842  0.60696607  0.49984223  1
  P  P30  1  0.13446158  0.10696607  0.49984223  1
  P  P31  1  0.86553842  0.89303393  0.99984223  1
  P  P32  1  0.36056593  0.28625571  0.98542411  1
  P  P33  1  0.63943407  0.71374429  0.48542411  1
  P  P34  1  0.36056593  0.21374429  0.48542411  1
  P  P35  1  0.63943407  0.78625571  0.98542411  1
  Se  Se36  1  0.57311197  0.41085846  0.68078480  1
  Se  Se37  1  0.42688803  0.58914154  0.18078480  1
  Se  Se38  1  0.57311197  0.08914154  0.18078480  1
  Se  Se39  1  0.42688803  0.91085846  0.68078480  1
  Se  Se40  1  0.08315107  0.36675802  0.67033869  1
  Se  Se41  1  0.91684893  0.63324198  0.17033869  1
  Se  Se42  1  0.08315107  0.13324198  0.17033869  1
  Se  Se43  1  0.91684893  0.86675802  0.67033869  1
  Se  Se44  1  0.31298874  0.30671245  0.79618169  1
  Se  Se45  1  0.68701126  0.69328755  0.29618169  1
  Se  Se46  1  0.31298874  0.19328755  0.29618169  1
  Se  Se47  1  0.68701126  0.80671245  0.79618169  1
  Se  Se48  1  0.67842622  0.15387059  0.69504641  1
  Se  Se49  1  0.32157378  0.84612941  0.19504641  1
  Se  Se50  1  0.67842622  0.34612941  0.19504641  1
  Se  Se51  1  0.32157378  0.65387059  0.69504641  1
  Se  Se52  1  0.01824401  0.05978778  0.79014543  1
  Se  Se53  1  0.98175599  0.94021222  0.29014543  1
  Se  Se54  1  0.01824401  0.44021222  0.29014543  1
  Se  Se55  1  0.98175599  0.55978778  0.79014543  1
  Se  Se56  1  0.54068024  0.05980675  0.82633880  1
  Se  Se57  1  0.45931976  0.94019325  0.32633880  1
  Se  Se58  1  0.54068024  0.44019325  0.32633880  1
  Se  Se59  1  0.45931976  0.55980675  0.82633880  1
  Se  Se60  1  0.05136588  0.43619239  0.91140453  1
  Se  Se61  1  0.94863412  0.56380761  0.41140453  1
  Se  Se62  1  0.05136588  0.06380761  0.41140453  1
  Se  Se63  1  0.94863412  0.93619239  0.91140453  1
  Se  Se64  1  0.23142278  0.98577481  0.54382029  1
  Se  Se65  1  0.76857722  0.01422519  0.04382029  1
  Se  Se66  1  0.23142278  0.51422519  0.04382029  1
  Se  Se67  1  0.76857722  0.48577481  0.54382029  1
  Se  Se68  1  0.09061341  0.68123785  0.53620877  1
  Se  Se69  1  0.90938659  0.31876215  0.03620877  1
  Se  Se70  1  0.09061341  0.81876215  0.03620877  1
  Se  Se71  1  0.90938659  0.18123785  0.53620877  1
  Se  Se72  1  0.56381416  0.38177985  0.93662830  1
  Se  Se73  1  0.43618584  0.61822015  0.43662830  1
  Se  Se74  1  0.56381416  0.11822015  0.43662830  1
  Se  Se75  1  0.43618584  0.88177985  0.93662830  1
  Se  Se76  1  0.47275488  0.24921051  0.56316474  1
  Se  Se77  1  0.52724512  0.75078949  0.06316474  1
  Se  Se78  1  0.47275488  0.25078949  0.06316474  1
  Se  Se79  1  0.52724512  0.74921051  0.56316474  1
  Se  Se80  1  0.27108263  0.17454512  0.93224917  1
  Se  Se81  1  0.72891737  0.82545488  0.43224917  1
  Se  Se82  1  0.27108263  0.32545488  0.43224917  1
  Se  Se83  1  0.72891737  0.67454512  0.93224917  1
