# generated using pymatgen
data_Ba2SnSe5
_symmetry_space_group_name_H-M   'P 1'
_cell_length_a   9.00578364
_cell_length_b   9.52728206
_cell_length_c   12.56634949
_cell_angle_alpha   68.87010768
_cell_angle_beta   89.99984104
_cell_angle_gamma   89.99878982
_symmetry_Int_Tables_number   1
_chemical_formula_structural   Ba2SnSe5
_chemical_formula_sum   'Ba8 Sn4 Se20'
_cell_volume   1005.70864308
_cell_formula_units_Z   4
loop_
 _symmetry_equiv_pos_site_id
 _symmetry_equiv_pos_as_xyz
  1  'x, y, z'
loop_
 _atom_site_type_symbol
 _atom_site_label
 _atom_site_symmetry_multiplicity
 _atom_site_fract_x
 _atom_site_fract_y
 _atom_site_fract_z
 _atom_site_occupancy
  Ba  Ba0  1  0.13705149  0.74415390  0.17526039  1
  Ba  Ba1  1  0.63706697  0.75585220  0.32472297  1
  Ba  Ba2  1  0.86293723  0.25584653  0.82472517  1
  Ba  Ba3  1  0.36295182  0.24415537  0.67526622  1
  Ba  Ba4  1  0.62612062  0.30765698  0.15502381  1
  Ba  Ba5  1  0.12613080  0.19233414  0.34498909  1
  Ba  Ba6  1  0.37387998  0.69231964  0.84499081  1
  Ba  Ba7  1  0.87388087  0.80766036  0.65500971  1
  Sn  Sn8  1  0.79348587  0.35498095  0.48295430  1
  Sn  Sn9  1  0.29350081  0.14500710  0.01707574  1
  Sn  Sn10  1  0.20649724  0.64499448  0.51706159  1
  Sn  Sn11  1  0.70648881  0.85499127  0.98292316  1
  Se  Se12  1  0.32148133  0.49896016  0.40529774  1
  Se  Se13  1  0.82148184  0.00101395  0.09470035  1
  Se  Se14  1  0.67848605  0.50106002  0.59468911  1
  Se  Se15  1  0.17851159  0.99897721  0.90530929  1
  Se  Se16  1  0.50978206  0.68167156  0.10386626  1
  Se  Se17  1  0.00980724  0.81836054  0.39611922  1
  Se  Se18  1  0.49022927  0.31832532  0.89612594  1
  Se  Se19  1  0.99024984  0.18168433  0.60389200  1
  Se  Se20  1  0.87237066  0.48645825  0.27781787  1
  Se  Se21  1  0.37235226  0.01352626  0.22219469  1
  Se  Se22  1  0.12762596  0.51352507  0.72217853  1
  Se  Se23  1  0.62765542  0.98646983  0.77778688  1
  Se  Se24  1  0.57725569  0.19740417  0.44335890  1
  Se  Se25  1  0.07726813  0.30259792  0.05664227  1
  Se  Se26  1  0.42274806  0.80261397  0.55662286  1
  Se  Se27  1  0.92274355  0.69737784  0.94335003  1
  Se  Se28  1  0.76056990  0.04079762  0.40155490  1
  Se  Se29  1  0.26054684  0.45921338  0.09846582  1
  Se  Se30  1  0.23945757  0.95920526  0.59846099  1
  Se  Se31  1  0.73938422  0.54080344  0.90156440  1
