# generated using pymatgen
data_MgTiMn5(PO4)6
_symmetry_space_group_name_H-M   'P 1'
_cell_length_a   8.85343323
_cell_length_b   8.69647405
_cell_length_c   8.75766681
_cell_angle_alpha   59.98922476
_cell_angle_beta   60.31669313
_cell_angle_gamma   61.81435561
_symmetry_Int_Tables_number   1
_chemical_formula_structural   MgTiMn5(PO4)6
_chemical_formula_sum   'Mg1 Ti1 Mn5 P6 O24'
_cell_volume   484.12029505
_cell_formula_units_Z   1
loop_
 _symmetry_equiv_pos_site_id
 _symmetry_equiv_pos_as_xyz
  1  'x, y, z'
loop_
 _atom_site_type_symbol
 _atom_site_label
 _atom_site_symmetry_multiplicity
 _atom_site_fract_x
 _atom_site_fract_y
 _atom_site_fract_z
 _atom_site_occupancy
  Mg  Mg0  1  0.13741100  0.62887400  0.62518000  1
  Ti  Ti1  1  0.56006200  0.14874800  0.14236500  1
  Mn  Mn2  1  0.99889100  0.99980400  0.99698100  1
  Mn  Mn3  1  0.76635100  0.72294900  0.74471700  1
  Mn  Mn4  1  0.53059900  0.48556600  0.49325600  1
  Mn  Mn5  1  0.39461000  0.88652700  0.85977600  1
  Mn  Mn6  1  0.96207200  0.33944500  0.34790700  1
  P  P7  1  0.25542100  0.25724600  0.52892900  1
  P  P8  1  0.25997800  0.95087000  0.25148600  1
  P  P9  1  0.26478000  0.53021400  0.95801200  1
  P  P10  1  0.77028500  0.43948000  0.05014200  1
  P  P11  1  0.77452000  0.03810700  0.74542500  1
  P  P12  1  0.75756200  0.75323900  0.44032100  1
  O  O13  1  0.09900300  0.07707600  0.35355600  1
  O  O14  1  0.10142400  0.45356700  0.09590200  1
  O  O15  1  0.09242900  0.35856200  0.46129300  1
  O  O16  1  0.20929700  0.10052400  0.72134900  1
  O  O17  1  0.42738000  0.16980600  0.38109000  1
  O  O18  1  0.30668800  0.39519700  0.54402900  1
  O  O19  1  0.21634000  0.95823300  0.09653900  1
  O  O20  1  0.31538900  0.74994400  0.38677700  1
  O  O21  1  0.60759900  0.61244600  0.99590700  1
  O  O22  1  0.31058400  0.54096700  0.75863300  1
  O  O23  1  0.76975300  0.25737200  0.06180800  1
  O  O24  1  0.60366300  0.99547500  0.78852800  1
  O  O25  1  0.43328400  0.02087700  0.15849500  1
  O  O26  1  0.22205300  0.72175200  0.96273900  1
  O  O27  1  0.76233300  0.41933100  0.23775800  1
  O  O28  1  0.43932300  0.38741500  0.01363700  1
  O  O29  1  0.77452700  0.22949200  0.57997600  1
  O  O30  1  0.77012800  0.06278000  0.91253500  1
  O  O31  1  0.74395300  0.59233500  0.42787300  1
  O  O32  1  0.59649400  0.80096300  0.61613800  1
  O  O33  1  0.76411600  0.92047000  0.25601400  1
  O  O34  1  0.92327300  0.70749100  0.49630300  1
  O  O35  1  0.93505300  0.49896200  0.87172100  1
  O  O36  1  0.93621800  0.86601600  0.70721000  1
