# generated using pymatgen
data_Na3CoO3
_symmetry_space_group_name_H-M   'P 1'
_cell_length_a   5.90283411
_cell_length_b   6.54174617
_cell_length_c   9.55776098
_cell_angle_alpha   86.57930344
_cell_angle_beta   90.00000000
_cell_angle_gamma   90.00000000
_symmetry_Int_Tables_number   1
_chemical_formula_structural   Na3CoO3
_chemical_formula_sum   'Na12 Co4 O12'
_cell_volume   368.41387470
_cell_formula_units_Z   4
loop_
 _symmetry_equiv_pos_site_id
 _symmetry_equiv_pos_as_xyz
  1  'x, y, z'
loop_
 _atom_site_type_symbol
 _atom_site_label
 _atom_site_symmetry_multiplicity
 _atom_site_fract_x
 _atom_site_fract_y
 _atom_site_fract_z
 _atom_site_occupancy
  Na  Na0  1  0.63811843  0.92368055  0.65240682  1
  Na  Na1  1  0.86188157  0.92368055  0.15240682  1
  Na  Na2  1  0.28235335  0.64467587  0.81226561  1
  Na  Na3  1  0.79886936  0.62959667  0.91681780  1
  Na  Na4  1  0.21764665  0.64467587  0.31226561  1
  Na  Na5  1  0.70113064  0.62959667  0.41681780  1
  Na  Na6  1  0.29886936  0.37040333  0.58318220  1
  Na  Na7  1  0.78235335  0.35532413  0.68773439  1
  Na  Na8  1  0.20113064  0.37040333  0.08318220  1
  Na  Na9  1  0.71764665  0.35532413  0.18773439  1
  Na  Na10  1  0.13811843  0.07631945  0.84759318  1
  Na  Na11  1  0.36188157  0.07631945  0.34759318  1
  Co  Co12  1  0.09937240  0.82429160  0.56742272  1
  Co  Co13  1  0.40062760  0.82429160  0.06742272  1
  Co  Co14  1  0.59937240  0.17570840  0.93257728  1
  Co  Co15  1  0.90062760  0.17570840  0.43257728  1
  O  O16  1  0.53290294  0.89576729  0.88456036  1
  O  O17  1  0.96709706  0.89576729  0.38456036  1
  O  O18  1  0.38021075  0.73956182  0.52939734  1
  O  O19  1  0.11978925  0.73956182  0.02939734  1
  O  O20  1  0.93355184  0.66296759  0.68454718  1
  O  O21  1  0.56644816  0.66296759  0.18454718  1
  O  O22  1  0.43355184  0.33703241  0.81545282  1
  O  O23  1  0.06644816  0.33703241  0.31545282  1
  O  O24  1  0.88021075  0.26043818  0.97060266  1
  O  O25  1  0.61978925  0.26043818  0.47060266  1
  O  O26  1  0.03290294  0.10423271  0.61543964  1
  O  O27  1  0.46709706  0.10423271  0.11543964  1
