# generated using pymatgen
data_KSnI3
_symmetry_space_group_name_H-M   'P 1'
_cell_length_a   4.70824602
_cell_length_b   10.44878157
_cell_length_c   16.99764006
_cell_angle_alpha   90.00000000
_cell_angle_beta   90.00000000
_cell_angle_gamma   90.00000000
_symmetry_Int_Tables_number   1
_chemical_formula_structural   KSnI3
_chemical_formula_sum   'K4 Sn4 I12'
_cell_volume   836.20628382
_cell_formula_units_Z   4
loop_
 _symmetry_equiv_pos_site_id
 _symmetry_equiv_pos_as_xyz
  1  'x, y, z'
loop_
 _atom_site_type_symbol
 _atom_site_label
 _atom_site_symmetry_multiplicity
 _atom_site_fract_x
 _atom_site_fract_y
 _atom_site_fract_z
 _atom_site_occupancy
  K  K0  1  0.75000000  0.57730419  0.17258590  1
  K  K1  1  0.25000000  0.42269581  0.82741410  1
  K  K2  1  0.75000000  0.07730419  0.32741410  1
  K  K3  1  0.25000000  0.92269581  0.67258590  1
  Sn  Sn4  1  0.25000000  0.66502076  0.44120282  1
  Sn  Sn5  1  0.75000000  0.33497924  0.55879718  1
  Sn  Sn6  1  0.25000000  0.16502076  0.05879718  1
  Sn  Sn7  1  0.75000000  0.83497924  0.94120282  1
  I  I8  1  0.75000000  0.84052530  0.51154377  1
  I  I9  1  0.25000000  0.15947470  0.48845623  1
  I  I10  1  0.75000000  0.34052530  0.98845623  1
  I  I11  1  0.25000000  0.65947470  0.01154377  1
  I  I12  1  0.25000000  0.51717271  0.62091769  1
  I  I13  1  0.75000000  0.48282729  0.37908231  1
  I  I14  1  0.25000000  0.01717271  0.87908231  1
  I  I15  1  0.75000000  0.98282729  0.12091769  1
  I  I16  1  0.25000000  0.80433048  0.28737111  1
  I  I17  1  0.75000000  0.19566952  0.71262889  1
  I  I18  1  0.25000000  0.30433048  0.21262889  1
  I  I19  1  0.75000000  0.69566952  0.78737111  1
