# generated using pymatgen
data_P4Pb3O13
_symmetry_space_group_name_H-M   'P 1'
_cell_length_a   7.35536023
_cell_length_b   7.83858753
_cell_length_c   10.20519169
_cell_angle_alpha   102.07212590
_cell_angle_beta   104.09011310
_cell_angle_gamma   94.57855043
_symmetry_Int_Tables_number   1
_chemical_formula_structural   P4Pb3O13
_chemical_formula_sum   'P8 Pb6 O26'
_cell_volume   552.73660660
_cell_formula_units_Z   2
loop_
 _symmetry_equiv_pos_site_id
 _symmetry_equiv_pos_as_xyz
  1  'x, y, z'
loop_
 _atom_site_type_symbol
 _atom_site_label
 _atom_site_symmetry_multiplicity
 _atom_site_fract_x
 _atom_site_fract_y
 _atom_site_fract_z
 _atom_site_occupancy
  P  P0  1  0.81426875  0.30588937  0.03232342  1
  P  P1  1  0.18573125  0.69411063  0.96767658  1
  P  P2  1  0.36309384  0.04033425  0.13757986  1
  P  P3  1  0.63690616  0.95966575  0.86242014  1
  P  P4  1  0.86113750  0.03562814  0.66335984  1
  P  P5  1  0.13886250  0.96437186  0.33664016  1
  P  P6  1  0.33327534  0.30283413  0.50945323  1
  P  P7  1  0.66672466  0.69716587  0.49054677  1
  Pb  Pb8  1  0.79332669  0.27255795  0.38447459  1
  Pb  Pb9  1  0.20667331  0.72744205  0.61552541  1
  Pb  Pb10  1  0.30477788  0.27076536  0.85160034  1
  Pb  Pb11  1  0.69522212  0.72923464  0.14839966  1
  Pb  Pb12  1  0.24578011  0.47787898  0.23004143  1
  Pb  Pb13  1  0.75421989  0.52212102  0.76995857  1
  O  O14  1  0.34235390  0.61196704  0.05307098  1
  O  O15  1  0.65764610  0.38803296  0.94692902  1
  O  O16  1  0.84541284  0.37968740  0.18718835  1
  O  O17  1  0.15458716  0.62031260  0.81281165  1
  O  O18  1  0.99309762  0.31012218  0.98661895  1
  O  O19  1  0.00690238  0.68987782  0.01338105  1
  O  O20  1  0.27261127  0.90103846  0.99493232  1
  O  O21  1  0.72738873  0.09896154  0.00506768  1
  O  O22  1  0.38301553  0.21652211  0.10425812  1
  O  O23  1  0.61698447  0.78347789  0.89574188  1
  O  O24  1  0.53842574  0.98518564  0.21741900  1
  O  O25  1  0.46157426  0.01481436  0.78258100  1
  O  O26  1  0.20147655  0.03562036  0.21642404  1
  O  O27  1  0.79852345  0.96437964  0.78357596  1
  O  O28  1  0.42603577  0.35100334  0.66457241  1
  O  O29  1  0.57396423  0.64899666  0.33542759  1
  O  O30  1  0.15406791  0.38838563  0.47143870  1
  O  O31  1  0.84593209  0.61161437  0.52856130  1
  O  O32  1  0.53800687  0.67559643  0.58203158  1
  O  O33  1  0.46199313  0.32440357  0.41796842  1
  O  O34  1  0.26506158  0.09134758  0.47582644  1
  O  O35  1  0.73493842  0.90865242  0.52417356  1
  O  O36  1  0.06431136  0.00674712  0.68442401  1
  O  O37  1  0.93568864  0.99325288  0.31557599  1
  O  O38  1  0.82086747  0.21733211  0.65780532  1
  O  O39  1  0.17913253  0.78266789  0.34219468  1
