# generated using pymatgen
data_GdTl(MoO4)2
_symmetry_space_group_name_H-M   'P 1'
_cell_length_a   5.11326505
_cell_length_b   8.07464225
_cell_length_c   18.68498807
_cell_angle_alpha   90.00000000
_cell_angle_beta   90.00000000
_cell_angle_gamma   90.00000000
_symmetry_Int_Tables_number   1
_chemical_formula_structural   GdTl(MoO4)2
_chemical_formula_sum   'Gd4 Tl4 Mo8 O32'
_cell_volume   771.46178900
_cell_formula_units_Z   4
loop_
 _symmetry_equiv_pos_site_id
 _symmetry_equiv_pos_as_xyz
  1  'x, y, z'
loop_
 _atom_site_type_symbol
 _atom_site_label
 _atom_site_symmetry_multiplicity
 _atom_site_fract_x
 _atom_site_fract_y
 _atom_site_fract_z
 _atom_site_occupancy
  Gd  Gd0  1  -0.00000000  0.75000000  0.00676777  1
  Gd  Gd1  1  -0.00000000  0.25000000  0.99323223  1
  Gd  Gd2  1  0.50000000  0.25000000  0.49323223  1
  Gd  Gd3  1  0.50000000  0.75000000  0.50676777  1
  Tl  Tl4  1  -0.00000000  0.75000000  0.77027693  1
  Tl  Tl5  1  -0.00000000  0.25000000  0.22972307  1
  Tl  Tl6  1  0.50000000  0.25000000  0.72972307  1
  Tl  Tl7  1  0.50000000  0.75000000  0.27027693  1
  Mo  Mo8  1  0.01959712  0.51755257  0.39956009  1
  Mo  Mo9  1  0.98040288  0.48244743  0.60043991  1
  Mo  Mo10  1  0.48040288  0.01755257  0.10043991  1
  Mo  Mo11  1  0.98040288  0.98244743  0.39956009  1
  Mo  Mo12  1  0.51959712  0.98244743  0.89956009  1
  Mo  Mo13  1  0.01959712  0.01755257  0.60043991  1
  Mo  Mo14  1  0.51959712  0.48244743  0.10043991  1
  Mo  Mo15  1  0.48040288  0.51755257  0.89956009  1
  O  O16  1  0.10616343  0.97506986  0.31400868  1
  O  O17  1  0.89383657  0.02493014  0.68599132  1
  O  O18  1  0.39383657  0.47506986  0.18599132  1
  O  O19  1  0.89383657  0.52493014  0.31400868  1
  O  O20  1  0.60616343  0.52493014  0.81400868  1
  O  O21  1  0.10616343  0.47506986  0.68599132  1
  O  O22  1  0.60616343  0.02493014  0.18599132  1
  O  O23  1  0.39383657  0.97506986  0.81400868  1
  O  O24  1  0.27467098  0.84245352  0.09884891  1
  O  O25  1  0.72532902  0.15754648  0.90115109  1
  O  O26  1  0.22532902  0.34245352  0.40115109  1
  O  O27  1  0.72532902  0.65754648  0.09884891  1
  O  O28  1  0.77467098  0.65754648  0.59884891  1
  O  O29  1  0.27467098  0.34245352  0.90115109  1
  O  O30  1  0.77467098  0.15754648  0.40115109  1
  O  O31  1  0.22532902  0.84245352  0.59884891  1
  O  O32  1  0.25166462  0.50416154  0.03553024  1
  O  O33  1  0.74833538  0.49583846  0.96446976  1
  O  O34  1  0.24833538  0.00416154  0.46446976  1
  O  O35  1  0.74833538  0.99583846  0.03553024  1
  O  O36  1  0.75166462  0.99583846  0.53553024  1
  O  O37  1  0.25166462  0.00416154  0.96446976  1
  O  O38  1  0.75166462  0.49583846  0.46446976  1
  O  O39  1  0.24833538  0.50416154  0.53553024  1
  O  O40  1  0.23845640  0.68958892  0.40872233  1
  O  O41  1  0.76154360  0.31041108  0.59127767  1
  O  O42  1  0.26154360  0.18958892  0.09127767  1
  O  O43  1  0.76154360  0.81041108  0.40872233  1
  O  O44  1  0.73845640  0.81041108  0.90872233  1
  O  O45  1  0.23845640  0.18958892  0.59127767  1
  O  O46  1  0.73845640  0.31041108  0.09127767  1
  O  O47  1  0.26154360  0.68958892  0.90872233  1
