# generated using pymatgen
data_CaFe4(PO4)4
_symmetry_space_group_name_H-M   'P 1'
_cell_length_a   8.59580192
_cell_length_b   8.85349792
_cell_length_c   5.26534008
_cell_angle_alpha   89.40169049
_cell_angle_beta   106.59282819
_cell_angle_gamma   90.21039320
_symmetry_Int_Tables_number   1
_chemical_formula_structural   CaFe4(PO4)4
_chemical_formula_sum   'Ca1 Fe4 P4 O16'
_cell_volume   384.00054863
_cell_formula_units_Z   1
loop_
 _symmetry_equiv_pos_site_id
 _symmetry_equiv_pos_as_xyz
  1  'x, y, z'
loop_
 _atom_site_type_symbol
 _atom_site_label
 _atom_site_symmetry_multiplicity
 _atom_site_fract_x
 _atom_site_fract_y
 _atom_site_fract_z
 _atom_site_occupancy
  Ca  Ca0  1  0.00460500  0.99995600  0.48869800  1
  Fe  Fe1  1  0.18763300  0.50541500  0.46293100  1
  Fe  Fe2  1  0.33012300  0.01661100  0.06230600  1
  Fe  Fe3  1  0.67905600  0.98490400  0.91093700  1
  Fe  Fe4  1  0.80857600  0.49670900  0.53665600  1
  P  P5  1  0.17071700  0.67997400  0.88192400  1
  P  P6  1  0.31140200  0.17877000  0.60394100  1
  P  P7  1  0.69488400  0.82466900  0.36787200  1
  P  P8  1  0.82466600  0.32220900  0.11935300  1
  O  O9  1  0.01892600  0.60722800  0.67550200  1
  O  O10  1  0.18267500  0.17318500  0.75954400  1
  O  O11  1  0.15826300  0.85357900  0.85912000  1
  O  O12  1  0.24607600  0.06947700  0.36428600  1
  O  O13  1  0.30901000  0.61695200  0.77709600  1
  O  O14  1  0.18513400  0.63045300  0.16813000  1
  O  O15  1  0.33309700  0.33914300  0.50024500  1
  O  O16  1  0.46898500  0.11495200  0.79623200  1
  O  O17  1  0.53990600  0.88894900  0.16675600  1
  O  O18  1  0.66679600  0.66730200  0.47558700  1
  O  O19  1  0.80828000  0.37797700  0.83605000  1
  O  O20  1  0.68625100  0.37952100  0.22892300  1
  O  O21  1  0.75758900  0.93683600  0.60363100  1
  O  O22  1  0.84187200  0.14890500  0.13236700  1
  O  O23  1  0.82646500  0.82642900  0.21826100  1
  O  O24  1  0.97568000  0.39560700  0.32865000  1
