# generated using pymatgen
data_K4CaU(Si2O7)2
_symmetry_space_group_name_H-M   'P 1'
_cell_length_a   9.39128534
_cell_length_b   9.39128534
_cell_length_c   8.34630883
_cell_angle_alpha   90.00000000
_cell_angle_beta   90.00000000
_cell_angle_gamma   90.00000000
_symmetry_Int_Tables_number   1
_chemical_formula_structural   K4CaU(Si2O7)2
_chemical_formula_sum   'K8 Ca2 U2 Si8 O28'
_cell_volume   736.11305950
_cell_formula_units_Z   2
loop_
 _symmetry_equiv_pos_site_id
 _symmetry_equiv_pos_as_xyz
  1  'x, y, z'
loop_
 _atom_site_type_symbol
 _atom_site_label
 _atom_site_symmetry_multiplicity
 _atom_site_fract_x
 _atom_site_fract_y
 _atom_site_fract_z
 _atom_site_occupancy
  K  K0  1  0.34391887  0.15608113  0.25000000  1
  K  K1  1  0.15608113  0.65608113  0.75000000  1
  K  K2  1  0.65608113  0.84391887  0.25000000  1
  K  K3  1  0.84391887  0.34391887  0.75000000  1
  K  K4  1  0.21037581  0.71037581  0.25000000  1
  K  K5  1  0.28962419  0.21037581  0.75000000  1
  K  K6  1  0.71037581  0.78962419  0.75000000  1
  K  K7  1  0.78962419  0.28962419  0.25000000  1
  Ca  Ca8  1  0.50000000  0.50000000  0.00000000  1
  Ca  Ca9  1  0.00000000  0.00000000  0.50000000  1
  U  U10  1  0.50000000  0.50000000  0.50000000  1
  U  U11  1  0.00000000  0.00000000  0.00000000  1
  Si  Si12  1  0.88057825  0.61681132  0.44663280  1
  Si  Si13  1  0.61942175  0.11681132  0.94663280  1
  Si  Si14  1  0.61681132  0.11942175  0.55336720  1
  Si  Si15  1  0.88318868  0.61942175  0.05336720  1
  Si  Si16  1  0.11942175  0.38318868  0.44663280  1
  Si  Si17  1  0.38057825  0.88318868  0.94663280  1
  Si  Si18  1  0.38318868  0.88057825  0.55336720  1
  Si  Si19  1  0.11681132  0.38057825  0.05336720  1
  O  O20  1  0.50000000  0.50000000  0.27747462  1
  O  O21  1  0.00000000  0.00000000  0.77747462  1
  O  O22  1  0.50000000  0.50000000  0.72252538  1
  O  O23  1  0.00000000  0.00000000  0.22252538  1
  O  O24  1  0.91189987  0.76901511  0.51854645  1
  O  O25  1  0.58810013  0.26901511  0.01854645  1
  O  O26  1  0.76901511  0.08810013  0.48145355  1
  O  O27  1  0.73098489  0.58810013  0.98145355  1
  O  O28  1  0.08810013  0.23098489  0.51854645  1
  O  O29  1  0.41189987  0.73098489  0.01854645  1
  O  O30  1  0.23098489  0.91189987  0.48145355  1
  O  O31  1  0.26901511  0.41189987  0.98145355  1
  O  O32  1  0.72942770  0.55085752  0.50554157  1
  O  O33  1  0.77057230  0.05085752  0.00554157  1
  O  O34  1  0.55085752  0.27057230  0.49445843  1
  O  O35  1  0.94914248  0.77057230  0.99445843  1
  O  O36  1  0.27057230  0.44914248  0.50554157  1
  O  O37  1  0.22942770  0.94914248  0.00554157  1
  O  O38  1  0.44914248  0.72942770  0.49445843  1
  O  O39  1  0.05085752  0.22942770  0.99445843  1
  O  O40  1  0.00000000  0.50000000  0.50774258  1
  O  O41  1  0.50000000  0.00000000  0.00774258  1
  O  O42  1  0.50000000  0.00000000  0.49225742  1
  O  O43  1  0.00000000  0.50000000  0.99225742  1
  O  O44  1  0.88515236  0.61484764  0.25000000  1
  O  O45  1  0.61484764  0.11484764  0.75000000  1
  O  O46  1  0.11484764  0.38515236  0.25000000  1
  O  O47  1  0.38515236  0.88515236  0.75000000  1
