# generated using pymatgen
data_BaSrMg14O16
_symmetry_space_group_name_H-M   'P 1'
_cell_length_a   8.77635488
_cell_length_b   9.13253997
_cell_length_c   4.57608128
_cell_angle_alpha   90.00000000
_cell_angle_beta   90.00000000
_cell_angle_gamma   90.00000000
_symmetry_Int_Tables_number   1
_chemical_formula_structural   BaSrMg14O16
_chemical_formula_sum   'Ba1 Sr1 Mg14 O16'
_cell_volume   366.77479871
_cell_formula_units_Z   1
loop_
 _symmetry_equiv_pos_site_id
 _symmetry_equiv_pos_as_xyz
  1  'x, y, z'
loop_
 _atom_site_type_symbol
 _atom_site_label
 _atom_site_symmetry_multiplicity
 _atom_site_fract_x
 _atom_site_fract_y
 _atom_site_fract_z
 _atom_site_occupancy
  Ba  Ba0  1  -0.00000000  0.50000000  0.00000000  1
  Sr  Sr1  1  -0.00000000  -0.00000000  0.00000000  1
  Mg  Mg2  1  0.50000000  -0.00000000  0.00000000  1
  Mg  Mg3  1  0.50000000  0.50000000  0.00000000  1
  Mg  Mg4  1  -0.00000000  0.24450271  0.50000000  1
  Mg  Mg5  1  -0.00000000  0.75549729  0.50000000  1
  Mg  Mg6  1  0.50000000  0.24939444  0.50000000  1
  Mg  Mg7  1  0.50000000  0.75060556  0.50000000  1
  Mg  Mg8  1  0.26138977  -0.00000000  0.50000000  1
  Mg  Mg9  1  0.26474421  0.50000000  0.50000000  1
  Mg  Mg10  1  0.73861023  -0.00000000  0.50000000  1
  Mg  Mg11  1  0.73525579  0.50000000  0.50000000  1
  Mg  Mg12  1  0.26303639  0.24691605  -0.00000000  1
  Mg  Mg13  1  0.26303639  0.75308395  -0.00000000  1
  Mg  Mg14  1  0.73696361  0.24691605  0.00000000  1
  Mg  Mg15  1  0.73696361  0.75308395  0.00000000  1
  O  O16  1  0.27404971  -0.00000000  -0.00000000  1
  O  O17  1  0.28222834  0.50000000  -0.00000000  1
  O  O18  1  0.72595029  -0.00000000  0.00000000  1
  O  O19  1  0.71777166  0.50000000  0.00000000  1
  O  O20  1  0.25174346  0.24969954  0.50000000  1
  O  O21  1  0.25174346  0.75030046  0.50000000  1
  O  O22  1  0.74825654  0.24969954  0.50000000  1
  O  O23  1  0.74825654  0.75030046  0.50000000  1
  O  O24  1  -0.00000000  -0.00000000  0.50000000  1
  O  O25  1  -0.00000000  0.50000000  0.50000000  1
  O  O26  1  0.50000000  -0.00000000  0.50000000  1
  O  O27  1  0.50000000  0.50000000  0.50000000  1
  O  O28  1  -0.00000000  0.24146101  -0.00000000  1
  O  O29  1  -0.00000000  0.75853899  0.00000000  1
  O  O30  1  0.50000000  0.24668705  -0.00000000  1
  O  O31  1  0.50000000  0.75331295  0.00000000  1
