# generated using pymatgen
data_Co(AsO3)2
_symmetry_space_group_name_H-M   'P 1'
_cell_length_a   4.79004238
_cell_length_b   4.79004432
_cell_length_c   4.46614154
_cell_angle_alpha   89.99997337
_cell_angle_beta   90.00011148
_cell_angle_gamma   119.99999169
_symmetry_Int_Tables_number   1
_chemical_formula_structural   Co(AsO3)2
_chemical_formula_sum   'Co1 As2 O6'
_cell_volume   88.74462075
_cell_formula_units_Z   1
loop_
 _symmetry_equiv_pos_site_id
 _symmetry_equiv_pos_as_xyz
  1  'x, y, z'
loop_
 _atom_site_type_symbol
 _atom_site_label
 _atom_site_symmetry_multiplicity
 _atom_site_fract_x
 _atom_site_fract_y
 _atom_site_fract_z
 _atom_site_occupancy
  Co  Co0  1  0.00000000  -0.00000000  -0.00000000  1
  As  As1  1  0.33333300  0.66666700  0.50000000  1
  As  As2  1  0.66666700  0.33333400  0.50000000  1
  O  O3  1  0.36250965  0.36251065  0.72587894  1
  O  O4  1  0.63749035  -0.00000000  0.72587894  1
  O  O5  1  0.00000100  0.63748935  0.72587894  1
  O  O6  1  0.36251065  0.00000000  0.27411906  1
  O  O7  1  0.63748935  0.63748935  0.27411906  1
  O  O8  1  0.00000000  0.36251065  0.27411906  1
