# generated using pymatgen
data_KNaTi2(PO5)2
_symmetry_space_group_name_H-M   'P 1'
_cell_length_a   6.37466201
_cell_length_b   12.91110445
_cell_length_c   10.70559586
_cell_angle_alpha   90.00000000
_cell_angle_beta   90.00000000
_cell_angle_gamma   90.00000000
_symmetry_Int_Tables_number   1
_chemical_formula_structural   KNaTi2(PO5)2
_chemical_formula_sum   'K4 Na4 Ti8 P8 O40'
_cell_volume   881.11258063
_cell_formula_units_Z   4
loop_
 _symmetry_equiv_pos_site_id
 _symmetry_equiv_pos_as_xyz
  1  'x, y, z'
loop_
 _atom_site_type_symbol
 _atom_site_label
 _atom_site_symmetry_multiplicity
 _atom_site_fract_x
 _atom_site_fract_y
 _atom_site_fract_z
 _atom_site_occupancy
  K  K0  1  0.81924547  0.89927944  0.41958676  1
  K  K1  1  0.18075453  0.10072056  0.91958676  1
  K  K2  1  0.68075453  0.39927944  0.41958676  1
  K  K3  1  0.31924547  0.60072056  0.91958676  1
  Na  Na4  1  0.23266724  0.85062330  0.70017030  1
  Na  Na5  1  0.76733276  0.14937670  0.20017030  1
  Na  Na6  1  0.26733276  0.35062330  0.70017030  1
  Na  Na7  1  0.73266724  0.64937670  0.20017030  1
  Ti  Ti8  1  0.50707470  0.87201916  0.98679057  1
  Ti  Ti9  1  0.49292530  0.12798084  0.48679057  1
  Ti  Ti10  1  0.99292530  0.37201916  0.98679057  1
  Ti  Ti11  1  0.00707470  0.62798084  0.48679057  1
  Ti  Ti12  1  0.73982276  0.74568581  0.73397721  1
  Ti  Ti13  1  0.26017724  0.25431419  0.23397721  1
  Ti  Ti14  1  0.76017724  0.24568581  0.73397721  1
  Ti  Ti15  1  0.23982276  0.75431419  0.23397721  1
  P  P16  1  0.00131661  0.81590411  0.97564380  1
  P  P17  1  0.99868339  0.18409589  0.47564380  1
  P  P18  1  0.49868339  0.31590411  0.97564380  1
  P  P19  1  0.50131661  0.68409589  0.47564380  1
  P  P20  1  0.66110997  0.99611823  0.72417048  1
  P  P21  1  0.33889003  0.00388177  0.22417048  1
  P  P22  1  0.83889003  0.49611823  0.72417048  1
  P  P23  1  0.16110997  0.50388177  0.22417048  1
  O  O24  1  0.96987113  0.72509121  0.60202826  1
  O  O25  1  0.03012887  0.27490879  0.10202826  1
  O  O26  1  0.53012887  0.22509121  0.60202826  1
  O  O27  1  0.46987113  0.77490879  0.10202826  1
  O  O28  1  0.69468416  0.61620414  0.44663844  1
  O  O29  1  0.30531584  0.38379586  0.94663844  1
  O  O30  1  0.80531584  0.11620414  0.44663844  1
  O  O31  1  0.19468416  0.88379586  0.94663844  1
  O  O32  1  0.53786543  0.77583358  0.84554660  1
  O  O33  1  0.46213457  0.22416642  0.34554660  1
  O  O34  1  0.96213457  0.27583358  0.84554660  1
  O  O35  1  0.03786543  0.72416642  0.34554660  1
  O  O36  1  0.69935250  0.59421103  0.74537812  1
  O  O37  1  0.30064750  0.40578897  0.24537812  1
  O  O38  1  0.80064750  0.09421103  0.74537812  1
  O  O39  1  0.19935250  0.90578897  0.24537812  1
  O  O40  1  0.96804751  0.50705874  0.60074601  1
  O  O41  1  0.03195249  0.49294126  0.10074601  1
  O  O42  1  0.53195249  0.00705874  0.60074601  1
  O  O43  1  0.46804751  0.99294126  0.10074601  1
  O  O44  1  0.96830791  0.74487049  0.85945169  1
  O  O45  1  0.03169209  0.25512951  0.35945169  1
  O  O46  1  0.53169209  0.24487049  0.85945169  1
  O  O47  1  0.46830791  0.75512951  0.35945169  1
  O  O48  1  0.81028090  0.90123955  0.70712300  1
  O  O49  1  0.18971910  0.09876045  0.20712300  1
  O  O50  1  0.68971910  0.40123955  0.70712300  1
  O  O51  1  0.31028090  0.59876045  0.20712300  1
  O  O52  1  0.50668474  0.98265487  0.83273260  1
  O  O53  1  0.49331526  0.01734513  0.33273260  1
  O  O54  1  0.99331526  0.48265487  0.83273260  1
  O  O55  1  0.00668474  0.51734513  0.33273260  1
  O  O56  1  0.53495225  0.75609010  0.58986594  1
  O  O57  1  0.46504775  0.24390990  0.08986594  1
  O  O58  1  0.96504775  0.25609010  0.58986594  1
  O  O59  1  0.03495225  0.74390990  0.08986594  1
  O  O60  1  0.81282499  0.88777865  0.99915023  1
  O  O61  1  0.18717501  0.11222135  0.49915023  1
  O  O62  1  0.68717501  0.38777865  0.99915023  1
  O  O63  1  0.31282499  0.61222135  0.49915023  1
