# generated using pymatgen
data_Ba3UFe2O9
_symmetry_space_group_name_H-M   'P 1'
_cell_length_a   10.13923825
_cell_length_b   10.13923825
_cell_length_c   10.13923825
_cell_angle_alpha   146.58099041
_cell_angle_beta   131.86058210
_cell_angle_gamma   59.86855250
_symmetry_Int_Tables_number   1
_chemical_formula_structural   Ba3UFe2O9
_chemical_formula_sum   'Ba6 U2 Fe4 O18'
_cell_volume   423.70066795
_cell_formula_units_Z   2
loop_
 _symmetry_equiv_pos_site_id
 _symmetry_equiv_pos_as_xyz
  1  'x, y, z'
loop_
 _atom_site_type_symbol
 _atom_site_label
 _atom_site_symmetry_multiplicity
 _atom_site_fract_x
 _atom_site_fract_y
 _atom_site_fract_z
 _atom_site_occupancy
  Ba  Ba0  1  0.76424844  0.50000000  0.26424844  1
  Ba  Ba1  1  0.39873867  0.15867241  0.24006626  1
  Ba  Ba2  1  0.08139384  0.84132759  0.24006626  1
  Ba  Ba3  1  0.23575156  0.50000000  0.73575156  1
  Ba  Ba4  1  0.91860616  0.15867241  0.75993374  1
  Ba  Ba5  1  0.60126133  0.84132759  0.75993374  1
  U  U6  1  0.66794465  0.66794465  0.00000000  1
  U  U7  1  0.33205535  0.33205535  -0.00000000  1
  Fe  Fe8  1  0.50000000  0.00000000  0.50000000  1
  Fe  Fe9  1  0.15726607  0.65726607  0.50000000  1
  Fe  Fe10  1  0.84273393  0.34273393  0.50000000  1
  Fe  Fe11  1  0.00000000  0.00000000  0.00000000  1
  O  O12  1  0.74477583  0.00000000  0.74477583  1
  O  O13  1  0.41231932  0.66653247  0.74578685  1
  O  O14  1  0.07925437  0.33346753  0.74578685  1
  O  O15  1  0.58383143  0.83483356  0.25100212  1
  O  O16  1  0.24940783  0.49869307  0.24928524  1
  O  O17  1  0.91661473  0.16792491  0.25131018  1
  O  O18  1  0.41616857  0.66717069  0.25100212  1
  O  O19  1  0.08338527  0.33469546  0.25131018  1
  O  O20  1  0.75059217  -0.00012258  0.24928524  1
  O  O21  1  0.25522417  -0.00000000  0.25522417  1
  O  O22  1  0.92074563  0.66653247  0.25421315  1
  O  O23  1  0.58768068  0.33346753  0.25421315  1
  O  O24  1  0.41616857  0.16516644  0.74899788  1
  O  O25  1  0.08338527  0.83207509  0.74868982  1
  O  O26  1  0.75059217  0.50130693  0.75071476  1
  O  O27  1  0.58383143  0.33282931  0.74899788  1
  O  O28  1  0.24940783  0.00012258  0.75071476  1
  O  O29  1  0.91661473  0.66530454  0.74868982  1
