# generated using pymatgen
data_MgV6(HO3)6
_symmetry_space_group_name_H-M   'P 1'
_cell_length_a   5.19132773
_cell_length_b   9.19010004
_cell_length_c   8.28345216
_cell_angle_alpha   88.31710382
_cell_angle_beta   110.60784363
_cell_angle_gamma   90.88805501
_symmetry_Int_Tables_number   1
_chemical_formula_structural   MgV6(HO3)6
_chemical_formula_sum   'Mg1 V6 H6 O18'
_cell_volume   369.74064958
_cell_formula_units_Z   1
loop_
 _symmetry_equiv_pos_site_id
 _symmetry_equiv_pos_as_xyz
  1  'x, y, z'
loop_
 _atom_site_type_symbol
 _atom_site_label
 _atom_site_symmetry_multiplicity
 _atom_site_fract_x
 _atom_site_fract_y
 _atom_site_fract_z
 _atom_site_occupancy
  Mg  Mg0  1  0.23153300  0.57629800  0.36198900  1
  V  V1  1  0.47166800  0.42215100  0.14738400  1
  V  V2  1  0.51653300  0.95379800  0.83289100  1
  V  V3  1  0.49938600  0.54714400  0.81107500  1
  V  V4  1  0.50285500  0.05558200  0.17940800  1
  V  V5  1  0.95924700  0.24794100  0.08077600  1
  V  V6  1  0.08560000  0.74675100  0.94575500  1
  H  H7  1  0.10993200  0.16262100  0.59311700  1
  H  H8  1  0.84774300  0.24501900  0.42359800  1
  H  H9  1  0.09273000  0.34157000  0.57904000  1
  H  H10  1  0.82902800  0.65409000  0.41622300  1
  H  H11  1  0.18124100  0.75520000  0.63345700  1
  H  H12  1  0.91332500  0.81719000  0.38994800  1
  O  O13  1  0.65044800  0.39369200  0.97248900  1
  O  O14  1  0.36766300  0.90774000  0.00922300  1
  O  O15  1  0.33155600  0.57532900  0.97307100  1
  O  O16  1  0.67048000  0.10160200  0.99850900  1
  O  O17  1  0.14974000  0.38716000  0.22754600  1
  O  O18  1  0.82286300  0.89654000  0.81941100  1
  O  O19  1  0.79469100  0.61798600  0.79482300  1
  O  O20  1  0.18910300  0.09572400  0.21039800  1
  O  O21  1  0.67341900  0.24095600  0.24617300  1
  O  O22  1  0.31511400  0.75749800  0.75664800  1
  O  O23  1  0.12351800  0.27561800  0.94330700  1
  O  O24  1  0.07097900  0.70878200  0.14151700  1
  O  O25  1  0.59914600  0.53548900  0.32196800  1
  O  O26  1  0.33200000  0.04686000  0.65743100  1
  O  O27  1  0.30425500  0.48445600  0.61077600  1
  O  O28  1  0.69276300  0.95582600  0.34419800  1
  O  O29  1  0.97696400  0.24980000  0.55619300  1
  O  O30  1  0.99447700  0.72139800  0.44353500  1
