# generated using pymatgen
data_MoW3(SeS)4
_symmetry_space_group_name_H-M   'P 1'
_cell_length_a   3.24606879
_cell_length_b   3.24606879
_cell_length_c   35.60438529
_cell_angle_alpha   90.00000000
_cell_angle_beta   90.00000000
_cell_angle_gamma   120.00001163
_symmetry_Int_Tables_number   1
_chemical_formula_structural   MoW3(SeS)4
_chemical_formula_sum   'Mo1 W3 Se4 S4'
_cell_volume   324.89985026
_cell_formula_units_Z   1
loop_
 _symmetry_equiv_pos_site_id
 _symmetry_equiv_pos_as_xyz
  1  'x, y, z'
loop_
 _atom_site_type_symbol
 _atom_site_label
 _atom_site_symmetry_multiplicity
 _atom_site_fract_x
 _atom_site_fract_y
 _atom_site_fract_z
 _atom_site_occupancy
  Mo  Mo0  1  0.00000000  -0.00000000  0.09417721  1
  W  W1  1  0.00000000  0.00000000  0.46978275  1
  W  W2  1  0.33333300  0.66666700  0.28133280  1
  W  W3  1  0.33333300  0.66666700  0.65762210  1
  Se  Se4  1  0.33333300  0.66666700  0.04700076  1
  Se  Se5  1  0.33333300  0.66666700  0.42230774  1
  Se  Se6  1  0.33333300  0.66666700  0.14141488  1
  Se  Se7  1  0.33333300  0.66666700  0.51725798  1
  S  S8  1  -0.00000000  -0.00000000  0.32455721  1
  S  S9  1  0.00000000  -0.00000000  0.70081030  1
  S  S10  1  0.00000000  0.00000000  0.23811467  1
  S  S11  1  0.00000000  0.00000000  0.61437060  1
