# generated using pymatgen
data_Na7Fe4(AsO4)6
_symmetry_space_group_name_H-M   'P 1'
_cell_length_a   10.23601897
_cell_length_b   10.23601897
_cell_length_c   10.23601860
_cell_angle_alpha   86.65099779
_cell_angle_beta   86.65099779
_cell_angle_gamma   86.65099568
_symmetry_Int_Tables_number   1
_chemical_formula_structural   Na7Fe4(AsO4)6
_chemical_formula_sum   'Na14 Fe8 As12 O48'
_cell_volume   1067.20067558
_cell_formula_units_Z   2
loop_
 _symmetry_equiv_pos_site_id
 _symmetry_equiv_pos_as_xyz
  1  'x, y, z'
loop_
 _atom_site_type_symbol
 _atom_site_label
 _atom_site_symmetry_multiplicity
 _atom_site_fract_x
 _atom_site_fract_y
 _atom_site_fract_z
 _atom_site_occupancy
  Na  Na0  1  0.50000000  0.50000000  0.50000000  1
  Na  Na1  1  -0.00000000  -0.00000000  0.00000000  1
  Na  Na2  1  0.22089556  0.65959180  0.46477326  1
  Na  Na3  1  0.65959180  0.46477326  0.22089556  1
  Na  Na4  1  0.46477326  0.22089556  0.65959180  1
  Na  Na5  1  0.72089556  0.96477326  0.15959180  1
  Na  Na6  1  0.96477326  0.15959180  0.72089556  1
  Na  Na7  1  0.15959180  0.72089556  0.96477326  1
  Na  Na8  1  0.77910444  0.34040820  0.53522674  1
  Na  Na9  1  0.34040820  0.53522674  0.77910444  1
  Na  Na10  1  0.53522674  0.77910444  0.34040820  1
  Na  Na11  1  0.27910444  0.03522674  0.84040820  1
  Na  Na12  1  0.03522674  0.84040820  0.27910444  1
  Na  Na13  1  0.84040820  0.27910444  0.03522674  1
  Fe  Fe14  1  0.25000000  0.25000000  0.25000000  1
  Fe  Fe15  1  0.75000000  0.75000000  0.75000000  1
  Fe  Fe16  1  0.02799720  0.47200280  0.25000000  1
  Fe  Fe17  1  0.47200280  0.25000000  0.02799720  1
  Fe  Fe18  1  0.25000000  0.02799720  0.47200280  1
  Fe  Fe19  1  0.52799720  0.75000000  0.97200280  1
  Fe  Fe20  1  0.75000000  0.97200280  0.52799720  1
  Fe  Fe21  1  0.97200280  0.52799720  0.75000000  1
  As  As22  1  0.54843375  0.17314610  0.34302479  1
  As  As23  1  0.17314610  0.34302479  0.54843375  1
  As  As24  1  0.34302479  0.54843375  0.17314610  1
  As  As25  1  0.04843375  0.84302479  0.67314610  1
  As  As26  1  0.84302479  0.67314610  0.04843375  1
  As  As27  1  0.67314610  0.04843375  0.84302479  1
  As  As28  1  0.45156625  0.82685390  0.65697521  1
  As  As29  1  0.82685390  0.65697521  0.45156625  1
  As  As30  1  0.65697521  0.45156625  0.82685390  1
  As  As31  1  0.95156625  0.15697521  0.32685390  1
  As  As32  1  0.15697521  0.32685390  0.95156625  1
  As  As33  1  0.32685390  0.95156625  0.15697521  1
  O  O34  1  0.80961730  0.82319424  0.40962634  1
  O  O35  1  0.82319424  0.40962634  0.80961730  1
  O  O36  1  0.40962634  0.80961730  0.82319424  1
  O  O37  1  0.30961730  0.90962634  0.32319424  1
  O  O38  1  0.90962634  0.32319424  0.30961730  1
  O  O39  1  0.32319424  0.30961730  0.90962634  1
  O  O40  1  0.19038270  0.17680576  0.59037366  1
  O  O41  1  0.17680576  0.59037366  0.19038270  1
  O  O42  1  0.59037366  0.19038270  0.17680576  1
  O  O43  1  0.69038270  0.09037366  0.67680576  1
  O  O44  1  0.09037366  0.67680576  0.69038270  1
  O  O45  1  0.67680576  0.69038270  0.09037366  1
  O  O46  1  0.97901037  0.60836648  0.38304590  1
  O  O47  1  0.60836648  0.38304590  0.97901037  1
  O  O48  1  0.38304590  0.97901037  0.60836648  1
  O  O49  1  0.47901037  0.88304590  0.10836648  1
  O  O50  1  0.88304590  0.10836648  0.47901037  1
  O  O51  1  0.10836648  0.47901037  0.88304590  1
  O  O52  1  0.02098963  0.39163352  0.61695410  1
  O  O53  1  0.39163352  0.61695410  0.02098963  1
  O  O54  1  0.61695410  0.02098963  0.39163352  1
  O  O55  1  0.52098963  0.11695410  0.89163352  1
  O  O56  1  0.11695410  0.89163352  0.52098963  1
  O  O57  1  0.89163352  0.52098963  0.11695410  1
  O  O58  1  0.87807159  0.87794997  0.66863178  1
  O  O59  1  0.87794997  0.66863178  0.87807159  1
  O  O60  1  0.66863178  0.87807159  0.87794997  1
  O  O61  1  0.37807159  0.16863178  0.37794997  1
  O  O62  1  0.16863178  0.37794997  0.37807159  1
  O  O63  1  0.37794997  0.37807159  0.16863178  1
  O  O64  1  0.12192841  0.12205003  0.33136822  1
  O  O65  1  0.12205003  0.33136822  0.12192841  1
  O  O66  1  0.33136822  0.12192841  0.12205003  1
  O  O67  1  0.62192841  0.83136822  0.62205003  1
  O  O68  1  0.83136822  0.62205003  0.62192841  1
  O  O69  1  0.62205003  0.62192841  0.83136822  1
  O  O70  1  0.29923425  0.42480342  0.59535699  1
  O  O71  1  0.42480342  0.59535699  0.29923425  1
  O  O72  1  0.59535699  0.29923425  0.42480342  1
  O  O73  1  0.79923425  0.09535699  0.92480342  1
  O  O74  1  0.09535699  0.92480342  0.79923425  1
  O  O75  1  0.92480342  0.79923425  0.09535699  1
  O  O76  1  0.70076575  0.57519658  0.40464301  1
  O  O77  1  0.57519658  0.40464301  0.70076575  1
  O  O78  1  0.40464301  0.70076575  0.57519658  1
  O  O79  1  0.20076575  0.90464301  0.07519658  1
  O  O80  1  0.90464301  0.07519658  0.20076575  1
  O  O81  1  0.07519658  0.20076575  0.90464301  1
