# generated using pymatgen
data_MgCdHg2
_symmetry_space_group_name_H-M   'P 1'
_cell_length_a   13.52426231
_cell_length_b   12.32743064
_cell_length_c   12.32743124
_cell_angle_alpha   57.73664640
_cell_angle_beta   56.73285385
_cell_angle_gamma   56.73286350
_symmetry_Int_Tables_number   1
_chemical_formula_structural   MgCdHg2
_chemical_formula_sum   'Mg1 Cd1 Hg2'
_cell_volume   1354.72203573
_cell_formula_units_Z   1
loop_
 _symmetry_equiv_pos_site_id
 _symmetry_equiv_pos_as_xyz
  1  'x, y, z'
loop_
 _atom_site_type_symbol
 _atom_site_label
 _atom_site_symmetry_multiplicity
 _atom_site_fract_x
 _atom_site_fract_y
 _atom_site_fract_z
 _atom_site_occupancy
  Mg  Mg0  1  0.00000000  -0.00000000  0.00000000  1
  Cd  Cd1  1  0.50000000  0.00000000  -0.00000000  1
  Hg  Hg2  1  0.75142136  0.99999997  0.00000003  1
  Hg  Hg3  1  0.24857864  0.00000003  -0.00000003  1
