# generated using pymatgen
data_Ba2CdSe3
_symmetry_space_group_name_H-M   'P 1'
_cell_length_a   4.53869048
_cell_length_b   9.35853119
_cell_length_c   18.12634793
_cell_angle_alpha   90.00000000
_cell_angle_beta   90.00000000
_cell_angle_gamma   90.00000000
_symmetry_Int_Tables_number   1
_chemical_formula_structural   Ba2CdSe3
_chemical_formula_sum   'Ba8 Cd4 Se12'
_cell_volume   769.92526406
_cell_formula_units_Z   4
loop_
 _symmetry_equiv_pos_site_id
 _symmetry_equiv_pos_as_xyz
  1  'x, y, z'
loop_
 _atom_site_type_symbol
 _atom_site_label
 _atom_site_symmetry_multiplicity
 _atom_site_fract_x
 _atom_site_fract_y
 _atom_site_fract_z
 _atom_site_occupancy
  Ba  Ba0  1  0.25000000  0.76036801  0.95983124  1
  Ba  Ba1  1  0.75000000  0.73963199  0.45983124  1
  Ba  Ba2  1  0.25000000  0.26036801  0.54016876  1
  Ba  Ba3  1  0.75000000  0.23963199  0.04016876  1
  Ba  Ba4  1  0.25000000  0.42192212  0.28489597  1
  Ba  Ba5  1  0.75000000  0.57807788  0.71510403  1
  Ba  Ba6  1  0.25000000  0.92192212  0.21510403  1
  Ba  Ba7  1  0.75000000  0.07807788  0.78489597  1
  Cd  Cd8  1  0.75000000  0.12432592  0.36690602  1
  Cd  Cd9  1  0.75000000  0.62432592  0.13309398  1
  Cd  Cd10  1  0.25000000  0.87567408  0.63309398  1
  Cd  Cd11  1  0.25000000  0.37567408  0.86690602  1
  Se  Se12  1  0.25000000  0.98643019  0.40384039  1
  Se  Se13  1  0.75000000  0.01356981  0.59615961  1
  Se  Se14  1  0.25000000  0.48643019  0.09615961  1
  Se  Se15  1  0.75000000  0.51356981  0.90384039  1
  Se  Se16  1  0.25000000  0.11864084  0.92761865  1
  Se  Se17  1  0.75000000  0.88135916  0.07238135  1
  Se  Se18  1  0.25000000  0.61864084  0.57238135  1
  Se  Se19  1  0.75000000  0.18563051  0.22356551  1
  Se  Se20  1  0.25000000  0.31436949  0.72356551  1
  Se  Se21  1  0.75000000  0.68563051  0.27643449  1
  Se  Se22  1  0.25000000  0.81436949  0.77643449  1
  Se  Se23  1  0.75000000  0.38135916  0.42761865  1
