# generated using pymatgen
data_MgAl4(HO)12
_symmetry_space_group_name_H-M   'P 1'
_cell_length_a   7.16465067
_cell_length_b   7.23792932
_cell_length_c   7.19058333
_cell_angle_alpha   102.25251874
_cell_angle_beta   137.36134939
_cell_angle_gamma   93.14179132
_symmetry_Int_Tables_number   1
_chemical_formula_structural   MgAl4(HO)12
_chemical_formula_sum   'Mg1 Al4 H12 O12'
_cell_volume   233.96165708
_cell_formula_units_Z   1
loop_
 _symmetry_equiv_pos_site_id
 _symmetry_equiv_pos_as_xyz
  1  'x, y, z'
loop_
 _atom_site_type_symbol
 _atom_site_label
 _atom_site_symmetry_multiplicity
 _atom_site_fract_x
 _atom_site_fract_y
 _atom_site_fract_z
 _atom_site_occupancy
  Mg  Mg0  1  0.59303749  0.58296374  0.99213120  1
  Al  Al1  1  0.47741660  0.82410077  0.30616257  1
  Al  Al2  1  0.48686375  0.14148312  0.65833072  1
  Al  Al3  1  0.98245001  0.65354169  0.64338408  1
  Al  Al4  1  0.01207286  0.29660551  0.34294840  1
  H  H5  1  0.97004545  0.96930651  0.54151576  1
  H  H6  1  0.94724641  0.92762734  0.21782187  1
  H  H7  1  0.77304885  0.76485798  0.97814977  1
  H  H8  1  0.44828141  0.45639228  0.27250390  1
  H  H9  1  0.14562747  0.67466720  0.42236549  1
  H  H10  1  0.86778927  0.29400587  0.57596572  1
  H  H11  1  0.28050809  0.10797265  0.18232982  1
  H  H12  1  0.60937942  0.81963803  0.74470076  1
  H  H13  1  0.47218595  0.91320476  0.97601114  1
  H  H14  1  0.46060265  0.20180316  0.00029975  1
  H  H15  1  0.97475783  0.37599103  0.99468097  1
  H  H16  1  0.93807922  0.71178662  0.96882192  1
  O  O17  1  0.89197640  0.89554213  0.58453205  1
  O  O18  1  0.07672294  0.05400005  0.39927261  1
  O  O19  1  0.40964685  0.37983991  0.63771604  1
  O  O20  1  0.56437953  0.56724741  0.30571731  1
  O  O21  1  0.99162488  0.58416816  0.36861755  1
  O  O22  1  0.99654656  0.38530391  0.60120789  1
  O  O23  1  0.46156015  0.09173753  0.35764614  1
  O  O24  1  0.47662868  0.86451095  0.57214399  1
  O  O25  1  0.40213671  0.78767523  0.97202222  1
  O  O26  1  0.58684824  0.15609078  0.00225688  1
  O  O27  1  0.91359197  0.25440375  0.99886575  1
  O  O28  1  0.07262835  0.68012691  0.96727170  1
