# generated using pymatgen
data_Na2TiF6
_symmetry_space_group_name_H-M   'P 1'
_cell_length_a   9.42690673
_cell_length_b   9.42690607
_cell_length_c   4.54788918
_cell_angle_alpha   90.00000000
_cell_angle_beta   90.00000000
_cell_angle_gamma   119.99999910
_symmetry_Int_Tables_number   1
_chemical_formula_structural   Na2TiF6
_chemical_formula_sum   'Na6 Ti3 F18'
_cell_volume   350.00874804
_cell_formula_units_Z   3
loop_
 _symmetry_equiv_pos_site_id
 _symmetry_equiv_pos_as_xyz
  1  'x, y, z'
loop_
 _atom_site_type_symbol
 _atom_site_label
 _atom_site_symmetry_multiplicity
 _atom_site_fract_x
 _atom_site_fract_y
 _atom_site_fract_z
 _atom_site_occupancy
  Na  Na0  1  0.34228635  0.34228635  0.00000000  1
  Na  Na1  1  -0.00000000  0.65771365  0.00000000  1
  Na  Na2  1  0.65771365  0.00000000  0.00000000  1
  Na  Na3  1  0.65771365  0.65771365  0.00000000  1
  Na  Na4  1  0.00000000  0.34228635  0.00000000  1
  Na  Na5  1  0.34228635  -0.00000000  0.00000000  1
  Ti  Ti6  1  0.66666700  0.33333300  0.49699846  1
  Ti  Ti7  1  0.33333300  0.66666700  0.50300154  1
  Ti  Ti8  1  -0.00000000  0.00000000  0.00000000  1
  F  F9  1  0.57160027  0.42839973  0.73245599  1
  F  F10  1  0.57160027  0.14320154  0.73245599  1
  F  F11  1  0.85679846  0.42839973  0.73245599  1
  F  F12  1  0.14320154  0.57160027  0.26754401  1
  F  F13  1  0.42839973  0.85679846  0.26754401  1
  F  F14  1  0.42839973  0.57160027  0.26754401  1
  F  F15  1  0.76142464  0.23857536  0.26280259  1
  F  F16  1  0.76142464  0.52285029  0.26280259  1
  F  F17  1  0.47714971  0.23857536  0.26280259  1
  F  F18  1  0.09707845  0.90292155  0.22145555  1
  F  F19  1  0.09707845  0.19415890  0.22145555  1
  F  F20  1  0.80584110  0.90292155  0.22145555  1
  F  F21  1  0.19415890  0.09707845  0.77854445  1
  F  F22  1  0.90292155  0.80584110  0.77854445  1
  F  F23  1  0.90292155  0.09707845  0.77854445  1
  F  F24  1  0.23857536  0.76142464  0.73719741  1
  F  F25  1  0.23857536  0.47714971  0.73719741  1
  F  F26  1  0.52285029  0.76142464  0.73719741  1
