# generated using pymatgen
data_Na3FeP8O23
_symmetry_space_group_name_H-M   'P 1'
_cell_length_a   12.13834776
_cell_length_b   12.13834776
_cell_length_c   12.13834776
_cell_angle_alpha   90.00000000
_cell_angle_beta   90.00000000
_cell_angle_gamma   90.00000000
_symmetry_Int_Tables_number   1
_chemical_formula_structural   Na3FeP8O23
_chemical_formula_sum   'Na12 Fe4 P32 O92'
_cell_volume   1788.45792401
_cell_formula_units_Z   4
loop_
 _symmetry_equiv_pos_site_id
 _symmetry_equiv_pos_as_xyz
  1  'x, y, z'
loop_
 _atom_site_type_symbol
 _atom_site_label
 _atom_site_symmetry_multiplicity
 _atom_site_fract_x
 _atom_site_fract_y
 _atom_site_fract_z
 _atom_site_occupancy
  Na  Na0  1  0.95660192  0.79339808  0.37500000  1
  Na  Na1  1  0.54339808  0.20660192  0.87500000  1
  Na  Na2  1  0.04339808  0.29339808  0.12500000  1
  Na  Na3  1  0.45660192  0.70660192  0.62500000  1
  Na  Na4  1  0.79339808  0.37500000  0.95660192  1
  Na  Na5  1  0.20660192  0.87500000  0.54339808  1
  Na  Na6  1  0.29339808  0.12500000  0.04339808  1
  Na  Na7  1  0.70660192  0.62500000  0.45660192  1
  Na  Na8  1  0.37500000  0.95660192  0.79339808  1
  Na  Na9  1  0.87500000  0.54339808  0.20660192  1
  Na  Na10  1  0.12500000  0.04339808  0.29339808  1
  Na  Na11  1  0.62500000  0.45660192  0.70660192  1
  Fe  Fe12  1  0.87500000  0.12500000  0.62500000  1
  Fe  Fe13  1  0.62500000  0.87500000  0.12500000  1
  Fe  Fe14  1  0.12500000  0.62500000  0.87500000  1
  Fe  Fe15  1  0.37500000  0.37500000  0.37500000  1
  P  P16  1  0.68119707  0.89600385  0.39095411  1
  P  P17  1  0.81880293  0.10399615  0.89095411  1
  P  P18  1  0.31880293  0.39600385  0.10904589  1
  P  P19  1  0.18119707  0.60399615  0.60904589  1
  P  P20  1  0.89600385  0.39095411  0.68119707  1
  P  P21  1  0.10399615  0.89095411  0.81880293  1
  P  P22  1  0.39600385  0.10904589  0.31880293  1
  P  P23  1  0.60399615  0.60904589  0.18119707  1
  P  P24  1  0.39095411  0.68119707  0.89600385  1
  P  P25  1  0.89095411  0.81880293  0.10399615  1
  P  P26  1  0.10904589  0.31880293  0.39600385  1
  P  P27  1  0.60904589  0.18119707  0.60399615  1
  P  P28  1  0.06880293  0.35904589  0.85399615  1
  P  P29  1  0.93119707  0.85904589  0.64600385  1
  P  P30  1  0.43119707  0.64095411  0.35399615  1
  P  P31  1  0.56880293  0.14095411  0.14600385  1
  P  P32  1  0.85399615  0.06880293  0.35904589  1
  P  P33  1  0.64600385  0.93119707  0.85904589  1
  P  P34  1  0.35399615  0.43119707  0.64095411  1
  P  P35  1  0.14600385  0.56880293  0.14095411  1
  P  P36  1  0.35904589  0.85399615  0.06880293  1
  P  P37  1  0.85904589  0.64600385  0.93119707  1
  P  P38  1  0.64095411  0.35399615  0.43119707  1
  P  P39  1  0.14095411  0.14600385  0.56880293  1
  P  P40  1  0.23209431  0.76790569  0.26790569  1
  P  P41  1  0.26790569  0.23209431  0.76790569  1
  P  P42  1  0.76790569  0.26790569  0.23209431  1
  P  P43  1  0.73209431  0.73209431  0.73209431  1
  P  P44  1  0.51790569  0.48209431  0.98209431  1
  P  P45  1  0.48209431  0.98209431  0.51790569  1
  P  P46  1  0.98209431  0.51790569  0.48209431  1
  P  P47  1  0.01790569  0.01790569  0.01790569  1
  O  O48  1  0.61370119  0.87085928  0.29031331  1
  O  O49  1  0.88629881  0.12914072  0.79031331  1
  O  O50  1  0.38629881  0.37085928  0.20968669  1
  O  O51  1  0.11370119  0.62914072  0.70968669  1
  O  O52  1  0.87085928  0.29031331  0.61370119  1
  O  O53  1  0.12914072  0.79031331  0.88629881  1
  O  O54  1  0.37085928  0.20968669  0.38629881  1
  O  O55  1  0.62914072  0.70968669  0.11370119  1
  O  O56  1  0.29031331  0.61370119  0.87085928  1
  O  O57  1  0.79031331  0.88629881  0.12914072  1
  O  O58  1  0.20968669  0.38629881  0.37085928  1
  O  O59  1  0.70968669  0.11370119  0.62914072  1
  O  O60  1  0.13629881  0.45968669  0.87914072  1
  O  O61  1  0.86370119  0.95968669  0.62085928  1
  O  O62  1  0.36370119  0.54031331  0.37914072  1
  O  O63  1  0.63629881  0.04031331  0.12085928  1
  O  O64  1  0.87914072  0.13629881  0.45968669  1
  O  O65  1  0.62085928  0.86370119  0.95968669  1
  O  O66  1  0.37914072  0.36370119  0.54031331  1
  O  O67  1  0.12085928  0.63629881  0.04031331  1
  O  O68  1  0.45968669  0.87914072  0.13629881  1
  O  O69  1  0.95968669  0.62085928  0.86370119  1
  O  O70  1  0.54031331  0.37914072  0.36370119  1
  O  O71  1  0.04031331  0.12085928  0.63629881  1
  O  O72  1  0.84543369  0.75861578  0.67418478  1
  O  O73  1  0.65456631  0.24138422  0.17418478  1
  O  O74  1  0.15456631  0.25861578  0.82581522  1
  O  O75  1  0.34543369  0.74138422  0.32581522  1
  O  O76  1  0.75861578  0.67418478  0.84543369  1
  O  O77  1  0.24138422  0.17418478  0.65456631  1
  O  O78  1  0.25861578  0.82581522  0.15456631  1
  O  O79  1  0.74138422  0.32581522  0.34543369  1
  O  O80  1  0.67418478  0.84543369  0.75861578  1
  O  O81  1  0.17418478  0.65456631  0.24138422  1
  O  O82  1  0.82581522  0.15456631  0.25861578  1
  O  O83  1  0.32581522  0.34543369  0.74138422  1
  O  O84  1  0.90456631  0.07581522  0.99138422  1
  O  O85  1  0.09543369  0.57581522  0.50861578  1
  O  O86  1  0.59543369  0.92418478  0.49138422  1
  O  O87  1  0.40456631  0.42418478  0.00861578  1
  O  O88  1  0.99138422  0.90456631  0.07581522  1
  O  O89  1  0.50861578  0.09543369  0.57581522  1
  O  O90  1  0.49138422  0.59543369  0.92418478  1
  O  O91  1  0.00861578  0.40456631  0.42418478  1
  O  O92  1  0.07581522  0.99138422  0.90456631  1
  O  O93  1  0.57581522  0.50861578  0.09543369  1
  O  O94  1  0.92418478  0.49138422  0.59543369  1
  O  O95  1  0.42418478  0.00861578  0.40456631  1
  O  O96  1  0.73338758  0.01661242  0.37500000  1
  O  O97  1  0.76661242  0.98338758  0.87500000  1
  O  O98  1  0.26661242  0.51661242  0.12500000  1
  O  O99  1  0.23338758  0.48338758  0.62500000  1
  O  O100  1  0.01661242  0.37500000  0.73338758  1
  O  O101  1  0.98338758  0.87500000  0.76661242  1
  O  O102  1  0.51661242  0.12500000  0.26661242  1
  O  O103  1  0.48338758  0.62500000  0.23338758  1
  O  O104  1  0.37500000  0.73338758  0.01661242  1
  O  O105  1  0.87500000  0.76661242  0.98338758  1
  O  O106  1  0.12500000  0.26661242  0.51661242  1
  O  O107  1  0.62500000  0.23338758  0.48338758  1
  O  O108  1  0.01185434  0.81800189  0.56358597  1
  O  O109  1  0.48814566  0.18199811  0.06358597  1
  O  O110  1  0.98814566  0.31800189  0.93641403  1
  O  O111  1  0.51185434  0.68199811  0.43641403  1
  O  O112  1  0.81800189  0.56358597  0.01185434  1
  O  O113  1  0.18199811  0.06358597  0.48814566  1
  O  O114  1  0.31800189  0.93641403  0.98814566  1
  O  O115  1  0.68199811  0.43641403  0.51185434  1
  O  O116  1  0.56358597  0.01185434  0.81800189  1
  O  O117  1  0.06358597  0.48814566  0.18199811  1
  O  O118  1  0.93641403  0.98814566  0.31800189  1
  O  O119  1  0.43641403  0.51185434  0.68199811  1
  O  O120  1  0.73814566  0.18641403  0.93199811  1
  O  O121  1  0.26185434  0.68641403  0.56800189  1
  O  O122  1  0.76185434  0.81358597  0.43199811  1
  O  O123  1  0.23814566  0.31358597  0.06800189  1
  O  O124  1  0.93199811  0.73814566  0.18641403  1
  O  O125  1  0.56800189  0.26185434  0.68641403  1
  O  O126  1  0.43199811  0.76185434  0.81358597  1
  O  O127  1  0.06800189  0.23814566  0.31358597  1
  O  O128  1  0.18641403  0.93199811  0.73814566  1
  O  O129  1  0.68641403  0.56800189  0.26185434  1
  O  O130  1  0.81358597  0.43199811  0.76185434  1
  O  O131  1  0.31358597  0.06800189  0.23814566  1
  O  O132  1  0.16161184  0.83838816  0.33838816  1
  O  O133  1  0.33838816  0.16161184  0.83838816  1
  O  O134  1  0.83838816  0.33838816  0.16161184  1
  O  O135  1  0.66161184  0.66161184  0.66161184  1
  O  O136  1  0.58838816  0.41161184  0.91161184  1
  O  O137  1  0.41161184  0.91161184  0.58838816  1
  O  O138  1  0.91161184  0.58838816  0.41161184  1
  O  O139  1  0.08838816  0.08838816  0.08838816  1
