# generated using pymatgen
data_K2LaI5
_symmetry_space_group_name_H-M   'P 1'
_cell_length_a   9.22489641
_cell_length_b   9.96115598
_cell_length_c   14.48789070
_cell_angle_alpha   90.00000000
_cell_angle_beta   90.00000000
_cell_angle_gamma   90.00000000
_symmetry_Int_Tables_number   1
_chemical_formula_structural   K2LaI5
_chemical_formula_sum   'K8 La4 I20'
_cell_volume   1331.30143334
_cell_formula_units_Z   4
loop_
 _symmetry_equiv_pos_site_id
 _symmetry_equiv_pos_as_xyz
  1  'x, y, z'
loop_
 _atom_site_type_symbol
 _atom_site_label
 _atom_site_symmetry_multiplicity
 _atom_site_fract_x
 _atom_site_fract_y
 _atom_site_fract_z
 _atom_site_occupancy
  K  K0  1  0.94629809  0.00330628  0.82676368  1
  K  K1  1  0.05370191  0.99669372  0.17323632  1
  K  K2  1  0.44629809  0.99669372  0.67323632  1
  K  K3  1  0.05370191  0.50330628  0.17323632  1
  K  K4  1  0.55370191  0.00330628  0.32676368  1
  K  K5  1  0.94629809  0.49669372  0.82676368  1
  K  K6  1  0.55370191  0.49669372  0.32676368  1
  K  K7  1  0.44629809  0.50330628  0.67323632  1
  La  La8  1  0.91863833  0.75000000  0.50647946  1
  La  La9  1  0.08136167  0.25000000  0.49352054  1
  La  La10  1  0.41863833  0.25000000  0.99352054  1
  La  La11  1  0.58136167  0.75000000  0.00647946  1
  I  I12  1  0.13172530  0.75000000  0.68373364  1
  I  I13  1  0.86827470  0.25000000  0.31626636  1
  I  I14  1  0.63172530  0.25000000  0.81626636  1
  I  I15  1  0.36827470  0.75000000  0.18373364  1
  I  I16  1  0.83045373  0.04657311  0.57908931  1
  I  I17  1  0.16954627  0.95342689  0.42091069  1
  I  I18  1  0.33045373  0.95342689  0.92091069  1
  I  I19  1  0.16954627  0.54657311  0.42091069  1
  I  I20  1  0.66954627  0.04657311  0.07908931  1
  I  I21  1  0.83045373  0.45342689  0.57908931  1
  I  I22  1  0.66954627  0.45342689  0.07908931  1
  I  I23  1  0.33045373  0.54657311  0.92091069  1
  I  I24  1  0.56265322  0.75000000  0.50678303  1
  I  I25  1  0.43734678  0.25000000  0.49321697  1
  I  I26  1  0.06265322  0.25000000  0.99321697  1
  I  I27  1  0.93734678  0.75000000  0.00678303  1
  I  I28  1  0.66693524  0.75000000  0.79024886  1
  I  I29  1  0.33306476  0.25000000  0.20975114  1
  I  I30  1  0.16693524  0.25000000  0.70975114  1
  I  I31  1  0.83306476  0.75000000  0.29024886  1
