# generated using pymatgen
data_Na2O
_symmetry_space_group_name_H-M   'P 1'
_cell_length_a   6.05592155
_cell_length_b   6.05592155
_cell_length_c   3.56637044
_cell_angle_alpha   90.00000000
_cell_angle_beta   90.00000000
_cell_angle_gamma   120.00000597
_symmetry_Int_Tables_number   1
_chemical_formula_structural   Na2O
_chemical_formula_sum   'Na6 O3'
_cell_volume   113.27068780
_cell_formula_units_Z   3
loop_
 _symmetry_equiv_pos_site_id
 _symmetry_equiv_pos_as_xyz
  1  'x, y, z'
loop_
 _atom_site_type_symbol
 _atom_site_label
 _atom_site_symmetry_multiplicity
 _atom_site_fract_x
 _atom_site_fract_y
 _atom_site_fract_z
 _atom_site_occupancy
  Na  Na0  1  0.41512682  1.00000000  -0.00000000  1
  Na  Na1  1  0.25924243  0.25924243  0.50000000  1
  Na  Na2  1  1.00000000  0.74075757  0.50000000  1
  Na  Na3  1  1.00000000  0.41512682  -0.00000000  1
  Na  Na4  1  0.74075757  1.00000000  0.50000000  1
  Na  Na5  1  0.58487318  0.58487318  0.00000000  1
  O  O6  1  0.33333300  0.66666700  0.50000000  1
  O  O7  1  -0.00000000  -0.00000000  0.00000000  1
  O  O8  1  0.66666700  0.33333300  0.50000000  1
