# generated using pymatgen
data_Na9H4S4BrO20
_symmetry_space_group_name_H-M   'P 1'
_cell_length_a   8.61150774
_cell_length_b   15.11347216
_cell_length_c   15.11347216
_cell_angle_alpha   90.00000000
_cell_angle_beta   90.00000000
_cell_angle_gamma   90.00000000
_symmetry_Int_Tables_number   1
_chemical_formula_structural   Na9H4S4BrO20
_chemical_formula_sum   'Na36 H16 S16 Br4 O80'
_cell_volume   1967.01511420
_cell_formula_units_Z   4
loop_
 _symmetry_equiv_pos_site_id
 _symmetry_equiv_pos_as_xyz
  1  'x, y, z'
loop_
 _atom_site_type_symbol
 _atom_site_label
 _atom_site_symmetry_multiplicity
 _atom_site_fract_x
 _atom_site_fract_y
 _atom_site_fract_z
 _atom_site_occupancy
  Na  Na0  1  0.18447168  0.62657607  0.14818629  1
  Na  Na1  1  0.18447168  0.87342393  0.35181371  1
  Na  Na2  1  0.18447168  0.14818629  0.87342393  1
  Na  Na3  1  0.18447168  0.35181371  0.62657607  1
  Na  Na4  1  0.81552832  0.37342393  0.85181371  1
  Na  Na5  1  0.81552832  0.12657607  0.64818629  1
  Na  Na6  1  0.81552832  0.85181371  0.12657607  1
  Na  Na7  1  0.81552832  0.64818629  0.37342393  1
  Na  Na8  1  0.50000000  0.75000000  0.25000000  1
  Na  Na9  1  0.50000000  0.25000000  0.75000000  1
  Na  Na10  1  0.79502755  0.60879990  0.12740371  1
  Na  Na11  1  0.79502755  0.89120010  0.37259629  1
  Na  Na12  1  0.79502755  0.12740371  0.89120010  1
  Na  Na13  1  0.79502755  0.37259629  0.60879990  1
  Na  Na14  1  0.20497245  0.39120010  0.87259629  1
  Na  Na15  1  0.20497245  0.10879990  0.62740371  1
  Na  Na16  1  0.20497245  0.87259629  0.10879990  1
  Na  Na17  1  0.20497245  0.62740371  0.39120010  1
  Na  Na18  1  0.31273719  0.62490240  0.85420047  1
  Na  Na19  1  0.31273719  0.87509760  0.64579953  1
  Na  Na20  1  0.31273719  0.85420047  0.87509760  1
  Na  Na21  1  0.31273719  0.64579953  0.62490240  1
  Na  Na22  1  0.68726281  0.37509760  0.14579953  1
  Na  Na23  1  0.68726281  0.12490240  0.35420047  1
  Na  Na24  1  0.68726281  0.14579953  0.12490240  1
  Na  Na25  1  0.68726281  0.35420047  0.37509760  1
  Na  Na26  1  0.98047938  0.75000000  0.75000000  1
  Na  Na27  1  0.01952062  0.25000000  0.25000000  1
  Na  Na28  1  0.70109921  0.61115251  0.87054264  1
  Na  Na29  1  0.70109921  0.88884749  0.62945736  1
  Na  Na30  1  0.70109921  0.87054264  0.88884749  1
  Na  Na31  1  0.70109921  0.62945736  0.61115251  1
  Na  Na32  1  0.29890079  0.38884749  0.12945736  1
  Na  Na33  1  0.29890079  0.11115251  0.37054264  1
  Na  Na34  1  0.29890079  0.12945736  0.11115251  1
  Na  Na35  1  0.29890079  0.37054264  0.38884749  1
  H  H36  1  0.38170243  0.56582142  0.02564983  1
  H  H37  1  0.38170243  0.93417858  0.47435017  1
  H  H38  1  0.38170243  0.02564983  0.93417858  1
  H  H39  1  0.38170243  0.47435017  0.56582142  1
  H  H40  1  0.61829757  0.43417858  0.97435017  1
  H  H41  1  0.61829757  0.06582142  0.52564983  1
  H  H42  1  0.61829757  0.97435017  0.06582142  1
  H  H43  1  0.61829757  0.52564983  0.43417858  1
  H  H44  1  0.11224958  0.56419152  0.97690231  1
  H  H45  1  0.11224958  0.93580848  0.52309769  1
  H  H46  1  0.11224958  0.97690231  0.93580848  1
  H  H47  1  0.11224958  0.52309769  0.56419152  1
  H  H48  1  0.88775042  0.43580848  0.02309769  1
  H  H49  1  0.88775042  0.06419152  0.47690231  1
  H  H50  1  0.88775042  0.02309769  0.06419152  1
  H  H51  1  0.88775042  0.47690231  0.43580848  1
  S  S52  1  0.49672804  0.73472541  0.04030576  1
  S  S53  1  0.49672804  0.76527459  0.45969424  1
  S  S54  1  0.49672804  0.04030576  0.76527459  1
  S  S55  1  0.49672804  0.45969424  0.73472541  1
  S  S56  1  0.50327196  0.26527459  0.95969424  1
  S  S57  1  0.50327196  0.23472541  0.54030576  1
  S  S58  1  0.50327196  0.95969424  0.23472541  1
  S  S59  1  0.50327196  0.54030576  0.26527459  1
  S  S60  1  0.00013230  0.73465147  0.95984803  1
  S  S61  1  0.00013230  0.76534853  0.54015197  1
  S  S62  1  0.00013230  0.95984803  0.76534853  1
  S  S63  1  0.00013230  0.54015197  0.73465147  1
  S  S64  1  0.99986770  0.26534853  0.04015197  1
  S  S65  1  0.99986770  0.23465147  0.45984803  1
  S  S66  1  0.99986770  0.04015197  0.23465147  1
  S  S67  1  0.99986770  0.45984803  0.26534853  1
  Br  Br68  1  -0.00000000  0.75000000  0.25000000  1
  Br  Br69  1  -0.00000000  0.25000000  0.75000000  1
  Br  Br70  1  0.50766978  0.75000000  0.75000000  1
  Br  Br71  1  0.49233022  0.25000000  0.25000000  1
  O  O72  1  0.29454910  0.52419665  0.04193890  1
  O  O73  1  0.29454910  0.97580335  0.45806110  1
  O  O74  1  0.29454910  0.04193890  0.97580335  1
  O  O75  1  0.29454910  0.45806110  0.52419665  1
  O  O76  1  0.70545090  0.47580335  0.95806110  1
  O  O77  1  0.70545090  0.02419665  0.54193890  1
  O  O78  1  0.70545090  0.95806110  0.02419665  1
  O  O79  1  0.70545090  0.54193890  0.47580335  1
  O  O80  1  0.20130424  0.52397885  0.96058248  1
  O  O81  1  0.20130424  0.97602115  0.53941752  1
  O  O82  1  0.20130424  0.96058248  0.97602115  1
  O  O83  1  0.20130424  0.53941752  0.52397885  1
  O  O84  1  0.79869576  0.47602115  0.03941752  1
  O  O85  1  0.79869576  0.02397885  0.46058248  1
  O  O86  1  0.79869576  0.03941752  0.02397885  1
  O  O87  1  0.79869576  0.46058248  0.47602115  1
  O  O88  1  0.49731083  0.81464589  0.98320528  1
  O  O89  1  0.49731083  0.68535411  0.51679472  1
  O  O90  1  0.49731083  0.98320528  0.68535411  1
  O  O91  1  0.49731083  0.51679472  0.81464589  1
  O  O92  1  0.50268917  0.18535411  0.01679472  1
  O  O93  1  0.50268917  0.31464589  0.48320528  1
  O  O94  1  0.50268917  0.01679472  0.31464589  1
  O  O95  1  0.50268917  0.48320528  0.18535411  1
  O  O96  1  0.63972403  0.73317222  0.09660866  1
  O  O97  1  0.63972403  0.76682778  0.40339134  1
  O  O98  1  0.63972403  0.09660866  0.76682778  1
  O  O99  1  0.63972403  0.40339134  0.73317222  1
  O  O100  1  0.36027597  0.26682778  0.90339134  1
  O  O101  1  0.36027597  0.23317222  0.59660866  1
  O  O102  1  0.36027597  0.90339134  0.23317222  1
  O  O103  1  0.36027597  0.59660866  0.26682778  1
  O  O104  1  0.49170988  0.65237124  0.98417293  1
  O  O105  1  0.49170988  0.84762876  0.51582707  1
  O  O106  1  0.49170988  0.98417293  0.84762876  1
  O  O107  1  0.49170988  0.51582707  0.65237124  1
  O  O108  1  0.50829012  0.34762876  0.01582707  1
  O  O109  1  0.50829012  0.15237124  0.48417293  1
  O  O110  1  0.50829012  0.01582707  0.15237124  1
  O  O111  1  0.50829012  0.48417293  0.34762876  1
  O  O112  1  0.35807521  0.73682957  0.10006733  1
  O  O113  1  0.35807521  0.76317043  0.39993267  1
  O  O114  1  0.35807521  0.10006733  0.76317043  1
  O  O115  1  0.35807521  0.39993267  0.73682957  1
  O  O116  1  0.64192479  0.26317043  0.89993267  1
  O  O117  1  0.64192479  0.23682957  0.60006733  1
  O  O118  1  0.64192479  0.89993267  0.23682957  1
  O  O119  1  0.64192479  0.60006733  0.26317043  1
  O  O120  1  0.00030138  0.81442796  0.01728801  1
  O  O121  1  0.00030138  0.68557204  0.48271199  1
  O  O122  1  0.00030138  0.01728801  0.68557204  1
  O  O123  1  0.00030138  0.48271199  0.81442796  1
  O  O124  1  0.99969862  0.18557204  0.98271199  1
  O  O125  1  0.99969862  0.31442796  0.51728801  1
  O  O126  1  0.99969862  0.98271199  0.31442796  1
  O  O127  1  0.99969862  0.51728801  0.18557204  1
  O  O128  1  0.85786920  0.73518414  0.90278990  1
  O  O129  1  0.85786920  0.76481586  0.59721010  1
  O  O130  1  0.85786920  0.90278990  0.76481586  1
  O  O131  1  0.85786920  0.59721010  0.73518414  1
  O  O132  1  0.14213080  0.26481586  0.09721010  1
  O  O133  1  0.14213080  0.23518414  0.40278990  1
  O  O134  1  0.14213080  0.09721010  0.23518414  1
  O  O135  1  0.14213080  0.40278990  0.26481586  1
  O  O136  1  0.00152697  0.65213750  0.01583072  1
  O  O137  1  0.00152697  0.84786250  0.48416928  1
  O  O138  1  0.00152697  0.01583072  0.84786250  1
  O  O139  1  0.00152697  0.48416928  0.65213750  1
  O  O140  1  0.99847303  0.34786250  0.98416928  1
  O  O141  1  0.99847303  0.15213750  0.51583072  1
  O  O142  1  0.99847303  0.98416928  0.15213750  1
  O  O143  1  0.99847303  0.51583072  0.34786250  1
  O  O144  1  0.13954318  0.73520289  0.90089330  1
  O  O145  1  0.13954318  0.76479711  0.59910670  1
  O  O146  1  0.13954318  0.90089330  0.76479711  1
  O  O147  1  0.13954318  0.59910670  0.73520289  1
  O  O148  1  0.86045682  0.26479711  0.09910670  1
  O  O149  1  0.86045682  0.23520289  0.40089330  1
  O  O150  1  0.86045682  0.09910670  0.23520289  1
  O  O151  1  0.86045682  0.40089330  0.26479711  1
