# generated using pymatgen
data_Cs2TiP4O13
_symmetry_space_group_name_H-M   'P 1'
_cell_length_a   5.14414161
_cell_length_b   7.98103608
_cell_length_c   15.77240014
_cell_angle_alpha   84.23861196
_cell_angle_beta   83.98921238
_cell_angle_gamma   80.42857894
_symmetry_Int_Tables_number   1
_chemical_formula_structural   Cs2TiP4O13
_chemical_formula_sum   'Cs4 Ti2 P8 O26'
_cell_volume   632.74298510
_cell_formula_units_Z   2
loop_
 _symmetry_equiv_pos_site_id
 _symmetry_equiv_pos_as_xyz
  1  'x, y, z'
loop_
 _atom_site_type_symbol
 _atom_site_label
 _atom_site_symmetry_multiplicity
 _atom_site_fract_x
 _atom_site_fract_y
 _atom_site_fract_z
 _atom_site_occupancy
  Cs  Cs0  1  0.67543763  0.74402588  0.98820595  1
  Cs  Cs1  1  0.32456237  0.25597412  0.01179405  1
  Cs  Cs2  1  0.26639824  0.30162361  0.52980572  1
  Cs  Cs3  1  0.73360176  0.69837639  0.47019428  1
  Ti  Ti4  1  0.44549373  0.05856773  0.26071904  1
  Ti  Ti5  1  0.55450627  0.94143227  0.73928096  1
  P  P6  1  0.87688202  0.22214291  0.35188112  1
  P  P7  1  0.12311798  0.77785709  0.64811888  1
  P  P8  1  0.66804947  0.40749711  0.19505262  1
  P  P9  1  0.33195053  0.59250289  0.80494738  1
  P  P10  1  0.31460735  0.67301346  0.28707666  1
  P  P11  1  0.68539265  0.32698654  0.71292334  1
  P  P12  1  0.02041515  0.90128002  0.16309646  1
  P  P13  1  0.97958485  0.09871998  0.83690354  1
  O  O14  1  0.71240508  0.08690852  0.33356438  1
  O  O15  1  0.28759492  0.91309148  0.66643562  1
  O  O16  1  0.78767396  0.30425865  0.43184814  1
  O  O17  1  0.21232604  0.69574135  0.56815186  1
  O  O18  1  0.85213081  0.36349610  0.27078770  1
  O  O19  1  0.14786919  0.63650390  0.72921230  1
  O  O20  1  0.16995262  0.14426084  0.34664434  1
  O  O21  1  0.83004738  0.85573916  0.65335566  1
  O  O22  1  0.51415023  0.59329554  0.21163818  1
  O  O23  1  0.48584977  0.40670446  0.78836182  1
  O  O24  1  0.81532401  0.41871056  0.11050517  1
  O  O25  1  0.18467599  0.58128944  0.88949483  1
  O  O26  1  0.46303687  0.28787053  0.20817092  1
  O  O27  1  0.53696313  0.71212947  0.79182908  1
  O  O28  1  0.43355575  0.82456391  0.30851073  1
  O  O29  1  0.56644425  0.17543609  0.69148927  1
  O  O30  1  0.05838061  0.74782514  0.23979310  1
  O  O31  1  0.94161939  0.25217486  0.76020690  1
  O  O32  1  0.25957670  0.54943151  0.35895865  1
  O  O33  1  0.74042330  0.45056849  0.64104135  1
  O  O34  1  0.11950933  0.83594459  0.07965559  1
  O  O35  1  0.88049067  0.16405541  0.92034441  1
  O  O36  1  0.72442950  0.96799167  0.17317095  1
  O  O37  1  0.27557050  0.03200833  0.82682905  1
  O  O38  1  0.17667329  0.03517987  0.18831239  1
  O  O39  1  0.82332671  0.96482013  0.81168761  1
