# generated using pymatgen
data_Na3MnO4
_symmetry_space_group_name_H-M   'P 1'
_cell_length_a   5.46141937
_cell_length_b   7.02580050
_cell_length_c   12.17812366
_cell_angle_alpha   89.99998270
_cell_angle_beta   89.99981510
_cell_angle_gamma   89.99999247
_symmetry_Int_Tables_number   1
_chemical_formula_structural   Na3MnO4
_chemical_formula_sum   'Na12 Mn4 O16'
_cell_volume   467.28487027
_cell_formula_units_Z   4
loop_
 _symmetry_equiv_pos_site_id
 _symmetry_equiv_pos_as_xyz
  1  'x, y, z'
loop_
 _atom_site_type_symbol
 _atom_site_label
 _atom_site_symmetry_multiplicity
 _atom_site_fract_x
 _atom_site_fract_y
 _atom_site_fract_z
 _atom_site_occupancy
  Na  Na0  1  0.71635551  0.50468495  0.66295763  1
  Na  Na1  1  0.28364833  0.49531598  0.33704162  1
  Na  Na2  1  0.21636973  0.49532891  0.83704221  1
  Na  Na3  1  0.28364841  0.00468385  0.33704167  1
  Na  Na4  1  0.78362826  0.50467070  0.16295647  1
  Na  Na5  1  0.71635549  0.99531503  0.66295761  1
  Na  Na6  1  0.78362833  0.99532926  0.16295646  1
  Na  Na7  1  0.21636965  0.00467104  0.83704217  1
  Na  Na8  1  0.27471483  0.75000007  0.57387391  1
  Na  Na9  1  0.72529017  0.24999921  0.42612282  1
  Na  Na10  1  0.77469043  0.24999993  0.92613779  1
  Na  Na11  1  0.22530735  0.75000000  0.07386237  1
  Mn  Mn12  1  0.70314767  0.75000088  0.90997648  1
  Mn  Mn13  1  0.29684480  0.24999908  0.09005305  1
  Mn  Mn14  1  0.20319932  0.25000013  0.59001916  1
  Mn  Mn15  1  0.79681609  0.75000002  0.40995438  1
  O  O16  1  0.39328095  0.75000011  0.90744104  1
  O  O17  1  0.60672704  0.24999978  0.09255798  1
  O  O18  1  0.89329338  0.24999997  0.59254742  1
  O  O19  1  0.10672205  0.75000001  0.40744662  1
  O  O20  1  0.79959790  0.94975117  0.84371191  1
  O  O21  1  0.20040442  0.05023157  0.15629559  1
  O  O22  1  0.29961677  0.05021773  0.65629374  1
  O  O23  1  0.20040444  0.44976792  0.15629559  1
  O  O24  1  0.70037515  0.94978451  0.34370136  1
  O  O25  1  0.79959806  0.55024929  0.84371191  1
  O  O26  1  0.70037529  0.55021506  0.34370132  1
  O  O27  1  0.29961685  0.44978289  0.65629388  1
  O  O28  1  0.70267771  0.74999997  0.54276486  1
  O  O29  1  0.29731814  0.25000005  0.45724769  1
  O  O30  1  0.20272672  0.24999977  0.95725455  1
  O  O31  1  0.79724873  0.75000015  0.04273873  1
