# generated using pymatgen
data_MgTl2H12(SO7)2
_symmetry_space_group_name_H-M   'P 1'
_cell_length_a   12.30935405
_cell_length_b   6.15642200
_cell_length_c   9.14408399
_cell_angle_alpha   74.00150765
_cell_angle_beta   90.00000000
_cell_angle_gamma   90.00000000
_symmetry_Int_Tables_number   1
_chemical_formula_structural   MgTl2H12(SO7)2
_chemical_formula_sum   'Mg2 Tl4 H24 S4 O28'
_cell_volume   666.11431173
_cell_formula_units_Z   2
loop_
 _symmetry_equiv_pos_site_id
 _symmetry_equiv_pos_as_xyz
  1  'x, y, z'
loop_
 _atom_site_type_symbol
 _atom_site_label
 _atom_site_symmetry_multiplicity
 _atom_site_fract_x
 _atom_site_fract_y
 _atom_site_fract_z
 _atom_site_occupancy
  Mg  Mg0  1  0.50000000  -0.00000000  0.50000000  1
  Mg  Mg1  1  0.00000000  -0.00000000  -0.00000000  1
  Tl  Tl2  1  0.15000357  0.65285232  0.63242322  1
  Tl  Tl3  1  0.65000357  0.34714768  0.86757678  1
  Tl  Tl4  1  0.84999643  0.34714768  0.36757678  1
  Tl  Tl5  1  0.34999643  0.65285232  0.13242322  1
  H  H6  1  0.40666968  0.67743822  0.71648744  1
  H  H7  1  0.90666968  0.32256178  0.78351256  1
  H  H8  1  0.59333032  0.32256178  0.28351256  1
  H  H9  1  0.09333032  0.67743822  0.21648744  1
  H  H10  1  0.37204178  0.91150678  0.74555087  1
  H  H11  1  0.87204178  0.08849322  0.75444913  1
  H  H12  1  0.62795822  0.08849322  0.25444913  1
  H  H13  1  0.12795822  0.91150678  0.24555087  1
  H  H14  1  0.40263371  0.07178158  0.22683408  1
  H  H15  1  0.90263371  0.92821842  0.27316592  1
  H  H16  1  0.59736629  0.92821842  0.77316592  1
  H  H17  1  0.09736629  0.07178158  0.72683408  1
  H  H18  1  0.31158780  0.00602530  0.35246286  1
  H  H19  1  0.81158780  0.99397470  0.14753714  1
  H  H20  1  0.68841220  0.99397470  0.64753714  1
  H  H21  1  0.18841220  0.00602530  0.85246286  1
  H  H22  1  0.55863815  0.65239576  0.40431708  1
  H  H23  1  0.05863815  0.34760424  0.09568292  1
  H  H24  1  0.44136185  0.34760424  0.59568292  1
  H  H25  1  0.94136185  0.65239576  0.90431708  1
  H  H26  1  0.64442993  0.66925786  0.52679541  1
  H  H27  1  0.14442993  0.33074214  0.97320459  1
  H  H28  1  0.35557007  0.33074214  0.47320459  1
  H  H29  1  0.85557007  0.66925786  0.02679541  1
  S  S30  1  0.36458235  0.26752956  0.90552027  1
  S  S31  1  0.86458235  0.73247044  0.59447973  1
  S  S32  1  0.63541765  0.73247044  0.09447973  1
  S  S33  1  0.13541765  0.26752956  0.40552027  1
  O  O34  1  0.27114208  0.41319237  0.91662080  1
  O  O35  1  0.77114208  0.58680763  0.58337920  1
  O  O36  1  0.72885792  0.58680763  0.08337920  1
  O  O37  1  0.22885792  0.41319237  0.41662080  1
  O  O38  1  0.43022360  0.21921507  0.04534446  1
  O  O39  1  0.93022360  0.78078493  0.45465554  1
  O  O40  1  0.56977640  0.78078493  0.95465454  1
  O  O41  1  0.06977640  0.21921507  0.54534546  1
  O  O42  1  0.43356053  0.39081511  0.77587102  1
  O  O43  1  0.93356053  0.60918489  0.72412898  1
  O  O44  1  0.56643947  0.60918489  0.22412898  1
  O  O45  1  0.06643947  0.39081511  0.27587102  1
  O  O46  1  0.32469450  0.05426229  0.87837391  1
  O  O47  1  0.82469450  0.94573771  0.62162609  1
  O  O48  1  0.67530550  0.94573771  0.12162609  1
  O  O49  1  0.17530550  0.05426229  0.37837491  1
  O  O50  1  0.38995126  0.83714874  0.66661743  1
  O  O51  1  0.88995126  0.16285126  0.83338257  1
  O  O52  1  0.61004874  0.16285126  0.33338257  1
  O  O53  1  0.11004874  0.83714874  0.16661743  1
  O  O54  1  0.38801387  0.97854632  0.33137777  1
  O  O55  1  0.88801387  0.02145368  0.16862223  1
  O  O56  1  0.61198613  0.02145368  0.66862223  1
  O  O57  1  0.11198613  0.97854632  0.83137777  1
  O  O58  1  0.56781034  0.69943469  0.49760690  1
  O  O59  1  0.06781034  0.30056531  0.00239310  1
  O  O60  1  0.43218966  0.30056531  0.50239310  1
  O  O61  1  0.93218966  0.69943469  0.99760690  1
