# generated using pymatgen
data_La2MgS4
_symmetry_space_group_name_H-M   'P 1'
_cell_length_a   13.26493377
_cell_length_b   7.98089994
_cell_length_c   13.14415265
_cell_angle_alpha   90.00000000
_cell_angle_beta   90.00000000
_cell_angle_gamma   90.00000000
_symmetry_Int_Tables_number   1
_chemical_formula_structural   La2MgS4
_chemical_formula_sum   'La16 Mg8 S32'
_cell_volume   1391.52029885
_cell_formula_units_Z   8
loop_
 _symmetry_equiv_pos_site_id
 _symmetry_equiv_pos_as_xyz
  1  'x, y, z'
loop_
 _atom_site_type_symbol
 _atom_site_label
 _atom_site_symmetry_multiplicity
 _atom_site_fract_x
 _atom_site_fract_y
 _atom_site_fract_z
 _atom_site_occupancy
  La  La0  1  0.10955471  0.88719279  0.68460066  1
  La  La1  1  0.89044529  0.11280721  0.18460066  1
  La  La2  1  0.39044529  0.88719279  0.18460066  1
  La  La3  1  0.60955471  0.11280721  0.68460066  1
  La  La4  1  0.12652785  0.38571708  0.32555517  1
  La  La5  1  0.87347215  0.61428292  0.82555517  1
  La  La6  1  0.37347215  0.38571708  0.82555517  1
  La  La7  1  0.62652785  0.61428292  0.32555517  1
  La  La8  1  0.13532870  0.63178664  0.99486079  1
  La  La9  1  0.86467130  0.36821336  0.49486079  1
  La  La10  1  0.36467130  0.63178664  0.49486079  1
  La  La11  1  0.63532870  0.36821336  0.99486079  1
  La  La12  1  0.13587336  0.13111785  0.99296673  1
  La  La13  1  0.86412664  0.86888215  0.49296673  1
  La  La14  1  0.36412664  0.13111785  0.49296673  1
  La  La15  1  0.63587336  0.86888215  0.99296673  1
  Mg  Mg16  1  0.11147801  0.38505353  0.69341938  1
  Mg  Mg17  1  0.88852199  0.61494647  0.19341938  1
  Mg  Mg18  1  0.38852199  0.38505353  0.19341938  1
  Mg  Mg19  1  0.61147801  0.61494647  0.69341938  1
  Mg  Mg20  1  0.12570893  0.88004424  0.32053569  1
  Mg  Mg21  1  0.87429107  0.11995576  0.82053569  1
  Mg  Mg22  1  0.37429107  0.88004424  0.82053569  1
  Mg  Mg23  1  0.62570893  0.11995576  0.32053569  1
  S  S24  1  0.00986393  0.88464744  0.87935092  1
  S  S25  1  0.99013607  0.11535256  0.37935092  1
  S  S26  1  0.49013607  0.88464744  0.37935092  1
  S  S27  1  0.50986393  0.11535256  0.87935092  1
  S  S28  1  0.02633349  0.38560223  0.12959945  1
  S  S29  1  0.97366651  0.61439777  0.62959945  1
  S  S30  1  0.47366651  0.38560223  0.62959945  1
  S  S31  1  0.52633349  0.61439777  0.12959945  1
  S  S32  1  0.02690906  0.37309396  0.86652803  1
  S  S33  1  0.97309094  0.62690604  0.36652803  1
  S  S34  1  0.47309094  0.37309396  0.36652803  1
  S  S35  1  0.52690906  0.62690604  0.86652803  1
  S  S36  1  0.04893063  0.87494581  0.14139845  1
  S  S37  1  0.95106937  0.12505419  0.64139845  1
  S  S38  1  0.45106937  0.87494581  0.64139845  1
  S  S39  1  0.54893063  0.12505419  0.14139845  1
  S  S40  1  0.20902673  0.88207573  0.49441683  1
  S  S41  1  0.79097327  0.11792427  0.99441683  1
  S  S42  1  0.29097327  0.88207573  0.99441683  1
  S  S43  1  0.70902673  0.11792427  0.49441683  1
  S  S44  1  0.21008034  0.38199720  0.52512729  1
  S  S45  1  0.78991966  0.61800280  0.02512729  1
  S  S46  1  0.28991966  0.38199720  0.02512729  1
  S  S47  1  0.71008034  0.61800280  0.52512729  1
  S  S48  1  0.23089778  0.13852157  0.77203383  1
  S  S49  1  0.76910222  0.86147843  0.27203383  1
  S  S50  1  0.26910222  0.13852157  0.27203383  1
  S  S51  1  0.73089778  0.86147843  0.77203383  1
  S  S52  1  0.23548949  0.64120944  0.77660778  1
  S  S53  1  0.76451051  0.35879056  0.27660778  1
  S  S54  1  0.26451051  0.64120944  0.27660778  1
  S  S55  1  0.73548949  0.35879056  0.77660778  1
