# generated using pymatgen
data_Na5SbO5
_symmetry_space_group_name_H-M   'P 1'
_cell_length_a   5.77564190
_cell_length_b   5.77564190
_cell_length_c   6.36062800
_cell_angle_alpha   72.89064708
_cell_angle_beta   72.89064708
_cell_angle_gamma   44.65283902
_symmetry_Int_Tables_number   1
_chemical_formula_structural   Na5SbO5
_chemical_formula_sum   'Na5 Sb1 O5'
_cell_volume   141.37808552
_cell_formula_units_Z   1
loop_
 _symmetry_equiv_pos_site_id
 _symmetry_equiv_pos_as_xyz
  1  'x, y, z'
loop_
 _atom_site_type_symbol
 _atom_site_label
 _atom_site_symmetry_multiplicity
 _atom_site_fract_x
 _atom_site_fract_y
 _atom_site_fract_z
 _atom_site_occupancy
  Na  Na0  1  0.32122460  0.32122460  0.85670302  1
  Na  Na1  1  0.30063212  0.30063212  0.32449672  1
  Na  Na2  1  0.69936788  0.69936788  0.67550328  1
  Na  Na3  1  0.67877540  0.67877540  0.14329698  1
  Na  Na4  1  -0.00000000  -0.00000000  0.50000000  1
  Sb  Sb5  1  -0.00000000  -0.00000000  0.00000000  1
  O  O6  1  0.86697238  0.86697238  0.84403663  1
  O  O7  1  0.85624104  0.85624104  0.29400164  1
  O  O8  1  0.14375896  0.14375896  0.70599836  1
  O  O9  1  0.13302762  0.13302762  0.15596337  1
  O  O10  1  0.50000000  0.50000000  0.00000000  1
