# generated using pymatgen
data_MgV4(PO5)4
_symmetry_space_group_name_H-M   'P 1'
_cell_length_a   5.20992981
_cell_length_b   10.35815533
_cell_length_c   7.46251317
_cell_angle_alpha   68.50474072
_cell_angle_beta   69.82219769
_cell_angle_gamma   77.13196686
_symmetry_Int_Tables_number   1
_chemical_formula_structural   MgV4(PO5)4
_chemical_formula_sum   'Mg1 V4 P4 O20'
_cell_volume   349.56442141
_cell_formula_units_Z   1
loop_
 _symmetry_equiv_pos_site_id
 _symmetry_equiv_pos_as_xyz
  1  'x, y, z'
loop_
 _atom_site_type_symbol
 _atom_site_label
 _atom_site_symmetry_multiplicity
 _atom_site_fract_x
 _atom_site_fract_y
 _atom_site_fract_z
 _atom_site_occupancy
  Mg  Mg0  1  0.58972800  0.70603500  0.96633100  1
  V  V1  1  0.07166600  0.46510000  0.01478000  1
  V  V2  1  0.96811800  0.73710900  0.23827400  1
  V  V3  1  0.54640600  0.25121800  0.72792400  1
  V  V4  1  0.96821100  0.98806700  0.47655700  1
  P  P5  1  0.58672300  0.04450500  0.19167400  1
  P  P6  1  0.39909100  0.44800300  0.30901100  1
  P  P7  1  0.32212000  0.96346200  0.79421300  1
  P  P8  1  0.68837000  0.54608100  0.71124700  1
  O  O9  1  0.27284100  0.07529600  0.29547800  1
  O  O10  1  0.18574200  0.39366900  0.26387900  1
  O  O11  1  0.04453400  0.84284000  0.41685100  1
  O  O12  1  0.25314900  0.85873100  0.01231300  1
  O  O13  1  0.32436300  0.61175200  0.25984500  1
  O  O14  1  0.29330500  0.11434400  0.79130700  1
  O  O15  1  0.37812700  0.38090400  0.53636600  1
  O  O16  1  0.21403500  0.33148000  0.92617000  1
  O  O17  1  0.73980100  0.08264300  0.31063100  1
  O  O18  1  0.13462800  0.94318700  0.68759700  1
  O  O19  1  0.69263300  0.42156900  0.17991500  1
  O  O20  1  0.40220900  0.58221700  0.85360700  1
  O  O21  1  0.79497200  0.17379800  0.58029500  1
  O  O22  1  0.65373700  0.13820700  0.97403500  1
  O  O23  1  0.89092600  0.58345400  0.79281300  1
  O  O24  1  0.66417800  0.89004500  0.20936500  1
  O  O25  1  0.72249000  0.64003300  0.49311500  1
  O  O26  1  0.90829500  0.66482600  0.08535500  1
  O  O27  1  0.62776700  0.90482800  0.70884300  1
  O  O28  1  0.73684400  0.39159900  0.71899600  1
