# generated using pymatgen
data_MgV4(PO5)4
_symmetry_space_group_name_H-M   'P 1'
_cell_length_a   5.23894667
_cell_length_b   10.21104341
_cell_length_c   7.35025009
_cell_angle_alpha   71.04308972
_cell_angle_beta   70.35907679
_cell_angle_gamma   75.54010834
_symmetry_Int_Tables_number   1
_chemical_formula_structural   MgV4(PO5)4
_chemical_formula_sum   'Mg1 V4 P4 O20'
_cell_volume   345.85465081
_cell_formula_units_Z   1
loop_
 _symmetry_equiv_pos_site_id
 _symmetry_equiv_pos_as_xyz
  1  'x, y, z'
loop_
 _atom_site_type_symbol
 _atom_site_label
 _atom_site_symmetry_multiplicity
 _atom_site_fract_x
 _atom_site_fract_y
 _atom_site_fract_z
 _atom_site_occupancy
  Mg  Mg0  1  0.00000000  0.75000000  0.75000000  1
  V  V1  1  0.03627900  0.48124100  0.01777100  1
  V  V2  1  0.00000000  0.75000000  0.25000000  1
  V  V3  1  0.50000000  0.24999900  0.75000000  1
  V  V4  1  0.96372200  0.01875900  0.48222900  1
  P  P5  1  0.59994600  0.05250400  0.18622000  1
  P  P6  1  0.40005500  0.44749700  0.31378000  1
  P  P7  1  0.35278300  0.94432300  0.81340100  1
  P  P8  1  0.64721800  0.55567800  0.68659900  1
  O  O9  1  0.29065300  0.06962700  0.28969600  1
  O  O10  1  0.24266300  0.40005800  0.21150400  1
  O  O11  1  0.03527100  0.83439400  0.42573900  1
  O  O12  1  0.27193000  0.85496600  0.03145000  1
  O  O13  1  0.28540100  0.60221800  0.32086500  1
  O  O14  1  0.29689200  0.10278800  0.80225000  1
  O  O15  1  0.35830600  0.35173000  0.52922600  1
  O  O16  1  0.19772700  0.33928700  0.90643700  1
  O  O17  1  0.75733800  0.09994200  0.28849600  1
  O  O18  1  0.18066900  0.91833500  0.69550400  1
  O  O19  1  0.70934800  0.43037300  0.21030500  1
  O  O20  1  0.33645600  0.59690000  0.78076900  1
  O  O21  1  0.80227200  0.16071300  0.59356400  1
  O  O22  1  0.64169300  0.14827000  0.97077500  1
  O  O23  1  0.81933100  0.58166600  0.80449600  1
  O  O24  1  0.71460000  0.89778100  0.17913500  1
  O  O25  1  0.72807000  0.64503500  0.46855000  1
  O  O26  1  0.96473000  0.66560500  0.07426100  1
  O  O27  1  0.66354500  0.90309900  0.71923000  1
  O  O28  1  0.70310900  0.39721200  0.69775000  1
