# generated using pymatgen
data_KYTe2
_symmetry_space_group_name_H-M   'P 1'
_cell_length_a   8.56950110
_cell_length_b   8.56950110
_cell_length_c   8.56950159
_cell_angle_alpha   30.41176783
_cell_angle_beta   30.41176783
_cell_angle_gamma   30.41177365
_symmetry_Int_Tables_number   1
_chemical_formula_structural   KYTe2
_chemical_formula_sum   'K1 Y1 Te2'
_cell_volume   142.92997495
_cell_formula_units_Z   1
loop_
 _symmetry_equiv_pos_site_id
 _symmetry_equiv_pos_as_xyz
  1  'x, y, z'
loop_
 _atom_site_type_symbol
 _atom_site_label
 _atom_site_symmetry_multiplicity
 _atom_site_fract_x
 _atom_site_fract_y
 _atom_site_fract_z
 _atom_site_occupancy
  K  K0  1  0.50000000  0.50000000  0.50000000  1
  Y  Y1  1  -0.00000000  -0.00000000  0.00000000  1
  Te  Te2  1  0.26334175  0.26334175  0.26334175  1
  Te  Te3  1  0.73665825  0.73665825  0.73665825  1
