# generated using pymatgen
data_Rb2BiF5
_symmetry_space_group_name_H-M   'P 1'
_cell_length_a   6.30996642
_cell_length_b   8.19809816
_cell_length_c   12.56839532
_cell_angle_alpha   90.00000000
_cell_angle_beta   90.00000000
_cell_angle_gamma   90.00000000
_symmetry_Int_Tables_number   1
_chemical_formula_structural   Rb2BiF5
_chemical_formula_sum   'Rb8 Bi4 F20'
_cell_volume   650.15962225
_cell_formula_units_Z   4
loop_
 _symmetry_equiv_pos_site_id
 _symmetry_equiv_pos_as_xyz
  1  'x, y, z'
loop_
 _atom_site_type_symbol
 _atom_site_label
 _atom_site_symmetry_multiplicity
 _atom_site_fract_x
 _atom_site_fract_y
 _atom_site_fract_z
 _atom_site_occupancy
  Rb  Rb0  1  0.75000000  0.50155636  0.26693560  1
  Rb  Rb1  1  0.25000000  0.49844364  0.73306440  1
  Rb  Rb2  1  0.25000000  -0.00155636  0.76693560  1
  Rb  Rb3  1  0.75000000  0.00155636  0.23306440  1
  Rb  Rb4  1  0.75000000  0.83633799  0.58387023  1
  Rb  Rb5  1  0.25000000  0.16366201  0.41612977  1
  Rb  Rb6  1  0.25000000  0.66366201  0.08387023  1
  Rb  Rb7  1  0.75000000  0.33633799  0.91612977  1
  Bi  Bi8  1  0.75000000  0.81448283  0.93497353  1
  Bi  Bi9  1  0.25000000  0.18551717  0.06502647  1
  Bi  Bi10  1  0.25000000  0.68551717  0.43497353  1
  Bi  Bi11  1  0.75000000  0.31448283  0.56502647  1
  F  F12  1  0.75000000  0.72385355  0.10508926  1
  F  F13  1  0.25000000  0.27614645  0.89491074  1
  F  F14  1  0.25000000  0.77614645  0.60508926  1
  F  F15  1  0.75000000  0.22385355  0.39491074  1
  F  F16  1  0.00729171  0.64534448  0.89241829  1
  F  F17  1  -0.00729171  0.35465552  0.10758171  1
  F  F18  1  -0.00729171  0.85465552  0.39241829  1
  F  F19  1  0.50729171  0.35465552  0.10758171  1
  F  F20  1  0.00729171  0.14534448  0.60758171  1
  F  F21  1  0.49270829  0.64534448  0.89241829  1
  F  F22  1  0.49270829  0.14534448  0.60758171  1
  F  F23  1  0.50729171  0.85465552  0.39241829  1
  F  F24  1  0.00000000  -0.00000000  0.00000000  1
  F  F25  1  0.00000000  0.50000000  0.50000000  1
  F  F26  1  0.50000000  -0.00000000  0.00000000  1
  F  F27  1  0.50000000  0.50000000  0.50000000  1
  F  F28  1  0.75000000  0.96502865  0.78679112  1
  F  F29  1  0.25000000  0.03497135  0.21320888  1
  F  F30  1  0.25000000  0.53497135  0.28679112  1
  F  F31  1  0.75000000  0.46502865  0.71320888  1
