# generated using pymatgen
data_Al3BC3
_symmetry_space_group_name_H-M   'P 1'
_cell_length_a   5.89381357
_cell_length_b   5.89381170
_cell_length_c   15.84543758
_cell_angle_alpha   89.99995139
_cell_angle_beta   90.00003755
_cell_angle_gamma   119.99999610
_symmetry_Int_Tables_number   1
_chemical_formula_structural   Al3BC3
_chemical_formula_sum   'Al18 B6 C18'
_cell_volume   476.68066475
_cell_formula_units_Z   6
loop_
 _symmetry_equiv_pos_site_id
 _symmetry_equiv_pos_as_xyz
  1  'x, y, z'
loop_
 _atom_site_type_symbol
 _atom_site_label
 _atom_site_symmetry_multiplicity
 _atom_site_fract_x
 _atom_site_fract_y
 _atom_site_fract_z
 _atom_site_occupancy
  Al  Al0  1  0.68020409  0.00000029  0.12292411  1
  Al  Al1  1  -0.00000023  0.68020449  0.12292409  1
  Al  Al2  1  0.31979540  0.31979571  0.12292410  1
  Al  Al3  1  0.68021615  0.68021596  0.62294574  1
  Al  Al4  1  0.31978416  0.00000024  0.62294569  1
  Al  Al5  1  -0.00000055  0.31978386  0.62294581  1
  Al  Al6  1  0.00000078  0.34767938  0.87751845  1
  Al  Al7  1  0.65232073  0.65231959  0.87751841  1
  Al  Al8  1  0.34767944  0.00000032  0.87751796  1
  Al  Al9  1  -0.00000025  0.65233463  0.37753279  1
  Al  Al10  1  0.34766500  0.34766514  0.37753279  1
  Al  Al11  1  0.65233464  0.00000024  0.37753277  1
  Al  Al12  1  0.33333389  0.66666631  0.73783959  1
  Al  Al13  1  0.33333312  0.66666672  0.23784560  1
  Al  Al14  1  0.66666724  0.33333353  0.73783969  1
  Al  Al15  1  0.66666626  0.33333361  0.23784565  1
  Al  Al16  1  -0.00000026  0.00000022  0.26739277  1
  Al  Al17  1  -0.00000012  -0.00000030  0.76740160  1
  B  B18  1  -0.00000012  0.00000022  0.49040422  1
  B  B19  1  0.00000014  -0.00000017  0.99037352  1
  B  B20  1  0.66666597  0.33333363  0.50635470  1
  B  B21  1  0.66666645  0.33333344  0.00632184  1
  B  B22  1  0.33333334  0.66666667  0.50635471  1
  B  B23  1  0.33333369  0.66666626  0.00632186  1
  C  C24  1  -0.00000000  0.00000017  0.40053780  1
  C  C25  1  0.00000011  -0.00000066  0.90052841  1
  C  C26  1  0.66666642  0.33333349  0.59695162  1
  C  C27  1  0.66666645  0.33333381  0.09693627  1
  C  C28  1  -0.00000024  0.66692814  0.25011703  1
  C  C29  1  0.33307178  0.33307190  0.25011701  1
  C  C30  1  0.66692777  0.00000021  0.25011700  1
  C  C31  1  0.00000017  0.33307327  0.75011917  1
  C  C32  1  0.66692709  0.66692650  0.75011915  1
  C  C33  1  0.33307371  0.00000009  0.75011901  1
  C  C34  1  -0.00000018  0.00000001  0.58109099  1
  C  C35  1  -0.00000021  0.00000035  0.08108154  1
  C  C36  1  0.66666641  0.33333330  0.41588721  1
  C  C37  1  0.66666696  0.33333245  0.91587259  1
  C  C38  1  0.33333328  0.66666660  0.59695162  1
  C  C39  1  0.33333317  0.66666668  0.09693627  1
  C  C40  1  0.33333333  0.66666666  0.41588722  1
  C  C41  1  0.33333400  0.66666705  0.91587261  1
