# generated using pymatgen
data_MgH4C4S4(OF)12
_symmetry_space_group_name_H-M   'P 1'
_cell_length_a   5.38456547
_cell_length_b   9.04514888
_cell_length_c   11.80356660
_cell_angle_alpha   86.88450133
_cell_angle_beta   89.35522478
_cell_angle_gamma   103.82803969
_symmetry_Int_Tables_number   1
_chemical_formula_structural   MgH4C4S4(OF)12
_chemical_formula_sum   'Mg1 H4 C4 S4 O12 F12'
_cell_volume   557.22231848
_cell_formula_units_Z   1
loop_
 _symmetry_equiv_pos_site_id
 _symmetry_equiv_pos_as_xyz
  1  'x, y, z'
loop_
 _atom_site_type_symbol
 _atom_site_label
 _atom_site_symmetry_multiplicity
 _atom_site_fract_x
 _atom_site_fract_y
 _atom_site_fract_z
 _atom_site_occupancy
  Mg  Mg0  1  0.91372465  0.47823738  0.84181216  1
  H  H1  1  0.51116210  0.51423160  0.74173697  1
  H  H2  1  0.95469053  0.94228007  0.77127225  1
  H  H3  1  0.50223498  0.48931080  0.24976600  1
  H  H4  1  0.98969158  0.97535006  0.25737575  1
  C  C5  1  0.51062772  0.87239071  0.95600513  1
  C  C6  1  0.87929776  0.23248901  0.55496697  1
  C  C7  1  0.56820229  0.25986145  0.05863556  1
  C  C8  1  0.08085158  0.75723237  0.44577301  1
  S  S9  1  0.59998482  0.75987759  0.81373477  1
  S  S10  1  0.04699196  0.24833226  0.69374346  1
  S  S11  1  0.43921470  0.25261930  0.20924560  1
  S  S12  1  0.93124166  0.73385238  0.30233473  1
  O  O13  1  0.67508053  0.58039921  0.76541016  1
  O  O14  1  0.10963244  0.10195111  0.71590825  1
  O  O15  1  0.36590915  0.40805237  0.21380415  1
  O  O16  1  0.84597935  0.88723389  0.28476983  1
  O  O17  1  0.89486572  0.83690501  0.81153985  1
  O  O18  1  0.26182292  0.38026412  0.67521490  1
  O  O19  1  0.20516158  0.13568096  0.20836065  1
  O  O20  1  0.69777096  0.61563171  0.31852075  1
  O  O21  1  0.46693294  0.81050975  0.71936846  1
  O  O22  1  0.85152936  0.27629133  0.77524127  1
  O  O23  1  0.64377028  0.23983380  0.28231363  1
  O  O24  1  0.12675679  0.72109545  0.22290878  1
  F  F25  1  0.26394937  0.83707677  0.98393022  1
  F  F26  1  0.79268023  0.35871442  0.53140228  1
  F  F27  1  0.72497202  0.16497084  0.05479498  1
  F  F28  1  0.18305824  0.63805660  0.47117964  1
  F  F29  1  0.21676563  0.53585207  0.91005226  1
  F  F30  1  0.68163401  0.10907423  0.55933183  1
  F  F31  1  0.71017525  0.40465054  0.02450709  1
  F  F32  1  0.26685694  0.88730612  0.44008664  1
  F  F33  1  0.63007172  0.82819600  0.04642279  1
  F  F34  1  0.04797804  0.21953104  0.47248190  1
  F  F35  1  0.37935823  0.22049140  0.98539910  1
  F  F36  1  0.90437195  0.76473727  0.52509226  1
