# generated using pymatgen
data_Na8Te4W7O36
_symmetry_space_group_name_H-M   'P 1'
_cell_length_a   7.43218196
_cell_length_b   13.38472704
_cell_length_c   17.58959548
_cell_angle_alpha   111.79721847
_cell_angle_beta   102.19657840
_cell_angle_gamma   90.00000000
_symmetry_Int_Tables_number   1
_chemical_formula_structural   Na8Te4W7O36
_chemical_formula_sum   'Na16 Te8 W14 O72'
_cell_volume   1582.05596017
_cell_formula_units_Z   2
loop_
 _symmetry_equiv_pos_site_id
 _symmetry_equiv_pos_as_xyz
  1  'x, y, z'
loop_
 _atom_site_type_symbol
 _atom_site_label
 _atom_site_symmetry_multiplicity
 _atom_site_fract_x
 _atom_site_fract_y
 _atom_site_fract_z
 _atom_site_occupancy
  Na  Na0  1  0.61783682  0.20552935  0.19147563  1
  Na  Na1  1  0.57363881  0.70552935  0.19147563  1
  Na  Na2  1  0.98423578  0.31730908  0.00253896  1
  Na  Na3  1  0.01830318  0.81730908  0.00253896  1
  Na  Na4  1  0.84696438  0.45137142  0.20096871  1
  Na  Na5  1  0.35400433  0.95137142  0.20096871  1
  Na  Na6  1  0.32865735  0.36078468  0.59915633  1
  Na  Na7  1  0.27049898  0.86078468  0.59915633  1
  Na  Na8  1  0.80233618  0.34814602  0.58307263  1
  Na  Na9  1  0.78073645  0.84814602  0.58307263  1
  Na  Na10  1  0.87945127  0.10024417  0.79841404  1
  Na  Na11  1  0.91896276  0.60024417  0.79841404  1
  Na  Na12  1  0.55081524  0.60648356  0.58891932  1
  Na  Na13  1  0.03810408  0.10648356  0.58891932  1
  Na  Na14  1  0.70899506  0.09515697  0.39465178  1
  Na  Na15  1  0.68565673  0.59515697  0.39465178  1
  Te  Te16  1  0.49849137  0.33141623  0.03566942  1
  Te  Te17  1  0.53717805  0.83141623  0.03566942  1
  Te  Te18  1  0.38445249  0.59360118  0.76791891  1
  Te  Te19  1  0.38346641  0.09360118  0.76791891  1
  Te  Te20  1  0.20795404  0.10894748  0.40931052  1
  Te  Te21  1  0.20135649  0.60894748  0.40931052  1
  Te  Te22  1  0.10597961  0.24445796  0.19043809  1
  Te  Te23  1  0.08445848  0.74445796  0.19043809  1
  W  W24  1  0.57892019  0.11661479  0.59379352  1
  W  W25  1  0.01487333  0.61661479  0.59379352  1
  W  W26  1  0.12598325  0.35069521  0.77044997  1
  W  W27  1  0.64446672  0.85069521  0.77044997  1
  W  W28  1  0.46667815  0.35905713  0.40090917  1
  W  W29  1  0.93423101  0.85905713  0.40090917  1
  W  W30  1  0.95726977  0.36385304  0.39593948  1
  W  W31  1  0.43866971  0.86385304  0.39593948  1
  W  W32  1  0.26864137  0.05987312  0.01421138  1
  W  W33  1  0.74557001  0.55987312  0.01421138  1
  W  W34  1  0.64182763  0.36206139  0.78879611  1
  W  W35  1  0.14696848  0.86206139  0.78879611  1
  W  W36  1  0.77270724  0.04698938  0.00361515  1
  W  W37  1  0.23090791  0.54698938  0.00361515  1
  O  O38  1  0.77956266  0.03756154  0.24580568  1
  O  O39  1  0.46624302  0.53756154  0.24580568  1
  O  O40  1  0.89877195  0.25009292  0.41920266  1
  O  O41  1  0.52043071  0.75009292  0.41920266  1
  O  O42  1  0.32084552  0.31732495  0.27505742  1
  O  O43  1  0.95421190  0.81732495  0.27505742  1
  O  O44  1  0.58327927  0.00779583  0.77413341  1
  O  O45  1  0.19085414  0.50779583  0.77413341  1
  O  O46  1  0.20725877  0.18304641  0.00001505  1
  O  O47  1  0.79275628  0.68304641  0.00001505  1
  O  O48  1  0.88588489  0.41076716  0.78665789  1
  O  O49  1  0.90077300  0.91076716  0.78665789  1
  O  O50  1  0.64439387  0.47723984  0.89675718  1
  O  O51  1  0.25236331  0.97723984  0.89675718  1
  O  O52  1  0.57984001  0.33837221  0.14415082  1
  O  O53  1  0.56431081  0.83837221  0.14415082  1
  O  O54  1  0.00502615  0.46884126  0.50869923  1
  O  O55  1  0.50367309  0.96884126  0.50869923  1
  O  O56  1  0.38452640  0.32814811  0.77781460  1
  O  O57  1  0.39328820  0.82814811  0.77781460  1
  O  O58  1  0.36905157  0.08333589  0.65456656  1
  O  O59  1  0.28551499  0.58333589  0.65456656  1
  O  O60  1  0.06853362  0.30329371  0.65584505  1
  O  O61  1  0.58731143  0.80329371  0.65584505  1
  O  O62  1  0.75395787  0.06992613  0.65595698  1
  O  O63  1  0.90199911  0.56992613  0.65595698  1
  O  O64  1  0.27134454  0.13466419  0.14205614  1
  O  O65  1  0.87071160  0.63466419  0.14205614  1
  O  O66  1  0.22328305  0.43798440  0.90023166  1
  O  O67  1  0.67694861  0.93798440  0.90023166  1
  O  O68  1  0.40410486  0.52181006  0.41376055  1
  O  O69  1  0.00965569  0.02181006  0.41376055  1
  O  O70  1  0.71621523  0.15080939  0.53225500  1
  O  O71  1  0.81603976  0.65080939  0.53225500  1
  O  O72  1  0.79735356  0.15501845  0.96887901  1
  O  O73  1  0.17152545  0.65501845  0.96887901  1
  O  O74  1  0.54549382  0.48208599  0.73447284  1
  O  O75  1  0.18897902  0.98208599  0.73447284  1
  O  O76  1  0.29835802  0.53310425  0.24005947  1
  O  O77  1  0.94170145  0.03310425  0.24005947  1
  O  O78  1  0.94588882  0.28538400  0.27355789  1
  O  O79  1  0.32766907  0.78538400  0.27355789  1
  O  O80  1  0.70678805  0.42921523  0.04647895  1
  O  O81  1  0.33969090  0.92921523  0.04647895  1
  O  O82  1  0.21430033  0.34368595  0.41609420  1
  O  O83  1  0.20179387  0.84368595  0.41609420  1
  O  O84  1  0.59764833  0.26880391  0.66869720  1
  O  O85  1  0.07104887  0.76880391  0.66869720  1
  O  O86  1  0.69294202  0.39455742  0.37021221  1
  O  O87  1  0.67727020  0.89455742  0.37021221  1
  O  O88  1  0.55380715  0.41126229  0.51440883  1
  O  O89  1  0.96060167  0.91126229  0.51440883  1
  O  O90  1  0.49957396  0.21827389  0.37684028  1
  O  O91  1  0.87726632  0.71827389  0.37684028  1
  O  O92  1  0.31711756  0.43294020  0.05613147  1
  O  O93  1  0.73901391  0.93294020  0.05613147  1
  O  O94  1  0.32399383  0.16071639  0.52593650  1
  O  O95  1  0.20194267  0.66071639  0.52593650  1
  O  O96  1  0.02032215  0.99986260  0.99914470  1
  O  O97  1  0.97882255  0.49986260  0.99914470  1
  O  O98  1  0.07886160  0.22710661  0.78427249  1
  O  O99  1  0.70541089  0.72710661  0.78427249  1
  O  O100  1  0.53243356  0.09310542  0.03462952  1
  O  O101  1  0.50219596  0.59310542  0.03462952  1
  O  O102  1  0.36154200  0.99935264  0.36110763  1
  O  O103  1  0.99956563  0.49935264  0.36110763  1
  O  O104  1  0.89554721  0.13956795  0.12850030  1
  O  O105  1  0.23295309  0.63956795  0.12850030  1
  O  O106  1  0.71550048  0.26009611  0.82772011  1
  O  O107  1  0.11221963  0.76009611  0.82772011  1
  O  O108  1  0.05740700  0.34408456  0.14306142  1
  O  O109  1  0.08565443  0.84408456  0.14306142  1
