# generated using pymatgen
data_Cs6Ge2O7
_symmetry_space_group_name_H-M   'P 1'
_cell_length_a   9.83757994
_cell_length_b   7.22809753
_cell_length_c   12.12290253
_cell_angle_alpha   54.56298108
_cell_angle_beta   90.00000000
_cell_angle_gamma   90.00000000
_symmetry_Int_Tables_number   1
_chemical_formula_structural   Cs6Ge2O7
_chemical_formula_sum   'Cs12 Ge4 O14'
_cell_volume   702.33618915
_cell_formula_units_Z   2
loop_
 _symmetry_equiv_pos_site_id
 _symmetry_equiv_pos_as_xyz
  1  'x, y, z'
loop_
 _atom_site_type_symbol
 _atom_site_label
 _atom_site_symmetry_multiplicity
 _atom_site_fract_x
 _atom_site_fract_y
 _atom_site_fract_z
 _atom_site_occupancy
  Cs  Cs0  1  0.77994669  0.60988252  0.27574876  1
  Cs  Cs1  1  0.64588982  0.97363497  0.91030789  1
  Cs  Cs2  1  0.52541608  0.20748298  0.54442548  1
  Cs  Cs3  1  0.02541608  0.79251702  0.95557452  1
  Cs  Cs4  1  0.27994669  0.39011748  0.22425124  1
  Cs  Cs5  1  0.14588982  0.02636503  0.58969211  1
  Cs  Cs6  1  0.85411018  0.97363497  0.41030789  1
  Cs  Cs7  1  0.72005331  0.60988252  0.77574876  1
  Cs  Cs8  1  0.97458392  0.20748298  0.04442548  1
  Cs  Cs9  1  0.47458392  0.79251702  0.45557452  1
  Cs  Cs10  1  0.35411018  0.02636503  0.08969211  1
  Cs  Cs11  1  0.22005331  0.39011748  0.72425124  1
  Ge  Ge12  1  0.86669594  0.33029837  0.62463017  1
  Ge  Ge13  1  0.36669594  0.66970163  0.87536983  1
  Ge  Ge14  1  0.63330406  0.33029837  0.12463017  1
  Ge  Ge15  1  0.13330406  0.66970163  0.37536983  1
  O  O16  1  0.00000000  0.50000000  0.50000000  1
  O  O17  1  0.07887825  0.73205030  0.21902495  1
  O  O18  1  0.27896891  0.49547227  0.43532713  1
  O  O19  1  0.34340451  0.91514288  0.87170086  1
  O  O20  1  0.84340451  0.08485712  0.62829914  1
  O  O21  1  0.77896891  0.50452773  0.06467287  1
  O  O22  1  0.57887825  0.26794970  0.28097505  1
  O  O23  1  0.50000000  0.50000000  0.00000000  1
  O  O24  1  0.42112175  0.73205030  0.71902495  1
  O  O25  1  0.22103109  0.49547227  0.93532713  1
  O  O26  1  0.15659549  0.91514288  0.37170086  1
  O  O27  1  0.65659549  0.08485712  0.12829914  1
  O  O28  1  0.72103109  0.50452773  0.56467287  1
  O  O29  1  0.92112175  0.26794970  0.78097505  1
