# generated using pymatgen
data_Ca3AlAs3
_symmetry_space_group_name_H-M   'P 1'
_cell_length_a   4.19991855
_cell_length_b   12.24448974
_cell_length_c   13.43329894
_cell_angle_alpha   90.00000000
_cell_angle_beta   90.00000000
_cell_angle_gamma   90.00000000
_symmetry_Int_Tables_number   1
_chemical_formula_structural   Ca3AlAs3
_chemical_formula_sum   'Ca12 Al4 As12'
_cell_volume   690.81894518
_cell_formula_units_Z   4
loop_
 _symmetry_equiv_pos_site_id
 _symmetry_equiv_pos_as_xyz
  1  'x, y, z'
loop_
 _atom_site_type_symbol
 _atom_site_label
 _atom_site_symmetry_multiplicity
 _atom_site_fract_x
 _atom_site_fract_y
 _atom_site_fract_z
 _atom_site_occupancy
  Ca  Ca0  1  0.25000000  0.85191626  0.49983861  1
  Ca  Ca1  1  0.25000000  0.35191626  0.00016139  1
  Ca  Ca2  1  0.75000000  0.14808374  0.50016139  1
  Ca  Ca3  1  0.75000000  0.22838358  0.21257667  1
  Ca  Ca4  1  0.75000000  0.43328241  0.39334369  1
  Ca  Ca5  1  0.25000000  0.56671759  0.60665631  1
  Ca  Ca6  1  0.75000000  0.93328241  0.10665631  1
  Ca  Ca7  1  0.25000000  0.06671759  0.89334369  1
  Ca  Ca8  1  0.25000000  0.27161642  0.71257667  1
  Ca  Ca9  1  0.75000000  0.72838358  0.28742333  1
  Ca  Ca10  1  0.25000000  0.77161642  0.78742333  1
  Ca  Ca11  1  0.75000000  0.64808374  -0.00016139  1
  Al  Al12  1  0.75000000  0.93917999  0.70238205  1
  Al  Al13  1  0.25000000  0.06082001  0.29761795  1
  Al  Al14  1  0.25000000  0.56082001  0.20238205  1
  Al  Al15  1  0.75000000  0.43917999  0.79761795  1
  As  As16  1  0.75000000  0.45959921  0.14915222  1
  As  As17  1  0.25000000  0.54040079  0.85084778  1
  As  As18  1  0.75000000  0.95959921  0.35084778  1
  As  As19  1  0.25000000  0.04040079  0.64915222  1
  As  As20  1  0.75000000  0.39686144  0.61542428  1
  As  As21  1  0.25000000  0.60313856  0.38457572  1
  As  As22  1  0.75000000  0.89686144  0.88457572  1
  As  As23  1  0.25000000  0.10313856  0.11542428  1
  As  As24  1  0.75000000  0.25385541  0.87493174  1
  As  As25  1  0.25000000  0.74614459  0.12506826  1
  As  As26  1  0.75000000  0.75385541  0.62506826  1
  As  As27  1  0.25000000  0.24614459  0.37493174  1
