# generated using pymatgen
data_CoO2
_symmetry_space_group_name_H-M   'P 1'
_cell_length_a   2.81921251
_cell_length_b   6.80067772
_cell_length_c   6.79048812
_cell_angle_alpha   87.73389245
_cell_angle_beta   78.01591920
_cell_angle_gamma   78.03638530
_symmetry_Int_Tables_number   1
_chemical_formula_structural   CoO2
_chemical_formula_sum   'Co4 O8'
_cell_volume   124.58651702
_cell_formula_units_Z   4
loop_
 _symmetry_equiv_pos_site_id
 _symmetry_equiv_pos_as_xyz
  1  'x, y, z'
loop_
 _atom_site_type_symbol
 _atom_site_label
 _atom_site_symmetry_multiplicity
 _atom_site_fract_x
 _atom_site_fract_y
 _atom_site_fract_z
 _atom_site_occupancy
  Co  Co0  1  0.65310060  0.18249009  0.51650157  1
  Co  Co1  1  0.16881834  0.48356056  0.18347231  1
  Co  Co2  1  0.83474304  0.51683720  0.81867934  1
  Co  Co3  1  0.35096374  0.81785301  0.48563670  1
  O  O4  1  0.83976785  0.70450283  0.62116451  1
  O  O5  1  0.45973854  0.38215957  0.70334295  1
  O  O6  1  0.54387922  0.61820795  0.29880106  1
  O  O7  1  0.16415146  0.29582786  0.38094278  1
  O  O8  1  0.15635734  0.04834121  0.64422777  1
  O  O9  1  0.80025603  0.35690146  0.04734071  1
  O  O10  1  0.84774434  0.95198344  0.35791759  1
  O  O11  1  0.20333251  0.64351082  0.95478772  1
