# generated using pymatgen
data_KSnBr3
_symmetry_space_group_name_H-M   'P 1'
_cell_length_a   4.47666619
_cell_length_b   8.95656243
_cell_length_c   16.58642631
_cell_angle_alpha   90.00000000
_cell_angle_beta   90.00000000
_cell_angle_gamma   90.00000000
_symmetry_Int_Tables_number   1
_chemical_formula_structural   KSnBr3
_chemical_formula_sum   'K4 Sn4 Br12'
_cell_volume   665.04172304
_cell_formula_units_Z   4
loop_
 _symmetry_equiv_pos_site_id
 _symmetry_equiv_pos_as_xyz
  1  'x, y, z'
loop_
 _atom_site_type_symbol
 _atom_site_label
 _atom_site_symmetry_multiplicity
 _atom_site_fract_x
 _atom_site_fract_y
 _atom_site_fract_z
 _atom_site_occupancy
  K  K0  1  0.75000000  0.59580967  0.16160625  1
  K  K1  1  0.25000000  0.40419033  0.83839375  1
  K  K2  1  0.75000000  0.09580967  0.33839375  1
  K  K3  1  0.25000000  0.90419033  0.66160625  1
  Sn  Sn4  1  0.25000000  0.63752460  0.43472594  1
  Sn  Sn5  1  0.75000000  0.36247540  0.56527406  1
  Sn  Sn6  1  0.25000000  0.13752460  0.06527406  1
  Sn  Sn7  1  0.75000000  0.86247540  0.93472594  1
  Br  Br8  1  0.75000000  0.82378405  0.50541982  1
  Br  Br9  1  0.25000000  0.17621595  0.49458018  1
  Br  Br10  1  0.75000000  0.32378405  0.99458018  1
  Br  Br11  1  0.25000000  0.67621595  0.00541982  1
  Br  Br12  1  0.25000000  0.52633724  0.64515280  1
  Br  Br13  1  0.75000000  0.47366276  0.35484720  1
  Br  Br14  1  0.25000000  0.02633724  0.85484720  1
  Br  Br15  1  0.75000000  0.97366276  0.14515280  1
  Br  Br16  1  0.25000000  0.81374625  0.30447449  1
  Br  Br17  1  0.75000000  0.18625375  0.69552551  1
  Br  Br18  1  0.25000000  0.31374625  0.19552551  1
  Br  Br19  1  0.75000000  0.68625375  0.80447449  1
