# generated using pymatgen
data_MoWS4
_symmetry_space_group_name_H-M   'P 1'
_cell_length_a   3.18488931
_cell_length_b   3.18488852
_cell_length_c   21.61407860
_cell_angle_alpha   89.96791237
_cell_angle_beta   90.00000000
_cell_angle_gamma   120.00001904
_symmetry_Int_Tables_number   1
_chemical_formula_structural   MoWS4
_chemical_formula_sum   'Mo1 W1 S4'
_cell_volume   189.86974322
_cell_formula_units_Z   1
loop_
 _symmetry_equiv_pos_site_id
 _symmetry_equiv_pos_as_xyz
  1  'x, y, z'
loop_
 _atom_site_type_symbol
 _atom_site_label
 _atom_site_symmetry_multiplicity
 _atom_site_fract_x
 _atom_site_fract_y
 _atom_site_fract_z
 _atom_site_occupancy
  Mo  Mo0  1  0.33355549  0.66711098  0.15108382  1
  W  W1  1  0.66644541  0.33289082  0.45078614  1
  S  S2  1  0.33291579  0.66583357  0.52289728  1
  S  S3  1  0.66703419  0.33406738  0.07936176  1
  S  S4  1  0.66671876  0.33343652  0.22283273  1
  S  S5  1  0.33332936  0.66666073  0.37864326  1
