# generated using pymatgen
data_MgCoF6
_symmetry_space_group_name_H-M   'P 1'
_cell_length_a   5.29450790
_cell_length_b   5.29450774
_cell_length_c   5.29452345
_cell_angle_alpha   56.57868133
_cell_angle_beta   56.57860013
_cell_angle_gamma   56.57886271
_symmetry_Int_Tables_number   1
_chemical_formula_structural   MgCoF6
_chemical_formula_sum   'Mg1 Co1 F6'
_cell_volume   96.64954197
_cell_formula_units_Z   1
loop_
 _symmetry_equiv_pos_site_id
 _symmetry_equiv_pos_as_xyz
  1  'x, y, z'
loop_
 _atom_site_type_symbol
 _atom_site_label
 _atom_site_symmetry_multiplicity
 _atom_site_fract_x
 _atom_site_fract_y
 _atom_site_fract_z
 _atom_site_occupancy
  Mg  Mg0  1  0.50000000  0.50000000  0.50000000  1
  Co  Co1  1  0.00000000  0.00000000  -0.00000000  1
  F  F2  1  0.64563587  0.87360123  0.24020121  1
  F  F3  1  0.87360123  0.24019921  0.64563987  1
  F  F4  1  0.75979979  0.35436113  0.12639877  1
  F  F5  1  0.12639877  0.75980079  0.35436013  1
  F  F6  1  0.35436413  0.12639877  0.75979879  1
  F  F7  1  0.24020021  0.64563887  0.87360123  1
