# generated using pymatgen
data_KYS2
_symmetry_space_group_name_H-M   'P 1'
_cell_length_a   4.04467726
_cell_length_b   4.04467740
_cell_length_c   7.67727205
_cell_angle_alpha   74.72697022
_cell_angle_beta   74.72697174
_cell_angle_gamma   59.99999035
_symmetry_Int_Tables_number   1
_chemical_formula_structural   KYS2
_chemical_formula_sum   'K1 Y1 S2'
_cell_volume   103.61531627
_cell_formula_units_Z   1
loop_
 _symmetry_equiv_pos_site_id
 _symmetry_equiv_pos_as_xyz
  1  'x, y, z'
loop_
 _atom_site_type_symbol
 _atom_site_label
 _atom_site_symmetry_multiplicity
 _atom_site_fract_x
 _atom_site_fract_y
 _atom_site_fract_z
 _atom_site_occupancy
  K  K0  1  0.50000000  0.50000000  0.50000000  1
  Y  Y1  1  -0.00000000  -0.00000000  0.00000000  1
  S  S2  1  0.73422675  0.73422675  0.79731976  1
  S  S3  1  0.26577325  0.26577325  0.20268024  1
