# generated using pymatgen
data_Li6V3P8O29
_symmetry_space_group_name_H-M   'P 1'
_cell_length_a   9.84938562
_cell_length_b   9.78688125
_cell_length_c   13.99158206
_cell_angle_alpha   90.37360963
_cell_angle_beta   90.40984050
_cell_angle_gamma   59.89936884
_symmetry_Int_Tables_number   1
_chemical_formula_structural   Li6V3P8O29
_chemical_formula_sum   'Li12 V6 P16 O58'
_cell_volume   1166.79894647
_cell_formula_units_Z   2
loop_
 _symmetry_equiv_pos_site_id
 _symmetry_equiv_pos_as_xyz
  1  'x, y, z'
loop_
 _atom_site_type_symbol
 _atom_site_label
 _atom_site_symmetry_multiplicity
 _atom_site_fract_x
 _atom_site_fract_y
 _atom_site_fract_z
 _atom_site_occupancy
  Li  Li0  1  0.90772756  0.77408371  0.05544705  1
  Li  Li1  1  0.67254650  0.66551882  0.39128515  1
  Li  Li2  1  0.77303994  0.31795866  0.05647078  1
  Li  Li3  1  0.31666955  0.91082105  0.05578973  1
  Li  Li4  1  0.66386415  0.23494232  0.44518509  1
  Li  Li5  1  0.32788449  0.76601530  0.56734250  1
  Li  Li6  1  0.67186293  0.09695991  0.93306047  1
  Li  Li7  1  0.23081440  0.67308537  0.93580155  1
  Li  Li8  1  0.09731701  0.66927870  0.44431688  1
  Li  Li9  1  0.23032403  0.09930781  0.44739079  1
  Li  Li10  1  0.09674906  0.23302979  0.93325168  1
  Li  Li11  1  0.96210019  0.01900772  0.51822797  1
  V  V12  1  0.56997087  0.42984980  0.24949808  1
  V  V13  1  0.43460916  0.56456152  0.75111295  1
  V  V14  1  0.56784690  0.99558094  0.74656500  1
  V  V15  1  0.43394027  0.00374981  0.25202669  1
  V  V16  1  0.00333697  0.56531828  0.24942413  1
  V  V17  1  0.99736232  0.43344863  0.74508650  1
  P  P18  1  0.91394181  0.76960759  0.84012167  1
  P  P19  1  0.77784875  0.91330407  0.33955637  1
  P  P20  1  0.91337952  0.31061524  0.34083683  1
  P  P21  1  0.66606525  0.66815355  0.13008469  1
  P  P22  1  0.66294796  0.66562948  0.62901474  1
  P  P23  1  0.77073980  0.31932783  0.83980094  1
  P  P24  1  0.68542513  0.22498086  0.65711466  1
  P  P25  1  0.32057373  0.91126873  0.84263497  1
  P  P26  1  0.67949728  0.08601115  0.15438344  1
  P  P27  1  0.31897075  0.77236028  0.34421340  1
  P  P28  1  0.23304309  0.68068070  0.15929216  1
  P  P29  1  0.33661357  0.33377262  0.37332720  1
  P  P30  1  0.33260072  0.33221508  0.87020670  1
  P  P31  1  0.08733512  0.68763860  0.65652712  1
  P  P32  1  0.22699557  0.08605831  0.65965524  1
  P  P33  1  0.08518188  0.23056463  0.15530476  1
  O  O34  1  0.01362602  0.78028029  0.56672931  1
  O  O35  1  0.92164273  0.74100936  0.34008547  1
  O  O36  1  0.75230591  0.00150357  0.06274772  1
  O  O37  1  0.74925029  0.91594485  0.84206534  1
  O  O38  1  0.90641028  0.61801172  0.82132890  1
  O  O39  1  0.81479671  0.67295331  0.16877389  1
  O  O40  1  0.89845518  0.47552283  0.33172066  1
  O  O41  1  0.99892506  0.24906093  0.06343304  1
  O  O42  1  0.91762889  0.33707041  0.84153595  1
  O  O43  1  0.66792584  0.81150822  0.67324595  1
  O  O44  1  0.62781098  0.89889742  0.33298036  1
  O  O45  1  0.80557561  0.51609310  0.67016594  1
  O  O46  1  0.65569978  0.67531061  0.02400013  1
  O  O47  1  0.65701364  0.67254581  0.52144313  1
  O  O48  1  0.67349147  0.51367153  0.16941789  1
  O  O49  1  0.47900010  0.89978307  0.82633858  1
  O  O50  1  0.51663398  0.81658947  0.17647760  1
  O  O51  1  0.74287141  0.33737314  0.34064393  1
  O  O52  1  0.79431695  0.20898151  0.74920010  1
  O  O53  1  0.77425501  0.21148578  0.56715226  1
  O  O54  1  0.75673424  0.24258136  0.92954163  1
  O  O55  1  0.62078671  0.48097000  0.82287004  1
  O  O56  1  0.50703427  0.67796796  0.66604662  1
  O  O57  1  0.67034616  0.24909683  0.15957636  1
  O  O58  1  0.48434104  0.62714872  0.32821610  1
  O  O59  1  0.33295265  0.92222808  0.34539395  1
  O  O60  1  0.79666861  0.98505499  0.24043185  1
  O  O61  1  0.78741815  0.00799592  0.42033582  1
  O  O62  1  0.21817469  0.00095226  0.57068665  1
  O  O63  1  0.65842550  0.08520509  0.66608764  1
  O  O64  1  0.53238988  0.38334496  0.66739899  1
  O  O65  1  0.33621887  0.74591161  0.84417726  1
  O  O66  1  0.49039376  0.32350874  0.33422870  1
  O  O67  1  0.38350789  0.52000538  0.17895642  1
  O  O68  1  0.24516028  0.75636924  0.06950117  1
  O  O69  1  0.23636854  0.76177533  0.43146801  1
  O  O70  1  0.21299139  0.79028728  0.25058761  1
  O  O71  1  0.25643124  0.66225618  0.66388533  1
  O  O72  1  0.48575833  0.18378422  0.83093398  1
  O  O73  1  0.51863533  0.10310103  0.17462911  1
  O  O74  1  0.32722718  0.48643022  0.83008839  1
  O  O75  1  0.33223964  0.33719291  0.97740382  1
  O  O76  1  0.33725808  0.32422966  0.47948895  1
  O  O77  1  0.19121594  0.48651043  0.33324045  1
  O  O78  1  0.38023338  0.08900424  0.66716199  1
  O  O79  1  0.33004338  0.18523009  0.32883996  1
  O  O80  1  0.08470020  0.66416198  0.15942310  1
  O  O81  1  0.00029495  0.79389278  0.74969248  1
  O  O82  1  0.00454987  0.75637952  0.93041612  1
  O  O83  1  0.08836056  0.53198059  0.66616821  1
  O  O84  1  0.18615166  0.32646748  0.83019978  1
  O  O85  1  0.09656513  0.38041870  0.17978609  1
  O  O86  1  0.24871355  0.08245586  0.15836869  1
  O  O87  1  0.23865199  0.00381969  0.93137272  1
  O  O88  1  0.20856298  0.99736648  0.75113411  1
  O  O89  1  0.08369046  0.25435999  0.66421429  1
  O  O90  1  0.00769546  0.20830032  0.42171299  1
  O  O91  1  0.98654897  0.21598412  0.24153562  1
