# generated using pymatgen
data_MgFe7(Ni3O8)2
_symmetry_space_group_name_H-M   'P 1'
_cell_length_a   6.03457945
_cell_length_b   6.04644585
_cell_length_c   10.57622002
_cell_angle_alpha   106.48248650
_cell_angle_beta   72.18024229
_cell_angle_gamma   119.76438160
_symmetry_Int_Tables_number   1
_chemical_formula_structural   MgFe7(Ni3O8)2
_chemical_formula_sum   'Mg1 Fe7 Ni6 O16'
_cell_volume   314.83846308
_cell_formula_units_Z   1
loop_
 _symmetry_equiv_pos_site_id
 _symmetry_equiv_pos_as_xyz
  1  'x, y, z'
loop_
 _atom_site_type_symbol
 _atom_site_label
 _atom_site_symmetry_multiplicity
 _atom_site_fract_x
 _atom_site_fract_y
 _atom_site_fract_z
 _atom_site_occupancy
  Mg  Mg0  1  0.06611072  0.46161644  0.34153583  1
  Fe  Fe1  1  0.32563133  0.71158465  0.08177547  1
  Fe  Fe2  1  0.02355427  0.93492202  0.83513390  1
  Fe  Fe3  1  0.57959836  0.96448458  0.33088773  1
  Fe  Fe4  1  0.20625283  0.15168262  0.07633631  1
  Fe  Fe5  1  0.65728862  0.41789550  0.15853682  1
  Fe  Fe6  1  0.53988703  0.94323367  0.82761144  1
  Fe  Fe7  1  0.02424071  0.43839289  0.83970627  1
  Ni  Ni8  1  0.06732645  0.96609772  0.33890290  1
  Ni  Ni9  1  0.30806205  0.69110537  0.57394772  1
  Ni  Ni10  1  0.79544286  0.69220091  0.57122597  1
  Ni  Ni11  1  0.30808452  0.20733914  0.57504076  1
  Ni  Ni12  1  0.80063240  0.20204216  0.58314476  1
  Ni  Ni13  1  0.53719599  0.43940785  0.82901383  1
  O  O14  1  0.44545922  0.59961605  0.21740605  1
  O  O15  1  0.19158251  0.83350722  0.45866760  1
  O  O16  1  0.68395993  0.85041716  0.46419898  1
  O  O17  1  0.16119198  0.32459173  0.47255846  1
  O  O18  1  0.97748734  0.60744875  0.21417532  1
  O  O19  1  0.44576731  0.08502034  0.21691825  1
  O  O20  1  0.68272833  0.31995163  0.46536981  1
  O  O21  1  0.93938681  0.10011255  0.23481925  1
  O  O22  1  0.17491814  0.82207040  0.93991469  1
  O  O23  1  0.42958894  0.57887884  0.70201271  1
  O  O24  1  0.65350657  0.80481857  0.93202479  1
  O  O25  1  0.16401664  0.30175451  0.93790212  1
  O  O26  1  0.92310864  0.57949996  0.71176114  1
  O  O27  1  0.41176394  0.06372136  0.71136620  1
  O  O28  1  0.91282709  0.05692143  0.70916726  1
  O  O29  1  0.62589848  0.29758097  0.96143770  1
