# generated using pymatgen
data_C
_symmetry_space_group_name_H-M   'P 1'
_cell_length_a   2.51049074
_cell_length_b   4.13154898
_cell_length_c   9.02832400
_cell_angle_alpha   90.00000000
_cell_angle_beta   90.00000000
_cell_angle_gamma   90.00000000
_symmetry_Int_Tables_number   1
_chemical_formula_structural   C
_chemical_formula_sum   C16
_cell_volume   93.64372174
_cell_formula_units_Z   16
loop_
 _symmetry_equiv_pos_site_id
 _symmetry_equiv_pos_as_xyz
  1  'x, y, z'
loop_
 _atom_site_type_symbol
 _atom_site_label
 _atom_site_symmetry_multiplicity
 _atom_site_fract_x
 _atom_site_fract_y
 _atom_site_fract_z
 _atom_site_occupancy
  C  C0  1  0.75000000  0.42503726  0.69506678  1
  C  C1  1  0.75000000  0.07496274  0.19506678  1
  C  C2  1  0.25000000  0.57496274  0.30493322  1
  C  C3  1  0.25000000  0.92503726  0.80493322  1
  C  C4  1  0.25000000  0.19959775  0.68943294  1
  C  C5  1  0.25000000  0.30040225  0.18943294  1
  C  C6  1  0.75000000  0.80040225  0.31056706  1
  C  C7  1  0.75000000  0.69959775  0.81056706  1
  C  C8  1  0.25000000  0.40840807  0.02064651  1
  C  C9  1  0.25000000  0.09159193  0.52064651  1
  C  C10  1  0.75000000  0.59159193  0.97935349  1
  C  C11  1  0.75000000  0.90840807  0.47935349  1
  C  C12  1  0.25000000  0.06854126  0.96340397  1
  C  C13  1  0.25000000  0.43145874  0.46340397  1
  C  C14  1  0.75000000  0.93145874  0.03659603  1
  C  C15  1  0.75000000  0.56854126  0.53659603  1
