# generated using pymatgen
data_NaFeF3
_symmetry_space_group_name_H-M   'P 1'
_cell_length_a   5.30029734
_cell_length_b   5.30029734
_cell_length_c   7.30933130
_cell_angle_alpha   90.00000000
_cell_angle_beta   90.00000000
_cell_angle_gamma   145.90621021
_symmetry_Int_Tables_number   1
_chemical_formula_structural   NaFeF3
_chemical_formula_sum   'Na2 Fe2 F6'
_cell_volume   115.10438847
_cell_formula_units_Z   2
loop_
 _symmetry_equiv_pos_site_id
 _symmetry_equiv_pos_as_xyz
  1  'x, y, z'
loop_
 _atom_site_type_symbol
 _atom_site_label
 _atom_site_symmetry_multiplicity
 _atom_site_fract_x
 _atom_site_fract_y
 _atom_site_fract_z
 _atom_site_occupancy
  Na  Na0  1  0.24833173  0.75166827  0.25000000  1
  Na  Na1  1  0.75166827  0.24833173  0.75000000  1
  Fe  Fe2  1  -0.00000000  0.00000000  0.50000000  1
  Fe  Fe3  1  -0.00000000  0.00000000  0.00000000  1
  F  F4  1  0.91420705  0.08579295  0.25000000  1
  F  F5  1  0.08579295  0.91420705  0.75000000  1
  F  F6  1  0.36843838  0.63156162  0.55809459  1
  F  F7  1  0.63156162  0.36843838  0.44190541  1
  F  F8  1  0.36843838  0.63156162  0.94190541  1
  F  F9  1  0.63156162  0.36843838  0.05809459  1
