# generated using pymatgen
data_Pr9Al5Se21
_symmetry_space_group_name_H-M   'P 1'
_cell_length_a   12.27023976
_cell_length_b   12.27023977
_cell_length_c   12.27023897
_cell_angle_alpha   94.73704700
_cell_angle_beta   94.73704704
_cell_angle_gamma   94.73704439
_symmetry_Int_Tables_number   1
_chemical_formula_structural   Pr9Al5Se21
_chemical_formula_sum   'Pr18 Al10 Se42'
_cell_volume   1827.34436627
_cell_formula_units_Z   2
loop_
 _symmetry_equiv_pos_site_id
 _symmetry_equiv_pos_as_xyz
  1  'x, y, z'
loop_
 _atom_site_type_symbol
 _atom_site_label
 _atom_site_symmetry_multiplicity
 _atom_site_fract_x
 _atom_site_fract_y
 _atom_site_fract_z
 _atom_site_occupancy
  Pr  Pr0  1  0.11357473  0.88319816  0.73906912  1
  Pr  Pr1  1  0.45424895  0.22707903  0.07235963  1
  Pr  Pr2  1  0.76569218  0.55471770  0.39483082  1
  Pr  Pr3  1  0.39483082  0.76569218  0.55471770  1
  Pr  Pr4  1  0.73906912  0.11357473  0.88319816  1
  Pr  Pr5  1  0.07235963  0.45424895  0.22707903  1
  Pr  Pr6  1  0.22707903  0.07235963  0.45424895  1
  Pr  Pr7  1  0.55471770  0.39483082  0.76569218  1
  Pr  Pr8  1  0.88319816  0.73906912  0.11357473  1
  Pr  Pr9  1  0.20877910  0.43159024  0.58437101  1
  Pr  Pr10  1  0.55123471  0.77572033  0.93230927  1
  Pr  Pr11  1  0.87541720  0.09855750  0.24698403  1
  Pr  Pr12  1  0.93230927  0.55123471  0.77572033  1
  Pr  Pr13  1  0.24698403  0.87541720  0.09855750  1
  Pr  Pr14  1  0.58437101  0.20877910  0.43159024  1
  Pr  Pr15  1  0.09855750  0.24698403  0.87541720  1
  Pr  Pr16  1  0.43159024  0.58437101  0.20877910  1
  Pr  Pr17  1  0.77572033  0.93230927  0.55123471  1
  Al  Al18  1  0.72043732  0.38696882  0.04576146  1
  Al  Al19  1  0.04576146  0.72043732  0.38696882  1
  Al  Al20  1  0.38696882  0.04576146  0.72043732  1
  Al  Al21  1  0.88122263  0.22469588  0.54704016  1
  Al  Al22  1  0.22469588  0.54704016  0.88122263  1
  Al  Al23  1  0.54704016  0.88122263  0.22469588  1
  Al  Al24  1  0.85559431  0.85559431  0.85559431  1
  Al  Al25  1  0.16931898  0.16931898  0.16931898  1
  Al  Al26  1  0.67108451  0.67108451  0.67108451  1
  Al  Al27  1  0.35373169  0.35373169  0.35373169  1
  Se  Se28  1  0.83985501  0.50793803  0.16970767  1
  Se  Se29  1  0.16970767  0.83985501  0.50793803  1
  Se  Se30  1  0.50793803  0.16970767  0.83985501  1
  Se  Se31  1  0.67164874  0.00531348  0.34007284  1
  Se  Se32  1  0.00531348  0.34007284  0.67164874  1
  Se  Se33  1  0.34007284  0.67164874  0.00531348  1
  Se  Se34  1  0.54414675  0.45018627  0.00848264  1
  Se  Se35  1  0.87111356  0.78690186  0.35533508  1
  Se  Se36  1  0.20805847  0.10840066  0.69365249  1
  Se  Se37  1  0.69365249  0.20805847  0.10840066  1
  Se  Se38  1  0.00848264  0.54414675  0.45018627  1
  Se  Se39  1  0.35533508  0.87111356  0.78690186  1
  Se  Se40  1  0.78690186  0.35533508  0.87111356  1
  Se  Se41  1  0.10840066  0.69365249  0.20805847  1
  Se  Se42  1  0.45018627  0.00848264  0.54414675  1
  Se  Se43  1  0.96470126  0.06726497  0.48021703  1
  Se  Se44  1  0.29969654  0.38503395  0.81488008  1
  Se  Se45  1  0.63061928  0.72009560  0.16381649  1
  Se  Se46  1  0.81488008  0.29969654  0.38503395  1
  Se  Se47  1  0.16381649  0.63061928  0.72009560  1
  Se  Se48  1  0.48021703  0.96470126  0.06726497  1
  Se  Se49  1  0.72009560  0.16381649  0.63061928  1
  Se  Se50  1  0.06726497  0.48021703  0.96470126  1
  Se  Se51  1  0.38503395  0.81488008  0.29969654  1
  Se  Se52  1  0.55048145  0.40679355  0.30688632  1
  Se  Se53  1  0.89031000  0.75927771  0.66457985  1
  Se  Se54  1  0.23511757  0.09659491  0.99704436  1
  Se  Se55  1  0.99704436  0.23511757  0.09659491  1
  Se  Se56  1  0.30688632  0.55048145  0.40679355  1
  Se  Se57  1  0.66457985  0.89031000  0.75927771  1
  Se  Se58  1  0.75927771  0.66457985  0.89031000  1
  Se  Se59  1  0.09659491  0.99704436  0.23511757  1
  Se  Se60  1  0.40679355  0.30688632  0.55048145  1
  Se  Se61  1  0.14945822  0.28200242  0.37469378  1
  Se  Se62  1  0.48759299  0.62003034  0.72589818  1
  Se  Se63  1  0.79244905  0.94042620  0.03673187  1
  Se  Se64  1  0.72589818  0.48759299  0.62003034  1
  Se  Se65  1  0.03673187  0.79244905  0.94042620  1
  Se  Se66  1  0.37469378  0.14945822  0.28200242  1
  Se  Se67  1  0.94042620  0.03673187  0.79244905  1
  Se  Se68  1  0.28200242  0.37469378  0.14945822  1
  Se  Se69  1  0.62003034  0.72589818  0.48759299  1
