# generated using pymatgen
data_CeSe2
_symmetry_space_group_name_H-M   'P 1'
_cell_length_a   12.67964212
_cell_length_b   12.67964212
_cell_length_c   14.80907277
_cell_angle_alpha   90.00000000
_cell_angle_beta   90.00000000
_cell_angle_gamma   90.00000000
_symmetry_Int_Tables_number   1
_chemical_formula_structural   CeSe2
_chemical_formula_sum   'Ce12 Se24'
_cell_volume   2380.90385890
_cell_formula_units_Z   12
loop_
 _symmetry_equiv_pos_site_id
 _symmetry_equiv_pos_as_xyz
  1  'x, y, z'
loop_
 _atom_site_type_symbol
 _atom_site_label
 _atom_site_symmetry_multiplicity
 _atom_site_fract_x
 _atom_site_fract_y
 _atom_site_fract_z
 _atom_site_occupancy
  Ce  Ce0  1  0.82397105  0.37908395  0.00225262  1
  Ce  Ce1  1  0.17602895  0.62091605  0.50225262  1
  Ce  Ce2  1  0.87908395  0.67602895  0.25225262  1
  Ce  Ce3  1  0.12091605  0.32397105  0.75225262  1
  Ce  Ce4  1  0.62091605  0.17602895  0.49774738  1
  Ce  Ce5  1  0.37908395  0.82397105  0.99774738  1
  Ce  Ce6  1  0.67602895  0.87908395  0.74774738  1
  Ce  Ce7  1  0.32397105  0.12091605  0.24774738  1
  Ce  Ce8  1  0.91152854  0.08847146  0.25000000  1
  Ce  Ce9  1  0.08847146  0.91152854  0.75000000  1
  Ce  Ce10  1  0.58847146  0.58847146  0.50000000  1
  Ce  Ce11  1  0.41152854  0.41152854  0.00000000  1
  Se  Se12  1  0.94542936  0.36791415  0.85067374  1
  Se  Se13  1  0.05457064  0.63208585  0.35067374  1
  Se  Se14  1  0.86791415  0.55457064  0.10067374  1
  Se  Se15  1  0.13208585  0.44542936  0.60067374  1
  Se  Se16  1  0.63208585  0.05457064  0.64932626  1
  Se  Se17  1  0.36791415  0.94542936  0.14932626  1
  Se  Se18  1  0.55457064  0.86791415  0.89932626  1
  Se  Se19  1  0.44542936  0.13208585  0.39932626  1
  Se  Se20  1  0.61711322  0.37762656  0.95545169  1
  Se  Se21  1  0.38288678  0.62237344  0.45545169  1
  Se  Se22  1  0.87762656  0.88288678  0.20545169  1
  Se  Se23  1  0.12237344  0.11711322  0.70545169  1
  Se  Se24  1  0.62237344  0.38288678  0.54454831  1
  Se  Se25  1  0.37762656  0.61711322  0.04454831  1
  Se  Se26  1  0.88288678  0.87762656  0.79454831  1
  Se  Se27  1  0.11711322  0.12237344  0.29454831  1
  Se  Se28  1  0.84468940  0.20439748  0.10667315  1
  Se  Se29  1  0.15531060  0.79560252  0.60667315  1
  Se  Se30  1  0.70439748  0.65531060  0.35667315  1
  Se  Se31  1  0.29560252  0.34468940  0.85667315  1
  Se  Se32  1  0.79560252  0.15531060  0.39332685  1
  Se  Se33  1  0.20439748  0.84468940  0.89332685  1
  Se  Se34  1  0.65531060  0.70439748  0.64332685  1
  Se  Se35  1  0.34468940  0.29560252  0.14332685  1
