# generated using pymatgen
data_MgZr2H10(S3O14)2
_symmetry_space_group_name_H-M   'P 1'
_cell_length_a   5.32499709
_cell_length_b   8.88745575
_cell_length_c   12.70977931
_cell_angle_alpha   90.62163304
_cell_angle_beta   89.48584329
_cell_angle_gamma   91.88946415
_symmetry_Int_Tables_number   1
_chemical_formula_structural   MgZr2H10(S3O14)2
_chemical_formula_sum   'Mg1 Zr2 H10 S6 O28'
_cell_volume   601.11413900
_cell_formula_units_Z   1
loop_
 _symmetry_equiv_pos_site_id
 _symmetry_equiv_pos_as_xyz
  1  'x, y, z'
loop_
 _atom_site_type_symbol
 _atom_site_label
 _atom_site_symmetry_multiplicity
 _atom_site_fract_x
 _atom_site_fract_y
 _atom_site_fract_z
 _atom_site_occupancy
  Mg  Mg0  1  0.75463832  0.58401416  0.27315622  1
  Zr  Zr1  1  0.75993595  0.89592422  0.81673257  1
  Zr  Zr2  1  0.21445142  0.10569875  0.17069806  1
  H  H3  1  0.42978246  0.67447982  0.56064720  1
  H  H4  1  0.59551675  0.34650500  0.47602857  1
  H  H5  1  0.27444234  0.84085150  0.53876745  1
  H  H6  1  0.67907084  0.17341638  0.48296143  1
  H  H7  1  0.43031525  0.75590956  0.44392945  1
  H  H8  1  0.52068729  0.25038550  0.58936900  1
  H  H9  1  0.13082407  0.37773687  0.82668125  1
  H  H10  1  0.97069459  0.60108881  0.08814600  1
  H  H11  1  0.32728210  0.43151284  0.90756550  1
  H  H12  1  0.72743081  0.49942258  0.07258841  1
  S  S13  1  0.76576295  0.61892719  0.70183585  1
  S  S14  1  0.26187986  0.38684171  0.29457268  1
  S  S15  1  0.26299615  0.06190037  0.67532079  1
  S  S16  1  0.71300143  0.94642942  0.32264269  1
  S  S17  1  0.25426989  0.80278474  0.99290034  1
  S  S18  1  0.71553383  0.20247663  0.00519029  1
  O  O19  1  0.89628822  0.77364573  0.68027768  1
  O  O20  1  0.17540950  0.23545033  0.33278380  1
  O  O21  1  0.58623194  0.58113226  0.61650917  1
  O  O22  1  0.50528591  0.43901456  0.34403007  1
  O  O23  1  0.94092194  0.50239373  0.71760271  1
  O  O24  1  0.07636201  0.50231326  0.31735385  1
  O  O25  1  0.62315307  0.66428041  0.80267936  1
  O  O26  1  0.30697623  0.36138702  0.17920723  1
  O  O27  1  0.23278122  0.99404632  0.57026825  1
  O  O28  1  0.70999343  0.01179119  0.42740768  1
  O  O29  1  0.02588281  0.05368277  0.73793550  1
  O  O30  1  0.96289150  0.96159839  0.26983438  1
  O  O31  1  0.35200114  0.21996908  0.66752564  1
  O  O32  1  0.64581164  0.78039322  0.32960676  1
  O  O33  1  0.45655737  0.97443756  0.73528379  1
  O  O34  1  0.52314319  0.01619943  0.25351966  1
  O  O35  1  0.06533156  0.82907882  0.90897134  1
  O  O36  1  0.90336654  0.17466294  0.09318351  1
  O  O37  1  0.78091403  0.10941550  0.91404065  1
  O  O38  1  0.18152878  0.89910060  0.08634891  1
  O  O39  1  0.24553026  0.64679689  0.02582620  1
  O  O40  1  0.70821265  0.36064272  0.98396277  1
  O  O41  1  0.50550232  0.85386631  0.95445833  1
  O  O42  1  0.46925566  0.14358239  0.05001938  1
  O  O43  1  0.22692102  0.34313814  0.88623332  1
  O  O44  1  0.80282914  0.57723631  0.12112370  1
  O  O45  1  0.32081038  0.73584065  0.50600333  1
  O  O46  1  0.65659023  0.27002641  0.52431128  1
