# generated using pymatgen
data_BaEr2O4
_symmetry_space_group_name_H-M   'P 1'
_cell_length_a   3.41809719
_cell_length_b   10.36344538
_cell_length_c   12.01602373
_cell_angle_alpha   90.00000000
_cell_angle_beta   90.00000000
_cell_angle_gamma   90.00000000
_symmetry_Int_Tables_number   1
_chemical_formula_structural   BaEr2O4
_chemical_formula_sum   'Ba4 Er8 O16'
_cell_volume   425.64677520
_cell_formula_units_Z   4
loop_
 _symmetry_equiv_pos_site_id
 _symmetry_equiv_pos_as_xyz
  1  'x, y, z'
loop_
 _atom_site_type_symbol
 _atom_site_label
 _atom_site_symmetry_multiplicity
 _atom_site_fract_x
 _atom_site_fract_y
 _atom_site_fract_z
 _atom_site_occupancy
  Ba  Ba0  1  0.75000000  0.25323881  0.14977535  1
  Ba  Ba1  1  0.75000000  0.75323881  0.35022465  1
  Ba  Ba2  1  0.25000000  0.74676119  0.85022465  1
  Ba  Ba3  1  0.25000000  0.24676119  0.64977535  1
  Er  Er4  1  0.75000000  0.42205188  0.89168023  1
  Er  Er5  1  0.75000000  0.92205188  0.60831977  1
  Er  Er6  1  0.25000000  0.57794812  0.10831977  1
  Er  Er7  1  0.25000000  0.07794812  0.39168023  1
  Er  Er8  1  0.75000000  0.92714720  0.11051393  1
  Er  Er9  1  0.75000000  0.42714720  0.38948607  1
  Er  Er10  1  0.25000000  0.07285280  0.88948607  1
  Er  Er11  1  0.25000000  0.57285280  0.61051393  1
  O  O12  1  0.75000000  0.20939228  0.84432142  1
  O  O13  1  0.75000000  0.70939228  0.65567858  1
  O  O14  1  0.25000000  0.79060772  0.15567858  1
  O  O15  1  0.25000000  0.29060772  0.34432142  1
  O  O16  1  0.75000000  0.11350892  0.51727510  1
  O  O17  1  0.75000000  0.61350892  0.98272490  1
  O  O18  1  0.25000000  0.88649108  0.48272490  1
  O  O19  1  0.25000000  0.38649108  0.01727510  1
  O  O20  1  0.75000000  0.01923908  0.28258009  1
  O  O21  1  0.75000000  0.51923908  0.21741991  1
  O  O22  1  0.25000000  0.98076092  0.71741991  1
  O  O23  1  0.25000000  0.48076092  0.78258009  1
  O  O24  1  0.75000000  0.43092327  0.57367609  1
  O  O25  1  0.75000000  0.93092327  0.92632391  1
  O  O26  1  0.25000000  0.56907673  0.42632391  1
  O  O27  1  0.25000000  0.06907673  0.07367609  1
