# generated using pymatgen
data_Mg(WO2)2
_symmetry_space_group_name_H-M   'P 1'
_cell_length_a   6.22862588
_cell_length_b   6.22862588
_cell_length_c   14.91492344
_cell_angle_alpha   91.97057284
_cell_angle_beta   91.97057284
_cell_angle_gamma   57.61753988
_symmetry_Int_Tables_number   1
_chemical_formula_structural   Mg(WO2)2
_chemical_formula_sum   'Mg6 W12 O24'
_cell_volume   488.27708868
_cell_formula_units_Z   6
loop_
 _symmetry_equiv_pos_site_id
 _symmetry_equiv_pos_as_xyz
  1  'x, y, z'
loop_
 _atom_site_type_symbol
 _atom_site_label
 _atom_site_symmetry_multiplicity
 _atom_site_fract_x
 _atom_site_fract_y
 _atom_site_fract_z
 _atom_site_occupancy
  Mg  Mg0  1  0.34253326  0.34253326  0.04410509  1
  Mg  Mg1  1  0.64663229  0.64663229  0.32608215  1
  Mg  Mg2  1  0.80835115  0.80835115  0.16075733  1
  Mg  Mg3  1  0.34575726  0.34575726  0.66502088  1
  Mg  Mg4  1  0.49022373  0.49022373  0.50169113  1
  Mg  Mg5  1  0.19759550  0.19759550  0.83996600  1
  W  W6  1  0.85149989  0.29206651  0.16636511  1
  W  W7  1  0.03513883  0.03513883  0.37059953  1
  W  W8  1  0.01733854  0.01733854  0.02782125  1
  W  W9  1  0.29206651  0.85149989  0.16636511  1
  W  W10  1  0.44529042  0.00054599  0.48818569  1
  W  W11  1  0.68594256  0.68594256  0.76144470  1
  W  W12  1  0.00054599  0.44529042  0.48818569  1
  W  W13  1  0.23400362  0.68729158  0.84308667  1
  W  W14  1  0.23666461  0.23666461  0.30998361  1
  W  W15  1  0.68729158  0.23400362  0.84308667  1
  W  W16  1  0.01030651  0.01030651  0.55802363  1
  W  W17  1  0.64025743  0.64025743  0.91439883  1
  O  O18  1  0.68567283  0.12988653  0.09134830  1
  O  O19  1  0.95683262  0.95683262  0.24700837  1
  O  O20  1  0.12988653  0.68567283  0.09134830  1
  O  O21  1  0.18325472  0.18325472  0.09659344  1
  O  O22  1  0.35996694  0.75949575  0.41263053  1
  O  O23  1  0.50879267  0.50879267  0.23189486  1
  O  O24  1  0.66319316  0.66319316  0.55950618  1
  O  O25  1  0.51003291  0.95625571  0.24415273  1
  O  O26  1  0.75949575  0.35996694  0.41263053  1
  O  O27  1  0.64245475  0.64245475  0.09469678  1
  O  O28  1  0.78835743  0.78835743  0.41801122  1
  O  O29  1  0.95625571  0.51003291  0.24415273  1
  O  O30  1  0.05982237  0.53260346  0.75873389  1
  O  O31  1  0.18252684  0.18252684  0.59719805  1
  O  O32  1  0.15184570  0.63868238  0.56613152  1
  O  O33  1  0.53260346  0.05982237  0.75873389  1
  O  O34  1  0.35148020  0.35148020  0.91468528  1
  O  O35  1  0.34109443  0.34109443  0.41839725  1
  O  O36  1  0.51156926  0.51156926  0.72962060  1
  O  O37  1  0.63868238  0.15184570  0.56613152  1
  O  O38  1  0.88589728  0.88589728  0.91809425  1
  O  O39  1  0.91435777  0.29570642  0.93779435  1
  O  O40  1  0.02948717  0.02948717  0.77766098  1
  O  O41  1  0.29570642  0.91435777  0.93779435  1
