# generated using pymatgen
data_Cs3Tl2Cl9
_symmetry_space_group_name_H-M   'P 1'
_cell_length_a   9.69241808
_cell_length_b   9.69241808
_cell_length_c   9.69241910
_cell_angle_alpha   83.70195261
_cell_angle_beta   83.70195261
_cell_angle_gamma   83.70194829
_symmetry_Int_Tables_number   1
_chemical_formula_structural   Cs3Tl2Cl9
_chemical_formula_sum   'Cs6 Tl4 Cl18'
_cell_volume   895.17072367
_cell_formula_units_Z   2
loop_
 _symmetry_equiv_pos_site_id
 _symmetry_equiv_pos_as_xyz
  1  'x, y, z'
loop_
 _atom_site_type_symbol
 _atom_site_label
 _atom_site_symmetry_multiplicity
 _atom_site_fract_x
 _atom_site_fract_y
 _atom_site_fract_z
 _atom_site_occupancy
  Cs  Cs0  1  0.75000000  0.08786088  0.41213912  1
  Cs  Cs1  1  0.41213912  0.75000000  0.08786088  1
  Cs  Cs2  1  0.08786088  0.41213912  0.75000000  1
  Cs  Cs3  1  0.25000000  0.91213912  0.58786088  1
  Cs  Cs4  1  0.58786088  0.25000000  0.91213912  1
  Cs  Cs5  1  0.91213912  0.58786088  0.25000000  1
  Tl  Tl6  1  0.64918039  0.64918039  0.64918039  1
  Tl  Tl7  1  0.35081961  0.35081961  0.35081961  1
  Tl  Tl8  1  0.14918039  0.14918039  0.14918039  1
  Tl  Tl9  1  0.85081961  0.85081961  0.85081961  1
  Cl  Cl10  1  0.75000000  0.59389361  0.90610639  1
  Cl  Cl11  1  0.90610639  0.75000000  0.59389361  1
  Cl  Cl12  1  0.59389361  0.90610639  0.75000000  1
  Cl  Cl13  1  0.25000000  0.40610639  0.09389361  1
  Cl  Cl14  1  0.09389361  0.25000000  0.40610639  1
  Cl  Cl15  1  0.40610639  0.09389361  0.25000000  1
  Cl  Cl16  1  0.76405575  0.41604526  0.58694224  1
  Cl  Cl17  1  0.58694224  0.76405575  0.41604526  1
  Cl  Cl18  1  0.41604526  0.58694224  0.76405575  1
  Cl  Cl19  1  0.23594425  0.58395474  0.41305776  1
  Cl  Cl20  1  0.41305776  0.23594425  0.58395474  1
  Cl  Cl21  1  0.58395474  0.41305776  0.23594425  1
  Cl  Cl22  1  0.91604526  0.26405575  0.08694224  1
  Cl  Cl23  1  0.26405575  0.08694224  0.91604526  1
  Cl  Cl24  1  0.08694224  0.91604526  0.26405575  1
  Cl  Cl25  1  0.08395474  0.73594425  0.91305776  1
  Cl  Cl26  1  0.73594425  0.91305776  0.08395474  1
  Cl  Cl27  1  0.91305776  0.08395474  0.73594425  1
