# generated using pymatgen
data_MoSe2
_symmetry_space_group_name_H-M   'P 1'
_cell_length_a   3.32600933
_cell_length_b   3.32607600
_cell_length_c   13.89686101
_cell_angle_alpha   90.00000000
_cell_angle_beta   90.00000000
_cell_angle_gamma   119.99931604
_symmetry_Int_Tables_number   1
_chemical_formula_structural   MoSe2
_chemical_formula_sum   'Mo2 Se4'
_cell_volume   133.13920825
_cell_formula_units_Z   2
loop_
 _symmetry_equiv_pos_site_id
 _symmetry_equiv_pos_as_xyz
  1  'x, y, z'
loop_
 _atom_site_type_symbol
 _atom_site_label
 _atom_site_symmetry_multiplicity
 _atom_site_fract_x
 _atom_site_fract_y
 _atom_site_fract_z
 _atom_site_occupancy
  Mo  Mo0  1  -0.00009625  -0.00019350  0.25000000  1
  Mo  Mo1  1  0.00009625  0.00019350  0.75000000  1
  Se  Se2  1  0.33320032  0.66640064  0.36895026  1
  Se  Se3  1  0.66679968  0.33359936  0.63104974  1
  Se  Se4  1  0.66679968  0.33359936  0.86895026  1
  Se  Se5  1  0.33320032  0.66640064  0.13104974  1
