# generated using pymatgen
data_Nd2MgS4
_symmetry_space_group_name_H-M   'P 1'
_cell_length_a   13.05529593
_cell_length_b   7.81472764
_cell_length_c   13.01256461
_cell_angle_alpha   90.00000000
_cell_angle_beta   90.00000000
_cell_angle_gamma   90.00000000
_symmetry_Int_Tables_number   1
_chemical_formula_structural   Nd2MgS4
_chemical_formula_sum   'Nd16 Mg8 S32'
_cell_volume   1327.58845190
_cell_formula_units_Z   8
loop_
 _symmetry_equiv_pos_site_id
 _symmetry_equiv_pos_as_xyz
  1  'x, y, z'
loop_
 _atom_site_type_symbol
 _atom_site_label
 _atom_site_symmetry_multiplicity
 _atom_site_fract_x
 _atom_site_fract_y
 _atom_site_fract_z
 _atom_site_occupancy
  Nd  Nd0  1  0.10946340  0.88587941  0.68425425  1
  Nd  Nd1  1  0.89053660  0.11412059  0.18425425  1
  Nd  Nd2  1  0.39053660  0.88587941  0.18425425  1
  Nd  Nd3  1  0.60946340  0.11412059  0.68425425  1
  Nd  Nd4  1  0.12682040  0.38403116  0.32613183  1
  Nd  Nd5  1  0.87317960  0.61596884  0.82613183  1
  Nd  Nd6  1  0.37317960  0.38403116  0.82613183  1
  Nd  Nd7  1  0.62682040  0.61596884  0.32613183  1
  Nd  Nd8  1  0.13472700  0.63053932  0.99414675  1
  Nd  Nd9  1  0.86527300  0.36946068  0.49414675  1
  Nd  Nd10  1  0.36527300  0.63053932  0.49414675  1
  Nd  Nd11  1  0.63472700  0.36946068  0.99414675  1
  Nd  Nd12  1  0.13556029  0.13054878  0.99314150  1
  Nd  Nd13  1  0.86443971  0.86945122  0.49314150  1
  Nd  Nd14  1  0.36443971  0.13054878  0.49314150  1
  Nd  Nd15  1  0.63556029  0.86945122  0.99314150  1
  Mg  Mg16  1  0.11146658  0.38513343  0.69308270  1
  Mg  Mg17  1  0.88853342  0.61486657  0.19308270  1
  Mg  Mg18  1  0.38853342  0.38513343  0.19308270  1
  Mg  Mg19  1  0.61146658  0.61486657  0.69308270  1
  Mg  Mg20  1  0.12578423  0.87993693  0.32016120  1
  Mg  Mg21  1  0.87421577  0.12006307  0.82016120  1
  Mg  Mg22  1  0.37421577  0.87993693  0.82016120  1
  Mg  Mg23  1  0.62578423  0.12006307  0.32016120  1
  S  S24  1  0.01076470  0.88196523  0.87927318  1
  S  S25  1  0.98923530  0.11803477  0.37927318  1
  S  S26  1  0.48923530  0.88196523  0.37927318  1
  S  S27  1  0.51076470  0.11803477  0.87927318  1
  S  S28  1  0.02826875  0.38236219  0.12908476  1
  S  S29  1  0.97173125  0.61763781  0.62908476  1
  S  S30  1  0.47173125  0.38236219  0.62908476  1
  S  S31  1  0.52826875  0.61763781  0.12908476  1
  S  S32  1  0.02536283  0.37227091  0.86708544  1
  S  S33  1  0.97463717  0.62772909  0.36708544  1
  S  S34  1  0.47463717  0.37227091  0.36708544  1
  S  S35  1  0.52536283  0.62772909  0.86708544  1
  S  S36  1  0.04679372  0.87386191  0.14014484  1
  S  S37  1  0.95320628  0.12613809  0.64014484  1
  S  S38  1  0.45320628  0.87386191  0.64014484  1
  S  S39  1  0.54679372  0.12613809  0.14014484  1
  S  S40  1  0.20988548  0.88084023  0.49551893  1
  S  S41  1  0.79011452  0.11915977  0.99551893  1
  S  S42  1  0.29011452  0.88084023  0.99551893  1
  S  S43  1  0.70988548  0.11915977  0.49551893  1
  S  S44  1  0.21040136  0.38131856  0.52436293  1
  S  S45  1  0.78959864  0.61868144  0.02436293  1
  S  S46  1  0.28959864  0.38131856  0.02436293  1
  S  S47  1  0.71040136  0.61868144  0.52436293  1
  S  S48  1  0.23259805  0.13278294  0.77388160  1
  S  S49  1  0.76740195  0.86721706  0.27388160  1
  S  S50  1  0.26740195  0.13278294  0.27388160  1
  S  S51  1  0.73259805  0.86721706  0.77388160  1
  S  S52  1  0.23210841  0.63504476  0.77673108  1
  S  S53  1  0.76789159  0.36495524  0.27673108  1
  S  S54  1  0.26789159  0.63504476  0.27673108  1
  S  S55  1  0.73210841  0.36495524  0.77673108  1
