# generated using pymatgen
data_Cs3Tl2Br9
_symmetry_space_group_name_H-M   'P 1'
_cell_length_a   7.87645545
_cell_length_b   9.75361437
_cell_length_c   14.06494383
_cell_angle_alpha   92.98867290
_cell_angle_beta   90.00000000
_cell_angle_gamma   90.00000000
_symmetry_Int_Tables_number   1
_chemical_formula_structural   Cs3Tl2Br9
_chemical_formula_sum   'Cs6 Tl4 Br18'
_cell_volume   1079.05430350
_cell_formula_units_Z   2
loop_
 _symmetry_equiv_pos_site_id
 _symmetry_equiv_pos_as_xyz
  1  'x, y, z'
loop_
 _atom_site_type_symbol
 _atom_site_label
 _atom_site_symmetry_multiplicity
 _atom_site_fract_x
 _atom_site_fract_y
 _atom_site_fract_z
 _atom_site_occupancy
  Cs  Cs0  1  0.74931153  0.32759629  0.42262002  1
  Cs  Cs1  1  0.24931153  0.67240371  0.57737998  1
  Cs  Cs2  1  0.25103485  0.36652609  0.88580989  1
  Cs  Cs3  1  0.75103485  0.63347391  0.11419011  1
  Cs  Cs4  1  0.25113876  0.97291477  0.27194462  1
  Cs  Cs5  1  0.75113876  0.02708523  0.72805538  1
  Tl  Tl6  1  0.74691385  0.19868011  0.07205592  1
  Tl  Tl7  1  0.24691385  0.80131989  0.92794408  1
  Tl  Tl8  1  0.75027876  0.80542552  0.41449042  1
  Tl  Tl9  1  0.25027876  0.19457448  0.58550958  1
  Br  Br10  1  0.49142330  0.30089522  0.16940576  1
  Br  Br11  1  0.99142330  0.69910478  0.83059424  1
  Br  Br12  1  0.50468500  0.70278285  0.83163261  1
  Br  Br13  1  0.00468500  0.29721715  0.16836739  1
  Br  Br14  1  0.75081917  0.97279633  0.26471940  1
  Br  Br15  1  0.25081917  0.02720367  0.73528060  1
  Br  Br16  1  0.49487167  0.64957907  0.33937467  1
  Br  Br17  1  0.99487167  0.35042093  0.66062533  1
  Br  Br18  1  0.50510343  0.35109418  0.66069788  1
  Br  Br19  1  0.00510343  0.64890582  0.33930212  1
  Br  Br20  1  0.75189974  0.34734289  0.91841450  1
  Br  Br21  1  0.25189974  0.65265711  0.08158550  1
  Br  Br22  1  0.74985535  0.68567953  0.58117031  1
  Br  Br23  1  0.24985535  0.31432047  0.41882969  1
  Br  Br24  1  0.00020531  0.99959277  0.49999805  1
  Br  Br25  1  0.50020531  0.00040723  0.50000195  1
  Br  Br26  1  0.71576030  0.95753339  0.99106052  1
  Br  Br27  1  0.21576030  0.04246661  0.00893948  1
