# generated using pymatgen
data_Dy2MoO6
_symmetry_space_group_name_H-M   'P 1'
_cell_length_a   9.85730477
_cell_length_b   9.85730477
_cell_length_c   5.34113972
_cell_angle_alpha   74.85744461
_cell_angle_beta   74.85744461
_cell_angle_gamma   67.95906390
_symmetry_Int_Tables_number   1
_chemical_formula_structural   Dy2MoO6
_chemical_formula_sum   'Dy8 Mo4 O24'
_cell_volume   456.55875831
_cell_formula_units_Z   4
loop_
 _symmetry_equiv_pos_site_id
 _symmetry_equiv_pos_as_xyz
  1  'x, y, z'
loop_
 _atom_site_type_symbol
 _atom_site_label
 _atom_site_symmetry_multiplicity
 _atom_site_fract_x
 _atom_site_fract_y
 _atom_site_fract_z
 _atom_site_occupancy
  Dy  Dy0  1  0.78419848  0.55113972  0.62103576  1
  Dy  Dy1  1  0.44886028  0.21580152  0.87896424  1
  Dy  Dy2  1  0.21580152  0.44886028  0.37896424  1
  Dy  Dy3  1  0.55113972  0.78419848  0.12103576  1
  Dy  Dy4  1  0.86385756  0.13614244  0.75000000  1
  Dy  Dy5  1  0.13614244  0.86385756  0.25000000  1
  Dy  Dy6  1  0.39234833  0.60765167  0.75000000  1
  Dy  Dy7  1  0.60765167  0.39234833  0.25000000  1
  Mo  Mo8  1  0.98599406  0.70473232  0.93821493  1
  Mo  Mo9  1  0.29526768  0.01400594  0.56178507  1
  Mo  Mo10  1  0.01400594  0.29526768  0.06178507  1
  Mo  Mo11  1  0.70473232  0.98599406  0.43821493  1
  O  O12  1  0.42690268  0.38983518  0.07936774  1
  O  O13  1  0.61016482  0.57309732  0.42063226  1
  O  O14  1  0.57309732  0.61016482  0.92063226  1
  O  O15  1  0.38983518  0.42690268  0.57936774  1
  O  O16  1  0.19240189  0.66316430  0.08347968  1
  O  O17  1  0.33683570  0.80759811  0.41652032  1
  O  O18  1  0.80759811  0.33683570  0.91652032  1
  O  O19  1  0.66316430  0.19240189  0.58347968  1
  O  O20  1  0.11455874  0.67376647  0.63171900  1
  O  O21  1  0.32623353  0.88544126  0.86828100  1
  O  O22  1  0.88544126  0.32623353  0.36828100  1
  O  O23  1  0.67376647  0.11455874  0.13171900  1
  O  O24  1  0.71200487  0.81672076  0.36111691  1
  O  O25  1  0.18327924  0.28799513  0.13888309  1
  O  O26  1  0.28799513  0.18327924  0.63888309  1
  O  O27  1  0.81672076  0.71200487  0.86111691  1
  O  O28  1  0.88832049  0.95143283  0.48464504  1
  O  O29  1  0.04856717  0.11167951  0.01535496  1
  O  O30  1  0.11167951  0.04856717  0.51535496  1
  O  O31  1  0.95143283  0.88832049  0.98464504  1
  O  O32  1  0.56863157  0.97509353  0.74085293  1
  O  O33  1  0.02490647  0.43136843  0.75914707  1
  O  O34  1  0.43136843  0.02490647  0.25914707  1
  O  O35  1  0.97509353  0.56863157  0.24085293  1
