# generated using pymatgen
data_NaTb(SiO3)2
_symmetry_space_group_name_H-M   'P 1'
_cell_length_a   5.40338482
_cell_length_b   7.58172208
_cell_length_c   13.70046239
_cell_angle_alpha   90.00000000
_cell_angle_beta   90.00000000
_cell_angle_gamma   109.85762833
_symmetry_Int_Tables_number   1
_chemical_formula_structural   NaTb(SiO3)2
_chemical_formula_sum   'Na4 Tb4 Si8 O24'
_cell_volume   527.89319664
_cell_formula_units_Z   4
loop_
 _symmetry_equiv_pos_site_id
 _symmetry_equiv_pos_as_xyz
  1  'x, y, z'
loop_
 _atom_site_type_symbol
 _atom_site_label
 _atom_site_symmetry_multiplicity
 _atom_site_fract_x
 _atom_site_fract_y
 _atom_site_fract_z
 _atom_site_occupancy
  Na  Na0  1  0.86116642  0.45364028  0.77027110  1
  Na  Na1  1  0.13883358  0.04635972  0.27027110  1
  Na  Na2  1  0.13883358  0.54635972  0.22972890  1
  Na  Na3  1  0.86116642  0.95364028  0.72972890  1
  Tb  Tb4  1  0.01787940  0.25191139  0.50590889  1
  Tb  Tb5  1  0.98212060  0.24808861  0.00590889  1
  Tb  Tb6  1  0.98212060  0.74808861  0.49409111  1
  Tb  Tb7  1  0.01787940  0.75191139  0.99409111  1
  Si  Si8  1  0.42971588  0.14378979  0.64031089  1
  Si  Si9  1  0.57028412  0.35621021  0.14031089  1
  Si  Si10  1  0.57028412  0.85621021  0.35968911  1
  Si  Si11  1  0.42971588  0.64378979  0.85968911  1
  Si  Si12  1  0.41860749  0.06793629  0.86218418  1
  Si  Si13  1  0.58139251  0.43206371  0.36218318  1
  Si  Si14  1  0.58139251  0.93206371  0.13781682  1
  Si  Si15  1  0.41860749  0.56793629  0.63781582  1
  O  O16  1  0.31351235  0.08017982  0.75090559  1
  O  O17  1  0.68648765  0.41982018  0.25090559  1
  O  O18  1  0.68648765  0.91982018  0.24909441  1
  O  O19  1  0.31351235  0.58017982  0.74909441  1
  O  O20  1  0.38668807  0.34599538  0.62217876  1
  O  O21  1  0.61331193  0.15400462  0.12217876  1
  O  O22  1  0.61331193  0.65400462  0.37782124  1
  O  O23  1  0.38668807  0.84599538  0.87782124  1
  O  O24  1  0.21484017  0.01592766  0.56552131  1
  O  O25  1  0.78515983  0.48407234  0.06552131  1
  O  O26  1  0.78515983  0.98407234  0.43447869  1
  O  O27  1  0.21484017  0.51592766  0.93447869  1
  O  O28  1  0.73447076  0.16891137  0.63585856  1
  O  O29  1  0.26552924  0.33108863  0.13585856  1
  O  O30  1  0.26552924  0.83108863  0.36414144  1
  O  O31  1  0.73447076  0.66891137  0.86414144  1
  O  O32  1  0.20233850  0.08301524  0.93838513  1
  O  O33  1  0.79766150  0.41698476  0.43838513  1
  O  O34  1  0.79766150  0.91698476  0.06161487  1
  O  O35  1  0.20233850  0.58301524  0.56161487  1
  O  O36  1  0.71611147  0.19895100  0.87456082  1
  O  O37  1  0.28388853  0.30104900  0.37456082  1
  O  O38  1  0.28388853  0.80104900  0.12543918  1
  O  O39  1  0.71611147  0.69895100  0.62543918  1
