# generated using pymatgen
data_La2ThS5
_symmetry_space_group_name_H-M   'P 1'
_cell_length_a   7.64679064
_cell_length_b   8.37262659
_cell_length_c   12.17391973
_cell_angle_alpha   90.00000000
_cell_angle_beta   90.00000000
_cell_angle_gamma   90.00000000
_symmetry_Int_Tables_number   1
_chemical_formula_structural   La2ThS5
_chemical_formula_sum   'La8 Th4 S20'
_cell_volume   779.41966024
_cell_formula_units_Z   4
loop_
 _symmetry_equiv_pos_site_id
 _symmetry_equiv_pos_as_xyz
  1  'x, y, z'
loop_
 _atom_site_type_symbol
 _atom_site_label
 _atom_site_symmetry_multiplicity
 _atom_site_fract_x
 _atom_site_fract_y
 _atom_site_fract_z
 _atom_site_occupancy
  La  La0  1  0.52226549  0.50099032  0.32318317  1
  La  La1  1  0.97773451  0.99900968  0.82318317  1
  La  La2  1  0.47773451  0.00099032  0.67681683  1
  La  La3  1  0.02226549  0.49900968  0.17681683  1
  La  La4  1  0.47773451  0.49900968  0.67681683  1
  La  La5  1  0.02226549  0.00099032  0.17681683  1
  La  La6  1  0.52226549  0.99900968  0.32318317  1
  La  La7  1  0.97773451  0.50099032  0.82318317  1
  Th  Th8  1  0.07260903  0.75000000  0.49139898  1
  Th  Th9  1  0.42739097  0.75000000  0.99139898  1
  Th  Th10  1  0.92739097  0.25000000  0.50860102  1
  Th  Th11  1  0.57260903  0.25000000  0.00860102  1
  S  S12  1  0.83749054  0.95953497  0.59747978  1
  S  S13  1  0.66250946  0.54046503  0.09747978  1
  S  S14  1  0.16250946  0.45953497  0.40252022  1
  S  S15  1  0.33749054  0.04046503  0.90252022  1
  S  S16  1  0.16250946  0.04046503  0.40252022  1
  S  S17  1  0.33749054  0.45953497  0.90252022  1
  S  S18  1  0.83749054  0.54046503  0.59747978  1
  S  S19  1  0.66250946  0.95953497  0.09747978  1
  S  S20  1  0.83256899  0.75000000  0.31211810  1
  S  S21  1  0.66743101  0.75000000  0.81211810  1
  S  S22  1  0.16743101  0.25000000  0.68788190  1
  S  S23  1  0.33256899  0.25000000  0.18788190  1
  S  S24  1  0.45516153  0.75000000  0.49780751  1
  S  S25  1  0.04483847  0.75000000  0.99780751  1
  S  S26  1  0.54483847  0.25000000  0.50219249  1
  S  S27  1  0.95516153  0.25000000  0.00219249  1
  S  S28  1  0.19575201  0.75000000  0.71542720  1
  S  S29  1  0.30424799  0.75000000  0.21542720  1
  S  S30  1  0.80424799  0.25000000  0.28457280  1
  S  S31  1  0.69575201  0.25000000  0.78457280  1
