# generated using pymatgen
data_CsSr2I5
_symmetry_space_group_name_H-M   'P 1'
_cell_length_a   9.23436025
_cell_length_b   10.33353531
_cell_length_c   14.52608532
_cell_angle_alpha   89.62529384
_cell_angle_beta   90.00000000
_cell_angle_gamma   90.00000000
_symmetry_Int_Tables_number   1
_chemical_formula_structural   CsSr2I5
_chemical_formula_sum   'Cs4 Sr8 I20'
_cell_volume   1386.10153424
_cell_formula_units_Z   4
loop_
 _symmetry_equiv_pos_site_id
 _symmetry_equiv_pos_as_xyz
  1  'x, y, z'
loop_
 _atom_site_type_symbol
 _atom_site_label
 _atom_site_symmetry_multiplicity
 _atom_site_fract_x
 _atom_site_fract_y
 _atom_site_fract_z
 _atom_site_occupancy
  Cs  Cs0  1  0.44425000  0.49300684  0.83264456  1
  Cs  Cs1  1  0.55575000  0.50699316  0.16735544  1
  Cs  Cs2  1  0.94425000  0.50699316  0.66735544  1
  Cs  Cs3  1  0.05575000  0.49300684  0.33264456  1
  Sr  Sr4  1  0.47505666  0.99643159  0.81991620  1
  Sr  Sr5  1  0.52494334  0.00356841  0.18008380  1
  Sr  Sr6  1  0.97505666  0.00356841  0.68008380  1
  Sr  Sr7  1  0.02494334  0.99643159  0.31991620  1
  Sr  Sr8  1  0.42864735  0.75432041  0.50661388  1
  Sr  Sr9  1  0.57135265  0.24567959  0.49338612  1
  Sr  Sr10  1  0.92864735  0.24567959  0.99338612  1
  Sr  Sr11  1  0.07135265  0.75432041  0.00661388  1
  I  I12  1  0.32501546  0.46327608  0.57632842  1
  I  I13  1  0.67498454  0.53672392  0.42367158  1
  I  I14  1  0.82501546  0.53672392  0.92367158  1
  I  I15  1  0.17498454  0.46327608  0.07632842  1
  I  I16  1  0.66211817  0.78588655  0.68310461  1
  I  I17  1  0.33788183  0.21411345  0.31689539  1
  I  I18  1  0.16211817  0.21411345  0.81689539  1
  I  I19  1  0.83788183  0.78588655  0.18310461  1
  I  I20  1  0.18770119  0.77854392  0.78482295  1
  I  I21  1  0.81229881  0.22145608  0.21517705  1
  I  I22  1  0.68770119  0.22145608  0.71517705  1
  I  I23  1  0.31229881  0.77854392  0.28482295  1
  I  I24  1  0.04581182  0.79242142  0.50375913  1
  I  I25  1  0.95418818  0.20757858  0.49624087  1
  I  I26  1  0.54581182  0.20757858  0.99624087  1
  I  I27  1  0.45418818  0.79242142  0.00375913  1
  I  I28  1  0.84001473  0.95824563  0.90078647  1
  I  I29  1  0.15998527  0.04175437  0.09921353  1
  I  I30  1  0.34001473  0.04175437  0.59921353  1
  I  I31  1  0.65998527  0.95824563  0.40078647  1
