# generated using pymatgen
data_Hg3AsO5
_symmetry_space_group_name_H-M   'P 1'
_cell_length_a   9.12640558
_cell_length_b   7.02405392
_cell_length_c   10.60323648
_cell_angle_alpha   57.78203703
_cell_angle_beta   90.00000000
_cell_angle_gamma   90.00000000
_symmetry_Int_Tables_number   1
_chemical_formula_structural   Hg3AsO5
_chemical_formula_sum   'Hg12 As4 O20'
_cell_volume   575.05553803
_cell_formula_units_Z   4
loop_
 _symmetry_equiv_pos_site_id
 _symmetry_equiv_pos_as_xyz
  1  'x, y, z'
loop_
 _atom_site_type_symbol
 _atom_site_label
 _atom_site_symmetry_multiplicity
 _atom_site_fract_x
 _atom_site_fract_y
 _atom_site_fract_z
 _atom_site_occupancy
  Hg  Hg0  1  0.13732996  0.66001760  0.34583678  1
  Hg  Hg1  1  0.36267004  0.66001760  0.84583678  1
  Hg  Hg2  1  0.86267004  0.33998240  0.65416322  1
  Hg  Hg3  1  0.63732996  0.33998240  0.15416322  1
  Hg  Hg4  1  0.00695831  0.77240203  0.98534266  1
  Hg  Hg5  1  0.49304169  0.77240203  0.48534266  1
  Hg  Hg6  1  0.99304169  0.22759797  0.01465734  1
  Hg  Hg7  1  0.50695831  0.22759797  0.51465734  1
  Hg  Hg8  1  0.36917690  0.95843553  0.05366000  1
  Hg  Hg9  1  0.13082310  0.95843553  0.55366000  1
  Hg  Hg10  1  0.63082310  0.04156447  0.94634000  1
  Hg  Hg11  1  0.86917690  0.04156447  0.44634000  1
  As  As12  1  0.23963089  0.30120514  0.71099159  1
  As  As13  1  0.26036911  0.30120514  0.21099159  1
  As  As14  1  0.76036911  0.69879486  0.28900841  1
  As  As15  1  0.73963089  0.69879486  0.78900841  1
  O  O16  1  0.13658014  0.86047238  0.11537796  1
  O  O17  1  0.36341986  0.86047238  0.61537796  1
  O  O18  1  0.86341986  0.13952762  0.88462204  1
  O  O19  1  0.63658014  0.13952762  0.38462204  1
  O  O20  1  0.23010941  0.33374335  0.85797292  1
  O  O21  1  0.26989059  0.33374335  0.35797292  1
  O  O22  1  0.76989059  0.66625665  0.14202708  1
  O  O23  1  0.73010941  0.66625665  0.64202708  1
  O  O24  1  0.17803573  0.04536706  0.75614658  1
  O  O25  1  0.32196427  0.04536706  0.25614658  1
  O  O26  1  0.82196427  0.95463294  0.24385342  1
  O  O27  1  0.67803573  0.95463294  0.74385342  1
  O  O28  1  0.12923819  0.51357944  0.57676487  1
  O  O29  1  0.37076181  0.51357944  0.07676487  1
  O  O30  1  0.87076181  0.48642056  0.42323513  1
  O  O31  1  0.62923819  0.48642056  0.92323513  1
  O  O32  1  0.41663520  0.35028623  0.64545502  1
  O  O33  1  0.08336480  0.35028623  0.14545502  1
  O  O34  1  0.58336480  0.64971377  0.35454498  1
  O  O35  1  0.91663520  0.64971377  0.85454498  1
