# generated using pymatgen
data_Li7La3Hf2O12
_symmetry_space_group_name_H-M   'P 1'
_cell_length_a   11.15760874
_cell_length_b   11.15760874
_cell_length_c   11.15760874
_cell_angle_alpha   108.28923640
_cell_angle_beta   108.28923640
_cell_angle_gamma   111.86196800
_symmetry_Int_Tables_number   1
_chemical_formula_structural   Li7La3Hf2O12
_chemical_formula_sum   'Li28 La12 Hf8 O48'
_cell_volume   1067.87740168
_cell_formula_units_Z   4
loop_
 _symmetry_equiv_pos_site_id
 _symmetry_equiv_pos_as_xyz
  1  'x, y, z'
loop_
 _atom_site_type_symbol
 _atom_site_label
 _atom_site_symmetry_multiplicity
 _atom_site_fract_x
 _atom_site_fract_y
 _atom_site_fract_z
 _atom_site_occupancy
  Li  Li0  1  0.50000000  0.50000000  -0.00000000  1
  Li  Li1  1  -0.00000000  -0.00000000  -0.00000000  1
  Li  Li2  1  0.25000000  0.75000000  0.50000000  1
  Li  Li3  1  0.75000000  0.25000000  0.50000000  1
  Li  Li4  1  0.92866478  0.92866478  0.35732956  1
  Li  Li5  1  0.07133522  0.42866478  0.00000000  1
  Li  Li6  1  0.67866478  0.17866478  0.85732956  1
  Li  Li7  1  0.82133522  0.67866478  0.50000000  1
  Li  Li8  1  0.32133522  0.82133522  0.14267044  1
  Li  Li9  1  0.17866478  0.32133522  0.50000000  1
  Li  Li10  1  0.57133522  0.57133522  0.64267044  1
  Li  Li11  1  0.42866478  0.07133522  -0.00000000  1
  Li  Li12  1  0.90496348  0.14959085  0.91712005  1
  Li  Li13  1  0.73247080  0.64959085  0.24462637  1
  Li  Li14  1  0.89959085  0.15496348  0.41712005  1
  Li  Li15  1  0.23784443  0.65496348  0.25537363  1
  Li  Li16  1  0.34503652  0.60040915  0.58287995  1
  Li  Li17  1  0.51752920  0.10040915  0.25537363  1
  Li  Li18  1  0.35040915  0.59503652  0.08287995  1
  Li  Li19  1  0.01215557  0.09503652  0.24462637  1
  Li  Li20  1  0.40496348  0.48784443  0.75537363  1
  Li  Li21  1  0.23247080  0.98784443  0.08287995  1
  Li  Li22  1  0.39959085  0.98247080  0.74462637  1
  Li  Li23  1  0.73784443  0.48247080  0.58287995  1
  Li  Li24  1  0.84503652  0.26215557  0.74462637  1
  Li  Li25  1  0.01752920  0.76215557  0.41712005  1
  Li  Li26  1  0.85040915  0.76752920  0.75537363  1
  Li  Li27  1  0.51215557  0.26752920  0.91712005  1
  La  La28  1  0.75000000  0.75000000  -0.00000000  1
  La  La29  1  0.25000000  0.25000000  -0.00000000  1
  La  La30  1  0.50000000  -0.00000000  0.50000000  1
  La  La31  1  -0.00000000  0.50000000  0.50000000  1
  La  La32  1  0.37500000  0.75293351  0.87793351  1
  La  La33  1  0.37500000  0.25293351  0.37793351  1
  La  La34  1  0.50293351  0.62500000  0.37793351  1
  La  La35  1  0.74706649  0.12500000  0.12206649  1
  La  La36  1  0.87500000  0.99706649  0.62206649  1
  La  La37  1  0.87500000  0.49706649  0.12206649  1
  La  La38  1  0.00293351  0.62500000  0.87793351  1
  La  La39  1  0.24706649  0.12500000  0.62206649  1
  Hf  Hf40  1  0.62500000  0.87500000  0.75000000  1
  Hf  Hf41  1  0.62500000  0.37500000  0.25000000  1
  Hf  Hf42  1  0.62500000  0.87500000  0.25000000  1
  Hf  Hf43  1  0.12500000  0.37500000  0.25000000  1
  Hf  Hf44  1  0.12500000  0.37500000  0.75000000  1
  Hf  Hf45  1  0.12500000  0.87500000  0.25000000  1
  Hf  Hf46  1  0.12500000  0.87500000  0.75000000  1
  Hf  Hf47  1  0.62500000  0.37500000  0.75000000  1
  O  O48  1  0.52647313  0.68730869  0.76944015  1
  O  O49  1  0.41786854  0.18730869  0.16083656  1
  O  O50  1  0.43730869  0.77647313  0.26944015  1
  O  O51  1  0.00703298  0.27647313  0.33916344  1
  O  O52  1  0.72352687  0.06269131  0.73055985  1
  O  O53  1  0.83213146  0.56269131  0.33916344  1
  O  O54  1  0.81269131  0.97352687  0.23055985  1
  O  O55  1  0.24296702  0.47352687  0.16083656  1
  O  O56  1  0.02647313  0.25703298  0.83916344  1
  O  O57  1  0.91786854  0.75703298  0.23055985  1
  O  O58  1  0.93730869  0.66786854  0.66083656  1
  O  O59  1  0.50703298  0.16786854  0.73055985  1
  O  O60  1  0.22352687  0.49296702  0.66083656  1
  O  O61  1  0.33213146  0.99296702  0.26944015  1
  O  O62  1  0.31269131  0.08213146  0.83916344  1
  O  O63  1  0.74296702  0.58213146  0.76944015  1
  O  O64  1  0.94374622  0.39268804  0.65730835  1
  O  O65  1  0.23537869  0.89268804  0.44894082  1
  O  O66  1  0.14268804  0.19374622  0.15730835  1
  O  O67  1  0.53643788  0.69374622  0.05105918  1
  O  O68  1  0.30625378  0.35731196  0.84269165  1
  O  O69  1  0.01462131  0.85731196  0.05105918  1
  O  O70  1  0.10731196  0.55625378  0.34269165  1
  O  O71  1  0.71356212  0.05625378  0.44894082  1
  O  O72  1  0.44374622  0.78643788  0.55105918  1
  O  O73  1  0.73537869  0.28643788  0.34269165  1
  O  O74  1  0.64268804  0.48537869  0.94894082  1
  O  O75  1  0.03643788  0.98537869  0.84269165  1
  O  O76  1  0.80625378  0.96356212  0.94894082  1
  O  O77  1  0.51462131  0.46356212  0.15730835  1
  O  O78  1  0.60731196  0.26462131  0.55105918  1
  O  O79  1  0.21356212  0.76462131  0.65730835  1
  O  O80  1  0.20471360  0.57602673  0.92706390  1
  O  O81  1  0.14896283  0.07602673  0.37131313  1
  O  O82  1  0.32602673  0.45471360  0.42706390  1
  O  O83  1  0.52764970  0.95471360  0.12868687  1
  O  O84  1  0.04528640  0.17397327  0.57293610  1
  O  O85  1  0.10103717  0.67397327  0.12868687  1
  O  O86  1  0.92397327  0.29528640  0.07293610  1
  O  O87  1  0.72235030  0.79528640  0.37131313  1
  O  O88  1  0.70471360  0.77764970  0.62868687  1
  O  O89  1  0.64896283  0.27764970  0.07293610  1
  O  O90  1  0.82602673  0.39896283  0.87131313  1
  O  O91  1  0.02764970  0.89896283  0.57293610  1
  O  O92  1  0.54528640  0.97235030  0.87131313  1
  O  O93  1  0.60103717  0.47235030  0.42706390  1
  O  O94  1  0.42397327  0.35103717  0.62868687  1
  O  O95  1  0.22235030  0.85103717  0.92706390  1
