# generated using pymatgen
data_CoPS
_symmetry_space_group_name_H-M   'P 1'
_cell_length_a   5.40164128
_cell_length_b   5.40164128
_cell_length_c   5.40164128
_cell_angle_alpha   90.00000000
_cell_angle_beta   90.00000000
_cell_angle_gamma   90.00000000
_symmetry_Int_Tables_number   1
_chemical_formula_structural   CoPS
_chemical_formula_sum   'Co4 P4 S4'
_cell_volume   157.60762282
_cell_formula_units_Z   4
loop_
 _symmetry_equiv_pos_site_id
 _symmetry_equiv_pos_as_xyz
  1  'x, y, z'
loop_
 _atom_site_type_symbol
 _atom_site_label
 _atom_site_symmetry_multiplicity
 _atom_site_fract_x
 _atom_site_fract_y
 _atom_site_fract_z
 _atom_site_occupancy
  Co  Co0  1  0.49753009  0.50246991  0.00246991  1
  Co  Co1  1  0.50246991  0.00246991  0.49753009  1
  Co  Co2  1  0.00246991  0.49753009  0.50246991  1
  Co  Co3  1  0.99753009  0.99753009  0.99753009  1
  P  P4  1  0.88571282  0.11428718  0.61428718  1
  P  P5  1  0.11428718  0.61428718  0.88571282  1
  P  P6  1  0.61428718  0.88571282  0.11428718  1
  P  P7  1  0.38571282  0.38571282  0.38571282  1
  S  S8  1  0.11479531  0.88520469  0.38520469  1
  S  S9  1  0.88520469  0.38520569  0.11479531  1
  S  S10  1  0.38520469  0.11479531  0.88520469  1
  S  S11  1  0.61479531  0.61479531  0.61479531  1
