# generated using pymatgen
data_DyB4W
_symmetry_space_group_name_H-M   'P 1'
_cell_length_a   6.02624550
_cell_length_b   11.64459594
_cell_length_c   3.61954200
_cell_angle_alpha   90.00000387
_cell_angle_beta   89.99999620
_cell_angle_gamma   89.99997096
_symmetry_Int_Tables_number   1
_chemical_formula_structural   DyB4W
_chemical_formula_sum   'Dy4 B16 W4'
_cell_volume   253.99482253
_cell_formula_units_Z   4
loop_
 _symmetry_equiv_pos_site_id
 _symmetry_equiv_pos_as_xyz
  1  'x, y, z'
loop_
 _atom_site_type_symbol
 _atom_site_label
 _atom_site_symmetry_multiplicity
 _atom_site_fract_x
 _atom_site_fract_y
 _atom_site_fract_z
 _atom_site_occupancy
  Dy  Dy0  1  0.62734206  0.35063032  0.00000001  1
  Dy  Dy1  1  0.37265568  0.64936479  0.00000004  1
  Dy  Dy2  1  0.12734386  0.14937046  0.00000002  1
  Dy  Dy3  1  0.87265852  0.85063485  0.00000003  1
  B  B4  1  0.78630248  0.18630563  0.49999998  1
  B  B5  1  0.21370083  0.81369997  0.50000001  1
  B  B6  1  0.28630243  0.31369516  0.50000003  1
  B  B7  1  0.71369994  0.68630025  0.50000005  1
  B  B8  1  0.86611099  0.03203450  0.50000001  1
  B  B9  1  0.13389188  0.96797672  0.49999996  1
  B  B10  1  0.36610836  0.46796603  0.50000000  1
  B  B11  1  0.63388827  0.53202322  0.50000008  1
  B  B12  1  0.88620120  0.45273909  0.50000005  1
  B  B13  1  0.11379816  0.54725090  0.50000009  1
  B  B14  1  0.38620284  0.04726124  0.49999999  1
  B  B15  1  0.61380086  0.95274984  0.50000000  1
  B  B16  1  0.97603877  0.30693729  0.50000004  1
  B  B17  1  0.02396288  0.69305643  0.50000003  1
  B  B18  1  0.47603929  0.19306336  0.49999954  1
  B  B19  1  0.52396451  0.80694300  0.49999997  1
  W  W20  1  0.63007465  0.08413014  -0.00000005  1
  W  W21  1  0.36992152  0.91588153  0.00000006  1
  W  W22  1  0.13007315  0.41587014  0.00000011  1
  W  W23  1  0.86991886  0.58411816  -0.00000008  1
