# generated using pymatgen
data_Ca(BeP)2
_symmetry_space_group_name_H-M   'P 1'
_cell_length_a   3.74583703
_cell_length_b   3.74583907
_cell_length_c   6.60973869
_cell_angle_alpha   89.99904171
_cell_angle_beta   90.00061704
_cell_angle_gamma   120.00047123
_symmetry_Int_Tables_number   1
_chemical_formula_structural   Ca(BeP)2
_chemical_formula_sum   'Ca1 Be2 P2'
_cell_volume   80.31762423
_cell_formula_units_Z   1
loop_
 _symmetry_equiv_pos_site_id
 _symmetry_equiv_pos_as_xyz
  1  'x, y, z'
loop_
 _atom_site_type_symbol
 _atom_site_label
 _atom_site_symmetry_multiplicity
 _atom_site_fract_x
 _atom_site_fract_y
 _atom_site_fract_z
 _atom_site_occupancy
  Ca  Ca0  1  0.00000000  0.00000000  0.00000000  1
  Be  Be1  1  0.66667885  0.33330167  0.37708886  1
  Be  Be2  1  0.33332115  0.66669833  0.62291114  1
  P  P3  1  0.66666654  0.33334127  0.71560902  1
  P  P4  1  0.33333346  0.66665873  0.28439098  1
