# generated using pymatgen
data_Ho2SeO2
_symmetry_space_group_name_H-M   'P 1'
_cell_length_a   3.80051838
_cell_length_b   3.80051756
_cell_length_c   6.75888045
_cell_angle_alpha   90.00000000
_cell_angle_beta   90.00000000
_cell_angle_gamma   119.99999828
_symmetry_Int_Tables_number   1
_chemical_formula_structural   Ho2SeO2
_chemical_formula_sum   'Ho2 Se1 O2'
_cell_volume   84.54559492
_cell_formula_units_Z   1
loop_
 _symmetry_equiv_pos_site_id
 _symmetry_equiv_pos_as_xyz
  1  'x, y, z'
loop_
 _atom_site_type_symbol
 _atom_site_label
 _atom_site_symmetry_multiplicity
 _atom_site_fract_x
 _atom_site_fract_y
 _atom_site_fract_z
 _atom_site_occupancy
  Ho  Ho0  1  0.66666700  0.33333300  0.70839918  1
  Ho  Ho1  1  0.33333300  0.66666700  0.29160082  1
  Se  Se2  1  0.00000000  0.00000000  -0.00000000  1
  O  O3  1  0.66666700  0.33333300  0.37452912  1
  O  O4  1  0.33333300  0.66666700  0.62547088  1
