# generated using pymatgen
data_Na5SrNbP4
_symmetry_space_group_name_H-M   'P 1'
_cell_length_a   9.28690784
_cell_length_b   9.28690784
_cell_length_c   7.34955245
_cell_angle_alpha   90.07092955
_cell_angle_beta   90.07092955
_cell_angle_gamma   119.89943754
_symmetry_Int_Tables_number   1
_chemical_formula_structural   Na5SrNbP4
_chemical_formula_sum   'Na10 Sr2 Nb2 P8'
_cell_volume   549.50501998
_cell_formula_units_Z   2
loop_
 _symmetry_equiv_pos_site_id
 _symmetry_equiv_pos_as_xyz
  1  'x, y, z'
loop_
 _atom_site_type_symbol
 _atom_site_label
 _atom_site_symmetry_multiplicity
 _atom_site_fract_x
 _atom_site_fract_y
 _atom_site_fract_z
 _atom_site_occupancy
  Na  Na0  1  0.53930676  0.47353745  0.61509958  1
  Na  Na1  1  0.93493445  0.47119017  0.61323339  1
  Na  Na2  1  0.47353745  0.53930676  0.11509958  1
  Na  Na3  1  0.47119017  0.93493445  0.11323339  1
  Na  Na4  1  0.13424832  0.85551075  0.77953971  1
  Na  Na5  1  0.71104405  0.84849307  0.79675351  1
  Na  Na6  1  0.14763872  0.28930290  0.77125554  1
  Na  Na7  1  0.85551075  0.13424832  0.27953971  1
  Na  Na8  1  0.28930290  0.14763872  0.27125554  1
  Na  Na9  1  0.84849307  0.71104405  0.29675351  1
  Sr  Sr10  1  0.53249630  0.06149530  0.60853046  1
  Sr  Sr11  1  0.06149530  0.53249630  0.10853046  1
  Nb  Nb12  1  0.33213330  0.66132502  0.50255125  1
  Nb  Nb13  1  0.66132502  0.33213330  0.00255125  1
  P  P14  1  0.80891819  0.19401959  0.89730229  1
  P  P15  1  0.38286499  0.19092785  0.89243493  1
  P  P16  1  0.80946520  0.61607998  0.90507523  1
  P  P17  1  0.19401959  0.80891819  0.39730229  1
  P  P18  1  0.61607998  0.80946520  0.40507523  1
  P  P19  1  0.19092785  0.38286499  0.39243493  1
  P  P20  1  0.33421777  0.67084887  0.82842311  1
  P  P21  1  0.67084887  0.33421777  0.32842311  1
