# generated using pymatgen
data_Na10La7NbSi6(SO8)6
_symmetry_space_group_name_H-M   'P 1'
_cell_length_a   19.18897915
_cell_length_b   9.62964904
_cell_length_c   24.38655615
_cell_angle_alpha   90.14294667
_cell_angle_beta   89.63177972
_cell_angle_gamma   120.11664119
_symmetry_Int_Tables_number   1
_chemical_formula_structural   Na10La7NbSi6(SO8)6
_chemical_formula_sum   'Na30 La21 Nb3 Si18 S18 O144'
_cell_volume   3897.82791990
_cell_formula_units_Z   3
loop_
 _symmetry_equiv_pos_site_id
 _symmetry_equiv_pos_as_xyz
  1  'x, y, z'
loop_
 _atom_site_type_symbol
 _atom_site_label
 _atom_site_symmetry_multiplicity
 _atom_site_fract_x
 _atom_site_fract_y
 _atom_site_fract_z
 _atom_site_occupancy
  Na  Na0  1  0.32465051  0.01461290  0.24498746  1
  Na  Na1  1  0.82730527  0.00506486  0.24771562  1
  Na  Na2  1  0.18516106  0.35392057  0.24656932  1
  Na  Na3  1  0.68738700  0.38066532  0.23319984  1
  Na  Na4  1  0.99361348  0.63026024  0.23986738  1
  Na  Na5  1  0.49165917  0.61875048  0.24777982  1
  Na  Na6  1  0.30844572  0.61695074  0.74765861  1
  Na  Na7  1  0.81103155  0.62517495  0.74420522  1
  Na  Na8  1  0.99395445  0.34325858  0.74237569  1
  Na  Na9  1  0.69256090  0.02124966  0.75563760  1
  Na  Na10  1  0.16227365  0.34304691  0.58422661  1
  Na  Na11  1  0.00918353  0.70119127  0.59025295  1
  Na  Na12  1  0.32947242  0.96178358  0.58888283  1
  Na  Na13  1  0.83653904  0.97467632  0.58272684  1
  Na  Na14  1  0.83038660  0.67853148  0.07553956  1
  Na  Na15  1  0.17064646  0.30866924  0.90737317  1
  Na  Na16  1  0.67349586  0.31507145  0.91568954  1
  Na  Na17  1  0.35687845  0.66585768  0.41759227  1
  Na  Na18  1  0.00053993  0.99455948  0.49948111  1
  Na  Na19  1  0.50491752  0.96407696  0.49894521  1
  Na  Na20  1  0.98712471  0.96356757  0.00025967  1
  Na  Na21  1  0.48774711  0.95566289  0.00299208  1
  Na  Na22  1  0.32830527  0.33007578  0.83771525  1
  Na  Na23  1  0.82639182  0.33690448  0.83828977  1
  Na  Na24  1  0.34836304  0.34391485  0.33314228  1
  Na  Na25  1  0.84321003  0.35045559  0.33030101  1
  Na  Na26  1  0.15406241  0.66213889  0.16454017  1
  Na  Na27  1  0.64870339  0.63174568  0.15887485  1
  Na  Na28  1  0.16297791  0.65759209  0.66150426  1
  Na  Na29  1  0.67268696  0.63058994  0.66985501  1
  La  La30  1  0.99856102  0.99892782  0.34736184  1
  La  La31  1  0.50190768  0.99710558  0.34971910  1
  La  La32  1  0.99050135  0.98932079  0.85086315  1
  La  La33  1  0.49572172  0.99332916  0.85256057  1
  La  La34  1  0.50659523  0.00611565  0.65003395  1
  La  La35  1  0.32451759  0.32765787  0.68029273  1
  La  La36  1  0.82843770  0.33850851  0.67853581  1
  La  La37  1  0.33894723  0.34550876  0.17855323  1
  La  La38  1  0.84005667  0.34701575  0.17332935  1
  La  La39  1  0.34438142  0.36990844  0.98940894  1
  La  La40  1  0.83414474  0.35344977  0.99203419  1
  La  La41  1  0.33188332  0.34004188  0.48627113  1
  La  La42  1  0.84331026  0.35407368  0.48902993  1
  La  La43  1  0.16836015  0.67316041  0.01873864  1
  La  La44  1  0.66337571  0.66464520  0.01990816  1
  La  La45  1  0.16371745  0.66495278  0.51831098  1
  La  La46  1  0.66069113  0.65764465  0.51276414  1
  La  La47  1  0.16474686  0.66448724  0.30696282  1
  La  La48  1  0.65903270  0.65392318  0.31662512  1
  La  La49  1  0.16727251  0.66290498  0.81835745  1
  La  La50  1  0.67565951  0.66466316  0.81676700  1
  Nb  Nb51  1  0.00183102  0.01805451  0.64840068  1
  Nb  Nb52  1  0.99952581  0.98897247  0.15574831  1
  Nb  Nb53  1  0.49745389  0.00524067  0.14719913  1
  Si  Si54  1  0.14651118  -0.00004339  0.24780648  1
  Si  Si55  1  0.35515561  0.71492663  0.24762468  1
  Si  Si56  1  0.85042887  0.70226307  0.24871288  1
  Si  Si57  1  0.99784165  0.28656226  0.24532992  1
  Si  Si58  1  0.50096099  0.28979644  0.24712790  1
  Si  Si59  1  0.14390493  0.29637242  0.75130906  1
  Si  Si60  1  0.65329214  0.29933237  0.75477454  1
  Si  Si61  1  0.85215866  0.00016829  0.74389335  1
  Si  Si62  1  0.98359910  0.32763499  0.58984430  1
  Si  Si63  1  0.17658607  0.03021095  0.58535465  1
  Si  Si64  1  0.33451510  0.64980072  0.58332665  1
  Si  Si65  1  0.83869973  0.65630486  0.59048863  1
  Si  Si66  1  0.49171953  0.66134415  0.09205988  1
  Si  Si67  1  0.99121148  0.66430930  0.09101334  1
  Si  Si68  1  0.67503854  0.32641070  0.08823011  1
  Si  Si69  1  0.31593713  0.65915111  0.91408308  1
  Si  Si70  1  0.81970914  0.66055125  0.92036575  1
  Si  Si71  1  0.50989603  0.66277254  0.41350828  1
  S  S72  1  0.64584833  0.99883024  0.24385062  1
  S  S73  1  0.00220349  0.70876946  0.74393222  1
  S  S74  1  0.49993567  0.69627362  0.74991751  1
  S  S75  1  0.34722096  0.99732345  0.74796916  1
  S  S76  1  0.48404172  0.33044165  0.58487071  1
  S  S77  1  0.68194081  0.02658761  0.58186724  1
  S  S78  1  0.34070000  0.02848155  0.08775306  1
  S  S79  1  0.84259575  0.02527139  0.08808558  1
  S  S80  1  0.17057439  0.31600354  0.08629944  1
  S  S81  1  0.01466066  0.36413574  0.91680449  1
  S  S82  1  0.51411756  0.36387683  0.91629689  1
  S  S83  1  0.16964520  0.97915556  0.91734240  1
  S  S84  1  0.66895393  0.97889056  0.91410037  1
  S  S85  1  0.31645328  0.96726845  0.41578802  1
  S  S86  1  0.81848413  0.97718239  0.41737722  1
  S  S87  1  0.16740139  0.36512165  0.41575187  1
  S  S88  1  0.67184702  0.36077415  0.41564149  1
  S  S89  1  0.01296833  0.66538664  0.41592758  1
  O  O90  1  0.10907375  0.03395329  0.30199256  1
  O  O91  1  0.61381236  0.02334577  0.29568577  1
  O  O92  1  0.40270598  0.78062914  0.30545058  1
  O  O93  1  0.90829493  0.78206556  0.30094873  1
  O  O94  1  0.49215166  0.18760258  0.30186906  1
  O  O95  1  0.98470882  0.18286681  0.30041429  1
  O  O96  1  0.10557830  0.20632900  0.80892797  1
  O  O97  1  0.60836615  0.19926835  0.81105650  1
  O  O98  1  0.48954672  0.77743579  0.79850009  1
  O  O99  1  0.99785005  0.78883101  0.79405901  1
  O  O100  1  0.39551008  0.00259284  0.79568902  1
  O  O101  1  0.90581137  0.02008842  0.79741094  1
  O  O102  1  0.38637995  0.98838759  0.69615602  1
  O  O103  1  0.90910504  0.99253595  0.69092322  1
  O  O104  1  0.08406491  0.17803987  0.69812436  1
  O  O105  1  0.60172030  0.19704457  0.70079069  1
  O  O106  1  0.00564904  0.80200888  0.69406030  1
  O  O107  1  0.50465729  0.78787126  0.69977139  1
  O  O108  1  0.41446399  0.84079771  0.19720076  1
  O  O109  1  0.90815762  0.82310542  0.19422329  1
  O  O110  1  0.00190248  0.17261680  0.19291643  1
  O  O111  1  0.50354111  0.17779439  0.19426393  1
  O  O112  1  0.08333342  0.98778174  0.19547282  1
  O  O113  1  0.59404263  0.98957122  0.19713934  1
  O  O114  1  0.44449524  0.34352829  0.63509810  1
  O  O115  1  0.95007952  0.36626611  0.64567730  1
  O  O116  1  0.24246005  0.10226177  0.63460360  1
  O  O117  1  0.72198547  0.09778699  0.63491457  1
  O  O118  1  0.32466015  0.54006318  0.63807722  1
  O  O119  1  0.82123225  0.55689176  0.64790625  1
  O  O120  1  0.45409446  0.55694520  0.14803444  1
  O  O121  1  0.95689143  0.56929578  0.14918200  1
  O  O122  1  0.33144280  0.09809389  0.13958467  1
  O  O123  1  0.83195856  0.09308729  0.14007141  1
  O  O124  1  0.21976469  0.33706676  0.13587342  1
  O  O125  1  0.72940936  0.34975345  0.14274102  1
  O  O126  1  0.21125030  0.29830471  0.03663195  1
  O  O127  1  0.71390282  0.29386949  0.03272174  1
  O  O128  1  0.43193234  0.57396976  0.03880552  1
  O  O129  1  0.92207912  0.57123762  0.04324228  1
  O  O130  1  0.34931124  0.12925342  0.04017753  1
  O  O131  1  0.85009446  0.12763904  0.04094023  1
  O  O132  1  0.21068064  0.15189663  0.53294984  1
  O  O133  1  0.72837672  0.13350728  0.53582310  1
  O  O134  1  0.33827759  0.55770878  0.52732190  1
  O  O135  1  0.86221811  0.56733102  0.54129108  1
  O  O136  1  0.43624746  0.31913252  0.53574172  1
  O  O137  1  0.91881817  0.27628467  0.53977605  1
  O  O138  1  0.26050721  0.66438445  0.96434977  1
  O  O139  1  0.77020025  0.66425428  0.97504990  1
  O  O140  1  0.06433383  0.46310753  0.96300160  1
  O  O141  1  0.55986954  0.44988115  0.96574227  1
  O  O142  1  0.16310997  0.88322140  0.96620355  1
  O  O143  1  0.66392212  0.87662403  0.96025061  1
  O  O144  1  0.27356763  0.87746555  0.46646556  1
  O  O145  1  0.77334661  0.88435511  0.46683069  1
  O  O146  1  0.16556632  0.45078424  0.46600984  1
  O  O147  1  0.67005131  0.45363351  0.46370296  1
  O  O148  1  0.05348772  0.65938284  0.46686084  1
  O  O149  1  0.56674636  0.66545004  0.46429691  1
  O  O150  1  0.05876247  0.66623390  0.36659250  1
  O  O151  1  0.55341647  0.66096263  0.35417749  1
  O  O152  1  0.26944299  0.87932059  0.36641511  1
  O  O153  1  0.77509050  0.89084169  0.36655860  1
  O  O154  1  0.16822422  0.45659165  0.36613275  1
  O  O155  1  0.67597079  0.44791756  0.36401677  1
  O  O156  1  0.04998781  0.45130042  0.86390860  1
  O  O157  1  0.55348113  0.45839527  0.86630247  1
  O  O158  1  0.17126490  0.89351585  0.86686771  1
  O  O159  1  0.66859432  0.90237611  0.86058982  1
  O  O160  1  0.26832786  0.64421528  0.85469789  1
  O  O161  1  0.76941661  0.65018406  0.86351034  1
  O  O162  1  0.00527907  0.81104223  0.41900091  1
  O  O163  1  0.49754432  0.82083781  0.41955764  1
  O  O164  1  0.39522604  0.97210800  0.41580883  1
  O  O165  1  0.89983100  0.99284527  0.41972336  1
  O  O166  1  0.09629950  0.20152628  0.41732756  1
  O  O167  1  0.59810563  0.20078434  0.41733710  1
  O  O168  1  0.01823350  0.21261362  0.91734501  1
  O  O169  1  0.51389373  0.20822624  0.91510161  1
  O  O170  1  0.09919487  0.00585746  0.91676958  1
  O  O171  1  0.59786264  0.00457093  0.91740729  1
  O  O172  1  0.40727175  0.81564425  0.91606155  1
  O  O173  1  0.91088409  0.81780124  0.92012348  1
  O  O174  1  0.48731119  0.17872394  0.58592277  1
  O  O175  1  0.99546293  0.16477498  0.59714216  1
  O  O176  1  0.08842205  0.01861495  0.60208339  1
  O  O177  1  0.59930135  0.00241029  0.58061156  1
  O  O178  1  0.41063831  0.83597899  0.58490913  1
  O  O179  1  0.92592571  0.83500161  0.59839210  1
  O  O180  1  0.49452627  0.83847491  0.09986215  1
  O  O181  1  0.99348509  0.84276719  0.09600295  1
  O  O182  1  0.41681286  0.01638179  0.09082766  1
  O  O183  1  0.91695301  0.00964944  0.09073660  1
  O  O184  1  0.08993280  0.16817123  0.09220669  1
  O  O185  1  0.58367656  0.16485784  0.10104261  1
  O  O186  1  0.33715494  0.13961574  0.74935654  1
  O  O187  1  0.84205351  0.15851996  0.73906164  1
  O  O188  1  0.23783347  0.33776109  0.74496272  1
  O  O189  1  0.74411810  0.31509895  0.75392846  1
  O  O190  1  0.42787177  0.53245685  0.74782371  1
  O  O191  1  0.92758337  0.54617160  0.74332542  1
  O  O192  1  0.33628429  0.52898181  0.24100738  1
  O  O193  1  0.83355792  0.51781596  0.24286753  1
  O  O194  1  0.42127537  0.31124922  0.24313891  1
  O  O195  1  0.91895788  0.31032524  0.24152547  1
  O  O196  1  0.23713228  0.15014767  0.23804211  1
  O  O197  1  0.72988194  0.13580404  0.23813975  1
  O  O198  1  0.31558574  0.48495298  0.91788279  1
  O  O199  1  0.81834536  0.48531639  0.91929284  1
  O  O200  1  0.43026218  0.33370099  0.91932450  1
  O  O201  1  0.93096688  0.33182971  0.92101739  1
  O  O202  1  0.24436060  0.14071907  0.91914282  1
  O  O203  1  0.74336825  0.14033457  0.91649022  1
  O  O204  1  0.32678940  0.13003207  0.41639786  1
  O  O205  1  0.82560450  0.13868528  0.41769633  1
  O  O206  1  0.24422941  0.36145439  0.41417301  1
  O  O207  1  0.74516830  0.34489113  0.41795848  1
  O  O208  1  0.41755444  0.50276551  0.41518523  1
  O  O209  1  0.93155702  0.51720270  0.41295680  1
  O  O210  1  0.16087942  0.45943295  0.08125200  1
  O  O211  1  0.67075225  0.49207648  0.08328204  1
  O  O212  1  0.08057593  0.68938198  0.08027304  1
  O  O213  1  0.58263253  0.69380928  0.08324623  1
  O  O214  1  0.27154857  0.86320933  0.08270563  1
  O  O215  1  0.77297579  0.85906432  0.08231474  1
  O  O216  1  0.15345713  0.84237152  0.57688736  1
  O  O217  1  0.67975358  0.87068946  0.57778713  1
  O  O218  1  0.25115036  0.66432630  0.58338845  1
  O  O219  1  0.76703734  0.69606924  0.57752137  1
  O  O220  1  0.07508314  0.47292006  0.57829389  1
  O  O221  1  0.56701733  0.47073952  0.58218809  1
  O  O222  1  0.14199578  0.82441367  0.24663614  1
  O  O223  1  0.64824494  0.84556759  0.24580022  1
  O  O224  1  0.26977942  0.71874496  0.24673699  1
  O  O225  1  0.76748876  0.71253916  0.24861070  1
  O  O226  1  0.08409582  0.45876683  0.24471455  1
  O  O227  1  0.58566219  0.46593281  0.24548609  1
  O  O228  1  0.14313837  0.46906416  0.74576505  1
  O  O229  1  0.66697244  0.48298384  0.75167977  1
  O  O230  1  0.07358823  0.68584005  0.74439419  1
  O  O231  1  0.57629689  0.69341183  0.75356665  1
  O  O232  1  0.26713959  0.84415982  0.74998963  1
  O  O233  1  0.76398273  0.83433814  0.74298928  1
