# generated using pymatgen
data_Na6CaZr7Si6(SO8)6
_symmetry_space_group_name_H-M   'P 1'
_cell_length_a   18.20218074
_cell_length_b   9.07018982
_cell_length_c   23.59767713
_cell_angle_alpha   90.00730862
_cell_angle_beta   89.98022417
_cell_angle_gamma   119.85229292
_symmetry_Int_Tables_number   1
_chemical_formula_structural   Na6CaZr7Si6(SO8)6
_chemical_formula_sum   'Na18 Ca3 Zr21 Si18 S18 O144'
_cell_volume   3378.96845828
_cell_formula_units_Z   3
loop_
 _symmetry_equiv_pos_site_id
 _symmetry_equiv_pos_as_xyz
  1  'x, y, z'
loop_
 _atom_site_type_symbol
 _atom_site_label
 _atom_site_symmetry_multiplicity
 _atom_site_fract_x
 _atom_site_fract_y
 _atom_site_fract_z
 _atom_site_occupancy
  Na  Na0  1  0.68937332  0.38586191  0.25308867  1
  Na  Na1  1  0.99446899  0.65585438  0.25393517  1
  Na  Na2  1  0.99549931  0.35250024  0.75513032  1
  Na  Na3  1  0.49098082  0.35455686  0.74901253  1
  Na  Na4  1  0.19635914  0.02037387  0.75528487  1
  Na  Na5  1  0.68592835  0.01115649  0.75022263  1
  Na  Na6  1  0.99672972  0.99770123  0.48786778  1
  Na  Na7  1  0.51037902  0.00260204  0.49838826  1
  Na  Na8  1  0.01624339  0.02454347  0.99858071  1
  Na  Na9  1  0.50482079  0.98378614  0.99611550  1
  Na  Na10  1  0.33042413  0.33532399  0.82186428  1
  Na  Na11  1  0.82462943  0.32192886  0.82552038  1
  Na  Na12  1  0.33376028  0.32866968  0.32638426  1
  Na  Na13  1  0.83388632  0.33767048  0.33724039  1
  Na  Na14  1  0.17496763  0.66700008  0.16450839  1
  Na  Na15  1  0.66118949  0.66270111  0.17556164  1
  Na  Na16  1  0.18326122  0.66748707  0.67263266  1
  Na  Na17  1  0.67225042  0.66234163  0.66782978  1
  Ca  Ca18  1  0.33327051  0.34219630  0.68623692  1
  Ca  Ca19  1  0.82984669  0.33401930  0.68429080  1
  Ca  Ca20  1  0.83326280  0.33171403  0.18419083  1
  Zr  Zr21  1  0.00227307  0.99049187  0.35666419  1
  Zr  Zr22  1  0.50093277  0.00954751  0.35672747  1
  Zr  Zr23  1  0.00527069  0.01445871  0.85813226  1
  Zr  Zr24  1  0.50196744  0.99748869  0.85139513  1
  Zr  Zr25  1  0.99714183  0.00497872  0.64904830  1
  Zr  Zr26  1  0.50008987  0.00100410  0.65415048  1
  Zr  Zr27  1  0.00507580  0.99661718  0.15054584  1
  Zr  Zr28  1  0.49932152  0.00063772  0.14572470  1
  Zr  Zr29  1  0.33353649  0.33649292  0.18680331  1
  Zr  Zr30  1  0.32511821  0.33118795  0.98403755  1
  Zr  Zr31  1  0.83244560  0.32329283  0.97589031  1
  Zr  Zr32  1  0.33456848  0.34385683  0.47730831  1
  Zr  Zr33  1  0.83144972  0.33006998  0.47458768  1
  Zr  Zr34  1  0.16251461  0.65720365  0.01715391  1
  Zr  Zr35  1  0.65802028  0.67097379  0.01941189  1
  Zr  Zr36  1  0.16237765  0.65715502  0.51513821  1
  Zr  Zr37  1  0.66583712  0.67007225  0.51043022  1
  Zr  Zr38  1  0.16402307  0.66279688  0.31663198  1
  Zr  Zr39  1  0.66688415  0.66342007  0.31678861  1
  Zr  Zr40  1  0.16944459  0.66777127  0.81661170  1
  Zr  Zr41  1  0.67159268  0.68014551  0.81134377  1
  Si  Si42  1  0.14925223  0.00035466  0.25188551  1
  Si  Si43  1  0.85252405  0.71326825  0.24976998  1
  Si  Si44  1  0.49921933  0.29203858  0.24962845  1
  Si  Si45  1  0.14315891  0.29379978  0.75105028  1
  Si  Si46  1  0.64594442  0.29519535  0.75263355  1
  Si  Si47  1  0.50139234  0.70778374  0.75239548  1
  Si  Si48  1  0.35175887  0.99021408  0.75249142  1
  Si  Si49  1  0.85689362  0.99896371  0.75254005  1
  Si  Si50  1  0.47623910  0.62237797  0.08339324  1
  Si  Si51  1  0.18435333  0.33597146  0.08611727  1
  Si  Si52  1  0.01959895  0.37630671  0.91527546  1
  Si  Si53  1  0.16956457  0.96130228  0.91691636  1
  Si  Si54  1  0.66190253  0.95885380  0.91617638  1
  Si  Si55  1  0.81358101  0.95653809  0.41482578  1
  Si  Si56  1  0.16687939  0.37290573  0.41539734  1
  Si  Si57  1  0.66529647  0.37375680  0.41586283  1
  Si  Si58  1  0.01986739  0.66390837  0.41678170  1
  Si  Si59  1  0.52010163  0.66750546  0.41457524  1
  S  S60  1  0.63988945  0.99439898  0.25027708  1
  S  S61  1  0.35555251  0.71371325  0.25050455  1
  S  S62  1  0.00411652  0.29335973  0.25122236  1
  S  S63  1  0.00314287  0.71738657  0.75152665  1
  S  S64  1  0.48375548  0.33216915  0.58204867  1
  S  S65  1  0.98342773  0.33427739  0.58351476  1
  S  S66  1  0.18330580  0.03133004  0.58261240  1
  S  S67  1  0.68205164  0.03048114  0.58263056  1
  S  S68  1  0.33461312  0.63811842  0.58057819  1
  S  S69  1  0.83357483  0.63566797  0.58137749  1
  S  S70  1  0.98126601  0.63105833  0.08215771  1
  S  S71  1  0.33347270  0.04245343  0.08355731  1
  S  S72  1  0.83355429  0.03304024  0.08031486  1
  S  S73  1  0.68426651  0.33360503  0.08153108  1
  S  S74  1  0.31330286  0.66738595  0.91867195  1
  S  S75  1  0.80990428  0.66337694  0.91923069  1
  S  S76  1  0.52015351  0.37566145  0.91723588  1
  S  S77  1  0.31085148  0.95741488  0.41778926  1
  O  O78  1  0.10221280  0.02130975  0.30683813  1
  O  O79  1  0.59581686  0.00914032  0.30062276  1
  O  O80  1  0.40520351  0.79459710  0.30160351  1
  O  O81  1  0.91611457  0.81395486  0.30247203  1
  O  O82  1  0.49060194  0.17167773  0.30435623  1
  O  O83  1  0.99610557  0.19524377  0.30228124  1
  O  O84  1  0.09428376  0.17567974  0.80643215  1
  O  O85  1  0.59725397  0.17343741  0.80702891  1
  O  O86  1  0.49284118  0.80500994  0.80764793  1
  O  O87  1  0.99313552  0.79630742  0.80234837  1
  O  O88  1  0.40923895  0.00905750  0.80782986  1
  O  O89  1  0.91365704  0.00591696  0.80623283  1
  O  O90  1  0.39854493  0.96606596  0.69551893  1
  O  O91  1  0.90029226  0.97416816  0.69355198  1
  O  O92  1  0.08239125  0.19519974  0.69438863  1
  O  O93  1  0.58643598  0.20733050  0.69509878  1
  O  O94  1  0.01191938  0.81896989  0.69916394  1
  O  O95  1  0.51720302  0.83001870  0.69599309  1
  O  O96  1  0.39862000  0.81568074  0.19866048  1
  O  O97  1  0.90124684  0.82365256  0.19207288  1
  O  O98  1  0.01258155  0.21155627  0.19904465  1
  O  O99  1  0.50988348  0.18796738  0.19443016  1
  O  O100  1  0.08608395  0.96291784  0.19590397  1
  O  O101  1  0.59003425  0.97877104  0.19761997  1
  O  O102  1  0.44853729  0.35081872  0.63593020  1
  O  O103  1  0.95070713  0.35737498  0.63737657  1
  O  O104  1  0.22876148  0.09894679  0.63620502  1
  O  O105  1  0.72624742  0.09888803  0.63700405  1
  O  O106  1  0.31953841  0.54150196  0.63267973  1
  O  O107  1  0.82375360  0.54278997  0.63446420  1
  O  O108  1  0.43205909  0.50768696  0.13919324  1
  O  O109  1  0.94851048  0.53969152  0.13616418  1
  O  O110  1  0.32230398  0.12216724  0.13476934  1
  O  O111  1  0.81703576  0.10021307  0.13257488  1
  O  O112  1  0.24409686  0.35215878  0.14003151  1
  O  O113  1  0.72901267  0.35783188  0.13595100  1
  O  O114  1  0.22930373  0.30854258  0.02870782  1
  O  O115  1  0.73101295  0.31154491  0.03422923  1
  O  O116  1  0.42028032  0.52948672  0.02704789  1
  O  O117  1  0.92575096  0.53307935  0.03413057  1
  O  O118  1  0.34681974  0.14669256  0.03248909  1
  O  O119  1  0.84061556  0.14490509  0.03118811  1
  O  O120  1  0.22989691  0.14326615  0.53391058  1
  O  O121  1  0.73155378  0.14241906  0.53477980  1
  O  O122  1  0.34086239  0.54181001  0.53083906  1
  O  O123  1  0.84212271  0.54330616  0.53229781  1
  O  O124  1  0.42750122  0.31945678  0.53360465  1
  O  O125  1  0.92931127  0.32034435  0.53533947  1
  O  O126  1  0.27013932  0.68221729  0.96946588  1
  O  O127  1  0.76728821  0.68316165  0.96936030  1
  O  O128  1  0.08039632  0.47135816  0.96969749  1
  O  O129  1  0.57550564  0.46459934  0.96742473  1
  O  O130  1  0.16418590  0.84345121  0.97112526  1
  O  O131  1  0.65568493  0.84000753  0.97059339  1
  O  O132  1  0.27052437  0.85315685  0.46854180  1
  O  O133  1  0.76740965  0.84060072  0.47085688  1
  O  O134  1  0.16147925  0.47610791  0.47118744  1
  O  O135  1  0.65172946  0.46509726  0.47054673  1
  O  O136  1  0.08094733  0.68547821  0.47065775  1
  O  O137  1  0.57802966  0.70054311  0.47100814  1
  O  O138  1  0.06466428  0.64103824  0.35884792  1
  O  O139  1  0.56382977  0.63762222  0.35933747  1
  O  O140  1  0.25933434  0.88089198  0.36627541  1
  O  O141  1  0.75312321  0.86867109  0.35982363  1
  O  O142  1  0.18469338  0.49783840  0.36055496  1
  O  O143  1  0.67961666  0.47907577  0.35701659  1
  O  O144  1  0.06207024  0.48165502  0.85693469  1
  O  O145  1  0.56182911  0.47459814  0.86519377  1
  O  O146  1  0.17975094  0.87143437  0.85827090  1
  O  O147  1  0.67720885  0.87501402  0.85930095  1
  O  O148  1  0.26195392  0.64537793  0.86667288  1
  O  O149  1  0.75852301  0.63558106  0.86740586  1
  O  O150  1  0.01215025  0.83312010  0.41452394  1
  O  O151  1  0.50269444  0.82640065  0.40658196  1
  O  O152  1  0.39523525  0.97243155  0.41222344  1
  O  O153  1  0.90734811  0.98107583  0.40860734  1
  O  O154  1  0.08222988  0.19243722  0.41063601  1
  O  O155  1  0.58045954  0.18319642  0.41144218  1
  O  O156  1  0.00597137  0.18434092  0.91401901  1
  O  O157  1  0.51172713  0.20471191  0.91571402  1
  O  O158  1  0.08176171  0.97005237  0.91319676  1
  O  O159  1  0.57805231  0.97796438  0.91617477  1
  O  O160  1  0.39684245  0.82226677  0.91541098  1
  O  O161  1  0.89540929  0.81261659  0.91378941  1
  O  O162  1  0.49039833  0.17352985  0.58187258  1
  O  O163  1  0.99203057  0.17699454  0.58462478  1
  O  O164  1  0.09612850  0.01012248  0.58493868  1
  O  O165  1  0.59652978  0.01731077  0.58285090  1
  O  O166  1  0.41328652  0.80685708  0.58190931  1
  O  O167  1  0.91322299  0.80803109  0.58388364  1
  O  O168  1  0.48911016  0.81545935  0.09117216  1
  O  O169  1  0.98766216  0.80171169  0.08335500  1
  O  O170  1  0.41090307  0.02365095  0.08937193  1
  O  O171  1  0.91117793  0.02201477  0.08268429  1
  O  O172  1  0.08869978  0.16957052  0.09192597  1
  O  O173  1  0.59774394  0.17674168  0.08410134  1
  O  O174  1  0.34290703  0.15825669  0.74819965  1
  O  O175  1  0.85180950  0.17242164  0.74993648  1
  O  O176  1  0.23280164  0.30360755  0.74771689  1
  O  O177  1  0.73651405  0.30512438  0.74965286  1
  O  O178  1  0.42627628  0.51574527  0.74985426  1
  O  O179  1  0.93203845  0.54207543  0.74596951  1
  O  O180  1  0.34636993  0.54212111  0.24588620  1
  O  O181  1  0.84315250  0.52201097  0.24823630  1
  O  O182  1  0.41564085  0.31135758  0.24342250  1
  O  O183  1  0.93098460  0.32245556  0.24706018  1
  O  O184  1  0.24215893  0.16525067  0.24290255  1
  O  O185  1  0.72270242  0.15334774  0.24690933  1
  O  O186  1  0.32249302  0.51387897  0.92245385  1
  O  O187  1  0.81852432  0.50827986  0.92649394  1
  O  O188  1  0.43673821  0.36343476  0.92388111  1
  O  O189  1  0.92705056  0.36511725  0.92512206  1
  O  O190  1  0.25380034  0.15071014  0.92436744  1
  O  O191  1  0.74735595  0.14810141  0.92579989  1
  O  O192  1  0.32074232  0.12879851  0.42500336  1
  O  O193  1  0.82135046  0.14355250  0.42627805  1
  O  O194  1  0.25058057  0.35036843  0.42628931  1
  O  O195  1  0.74820476  0.35081242  0.42547184  1
  O  O196  1  0.42677897  0.49413868  0.42657636  1
  O  O197  1  0.92796074  0.49403841  0.42518956  1
  O  O198  1  0.17815814  0.51044196  0.07940682  1
  O  O199  1  0.67352901  0.48295903  0.07189092  1
  O  O200  1  0.06815023  0.65586875  0.07461567  1
  O  O201  1  0.57296111  0.64678397  0.07639479  1
  O  O202  1  0.25882616  0.87042711  0.07802333  1
  O  O203  1  0.75913588  0.85920038  0.07061063  1
  O  O204  1  0.17429258  0.85896802  0.57415923  1
  O  O205  1  0.67142494  0.85734090  0.57612040  1
  O  O206  1  0.26048088  0.66547985  0.57233527  1
  O  O207  1  0.75884320  0.66011545  0.57542772  1
  O  O208  1  0.07144735  0.48457150  0.57626302  1
  O  O209  1  0.56964815  0.48362052  0.57498357  1
  O  O210  1  0.15306603  0.82108445  0.25720068  1
  O  O211  1  0.64846081  0.84182386  0.25256700  1
  O  O212  1  0.27088334  0.70085071  0.25340207  1
  O  O213  1  0.75742040  0.69043581  0.25270006  1
  O  O214  1  0.08320054  0.46737183  0.25386117  1
  O  O215  1  0.58777609  0.47367404  0.25328670  1
  O  O216  1  0.14295814  0.47469833  0.75433396  1
  O  O217  1  0.64565434  0.47430604  0.75956888  1
  O  O218  1  0.08478663  0.71259494  0.75391131  1
  O  O219  1  0.59193921  0.70612230  0.75735877  1
  O  O220  1  0.25550020  0.82236154  0.75544599  1
  O  O221  1  0.76133164  0.83315455  0.75538754  1
