# generated using pymatgen
data_Na3CaNbSi(PO6)2
_symmetry_space_group_name_H-M   'P 1'
_cell_length_a   16.04719437
_cell_length_b   9.26526724
_cell_length_c   9.08898510
_cell_angle_alpha   90.00000000
_cell_angle_beta   125.26704512
_cell_angle_gamma   90.00000000
_symmetry_Int_Tables_number   1
_chemical_formula_structural   Na3CaNbSi(PO6)2
_chemical_formula_sum   'Na12 Ca4 Nb4 Si4 P8 O48'
_cell_volume   1103.34820249
_cell_formula_units_Z   4
loop_
 _symmetry_equiv_pos_site_id
 _symmetry_equiv_pos_as_xyz
  1  'x, y, z'
loop_
 _atom_site_type_symbol
 _atom_site_label
 _atom_site_symmetry_multiplicity
 _atom_site_fract_x
 _atom_site_fract_y
 _atom_site_fract_z
 _atom_site_occupancy
  Na  Na0  1  0.25401540  0.72313877  0.98717478  1
  Na  Na1  1  0.75401540  0.77686123  0.48717478  1
  Na  Na2  1  0.75401540  0.22313877  0.98717478  1
  Na  Na3  1  0.25401540  0.27686123  0.48717478  1
  Na  Na4  1  0.50996105  0.09130683  0.75174347  1
  Na  Na5  1  0.50996105  0.90869317  0.25174347  1
  Na  Na6  1  0.00996105  0.59130683  0.75174347  1
  Na  Na7  1  0.00996105  0.40869317  0.25174347  1
  Na  Na8  1  0.18095046  0.92870847  0.30897159  1
  Na  Na9  1  0.18095046  0.07129153  0.80897159  1
  Na  Na10  1  0.68095046  0.42870847  0.30897159  1
  Na  Na11  1  0.68095046  0.57129153  0.80897159  1
  Ca  Ca12  1  0.10469041  0.74715733  0.56617437  1
  Ca  Ca13  1  0.10469041  0.25284267  0.06617437  1
  Ca  Ca14  1  0.60469041  0.24715733  0.56617437  1
  Ca  Ca15  1  0.60469041  0.75284267  0.06617437  1
  Nb  Nb16  1  0.89618349  0.75639136  0.93850843  1
  Nb  Nb17  1  0.89618349  0.24360864  0.43850843  1
  Nb  Nb18  1  0.39618349  0.25639136  0.93850843  1
  Nb  Nb19  1  0.39618349  0.74360864  0.43850843  1
  Si  Si20  1  0.65210543  0.88334432  0.74818025  1
  Si  Si21  1  0.65210543  0.11665568  0.24818025  1
  Si  Si22  1  0.15210543  0.38334432  0.74818025  1
  Si  Si23  1  0.15210543  0.61665568  0.24818025  1
  P  P24  1  0.99201773  0.95634489  0.75782917  1
  P  P25  1  0.99201773  0.04365511  0.25782917  1
  P  P26  1  0.49201773  0.45634489  0.75782917  1
  P  P27  1  0.49201773  0.54365511  0.25782917  1
  P  P28  1  0.35530563  0.91546866  0.75625800  1
  P  P29  1  0.35530563  0.08453134  0.25625800  1
  P  P30  1  0.85530563  0.41546866  0.75625800  1
  P  P31  1  0.85530563  0.58453134  0.25625800  1
  O  O32  1  0.15770977  0.55569929  0.75553764  1
  O  O33  1  0.85572392  0.58665299  0.74430134  1
  O  O34  1  0.85572392  0.41334701  0.24430134  1
  O  O35  1  0.15770977  0.44430071  0.25553764  1
  O  O36  1  0.65770977  0.05569929  0.75553764  1
  O  O37  1  0.35572392  0.08665299  0.74430134  1
  O  O38  1  0.35572392  0.91334701  0.24430134  1
  O  O39  1  0.65770977  0.94430071  0.25553764  1
  O  O40  1  0.43335408  0.57027222  0.59149303  1
  O  O41  1  0.55409086  0.53796052  0.93116813  1
  O  O42  1  0.55409086  0.46203948  0.43116813  1
  O  O43  1  0.43335408  0.42972778  0.09149303  1
  O  O44  1  0.93335408  0.07027222  0.59149303  1
  O  O45  1  0.05409086  0.03796052  0.93116813  1
  O  O46  1  0.05409086  0.96203948  0.43116813  1
  O  O47  1  0.93335408  0.92972778  0.09149303  1
  O  O48  1  0.26024392  0.87292470  0.74533858  1
  O  O49  1  0.74787232  0.80301518  0.75236092  1
  O  O50  1  0.74787232  0.19698482  0.25236092  1
  O  O51  1  0.26024392  0.12707530  0.24533858  1
  O  O52  1  0.76024392  0.37292470  0.74533858  1
  O  O53  1  0.24787232  0.30301518  0.75236092  1
  O  O54  1  0.24787232  0.69698482  0.25236092  1
  O  O55  1  0.76024392  0.62707530  0.24533858  1
  O  O56  1  0.35720014  0.86339286  0.58677861  1
  O  O57  1  0.65512283  0.80673485  0.90562201  1
  O  O58  1  0.65512283  0.19326515  0.40562201  1
  O  O59  1  0.35720014  0.13660714  0.08677861  1
  O  O60  1  0.85720014  0.36339286  0.58677861  1
  O  O61  1  0.15512283  0.30673485  0.90562201  1
  O  O62  1  0.15512283  0.69326515  0.40562201  1
  O  O63  1  0.85720014  0.63660714  0.08677861  1
  O  O64  1  0.45291051  0.86721983  0.92897476  1
  O  O65  1  0.53485038  0.82100145  0.55753774  1
  O  O66  1  0.53485038  0.17899855  0.05753774  1
  O  O67  1  0.45291051  0.13278017  0.42897476  1
  O  O68  1  0.95291051  0.36721983  0.92897476  1
  O  O69  1  0.03485038  0.32100145  0.55753774  1
  O  O70  1  0.03485038  0.67899855  0.05753774  1
  O  O71  1  0.95291051  0.63278017  0.42897476  1
  O  O72  1  0.05926217  0.85501470  0.73718801  1
  O  O73  1  0.90642951  0.86556588  0.74885919  1
  O  O74  1  0.90642951  0.13443412  0.24885919  1
  O  O75  1  0.05926217  0.14498530  0.23718801  1
  O  O76  1  0.55926217  0.35501470  0.73718801  1
  O  O77  1  0.40642951  0.36556588  0.74885919  1
  O  O78  1  0.40642951  0.63443412  0.24885919  1
  O  O79  1  0.55926217  0.64498530  0.23718801  1
