# generated using pymatgen
data_MgHg2(BiO3)2
_symmetry_space_group_name_H-M   'P 1'
_cell_length_a   5.82503381
_cell_length_b   6.77960806
_cell_length_c   5.82503402
_cell_angle_alpha   115.44215269
_cell_angle_beta   60.00000113
_cell_angle_gamma   115.44215239
_symmetry_Int_Tables_number   1
_chemical_formula_structural   MgHg2(BiO3)2
_chemical_formula_sum   'Mg1 Hg2 Bi2 O6'
_cell_volume   172.98019332
_cell_formula_units_Z   1
loop_
 _symmetry_equiv_pos_site_id
 _symmetry_equiv_pos_as_xyz
  1  'x, y, z'
loop_
 _atom_site_type_symbol
 _atom_site_label
 _atom_site_symmetry_multiplicity
 _atom_site_fract_x
 _atom_site_fract_y
 _atom_site_fract_z
 _atom_site_occupancy
  Mg  Mg0  1  0.34987556  0.04962668  0.34987556  1
  Hg  Hg1  1  0.17812204  0.53436613  0.17812204  1
  Hg  Hg2  1  0.74345946  0.23037839  0.74345946  1
  Bi  Bi3  1  0.99620171  0.98860514  0.99620171  1
  Bi  Bi4  1  0.54295681  0.62887042  0.54295681  1
  O  O5  1  0.13114176  0.24176407  0.35878153  1
  O  O6  1  0.32367019  0.82262033  0.95369982  1
  O  O7  1  0.54525033  0.82262033  0.32367019  1
  O  O8  1  0.35878153  0.24176407  0.75184079  1
  O  O9  1  0.75184079  0.24176407  0.13114176  1
  O  O10  1  0.95369982  0.82262033  0.54525033  1
