# generated using pymatgen
data_Na3Ta2Ti2Si3(PO8)3
_symmetry_space_group_name_H-M   'P 1'
_cell_length_a   8.80269305
_cell_length_b   8.78288624
_cell_length_c   22.57920673
_cell_angle_alpha   90.12489414
_cell_angle_beta   89.88128587
_cell_angle_gamma   119.84797559
_symmetry_Int_Tables_number   1
_chemical_formula_structural   Na3Ta2Ti2Si3(PO8)3
_chemical_formula_sum   'Na9 Ta6 Ti6 Si9 P9 O72'
_cell_volume   1514.09830583
_cell_formula_units_Z   3
loop_
 _symmetry_equiv_pos_site_id
 _symmetry_equiv_pos_as_xyz
  1  'x, y, z'
loop_
 _atom_site_type_symbol
 _atom_site_label
 _atom_site_symmetry_multiplicity
 _atom_site_fract_x
 _atom_site_fract_y
 _atom_site_fract_z
 _atom_site_occupancy
  Na  Na0  1  0.00048973  0.63281774  0.25065840  1
  Na  Na1  1  0.66620430  0.96503719  0.58407002  1
  Na  Na2  1  0.66639140  0.70071214  0.08270337  1
  Na  Na3  1  0.00744320  0.00092805  0.50167202  1
  Na  Na4  1  0.00633389  0.00627083  0.00090994  1
  Na  Na5  1  0.66805547  0.33451582  0.83334937  1
  Na  Na6  1  0.66114536  0.32801042  0.33196022  1
  Na  Na7  1  0.33333362  0.66677607  0.16671899  1
  Na  Na8  1  0.32763606  0.66248324  0.66548148  1
  Ta  Ta9  1  0.99669689  0.99565732  0.35498441  1
  Ta  Ta10  1  0.99183897  0.99609627  0.85521241  1
  Ta  Ta11  1  0.66701261  0.33040267  0.68817633  1
  Ta  Ta12  1  0.67040099  0.33767772  0.97887923  1
  Ta  Ta13  1  0.66377241  0.33201577  0.47779372  1
  Ta  Ta14  1  0.33316387  0.66607349  0.81161336  1
  Ti  Ti15  1  0.00586744  0.99379369  0.64857863  1
  Ti  Ti16  1  0.99778486  0.99659691  0.14797239  1
  Ti  Ti17  1  0.66892531  0.33665595  0.18543436  1
  Ti  Ti18  1  0.32426220  0.66074848  0.01848408  1
  Ti  Ti19  1  0.32936969  0.67361552  0.51818055  1
  Ti  Ti20  1  0.34223297  0.67133056  0.31524799  1
  Si  Si21  1  0.70346381  0.70864243  0.24872746  1
  Si  Si22  1  0.00043896  0.71174515  0.74965186  1
  Si  Si23  1  0.71370258  0.99800564  0.74784377  1
  Si  Si24  1  0.36869731  0.04096066  0.58320719  1
  Si  Si25  1  0.96344503  0.62502750  0.08477336  1
  Si  Si26  1  0.61704644  0.66620081  0.91860310  1
  Si  Si27  1  0.04770083  0.37921151  0.91703000  1
  Si  Si28  1  0.61761771  0.95092578  0.41728575  1
  Si  Si29  1  0.04923444  0.66584340  0.41514169  1
  P  P30  1  0.29200563  0.00372960  0.24905916  1
  P  P31  1  0.00059421  0.28781416  0.24882830  1
  P  P32  1  0.28411818  0.28399031  0.74939558  1
  P  P33  1  0.96012540  0.33595161  0.58296600  1
  P  P34  1  0.66585010  0.62272988  0.58352399  1
  P  P35  1  0.66621450  0.04545498  0.08459388  1
  P  P36  1  0.37455006  0.32925371  0.08432193  1
  P  P37  1  0.33295081  0.95254559  0.91761885  1
  P  P38  1  0.33237289  0.38386289  0.41696173  1
  O  O39  1  0.20346047  0.03177827  0.30478392  1
  O  O40  1  0.83825510  0.80317622  0.30545788  1
  O  O41  1  0.97285853  0.17229509  0.30462547  1
  O  O42  1  0.20470863  0.17296001  0.80527375  1
  O  O43  1  0.97130019  0.80409162  0.80767363  1
  O  O44  1  0.83551590  0.03310040  0.80679278  1
  O  O45  1  0.80249440  0.97109477  0.68896521  1
  O  O46  1  0.17161131  0.20219932  0.69433858  1
  O  O47  1  0.03231302  0.83578531  0.69185832  1
  O  O48  1  0.80262184  0.83238062  0.19076321  1
  O  O49  1  0.02802299  0.19800727  0.19435659  1
  O  O50  1  0.16850576  0.96902048  0.19521739  1
  O  O51  1  0.86859497  0.36415957  0.63812217  1
  O  O52  1  0.50258420  0.13570884  0.63956185  1
  O  O53  1  0.64012617  0.50568241  0.63815478  1
  O  O54  1  0.86396938  0.50088931  0.14259913  1
  O  O55  1  0.63862580  0.13545242  0.13900934  1
  O  O56  1  0.49828909  0.36445642  0.13810708  1
  O  O57  1  0.46298834  0.30137821  0.02856154  1
  O  O58  1  0.82867577  0.53047877  0.02804510  1
  O  O59  1  0.69378142  0.16085714  0.02884112  1
  O  O60  1  0.47117842  0.16744515  0.52624833  1
  O  O61  1  0.69581192  0.53468869  0.52838711  1
  O  O62  1  0.83629181  0.30399920  0.52886520  1
  O  O63  1  0.53292367  0.69851402  0.97785970  1
  O  O64  1  0.16930280  0.47358598  0.97482548  1
  O  O65  1  0.30253121  0.83806653  0.97235022  1
  O  O66  1  0.53410681  0.83370344  0.47675682  1
  O  O67  1  0.30260830  0.46452923  0.47274833  1
  O  O68  1  0.17041366  0.69682719  0.47395683  1
  O  O69  1  0.13352131  0.63411887  0.35576705  1
  O  O70  1  0.49672280  0.86042127  0.35927205  1
  O  O71  1  0.36463369  0.49537123  0.36117205  1
  O  O72  1  0.13455033  0.50153126  0.85900865  1
  O  O73  1  0.36435771  0.86994382  0.86142293  1
  O  O74  1  0.49926554  0.63707001  0.85977957  1
  O  O75  1  0.03003536  0.84220823  0.40857109  1
  O  O76  1  0.81496826  0.97891576  0.40800472  1
  O  O77  1  0.17212849  0.19756487  0.40819608  1
  O  O78  1  0.03001413  0.18723130  0.90995871  1
  O  O79  1  0.17190607  0.97552541  0.90917819  1
  O  O80  1  0.81405259  0.83611044  0.91004529  1
  O  O81  1  0.96689189  0.16613959  0.58936165  1
  O  O82  1  0.17925449  0.02544065  0.59054230  1
  O  O83  1  0.82830945  0.80727502  0.58940782  1
  O  O84  1  0.97159493  0.81508044  0.09184904  1
  O  O85  1  0.83208283  0.02630924  0.09046012  1
  O  O86  1  0.19324144  0.16807286  0.09166633  1
  O  O87  1  0.69111818  0.17224610  0.74203113  1
  O  O88  1  0.47065542  0.30835016  0.74152898  1
  O  O89  1  0.82601886  0.52017462  0.74129416  1
  O  O90  1  0.69508206  0.51833883  0.24151904  1
  O  O91  1  0.83460755  0.30706558  0.24292946  1
  O  O92  1  0.47335960  0.16523788  0.24167572  1
  O  O93  1  0.63779367  0.49112089  0.92487071  1
  O  O94  1  0.85127670  0.35364999  0.92566939  1
  O  O95  1  0.49682292  0.13606466  0.92495811  1
  O  O96  1  0.64142469  0.14731326  0.42471108  1
  O  O97  1  0.49713421  0.36165374  0.42432879  1
  O  O98  1  0.85291626  0.49802291  0.42555248  1
  O  O99  1  0.36627373  0.50073945  0.07736342  1
  O  O100  1  0.15473858  0.64511815  0.07602417  1
  O  O101  1  0.50663467  0.86031359  0.07774007  1
  O  O102  1  0.36250588  0.85177556  0.57622578  1
  O  O103  1  0.50190668  0.64187446  0.57736528  1
  O  O104  1  0.14051427  0.49883842  0.57620255  1
  O  O105  1  0.30044132  0.83255519  0.25601197  1
  O  O106  1  0.51215009  0.68844684  0.25747995  1
  O  O107  1  0.15992297  0.47292321  0.25568243  1
  O  O108  1  0.30714799  0.47013651  0.75686998  1
  O  O109  1  0.17236441  0.69028059  0.75679921  1
  O  O110  1  0.52002995  0.82837181  0.75744675  1
