# generated using pymatgen
data_Hg3(SBr)2
_symmetry_space_group_name_H-M   'P 1'
_cell_length_a   10.31746673
_cell_length_b   10.31746673
_cell_length_c   10.47915111
_cell_angle_alpha   67.11992443
_cell_angle_beta   67.11992443
_cell_angle_gamma   54.13464691
_symmetry_Int_Tables_number   1
_chemical_formula_structural   Hg3(SBr)2
_chemical_formula_sum   'Hg12 S8 Br8'
_cell_volume   813.27946162
_cell_formula_units_Z   4
loop_
 _symmetry_equiv_pos_site_id
 _symmetry_equiv_pos_as_xyz
  1  'x, y, z'
loop_
 _atom_site_type_symbol
 _atom_site_label
 _atom_site_symmetry_multiplicity
 _atom_site_fract_x
 _atom_site_fract_y
 _atom_site_fract_z
 _atom_site_occupancy
  Hg  Hg0  1  0.33958614  0.80383542  0.70902378  1
  Hg  Hg1  1  0.19616458  0.66041386  0.29097622  1
  Hg  Hg2  1  0.66041386  0.19616458  0.29097622  1
  Hg  Hg3  1  0.80383542  0.33958614  0.70902378  1
  Hg  Hg4  1  0.39576702  0.86686049  0.99596902  1
  Hg  Hg5  1  0.13313951  0.60423298  0.00403098  1
  Hg  Hg6  1  0.60423298  0.13313951  0.00403098  1
  Hg  Hg7  1  0.86686049  0.39576702  0.99596902  1
  Hg  Hg8  1  0.78526954  0.78526954  0.28265821  1
  Hg  Hg9  1  0.21473046  0.21473046  0.71734179  1
  Hg  Hg10  1  0.92472208  0.92472208  0.72898168  1
  Hg  Hg11  1  0.07527792  0.07527792  0.27101832  1
  S  S12  1  0.32581867  0.81210893  0.25164645  1
  S  S13  1  0.18789107  0.67418133  0.74835355  1
  S  S14  1  0.67418133  0.18789107  0.74835355  1
  S  S15  1  0.81210893  0.32581867  0.25164645  1
  S  S16  1  0.45207128  0.93871292  0.74019346  1
  S  S17  1  0.06128708  0.54792872  0.25980654  1
  S  S18  1  0.54792872  0.06128708  0.25980654  1
  S  S19  1  0.93871292  0.45207128  0.74019346  1
  Br  Br20  1  0.24949903  0.24949903  0.99706757  1
  Br  Br21  1  0.75050097  0.75050097  0.00293243  1
  Br  Br22  1  0.88233082  0.88233082  0.48549142  1
  Br  Br23  1  0.11766918  0.11766918  0.51450858  1
  Br  Br24  1  0.00000000  -0.00000000  0.00000000  1
  Br  Br25  1  0.50000000  0.50000000  0.00000000  1
  Br  Br26  1  0.61956983  0.61956983  0.50303093  1
  Br  Br27  1  0.38043017  0.38043017  0.49696907  1
