# generated using pymatgen
data_Li8GeO6
_symmetry_space_group_name_H-M   'P 1'
_cell_length_a   5.45853643
_cell_length_b   5.45853858
_cell_length_c   10.64602565
_cell_angle_alpha   89.99995823
_cell_angle_beta   90.00000144
_cell_angle_gamma   119.99901416
_symmetry_Int_Tables_number   1
_chemical_formula_structural   Li8GeO6
_chemical_formula_sum   'Li16 Ge2 O12'
_cell_volume   274.71036823
_cell_formula_units_Z   2
loop_
 _symmetry_equiv_pos_site_id
 _symmetry_equiv_pos_as_xyz
  1  'x, y, z'
loop_
 _atom_site_type_symbol
 _atom_site_label
 _atom_site_symmetry_multiplicity
 _atom_site_fract_x
 _atom_site_fract_y
 _atom_site_fract_z
 _atom_site_occupancy
  Li  Li0  1  -0.00002231  0.31174693  0.27014560  1
  Li  Li1  1  0.68824546  0.00002101  0.77014133  1
  Li  Li2  1  0.33334765  0.66668177  0.41047833  1
  Li  Li3  1  0.66665344  0.33331747  0.91047450  1
  Li  Li4  1  0.33331752  0.66665180  0.91047449  1
  Li  Li5  1  0.66668349  0.33334846  0.41047843  1
  Li  Li6  1  0.39810714  0.00000497  0.63035417  1
  Li  Li7  1  0.39808434  0.39808522  0.13034796  1
  Li  Li8  1  -0.00000411  0.60188882  0.13033820  1
  Li  Li9  1  0.00000500  0.39810789  0.63035416  1
  Li  Li10  1  0.60191716  0.60191756  0.63036361  1
  Li  Li11  1  0.60188872  -0.00000289  0.13033787  1
  Li  Li12  1  0.31174625  -0.00002224  0.27014557  1
  Li  Li13  1  0.68824260  0.68824230  0.27014073  1
  Li  Li14  1  0.00002230  0.68824479  0.77014082  1
  Li  Li15  1  0.31176213  0.31176223  0.77013708  1
  Ge  Ge16  1  -0.00000464  -0.00000436  0.49942841  1
  Ge  Ge17  1  0.00000493  0.00000559  0.99940912  1
  O  O18  1  -0.00000326  0.30771387  0.45221953  1
  O  O19  1  0.69228745  0.69228708  0.45221934  1
  O  O20  1  0.00000095  0.00000121  0.16827674  1
  O  O21  1  -0.00000120  -0.00000101  0.66831114  1
  O  O22  1  0.33333535  0.66666890  0.21906783  1
  O  O23  1  0.66666469  0.33333140  0.71906975  1
  O  O24  1  0.33333125  0.66666466  0.71906991  1
  O  O25  1  0.69228044  0.00000400  0.95219717  1
  O  O26  1  0.30771380  -0.00000383  0.45221948  1
  O  O27  1  0.30772033  0.30772066  0.95219721  1
  O  O28  1  0.00000447  0.69228003  0.95219682  1
  O  O29  1  0.66666866  0.33333572  0.21906770  1
