# generated using pymatgen
data_Na2Nb3GaSi4(SO12)2
_symmetry_space_group_name_H-M   'P 1'
_cell_length_a   8.82938946
_cell_length_b   8.86111787
_cell_length_c   22.77527207
_cell_angle_alpha   89.46409682
_cell_angle_beta   90.94145427
_cell_angle_gamma   119.76857404
_symmetry_Int_Tables_number   1
_chemical_formula_structural   Na2Nb3GaSi4(SO12)2
_chemical_formula_sum   'Na6 Nb9 Ga3 Si12 S6 O72'
_cell_volume   1546.54445965
_cell_formula_units_Z   3
loop_
 _symmetry_equiv_pos_site_id
 _symmetry_equiv_pos_as_xyz
  1  'x, y, z'
loop_
 _atom_site_type_symbol
 _atom_site_label
 _atom_site_symmetry_multiplicity
 _atom_site_fract_x
 _atom_site_fract_y
 _atom_site_fract_z
 _atom_site_occupancy
  Na  Na0  1  0.98488059  0.98071985  0.49877092  1
  Na  Na1  1  0.00142223  0.99136679  0.99769827  1
  Na  Na2  1  0.65815643  0.32267887  0.82978599  1
  Na  Na3  1  0.67092387  0.32168858  0.32283913  1
  Na  Na4  1  0.32181013  0.65359565  0.16279465  1
  Na  Na5  1  0.34671980  0.66379198  0.66453241  1
  Nb  Nb6  1  0.00122560  0.00300960  0.35355692  1
  Nb  Nb7  1  0.00268825  0.01660737  0.85718476  1
  Nb  Nb8  1  0.98403180  0.99588814  0.64628158  1
  Nb  Nb9  1  0.02055937  0.01133942  0.14142203  1
  Nb  Nb10  1  0.66233164  0.34299432  0.97556724  1
  Nb  Nb11  1  0.67884955  0.34337060  0.47671290  1
  Nb  Nb12  1  0.32316369  0.65833545  0.02164676  1
  Nb  Nb13  1  0.32072196  0.67578278  0.30988289  1
  Nb  Nb14  1  0.34054756  0.66680832  0.81095638  1
  Ga  Ga15  1  0.64003532  0.32935940  0.69071942  1
  Ga  Ga16  1  0.67426009  0.33434637  0.18704547  1
  Ga  Ga17  1  0.36227922  0.69088058  0.51885433  1
  Si  Si18  1  0.30190259  0.01813966  0.24932626  1
  Si  Si19  1  0.99424879  0.28935426  0.24765315  1
  Si  Si20  1  0.28980104  0.29052976  0.74886232  1
  Si  Si21  1  0.70526802  0.01296482  0.74840900  1
  Si  Si22  1  0.65267970  0.61257997  0.58566501  1
  Si  Si23  1  0.94765309  0.61349424  0.08767093  1
  Si  Si24  1  0.39621203  0.34385711  0.08690325  1
  Si  Si25  1  0.62230897  0.67442756  0.91832943  1
  Si  Si26  1  0.04401310  0.38516843  0.91497623  1
  Si  Si27  1  0.33483094  0.95118062  0.91561751  1
  Si  Si28  1  0.62124394  0.95261805  0.41829960  1
  Si  Si29  1  0.06162804  0.67586525  0.42211021  1
  S  S30  1  0.71063052  0.71156211  0.25021927  1
  S  S31  1  0.99546504  0.70968142  0.74945712  1
  S  S32  1  0.95831876  0.33771914  0.58470190  1
  S  S33  1  0.37810221  0.04321257  0.58384415  1
  S  S34  1  0.66420891  0.04431101  0.08491104  1
  S  S35  1  0.33223507  0.37942945  0.41816786  1
  O  O36  1  0.19174926  0.02239159  0.30638981  1
  O  O37  1  0.81727319  0.80150509  0.30493311  1
  O  O38  1  0.97689407  0.16896888  0.30656314  1
  O  O39  1  0.18965205  0.16973425  0.80604894  1
  O  O40  1  0.97710134  0.79459900  0.80186216  1
  O  O41  1  0.82795374  0.02737858  0.80519778  1
  O  O42  1  0.79950965  0.97352001  0.69062437  1
  O  O43  1  0.16602738  0.18349908  0.69070348  1
  O  O44  1  0.01570071  0.81880050  0.69506632  1
  O  O45  1  0.78833801  0.81751051  0.19793013  1
  O  O46  1  0.01813818  0.18720739  0.19187322  1
  O  O47  1  0.17320599  0.97555269  0.19130211  1
  O  O48  1  0.87240465  0.35247081  0.63588751  1
  O  O49  1  0.48161857  0.12082526  0.63769534  1
  O  O50  1  0.63964456  0.49790760  0.64213998  1
  O  O51  1  0.87223431  0.49855406  0.14536253  1
  O  O52  1  0.64038474  0.11928668  0.13854336  1
  O  O53  1  0.50383081  0.36199263  0.14524510  1
  O  O54  1  0.47284319  0.30697140  0.02693570  1
  O  O55  1  0.83276889  0.52051809  0.02766858  1
  O  O56  1  0.68978351  0.14804489  0.03125688  1
  O  O57  1  0.46389082  0.14849679  0.53071510  1
  O  O58  1  0.68167927  0.51676129  0.52660339  1
  O  O59  1  0.84773354  0.30778577  0.52925784  1
  O  O60  1  0.53095344  0.69835583  0.97562505  1
  O  O61  1  0.16290663  0.46892827  0.97446870  1
  O  O62  1  0.30491113  0.83272846  0.97411692  1
  O  O63  1  0.55549239  0.83827473  0.47670498  1
  O  O64  1  0.30627964  0.45385021  0.47124407  1
  O  O65  1  0.17542812  0.69169789  0.47896667  1
  O  O66  1  0.13722608  0.63857625  0.36081166  1
  O  O67  1  0.49863846  0.85566874  0.36012232  1
  O  O68  1  0.35910680  0.48209808  0.36436368  1
  O  O69  1  0.13574680  0.50146008  0.85705268  1
  O  O70  1  0.36133669  0.85911052  0.85765368  1
  O  O71  1  0.50330234  0.64007451  0.85805408  1
  O  O72  1  0.03031825  0.84073304  0.41104341  1
  O  O73  1  0.81955787  0.98638744  0.40656030  1
  O  O74  1  0.17776796  0.20056788  0.41187070  1
  O  O75  1  0.03109867  0.19380881  0.91064406  1
  O  O76  1  0.16066127  0.96936434  0.90660563  1
  O  O77  1  0.81515445  0.84021929  0.90892315  1
  O  O78  1  0.97107114  0.17133120  0.58636990  1
  O  O79  1  0.20149748  0.02949088  0.58663217  1
  O  O80  1  0.83489020  0.80870249  0.58974391  1
  O  O81  1  0.95947280  0.80735138  0.09188141  1
  O  O82  1  0.82206241  0.02216653  0.08949476  1
  O  O83  1  0.19194850  0.16897289  0.08917484  1
  O  O84  1  0.70374986  0.19088801  0.73763355  1
  O  O85  1  0.48089440  0.31117665  0.74745569  1
  O  O86  1  0.84355246  0.53749725  0.74347878  1
  O  O87  1  0.69927555  0.54176219  0.24997163  1
  O  O88  1  0.82659283  0.31286418  0.24477296  1
  O  O89  1  0.48887557  0.18491800  0.24507880  1
  O  O90  1  0.63641244  0.49693681  0.92233887  1
  O  O91  1  0.85078246  0.35676081  0.92350805  1
  O  O92  1  0.50639710  0.14166925  0.92439229  1
  O  O93  1  0.63514985  0.14518331  0.42606246  1
  O  O94  1  0.48912895  0.35409444  0.42352372  1
  O  O95  1  0.86089788  0.50034729  0.42738157  1
  O  O96  1  0.36649817  0.51106655  0.07906732  1
  O  O97  1  0.14917719  0.65155449  0.07747601  1
  O  O98  1  0.50939092  0.86754039  0.07942665  1
  O  O99  1  0.35471999  0.86550443  0.57961962  1
  O  O100  1  0.48109857  0.63513432  0.57766716  1
  O  O101  1  0.13266407  0.48721625  0.57745668  1
  O  O102  1  0.30999215  0.83342325  0.25582974  1
  O  O103  1  0.53434476  0.69350486  0.25717169  1
  O  O104  1  0.17850336  0.47611495  0.25809497  1
  O  O105  1  0.29558698  0.47820941  0.75272746  1
  O  O106  1  0.15930592  0.70163795  0.75116171  1
  O  O107  1  0.51446075  0.83613295  0.75339172  1
