# generated using pymatgen
data_Na10Hf4Ti4Si9(SO16)3
_symmetry_space_group_name_H-M   'P 1'
_cell_length_a   17.97303149
_cell_length_b   9.00722125
_cell_length_c   22.60403010
_cell_angle_alpha   90.08823638
_cell_angle_beta   89.72841460
_cell_angle_gamma   120.03862704
_symmetry_Int_Tables_number   1
_chemical_formula_structural   Na10Hf4Ti4Si9(SO16)3
_chemical_formula_sum   'Na30 Hf12 Ti12 Si27 S9 O144'
_cell_volume   3167.77569137
_cell_formula_units_Z   3
loop_
 _symmetry_equiv_pos_site_id
 _symmetry_equiv_pos_as_xyz
  1  'x, y, z'
loop_
 _atom_site_type_symbol
 _atom_site_label
 _atom_site_symmetry_multiplicity
 _atom_site_fract_x
 _atom_site_fract_y
 _atom_site_fract_z
 _atom_site_occupancy
  Na  Na0  1  0.31942331  0.99886157  0.24996607  1
  Na  Na1  1  0.81826452  0.99684820  0.25079970  1
  Na  Na2  1  0.18441098  0.99290041  0.74616197  1
  Na  Na3  1  0.68411649  0.99932673  0.74609915  1
  Na  Na4  1  0.01781152  0.70359694  0.58101793  1
  Na  Na5  1  0.52065671  0.70413391  0.57990236  1
  Na  Na6  1  0.01879528  0.33021098  0.08026166  1
  Na  Na7  1  0.51506526  0.32804340  0.08161395  1
  Na  Na8  1  0.48317262  0.66195685  0.91633134  1
  Na  Na9  1  0.34853188  0.03114644  0.91686366  1
  Na  Na10  1  0.85098720  0.04238684  0.91365150  1
  Na  Na11  1  0.16657532  0.30802098  0.92047083  1
  Na  Na12  1  0.48360398  0.30357161  0.41630478  1
  Na  Na13  1  0.98213474  0.30279800  0.41647515  1
  Na  Na14  1  0.16722353  0.02825626  0.41909492  1
  Na  Na15  1  0.66410555  0.02966277  0.41633330  1
  Na  Na16  1  0.35266674  0.66987487  0.41645203  1
  Na  Na17  1  0.84916171  0.66423968  0.41658939  1
  Na  Na18  1  0.00146749  0.00348497  0.50091611  1
  Na  Na19  1  0.50261525  0.00739678  0.50182481  1
  Na  Na20  1  0.00622503  0.00054997  0.00158870  1
  Na  Na21  1  0.50666615  0.00676136  0.00088273  1
  Na  Na22  1  0.34300273  0.34428140  0.83138432  1
  Na  Na23  1  0.84435956  0.34563564  0.83030848  1
  Na  Na24  1  0.34003475  0.34912227  0.33062073  1
  Na  Na25  1  0.83882642  0.34889410  0.33231505  1
  Na  Na26  1  0.17290060  0.66163455  0.16878503  1
  Na  Na27  1  0.67156113  0.66218264  0.17014876  1
  Na  Na28  1  0.17527491  0.67366182  0.66713691  1
  Na  Na29  1  0.67525477  0.67009817  0.66239418  1
  Hf  Hf30  1  0.99459825  0.99460249  0.35254676  1
  Hf  Hf31  1  0.99672905  0.99432155  0.85010448  1
  Hf  Hf32  1  0.49621242  0.99833925  0.85300624  1
  Hf  Hf33  1  0.99384292  0.98397251  0.64486523  1
  Hf  Hf34  1  0.99738701  0.00863812  0.14818587  1
  Hf  Hf35  1  0.82801242  0.33371017  0.18821088  1
  Hf  Hf36  1  0.82777578  0.32017210  0.98134187  1
  Hf  Hf37  1  0.17404752  0.67301657  0.02029192  1
  Hf  Hf38  1  0.66498117  0.66660239  0.02249906  1
  Hf  Hf39  1  0.17511834  0.67801703  0.52043928  1
  Hf  Hf40  1  0.16794075  0.67135019  0.81489713  1
  Hf  Hf41  1  0.66031073  0.66967707  0.81040061  1
  Ti  Ti42  1  0.49170627  0.99327944  0.35198985  1
  Ti  Ti43  1  0.49243276  0.97391618  0.64522125  1
  Ti  Ti44  1  0.49297141  0.01596372  0.14740941  1
  Ti  Ti45  1  0.33630376  0.33226654  0.68443342  1
  Ti  Ti46  1  0.83167940  0.33418252  0.68544530  1
  Ti  Ti47  1  0.33216604  0.34061788  0.18606002  1
  Ti  Ti48  1  0.32616070  0.31403479  0.97842234  1
  Ti  Ti49  1  0.32855789  0.33803468  0.47896364  1
  Ti  Ti50  1  0.82372829  0.33214241  0.47876945  1
  Ti  Ti51  1  0.67461036  0.67963593  0.51769973  1
  Ti  Ti52  1  0.16613699  0.64883018  0.31632587  1
  Ti  Ti53  1  0.66392737  0.64664801  0.31594896  1
  Si  Si54  1  0.35563727  0.70862151  0.24906708  1
  Si  Si55  1  0.84884825  0.70164068  0.25153141  1
  Si  Si56  1  0.00301468  0.30498368  0.25127610  1
  Si  Si57  1  0.50012262  0.29544405  0.25127592  1
  Si  Si58  1  0.99701483  0.69637777  0.74789725  1
  Si  Si59  1  0.49394007  0.70058849  0.74821248  1
  Si  Si60  1  0.35572326  0.00411752  0.74692163  1
  Si  Si61  1  0.85250917  0.00524734  0.74943892  1
  Si  Si62  1  0.19004869  0.05042489  0.58391370  1
  Si  Si63  1  0.68776914  0.04457666  0.58450043  1
  Si  Si64  1  0.33041442  0.61356072  0.58478924  1
  Si  Si65  1  0.82677269  0.61236332  0.58184538  1
  Si  Si66  1  0.32974137  0.04651521  0.08603424  1
  Si  Si67  1  0.83173081  0.03697565  0.08511630  1
  Si  Si68  1  0.19022887  0.33154538  0.08365377  1
  Si  Si69  1  0.68230497  0.32600990  0.08491919  1
  Si  Si70  1  0.31343182  0.66010061  0.91617604  1
  Si  Si71  1  0.01967252  0.37707747  0.91784535  1
  Si  Si72  1  0.51953999  0.37284953  0.91912405  1
  Si  Si73  1  0.16284909  0.95454874  0.91787625  1
  Si  Si74  1  0.66611960  0.96019633  0.91598872  1
  Si  Si75  1  0.31176457  0.96081696  0.41281978  1
  Si  Si76  1  0.80859705  0.95714717  0.41486785  1
  Si  Si77  1  0.16635408  0.37597407  0.41831854  1
  Si  Si78  1  0.66328179  0.37676048  0.41843806  1
  Si  Si79  1  0.02227522  0.66219704  0.41786231  1
  Si  Si80  1  0.52444393  0.66758876  0.41775920  1
  S  S81  1  0.14714253  0.00016560  0.24952309  1
  S  S82  1  0.64048571  0.99510702  0.24999806  1
  S  S83  1  0.14629035  0.29260284  0.74814382  1
  S  S84  1  0.64502045  0.28975327  0.74735811  1
  S  S85  1  0.47743442  0.32973210  0.58255169  1
  S  S86  1  0.97566157  0.33157970  0.58277837  1
  S  S87  1  0.47513890  0.62465005  0.08376332  1
  S  S88  1  0.97820450  0.62511509  0.08363960  1
  S  S89  1  0.81071504  0.66452493  0.91577892  1
  O  O90  1  0.10745380  0.02428555  0.30423539  1
  O  O91  1  0.60334481  0.02199235  0.30541079  1
  O  O92  1  0.41471298  0.80133874  0.30936210  1
  O  O93  1  0.90716412  0.78883557  0.31090666  1
  O  O94  1  0.48541991  0.16421083  0.30760461  1
  O  O95  1  0.98669299  0.17977164  0.30877509  1
  O  O96  1  0.10619211  0.18630666  0.80304387  1
  O  O97  1  0.60631371  0.18242932  0.80159517  1
  O  O98  1  0.48519227  0.79174624  0.80776242  1
  O  O99  1  0.98443680  0.79474584  0.80512657  1
  O  O100  1  0.41086215  0.03600367  0.80759047  1
  O  O101  1  0.90823622  0.03268676  0.81012736  1
  O  O102  1  0.41164915  0.98491690  0.69196209  1
  O  O103  1  0.90370108  0.98339950  0.69372472  1
  O  O104  1  0.09269014  0.20613039  0.69650558  1
  O  O105  1  0.59235873  0.20973923  0.69509677  1
  O  O106  1  0.01702571  0.82493396  0.69041468  1
  O  O107  1  0.51381749  0.83064088  0.69082413  1
  O  O108  1  0.40782575  0.84228144  0.19449160  1
  O  O109  1  0.89948499  0.83122513  0.19589707  1
  O  O110  1  0.01777043  0.21529025  0.19203882  1
  O  O111  1  0.51338689  0.20225410  0.19187361  1
  O  O112  1  0.09314320  0.97864573  0.19776727  1
  O  O113  1  0.59000712  0.97944587  0.19770961  1
  O  O114  1  0.43458816  0.35648241  0.63555035  1
  O  O115  1  0.93375100  0.35665327  0.63570248  1
  O  O116  1  0.24858419  0.14300145  0.64237047  1
  O  O117  1  0.74792476  0.13832985  0.64237717  1
  O  O118  1  0.32550124  0.49405528  0.64016681  1
  O  O119  1  0.82160475  0.49365643  0.63854979  1
  O  O120  1  0.43507559  0.51065149  0.13615077  1
  O  O121  1  0.93622785  0.51468386  0.13621931  1
  O  O122  1  0.32549919  0.15186889  0.14382089  1
  O  O123  1  0.82243066  0.13077817  0.14381970  1
  O  O124  1  0.25352818  0.35658771  0.14017093  1
  O  O125  1  0.74554761  0.36157023  0.14064137  1
  O  O126  1  0.23948239  0.31424708  0.02453377  1
  O  O127  1  0.72998561  0.30590903  0.02626414  1
  O  O128  1  0.42667521  0.54765662  0.02895762  1
  O  O129  1  0.92612368  0.54713687  0.02992875  1
  O  O130  1  0.34978860  0.16822248  0.02644285  1
  O  O131  1  0.85112375  0.16076682  0.02656196  1
  O  O132  1  0.24122147  0.16782117  0.52469407  1
  O  O133  1  0.73720596  0.16555795  0.52549201  1
  O  O134  1  0.34966070  0.53128831  0.52462465  1
  O  O135  1  0.84654140  0.52561290  0.52334401  1
  O  O136  1  0.42602665  0.30529370  0.52838233  1
  O  O137  1  0.92589193  0.30719942  0.52820576  1
  O  O138  1  0.27172706  0.70572217  0.97274583  1
  O  O139  1  0.77108711  0.69354811  0.96939447  1
  O  O140  1  0.07888635  0.45621706  0.97748259  1
  O  O141  1  0.57621025  0.45960800  0.97810200  1
  O  O142  1  0.14946797  0.83594180  0.97470081  1
  O  O143  1  0.65199899  0.83433988  0.97181122  1
  O  O144  1  0.27259693  0.83422241  0.47032453  1
  O  O145  1  0.76444860  0.82842396  0.47227157  1
  O  O146  1  0.14557551  0.46121915  0.47411473  1
  O  O147  1  0.64705519  0.47239342  0.47395219  1
  O  O148  1  0.08038021  0.70068462  0.47750956  1
  O  O149  1  0.58424217  0.70240874  0.47678989  1
  O  O150  1  0.07249697  0.63131788  0.36208349  1
  O  O151  1  0.57109499  0.62984921  0.36170073  1
  O  O152  1  0.25002801  0.87424021  0.35564542  1
  O  O153  1  0.74881937  0.87154390  0.35708026  1
  O  O154  1  0.18713380  0.50301097  0.36042557  1
  O  O155  1  0.68648114  0.50409043  0.36049672  1
  O  O156  1  0.06818436  0.49333425  0.86011092  1
  O  O157  1  0.56587627  0.49954336  0.86232642  1
  O  O158  1  0.18708439  0.88328576  0.85805679  1
  O  O159  1  0.68558141  0.87525893  0.85752968  1
  O  O160  1  0.25076175  0.62020531  0.85974883  1
  O  O161  1  0.75939474  0.63986469  0.86288943  1
  O  O162  1  0.01317917  0.83373496  0.40999138  1
  O  O163  1  0.51369893  0.83778196  0.40853785  1
  O  O164  1  0.40815018  0.97929116  0.40731548  1
  O  O165  1  0.90483381  0.97607766  0.41302087  1
  O  O166  1  0.08554619  0.18308169  0.40970836  1
  O  O167  1  0.58148128  0.18479084  0.40892188  1
  O  O168  1  0.00764542  0.18194153  0.91142203  1
  O  O169  1  0.50461114  0.18014212  0.91233043  1
  O  O170  1  0.08458606  0.99521778  0.91035361  1
  O  O171  1  0.57995875  0.97257438  0.90970362  1
  O  O172  1  0.40778372  0.83255100  0.91087166  1
  O  O173  1  0.89668280  0.82487033  0.91148473  1
  O  O174  1  0.48746583  0.17825239  0.58988286  1
  O  O175  1  0.98780755  0.18183834  0.58941875  1
  O  O176  1  0.09440234  0.03187068  0.58648200  1
  O  O177  1  0.59135941  0.02411066  0.59113373  1
  O  O178  1  0.41984066  0.80422203  0.59036922  1
  O  O179  1  0.91644009  0.80129271  0.58646134  1
  O  O180  1  0.48730145  0.79634404  0.09164657  1
  O  O181  1  0.98948600  0.79748261  0.09054894  1
  O  O182  1  0.41873547  0.03310151  0.09211629  1
  O  O183  1  0.92116688  0.02686258  0.08731051  1
  O  O184  1  0.09558256  0.15784309  0.08832405  1
  O  O185  1  0.58699500  0.15259572  0.09270575  1
  O  O186  1  0.34047964  0.16945654  0.73895299  1
  O  O187  1  0.83644725  0.16890593  0.74168836  1
  O  O188  1  0.23173547  0.30201543  0.74446454  1
  O  O189  1  0.73129058  0.30341226  0.74297700  1
  O  O190  1  0.41150105  0.51084088  0.73936672  1
  O  O191  1  0.91092257  0.50959186  0.73884002  1
  O  O192  1  0.34613124  0.51930312  0.24099488  1
  O  O193  1  0.83955673  0.51369312  0.24700127  1
  O  O194  1  0.41075663  0.30016655  0.24399075  1
  O  O195  1  0.91284135  0.30663498  0.24534160  1
  O  O196  1  0.23422873  0.15672265  0.24470985  1
  O  O197  1  0.73039414  0.15145338  0.24630914  1
  O  O198  1  0.32535610  0.49369290  0.92564715  1
  O  O199  1  0.82396857  0.51673877  0.92303804  1
  O  O200  1  0.42465226  0.35857675  0.92540321  1
  O  O201  1  0.92376513  0.35503956  0.92192192  1
  O  O202  1  0.25165419  0.14620389  0.92487359  1
  O  O203  1  0.75364687  0.14727322  0.92064504  1
  O  O204  1  0.32473775  0.15259552  0.42307011  1
  O  O205  1  0.82079285  0.14800338  0.42527440  1
  O  O206  1  0.25466690  0.36277986  0.42350750  1
  O  O207  1  0.75083360  0.35978467  0.42437658  1
  O  O208  1  0.42842425  0.49573334  0.42508580  1
  O  O209  1  0.92620078  0.49059999  0.42333619  1
  O  O210  1  0.17380379  0.49492083  0.08143201  1
  O  O211  1  0.66596220  0.48956938  0.07986363  1
  O  O212  1  0.06269800  0.63428073  0.07912564  1
  O  O213  1  0.56181497  0.63472971  0.07990626  1
  O  O214  1  0.24579076  0.85738492  0.08273850  1
  O  O215  1  0.74805406  0.84841004  0.07859104  1
  O  O216  1  0.17450993  0.85427525  0.58020062  1
  O  O217  1  0.67346058  0.84923618  0.57661553  1
  O  O218  1  0.24633763  0.63414403  0.58147859  1
  O  O219  1  0.74242532  0.63308491  0.57586524  1
  O  O220  1  0.06144262  0.49176112  0.57935088  1
  O  O221  1  0.56178551  0.49084591  0.57925652  1
  O  O222  1  0.15789467  0.84856144  0.25378695  1
  O  O223  1  0.65338294  0.84518689  0.25431548  1
  O  O224  1  0.26374102  0.70473599  0.25696571  1
  O  O225  1  0.75769106  0.70201710  0.25768180  1
  O  O226  1  0.08913991  0.49411483  0.25804818  1
  O  O227  1  0.58598187  0.48288692  0.25855929  1
  O  O228  1  0.15602728  0.46274211  0.75340050  1
  O  O229  1  0.65679176  0.46325316  0.75552284  1
  O  O230  1  0.08543810  0.68752261  0.75365026  1
  O  O231  1  0.58387932  0.69279880  0.75112195  1
  O  O232  1  0.25988973  0.83374492  0.75031127  1
  O  O233  1  0.75761905  0.83104938  0.75404450  1
