# generated using pymatgen
data_Mn(SbO3)2
_symmetry_space_group_name_H-M   'P 1'
_cell_length_a   8.83132366
_cell_length_b   9.43861078
_cell_length_c   8.83130810
_cell_angle_alpha   90.00310952
_cell_angle_beta   119.99962598
_cell_angle_gamma   90.00002842
_symmetry_Int_Tables_number   1
_chemical_formula_structural   Mn(SbO3)2
_chemical_formula_sum   'Mn6 Sb12 O36'
_cell_volume   637.51613822
_cell_formula_units_Z   6
loop_
 _symmetry_equiv_pos_site_id
 _symmetry_equiv_pos_as_xyz
  1  'x, y, z'
loop_
 _atom_site_type_symbol
 _atom_site_label
 _atom_site_symmetry_multiplicity
 _atom_site_fract_x
 _atom_site_fract_y
 _atom_site_fract_z
 _atom_site_occupancy
  Mn  Mn0  1  0.63238895  0.50002267  0.00007616  1
  Mn  Mn1  1  0.00008007  0.00006985  0.63239006  1
  Mn  Mn2  1  0.99992406  0.49999454  0.63232926  1
  Mn  Mn3  1  0.36758768  0.00000559  0.36766533  1
  Mn  Mn4  1  0.36768581  0.49993164  0.36760569  1
  Mn  Mn5  1  0.63231077  -0.00002173  -0.00007998  1
  Sb  Sb6  1  -0.00000663  -0.00000370  0.00000602  1
  Sb  Sb7  1  -0.00000188  0.50001189  0.00000442  1
  Sb  Sb8  1  0.33336716  0.24669418  0.66666022  1
  Sb  Sb9  1  0.33329716  0.74661797  0.66665748  1
  Sb  Sb10  1  0.66670847  0.25330237  0.33334176  1
  Sb  Sb11  1  0.66664495  0.75338297  0.33333915  1
  Sb  Sb12  1  0.30502774  0.24999611  0.00000056  1
  Sb  Sb13  1  0.30497990  0.75000234  -0.00000013  1
  Sb  Sb14  1  0.69504922  0.24998716  0.69502499  1
  Sb  Sb15  1  0.69496683  0.74998189  0.69499353  1
  Sb  Sb16  1  0.00002535  0.25001214  0.30497526  1
  Sb  Sb17  1  -0.00002515  0.75001717  0.30500613  1
  O  O18  1  0.22392475  0.35967971  0.77878844  1
  O  O19  1  0.22389984  0.85964639  0.77878091  1
  O  O20  1  0.55492019  0.35968282  0.77611535  1
  O  O21  1  0.55483744  0.85963283  0.77610406  1
  O  O22  1  0.22124847  0.35968674  0.44510828  1
  O  O23  1  0.22117209  0.85967040  0.44515990  1
  O  O24  1  0.77613955  0.14031433  0.55489523  1
  O  O25  1  0.77601094  0.64033289  0.55483953  1
  O  O26  1  0.44513552  0.14031914  0.22121670  1
  O  O27  1  0.44511840  0.64035408  0.22121805  1
  O  O28  1  0.77880422  0.14031752  0.22388719  1
  O  O29  1  0.77872943  0.64037062  0.22389562  1
  O  O30  1  0.47118143  0.13493152  0.58797160  1
  O  O31  1  0.47110072  0.63491444  0.58790646  1
  O  O32  1  0.11683581  0.13494825  0.52883602  1
  O  O33  1  0.11674675  0.63489804  0.52882453  1
  O  O34  1  0.41204421  0.13493430  0.88316395  1
  O  O35  1  0.41202801  0.63490189  0.88319886  1
  O  O36  1  0.52888262  0.36506391  0.11683727  1
  O  O37  1  0.52882818  0.86510055  0.11680275  1
  O  O38  1  0.58800114  0.36505057  0.47116637  1
  O  O39  1  0.58792557  0.86510584  0.47117786  1
  O  O40  1  0.88321046  0.36506752  0.41203108  1
  O  O41  1  0.88319230  0.86508817  0.41209106  1
  O  O42  1  0.88997768  0.38190538  0.10356605  1
  O  O43  1  0.88997134  0.88194223  0.10359604  1
  O  O44  1  0.21362231  0.38192326  0.11002172  1
  O  O45  1  0.21360059  0.88191683  0.11003666  1
  O  O46  1  0.89646542  0.38189460  0.78639875  1
  O  O47  1  0.89641654  0.88188008  0.78640958  1
  O  O48  1  0.11006132  0.11810269  0.21359303  1
  O  O49  1  0.11000323  0.61811659  0.21358405  1
  O  O50  1  0.10359682  0.11807462  0.88997980  1
  O  O51  1  0.10356615  0.61808134  0.88996065  1
  O  O52  1  0.78641084  0.11809461  0.89643495  1
  O  O53  1  0.78637929  0.61805429  0.89640073  1
