# generated using pymatgen
data_Na4Y2Si3Sn2(SO8)3
_symmetry_space_group_name_H-M   'P 1'
_cell_length_a   9.18054144
_cell_length_b   9.15141775
_cell_length_c   23.49605491
_cell_angle_alpha   90.14631491
_cell_angle_beta   89.13116879
_cell_angle_gamma   119.67663540
_symmetry_Int_Tables_number   1
_chemical_formula_structural   Na4Y2Si3Sn2(SO8)3
_chemical_formula_sum   'Na12 Y6 Si9 Sn6 S9 O72'
_cell_volume   1714.86990822
_cell_formula_units_Z   3
loop_
 _symmetry_equiv_pos_site_id
 _symmetry_equiv_pos_as_xyz
  1  'x, y, z'
loop_
 _atom_site_type_symbol
 _atom_site_label
 _atom_site_symmetry_multiplicity
 _atom_site_fract_x
 _atom_site_fract_y
 _atom_site_fract_z
 _atom_site_occupancy
  Na  Na0  1  0.99192331  0.64450303  0.25206948  1
  Na  Na1  1  0.99348194  0.35142480  0.74129445  1
  Na  Na2  1  0.66107618  0.98060212  0.59007711  1
  Na  Na3  1  0.67241331  0.69711127  0.08099108  1
  Na  Na4  1  0.33901620  0.30839451  0.90344252  1
  Na  Na5  1  0.31918639  0.01933826  0.42053982  1
  Na  Na6  1  0.00918618  0.99582999  0.50691853  1
  Na  Na7  1  0.98058436  0.97177804  0.99822446  1
  Na  Na8  1  0.64975943  0.32319584  0.82273867  1
  Na  Na9  1  0.65777413  0.34312443  0.33327909  1
  Na  Na10  1  0.32503145  0.67733973  0.17260080  1
  Na  Na11  1  0.32412054  0.66567980  0.66389386  1
  Y  Y12  1  0.99566549  0.98903322  0.35219130  1
  Y  Y13  1  0.98734638  0.98939457  0.84922235  1
  Y  Y14  1  0.65366147  0.32649364  0.68530327  1
  Y  Y15  1  0.65987723  0.33132744  0.18805710  1
  Y  Y16  1  0.32805834  0.67145684  0.01803120  1
  Y  Y17  1  0.31315693  0.65638446  0.52169606  1
  Si  Si18  1  0.29781457  0.99359404  0.25412754  1
  Si  Si19  1  0.69057322  0.70410045  0.25092026  1
  Si  Si20  1  0.29526167  0.29920224  0.75652257  1
  Si  Si21  1  0.71090021  0.00103962  0.74674552  1
  Si  Si22  1  0.96012892  0.32590762  0.58728923  1
  Si  Si23  1  0.36956389  0.04523372  0.58042223  1
  Si  Si24  1  0.96634093  0.63858130  0.08764352  1
  Si  Si25  1  0.63132981  0.66217274  0.92235813  1
  Si  Si26  1  0.02791403  0.65324224  0.41637513  1
  Sn  Sn27  1  0.01927392  0.02837742  0.64876063  1
  Sn  Sn28  1  0.99449540  0.97352926  0.15752927  1
  Sn  Sn29  1  0.68457234  0.35716100  0.98379686  1
  Sn  Sn30  1  0.68126502  0.33781126  0.48838782  1
  Sn  Sn31  1  0.32996510  0.67050491  0.31617073  1
  Sn  Sn32  1  0.37297446  0.67392006  0.80950319  1
  S  S33  1  0.00818134  0.29409923  0.24820824  1
  S  S34  1  0.01168816  0.70753211  0.74970168  1
  S  S35  1  0.67766392  0.63734374  0.58215498  1
  S  S36  1  0.67735166  0.04479137  0.08144779  1
  S  S37  1  0.36194540  0.32229050  0.08247538  1
  S  S38  1  0.03600640  0.37580928  0.91635686  1
  S  S39  1  0.34309816  0.96891581  0.91593768  1
  S  S40  1  0.62213659  0.96537552  0.41763216  1
  S  S41  1  0.34325232  0.37783473  0.41539788  1
  O  O42  1  0.21774160  0.02226512  0.31107804  1
  O  O43  1  0.81956539  0.80143574  0.30050637  1
  O  O44  1  0.98754329  0.19743931  0.29950496  1
  O  O45  1  0.21758541  0.20112997  0.81624894  1
  O  O46  1  0.98846394  0.78343746  0.80191989  1
  O  O47  1  0.81572553  0.01690001  0.80283591  1
  O  O48  1  0.79514313  0.96599063  0.68857000  1
  O  O49  1  0.17010021  0.21157772  0.70150112  1
  O  O50  1  0.03500138  0.81163049  0.69844281  1
  O  O51  1  0.76344961  0.81435915  0.18846454  1
  O  O52  1  0.02905191  0.20966514  0.19535295  1
  O  O53  1  0.17347327  0.95605461  0.19671108  1
  O  O54  1  0.88109883  0.35379185  0.64472722  1
  O  O55  1  0.48884928  0.13562543  0.63288584  1
  O  O56  1  0.65096460  0.53474097  0.63271959  1
  O  O57  1  0.87607958  0.53140837  0.14355854  1
  O  O58  1  0.65113561  0.12211774  0.13189742  1
  O  O59  1  0.47179857  0.34586047  0.13058591  1
  O  O60  1  0.43718046  0.29438868  0.02814480  1
  O  O61  1  0.83964994  0.55410411  0.03022544  1
  O  O62  1  0.69232638  0.14522792  0.02796339  1
  O  O63  1  0.45239412  0.16027034  0.51904008  1
  O  O64  1  0.69947393  0.55558072  0.52902531  1
  O  O65  1  0.83630784  0.28862970  0.53069989  1
  O  O66  1  0.54432417  0.67251781  0.98127903  1
  O  O67  1  0.13697691  0.46228543  0.96657596  1
  O  O68  1  0.31983249  0.86817998  0.96747970  1
  O  O69  1  0.54996145  0.86595472  0.46910997  1
  O  O70  1  0.33031492  0.46031922  0.46608345  1
  O  O71  1  0.15747638  0.68890902  0.46605537  1
  O  O72  1  0.11238904  0.62405091  0.35486313  1
  O  O73  1  0.51623612  0.87944871  0.36609204  1
  O  O74  1  0.36445820  0.48118696  0.36248402  1
  O  O75  1  0.10879136  0.47566879  0.86386531  1
  O  O76  1  0.35860744  0.88404745  0.86410534  1
  O  O77  1  0.49946684  0.62160810  0.86774914  1
  O  O78  1  0.01688639  0.82608134  0.41325733  1
  O  O79  1  0.79457582  0.99815153  0.40961751  1
  O  O80  1  0.19063168  0.20876251  0.41130478  1
  O  O81  1  0.02643351  0.20957462  0.91433536  1
  O  O82  1  0.19793100  0.99773387  0.91330119  1
  O  O83  1  0.81803656  0.81949471  0.91714798  1
  O  O84  1  0.95610733  0.14082762  0.58701590  1
  O  O85  1  0.17716156  0.01707120  0.58913730  1
  O  O86  1  0.83127423  0.80496342  0.58588297  1
  O  O87  1  0.96794965  0.82539296  0.08853300  1
  O  O88  1  0.83251217  0.03093724  0.08476754  1
  O  O89  1  0.19145271  0.17569019  0.09006934  1
  O  O90  1  0.70075709  0.17263978  0.74625242  1
  O  O91  1  0.48632759  0.34198566  0.75053898  1
  O  O92  1  0.86440280  0.53718309  0.74532042  1
  O  O93  1  0.68739306  0.52518336  0.24555590  1
  O  O94  1  0.86169316  0.31962979  0.24266778  1
  O  O95  1  0.48549590  0.14563666  0.24556111  1
  O  O96  1  0.62920538  0.47353854  0.92246690  1
  O  O97  1  0.86032846  0.35059275  0.92354946  1
  O  O98  1  0.49942748  0.13953119  0.92111090  1
  O  O99  1  0.62235251  0.13058532  0.42006061  1
  O  O100  1  0.49271841  0.35214081  0.41693887  1
  O  O101  1  0.83788623  0.48284369  0.42434568  1
  O  O102  1  0.35364483  0.47989722  0.07760097  1
  O  O103  1  0.15230259  0.66468675  0.08042735  1
  O  O104  1  0.53247833  0.87085462  0.07686467  1
  O  O105  1  0.36892228  0.86764426  0.57517447  1
  O  O106  1  0.53214313  0.66362672  0.57556908  1
  O  O107  1  0.15035436  0.47757693  0.58147076  1
  O  O108  1  0.28980359  0.80695155  0.25572448  1
  O  O109  1  0.50099838  0.67958074  0.25953900  1
  O  O110  1  0.16099943  0.46500519  0.25042395  1
  O  O111  1  0.28350683  0.47897310  0.75740804  1
  O  O112  1  0.16426526  0.68707928  0.75578708  1
  O  O113  1  0.51768446  0.83336092  0.75048197  1
