# generated using pymatgen
data_Na14Ca5Si6Ge3(SO8)6
_symmetry_space_group_name_H-M   'P 1'
_cell_length_a   18.73091168
_cell_length_b   9.29142931
_cell_length_c   22.57686839
_cell_angle_alpha   90.48166444
_cell_angle_beta   88.98561350
_cell_angle_gamma   120.30880255
_symmetry_Int_Tables_number   1
_chemical_formula_structural   Na14Ca5Si6Ge3(SO8)6
_chemical_formula_sum   'Na42 Ca15 Si18 Ge9 S18 O144'
_cell_volume   3391.62482790
_cell_formula_units_Z   3
loop_
 _symmetry_equiv_pos_site_id
 _symmetry_equiv_pos_as_xyz
  1  'x, y, z'
loop_
 _atom_site_type_symbol
 _atom_site_label
 _atom_site_symmetry_multiplicity
 _atom_site_fract_x
 _atom_site_fract_y
 _atom_site_fract_z
 _atom_site_occupancy
  Na  Na0  1  0.19421838  0.36447726  0.24812988  1
  Na  Na1  1  0.68931498  0.35767316  0.24280010  1
  Na  Na2  1  0.99640328  0.63991688  0.25683827  1
  Na  Na3  1  0.49589314  0.63416070  0.24315041  1
  Na  Na4  1  0.32184045  0.63920063  0.74791022  1
  Na  Na5  1  0.82230000  0.64040173  0.73419102  1
  Na  Na6  1  0.18694839  0.02655673  0.74367174  1
  Na  Na7  1  0.68894120  0.02432684  0.74591269  1
  Na  Na8  1  0.15367211  0.32359104  0.57639750  1
  Na  Na9  1  0.66984810  0.35551474  0.57830911  1
  Na  Na10  1  0.00399703  0.69842428  0.58405369  1
  Na  Na11  1  0.50729326  0.69616271  0.58857742  1
  Na  Na12  1  0.32541780  0.97788770  0.59889743  1
  Na  Na13  1  0.82619352  0.97189966  0.59905058  1
  Na  Na14  1  0.15648762  0.97262361  0.07671781  1
  Na  Na15  1  0.64828958  0.95973246  0.06473115  1
  Na  Na16  1  0.82076109  0.66809266  0.09762422  1
  Na  Na17  1  0.01135793  0.31935342  0.08644255  1
  Na  Na18  1  0.51182891  0.34165924  0.09437539  1
  Na  Na19  1  0.48988688  0.66813776  0.92328061  1
  Na  Na20  1  0.99806122  0.68320155  0.91354922  1
  Na  Na21  1  0.84543417  0.03478365  0.90482572  1
  Na  Na22  1  0.16700702  0.28600254  0.90460697  1
  Na  Na23  1  0.65903802  0.26783368  0.91179763  1
  Na  Na24  1  0.49589552  0.31626515  0.41647324  1
  Na  Na25  1  0.98952070  0.30537495  0.42063626  1
  Na  Na26  1  0.16007382  0.05392028  0.41223618  1
  Na  Na27  1  0.66297316  0.05570530  0.41160541  1
  Na  Na28  1  0.35039601  0.65587855  0.40321686  1
  Na  Na29  1  0.84967997  0.66212777  0.41360495  1
  Na  Na30  1  0.00739770  0.99869826  0.50684453  1
  Na  Na31  1  0.52172832  0.02999760  0.50276475  1
  Na  Na32  1  0.00931862  0.00335754  0.00080265  1
  Na  Na33  1  0.49940123  0.99693979  0.00454406  1
  Na  Na34  1  0.34232764  0.29801071  0.83499405  1
  Na  Na35  1  0.82750986  0.31094194  0.82452115  1
  Na  Na36  1  0.32419401  0.32604595  0.32427904  1
  Na  Na37  1  0.81672159  0.31887977  0.32676691  1
  Na  Na38  1  0.18572089  0.66848871  0.16468645  1
  Na  Na39  1  0.65988347  0.65840872  0.16403965  1
  Na  Na40  1  0.15550984  0.66509917  0.66898489  1
  Na  Na41  1  0.66892632  0.67362464  0.66351496  1
  Ca  Ca42  1  0.00141300  0.00369332  0.34744846  1
  Ca  Ca43  1  0.50367145  0.00705711  0.34404650  1
  Ca  Ca44  1  0.00428405  0.00931285  0.84553927  1
  Ca  Ca45  1  0.49932363  0.00351305  0.85200558  1
  Ca  Ca46  1  0.33102388  0.32913320  0.68466340  1
  Ca  Ca47  1  0.83078843  0.33206376  0.68395048  1
  Ca  Ca48  1  0.33112344  0.32928658  0.18570154  1
  Ca  Ca49  1  0.82852711  0.31987860  0.18267565  1
  Ca  Ca50  1  0.81473983  0.30676047  0.98351705  1
  Ca  Ca51  1  0.31741266  0.32149072  0.48322965  1
  Ca  Ca52  1  0.82024935  0.34403845  0.48838187  1
  Ca  Ca53  1  0.16958611  0.65850650  0.01705243  1
  Ca  Ca54  1  0.66244551  0.65297426  0.01657474  1
  Ca  Ca55  1  0.16431287  0.67253485  0.51741071  1
  Ca  Ca56  1  0.66874013  0.67619173  0.51947329  1
  Si  Si57  1  0.15375414  0.97996159  0.25911471  1
  Si  Si58  1  0.65243982  0.97598166  0.25638549  1
  Si  Si59  1  0.35760262  0.71589985  0.25161976  1
  Si  Si60  1  0.85593091  0.71152038  0.25116512  1
  Si  Si61  1  0.14556663  0.31739732  0.75261559  1
  Si  Si62  1  0.65101515  0.32080428  0.76044754  1
  Si  Si63  1  0.35479628  0.00101485  0.75156719  1
  Si  Si64  1  0.85345486  0.00182046  0.75507746  1
  Si  Si65  1  0.17049322  0.02158675  0.58910267  1
  Si  Si66  1  0.66618219  0.02566319  0.59082013  1
  Si  Si67  1  0.84281724  0.66536162  0.58806859  1
  Si  Si68  1  0.47089635  0.61420751  0.08118605  1
  Si  Si69  1  0.17372987  0.31321042  0.09379337  1
  Si  Si70  1  0.66671732  0.30550084  0.09155482  1
  Si  Si71  1  0.17514990  0.96729095  0.92070167  1
  Si  Si72  1  0.66821454  0.95436957  0.91278771  1
  Si  Si73  1  0.16845557  0.38553828  0.41206359  1
  Si  Si74  1  0.66766880  0.38313690  0.41227199  1
  Ge  Ge75  1  0.00005490  0.01851891  0.65421291  1
  Ge  Ge76  1  0.51324852  0.04710315  0.66461755  1
  Ge  Ge77  1  0.01611651  0.98674234  0.16301854  1
  Ge  Ge78  1  0.51028874  0.93668185  0.15210412  1
  Ge  Ge79  1  0.31356021  0.30456314  0.99547232  1
  Ge  Ge80  1  0.19681626  0.69561682  0.30772751  1
  Ge  Ge81  1  0.68772726  0.67647214  0.30436655  1
  Ge  Ge82  1  0.18826281  0.70007775  0.80948655  1
  Ge  Ge83  1  0.68457278  0.69137862  0.80792076  1
  S  S84  1  0.00854203  0.30200885  0.24580937  1
  S  S85  1  0.50739418  0.31628527  0.25265180  1
  S  S86  1  0.00868798  0.70872046  0.75169459  1
  S  S87  1  0.50761350  0.71454292  0.74907422  1
  S  S88  1  0.48300878  0.32202519  0.58199696  1
  S  S89  1  0.98440302  0.32437923  0.58237215  1
  S  S90  1  0.33817450  0.65180224  0.58237673  1
  S  S91  1  0.98449597  0.64224733  0.08452305  1
  S  S92  1  0.33612667  0.04244873  0.07943609  1
  S  S93  1  0.84205570  0.02668344  0.07995675  1
  S  S94  1  0.31238058  0.65027247  0.91149608  1
  S  S95  1  0.81616757  0.66135608  0.91442776  1
  S  S96  1  0.01773556  0.37685396  0.91751195  1
  S  S97  1  0.51294940  0.37288007  0.91684828  1
  S  S98  1  0.31343576  0.96671890  0.41353442  1
  S  S99  1  0.81123065  0.96760918  0.41176168  1
  S  S100  1  0.01497986  0.65931615  0.41495572  1
  S  S101  1  0.51509253  0.66159403  0.41707199  1
  O  O102  1  0.11026332  0.00391066  0.31621506  1
  O  O103  1  0.61211885  0.00647564  0.31411593  1
  O  O104  1  0.39331515  0.78694785  0.31519713  1
  O  O105  1  0.89634323  0.78271898  0.31350897  1
  O  O106  1  0.50151747  0.23313643  0.30917080  1
  O  O107  1  0.99584449  0.21658348  0.30247508  1
  O  O108  1  0.11821139  0.20971443  0.81208166  1
  O  O109  1  0.61336514  0.20339972  0.81645464  1
  O  O110  1  0.49765287  0.77773122  0.80653539  1
  O  O111  1  0.99648049  0.77319869  0.80874774  1
  O  O112  1  0.39608790  0.98370288  0.80847248  1
  O  O113  1  0.89165290  0.99707894  0.81681568  1
  O  O114  1  0.40781276  0.98048179  0.68926191  1
  O  O115  1  0.90567783  0.97695827  0.69721895  1
  O  O116  1  0.07999924  0.21151218  0.69598487  1
  O  O117  1  0.58989926  0.23081712  0.69975299  1
  O  O118  1  0.01624735  0.81978213  0.70097050  1
  O  O119  1  0.51547005  0.83209536  0.69897085  1
  O  O120  1  0.41707588  0.84883878  0.19599801  1
  O  O121  1  0.91344993  0.84168515  0.19151036  1
  O  O122  1  0.01347896  0.19664539  0.19437566  1
  O  O123  1  0.51053890  0.22362201  0.20070294  1
  O  O124  1  0.08705436  0.93968690  0.19945852  1
  O  O125  1  0.58601819  0.92054862  0.19659107  1
  O  O126  1  0.43951971  0.34759677  0.63178384  1
  O  O127  1  0.93980491  0.34195448  0.63304832  1
  O  O128  1  0.23870671  0.10665176  0.64014199  1
  O  O129  1  0.72945541  0.10631788  0.64450830  1
  O  O130  1  0.33572196  0.55836033  0.63560949  1
  O  O131  1  0.83165944  0.54530017  0.64258878  1
  O  O132  1  0.44368574  0.51367643  0.14173506  1
  O  O133  1  0.94351789  0.54018178  0.13693919  1
  O  O134  1  0.32539464  0.11808766  0.13327167  1
  O  O135  1  0.83788210  0.11989971  0.13127617  1
  O  O136  1  0.22351518  0.33677099  0.15190484  1
  O  O137  1  0.73207782  0.35102865  0.14376129  1
  O  O138  1  0.21871255  0.27050579  0.03347108  1
  O  O139  1  0.69627800  0.25590217  0.02927040  1
  O  O140  1  0.40098579  0.50227813  0.02291371  1
  O  O141  1  0.93786021  0.56377105  0.02981181  1
  O  O142  1  0.34019717  0.14880858  0.02529448  1
  O  O143  1  0.84785799  0.11923402  0.02457460  1
  O  O144  1  0.20089673  0.12408796  0.52566334  1
  O  O145  1  0.69583302  0.13843190  0.52985666  1
  O  O146  1  0.34137937  0.56096509  0.52848851  1
  O  O147  1  0.86463838  0.59891861  0.52631210  1
  O  O148  1  0.43842141  0.30237730  0.52572083  1
  O  O149  1  0.94123476  0.30988432  0.52607612  1
  O  O150  1  0.26944432  0.66487050  0.96383686  1
  O  O151  1  0.77549448  0.67018557  0.96942397  1
  O  O152  1  0.05831087  0.44542235  0.97509636  1
  O  O153  1  0.55457405  0.44360020  0.97366531  1
  O  O154  1  0.15889331  0.86069788  0.97931508  1
  O  O155  1  0.67391772  0.86983458  0.97239813  1
  O  O156  1  0.27252155  0.87718483  0.46796697  1
  O  O157  1  0.77124969  0.88039909  0.46697564  1
  O  O158  1  0.16623442  0.46948794  0.47375867  1
  O  O159  1  0.66090026  0.46626890  0.47285750  1
  O  O160  1  0.06109323  0.67367463  0.46925944  1
  O  O161  1  0.55979059  0.67508498  0.47193940  1
  O  O162  1  0.06031527  0.65497260  0.36133119  1
  O  O163  1  0.55990583  0.65365673  0.36379684  1
  O  O164  1  0.25915085  0.87837494  0.35998232  1
  O  O165  1  0.75931324  0.87630492  0.35857073  1
  O  O166  1  0.17799567  0.52022620  0.35140990  1
  O  O167  1  0.67813880  0.51438786  0.35154206  1
  O  O168  1  0.06822126  0.48504240  0.86774935  1
  O  O169  1  0.56157953  0.48163876  0.86627371  1
  O  O170  1  0.18547169  0.86175608  0.85712639  1
  O  O171  1  0.67636175  0.84044367  0.85150481  1
  O  O172  1  0.26569556  0.64429790  0.85526779  1
  O  O173  1  0.76641709  0.65086511  0.86087219  1
  O  O174  1  0.00149642  0.80521944  0.41576218  1
  O  O175  1  0.50140266  0.80739290  0.41648822  1
  O  O176  1  0.39514824  0.98199942  0.40929554  1
  O  O177  1  0.89436615  0.98533237  0.40918607  1
  O  O178  1  0.08277652  0.20615854  0.41003810  1
  O  O179  1  0.58360708  0.19993404  0.41040198  1
  O  O180  1  0.00551658  0.20498357  0.91434796  1
  O  O181  1  0.50307238  0.20412869  0.91402579  1
  O  O182  1  0.09555082  0.99080076  0.91168666  1
  O  O183  1  0.58246384  0.95916772  0.91422686  1
  O  O184  1  0.39851810  0.78570217  0.91083566  1
  O  O185  1  0.90114025  0.80924655  0.91290897  1
  O  O186  1  0.48483512  0.16188061  0.58973538  1
  O  O187  1  0.98756360  0.16486838  0.58729933  1
  O  O188  1  0.08332556  0.03188110  0.60294260  1
  O  O189  1  0.57184685  0.02358026  0.60484161  1
  O  O190  1  0.41296246  0.81963356  0.58092771  1
  O  O191  1  0.92950905  0.85495041  0.59850072  1
  O  O192  1  0.47792659  0.80342324  0.08654716  1
  O  O193  1  0.98817635  0.80955164  0.08949234  1
  O  O194  1  0.41294046  0.04071345  0.07584136  1
  O  O195  1  0.91782030  0.01230299  0.08137765  1
  O  O196  1  0.07934866  0.12204682  0.10013460  1
  O  O197  1  0.57241848  0.12205373  0.10750497  1
  O  O198  1  0.33481092  0.14931542  0.74794766  1
  O  O199  1  0.83166336  0.14650887  0.74851597  1
  O  O200  1  0.23882514  0.35989098  0.73675310  1
  O  O201  1  0.74364357  0.35664006  0.74863020  1
  O  O202  1  0.43396279  0.55028129  0.73920057  1
  O  O203  1  0.93856143  0.53942868  0.74383281  1
  O  O204  1  0.34260934  0.52989671  0.24628522  1
  O  O205  1  0.84565409  0.52939422  0.24236206  1
  O  O206  1  0.43839323  0.35077418  0.25134701  1
  O  O207  1  0.94108524  0.33676320  0.23678977  1
  O  O208  1  0.24300222  0.13768037  0.24888383  1
  O  O209  1  0.74069735  0.13783439  0.24479860  1
  O  O210  1  0.31001065  0.48661614  0.91198854  1
  O  O211  1  0.82268544  0.50780147  0.91366774  1
  O  O212  1  0.43087262  0.36581011  0.91708503  1
  O  O213  1  0.93529062  0.36667387  0.91712941  1
  O  O214  1  0.26036661  0.16824949  0.92869086  1
  O  O215  1  0.75098585  0.13868831  0.90306226  1
  O  O216  1  0.32112905  0.13385245  0.41224188  1
  O  O217  1  0.81992747  0.13634109  0.41156217  1
  O  O218  1  0.25075703  0.36736943  0.40356437  1
  O  O219  1  0.75134139  0.36946478  0.40600054  1
  O  O220  1  0.43184039  0.50323440  0.41855734  1
  O  O221  1  0.93306467  0.49991286  0.41602561  1
  O  O222  1  0.15045385  0.45452160  0.08099766  1
  O  O223  1  0.65235469  0.46436142  0.08658770  1
  O  O224  1  0.07046658  0.67264629  0.08211229  1
  O  O225  1  0.56510467  0.66258053  0.06820474  1
  O  O226  1  0.26148618  0.87387284  0.07521473  1
  O  O227  1  0.76705696  0.85572669  0.08126389  1
  O  O228  1  0.14763981  0.82680768  0.58683799  1
  O  O229  1  0.64343615  0.83305956  0.58462098  1
  O  O230  1  0.26229998  0.66784467  0.58341853  1
  O  O231  1  0.76169691  0.68899084  0.58607762  1
  O  O232  1  0.07070989  0.46583974  0.58228626  1
  O  O233  1  0.56916040  0.46278494  0.58068151  1
  O  O234  1  0.15165073  0.79162966  0.26236198  1
  O  O235  1  0.65335960  0.79438648  0.26158049  1
  O  O236  1  0.26266485  0.69985351  0.24783276  1
  O  O237  1  0.76092792  0.69122398  0.24685057  1
  O  O238  1  0.08912650  0.46164587  0.24307571  1
  O  O239  1  0.58959429  0.48368081  0.25047463  1
  O  O240  1  0.15385233  0.51144527  0.76323847  1
  O  O241  1  0.65314840  0.50667731  0.76511008  1
  O  O242  1  0.09031701  0.71274464  0.75205127  1
  O  O243  1  0.58564777  0.70771050  0.74583184  1
  O  O244  1  0.25897919  0.82012440  0.74819795  1
  O  O245  1  0.75953667  0.81534233  0.75049022  1
