# generated using pymatgen
data_Nb2Si3Sn2(SO8)3
_symmetry_space_group_name_H-M   'P 1'
_cell_length_a   8.88951380
_cell_length_b   8.88311966
_cell_length_c   22.95183422
_cell_angle_alpha   90.15452374
_cell_angle_beta   90.21378895
_cell_angle_gamma   119.80988280
_symmetry_Int_Tables_number   1
_chemical_formula_structural   Nb2Si3Sn2(SO8)3
_chemical_formula_sum   'Nb6 Si9 Sn6 S9 O72'
_cell_volume   1572.57499531
_cell_formula_units_Z   3
loop_
 _symmetry_equiv_pos_site_id
 _symmetry_equiv_pos_as_xyz
  1  'x, y, z'
loop_
 _atom_site_type_symbol
 _atom_site_label
 _atom_site_symmetry_multiplicity
 _atom_site_fract_x
 _atom_site_fract_y
 _atom_site_fract_z
 _atom_site_occupancy
  Nb  Nb0  1  0.98673948  0.01046183  0.64260198  1
  Nb  Nb1  1  0.01181983  0.01618870  0.13748398  1
  Nb  Nb2  1  0.65674347  0.33859853  0.97505984  1
  Nb  Nb3  1  0.67556484  0.33029272  0.48171159  1
  Nb  Nb4  1  0.33495333  0.66988389  0.31002949  1
  Nb  Nb5  1  0.34238575  0.67922787  0.80433524  1
  Si  Si6  1  0.99316786  0.28634904  0.24903266  1
  Si  Si7  1  0.29173043  0.28614623  0.74909680  1
  Si  Si8  1  0.72176947  0.01134808  0.75160078  1
  Si  Si9  1  0.96189412  0.34528810  0.58544656  1
  Si  Si10  1  0.67158504  0.62031877  0.58500492  1
  Si  Si11  1  0.95477936  0.61944141  0.08268507  1
  Si  Si12  1  0.39143729  0.34738994  0.08349631  1
  Si  Si13  1  0.32662478  0.94928850  0.91599033  1
  Si  Si14  1  0.62004953  0.95457528  0.41778237  1
  Sn  Sn15  1  0.98952791  0.00546728  0.35478995  1
  Sn  Sn16  1  0.01425460  0.01108968  0.85178563  1
  Sn  Sn17  1  0.66738577  0.33597578  0.68912694  1
  Sn  Sn18  1  0.67743875  0.34203822  0.18491582  1
  Sn  Sn19  1  0.32041267  0.66392453  0.02094481  1
  Sn  Sn20  1  0.34691437  0.66923026  0.52493099  1
  S  S21  1  0.28706035  0.00202438  0.25024030  1
  S  S22  1  0.71239321  0.71113592  0.25013789  1
  S  S23  1  0.99872748  0.71272389  0.74993396  1
  S  S24  1  0.37620341  0.04510472  0.58317978  1
  S  S25  1  0.66372208  0.04411343  0.08234987  1
  S  S26  1  0.62229507  0.67252743  0.91572840  1
  S  S27  1  0.04272619  0.37640509  0.91596472  1
  S  S28  1  0.33362072  0.37728241  0.41569067  1
  S  S29  1  0.04633728  0.66999126  0.41551472  1
  O  O30  1  0.20943754  0.02710447  0.30409204  1
  O  O31  1  0.81989426  0.78428552  0.30372191  1
  O  O32  1  0.96944689  0.17351701  0.30668607  1
  O  O33  1  0.21364061  0.17463472  0.80752920  1
  O  O34  1  0.96870908  0.78561124  0.80395741  1
  O  O35  1  0.82703572  0.02623761  0.81063781  1
  O  O36  1  0.80301536  0.96598325  0.69360251  1
  O  O37  1  0.16215254  0.18925861  0.69280391  1
  O  O38  1  0.03395629  0.82179647  0.69848459  1
  O  O39  1  0.78812380  0.82020567  0.19898904  1
  O  O40  1  0.02651711  0.18947201  0.19309557  1
  O  O41  1  0.17521460  0.96762575  0.19830821  1
  O  O42  1  0.87001760  0.36874231  0.64092531  1
  O  O43  1  0.48580652  0.11702052  0.63489878  1
  O  O44  1  0.63354721  0.49838053  0.64019132  1
  O  O45  1  0.87735218  0.50724990  0.14112598  1
  O  O46  1  0.63163432  0.11502418  0.13656851  1
  O  O47  1  0.49250348  0.36080039  0.14359253  1
  O  O48  1  0.47500593  0.30244571  0.02649807  1
  O  O49  1  0.82768667  0.52362206  0.02607820  1
  O  O50  1  0.69977122  0.15619180  0.03148015  1
  O  O51  1  0.46065961  0.15675547  0.52992379  1
  O  O52  1  0.69249480  0.51990864  0.52548464  1
  O  O53  1  0.83175346  0.30130988  0.52603613  1
  O  O54  1  0.54597577  0.69664441  0.96984169  1
  O  O55  1  0.15136368  0.44848149  0.96978864  1
  O  O56  1  0.30693685  0.83970103  0.97451682  1
  O  O57  1  0.52459526  0.83177836  0.47209008  1
  O  O58  1  0.29445203  0.44965282  0.46724096  1
  O  O59  1  0.15199171  0.70033737  0.46775555  1
  O  O60  1  0.12891687  0.63951827  0.36256009  1
  O  O61  1  0.49403611  0.85275591  0.35949172  1
  O  O62  1  0.35665664  0.48874360  0.36309064  1
  O  O63  1  0.12223810  0.48591796  0.86525135  1
  O  O64  1  0.35834249  0.85299385  0.85993250  1
  O  O65  1  0.50963443  0.63559903  0.86432308  1
  O  O66  1  0.02943638  0.82638902  0.40478689  1
  O  O67  1  0.80798668  0.96998887  0.40953413  1
  O  O68  1  0.18227959  0.20001623  0.40698711  1
  O  O69  1  0.01817508  0.19983092  0.91077279  1
  O  O70  1  0.15871484  0.97286986  0.90897511  1
  O  O71  1  0.79732770  0.81968737  0.90875413  1
  O  O72  1  0.97513311  0.16767094  0.59020175  1
  O  O73  1  0.20523879  0.02958170  0.58915876  1
  O  O74  1  0.84941079  0.80775998  0.59367743  1
  O  O75  1  0.96786821  0.81091033  0.09736964  1
  O  O76  1  0.82330880  0.02753090  0.09166355  1
  O  O77  1  0.19703875  0.16823592  0.09274157  1
  O  O78  1  0.68951933  0.16911493  0.74075777  1
  O  O79  1  0.48286219  0.31708078  0.74089208  1
  O  O80  1  0.84983039  0.53781397  0.74456910  1
  O  O81  1  0.68383954  0.53377045  0.24471409  1
  O  O82  1  0.82338784  0.30648474  0.24153932  1
  O  O83  1  0.46153567  0.15120769  0.24269412  1
  O  O84  1  0.63757194  0.51033888  0.92334624  1
  O  O85  1  0.86934744  0.36080315  0.92611120  1
  O  O86  1  0.50523862  0.14258451  0.92838110  1
  O  O87  1  0.63389533  0.14451132  0.42610904  1
  O  O88  1  0.49031638  0.36360801  0.42205189  1
  O  O89  1  0.87251507  0.51420213  0.42167931  1
  O  O90  1  0.36383891  0.50810725  0.07113532  1
  O  O91  1  0.14671262  0.65038407  0.07608414  1
  O  O92  1  0.51756936  0.86829876  0.07497926  1
  O  O93  1  0.35543388  0.87136477  0.57378083  1
  O  O94  1  0.50648884  0.64562480  0.57608938  1
  O  O95  1  0.14364417  0.50978742  0.56906304  1
  O  O96  1  0.30230080  0.84107484  0.25891990  1
  O  O97  1  0.53591001  0.69423747  0.25994518  1
  O  O98  1  0.16845470  0.47936216  0.26319423  1
  O  O99  1  0.30198359  0.47598723  0.76358310  1
  O  O100  1  0.15671789  0.69317424  0.75861420  1
  O  O101  1  0.52838559  0.83146345  0.75995613  1
