# generated using pymatgen
data_NaZrAlSi(SO6)2
_symmetry_space_group_name_H-M   'P 1'
_cell_length_a   8.74795214
_cell_length_b   8.75309032
_cell_length_c   22.72776173
_cell_angle_alpha   89.28734347
_cell_angle_beta   90.00000000
_cell_angle_gamma   119.98058365
_symmetry_Int_Tables_number   1
_chemical_formula_structural   NaZrAlSi(SO6)2
_chemical_formula_sum   'Na6 Zr6 Al6 Si6 S12 O72'
_cell_volume   1507.28461948
_cell_formula_units_Z   6
loop_
 _symmetry_equiv_pos_site_id
 _symmetry_equiv_pos_as_xyz
  1  'x, y, z'
loop_
 _atom_site_type_symbol
 _atom_site_label
 _atom_site_symmetry_multiplicity
 _atom_site_fract_x
 _atom_site_fract_y
 _atom_site_fract_z
 _atom_site_occupancy
  Na  Na0  1  0.02246927  0.01712565  0.50567302  1
  Na  Na1  1  0.99465638  0.01712565  0.00567302  1
  Na  Na2  1  0.68196321  0.32800444  0.83741092  1
  Na  Na3  1  0.64604223  0.32800444  0.33741092  1
  Na  Na4  1  0.34534101  0.68960398  0.17093193  1
  Na  Na5  1  0.34426198  0.68960398  0.67093193  1
  Zr  Zr6  1  0.01740300  0.01066529  0.35601201  1
  Zr  Zr7  1  0.99326230  0.01066529  0.85601201  1
  Zr  Zr8  1  0.65674298  0.31130842  0.68850213  1
  Zr  Zr9  1  0.65456643  0.31130842  0.18850213  1
  Zr  Zr10  1  0.33471949  0.66543258  0.02188336  1
  Zr  Zr11  1  0.33071209  0.66543258  0.52188336  1
  Al  Al12  1  0.99400254  0.99259080  0.64849609  1
  Al  Al13  1  0.99858827  0.99259080  0.14849609  1
  Al  Al14  1  0.69619782  0.32442766  0.98044762  1
  Al  Al15  1  0.62823084  0.32442766  0.48044762  1
  Al  Al16  1  0.33967933  0.67027892  0.31283954  1
  Al  Al17  1  0.33059859  0.67027892  0.81283954  1
  Si  Si18  1  0.27617971  0.97521921  0.24720517  1
  Si  Si19  1  0.69903951  0.97521921  0.74720517  1
  Si  Si20  1  0.35619395  0.04396420  0.58303248  1
  Si  Si21  1  0.68777125  0.04396420  0.08303248  1
  Si  Si22  1  0.04530359  0.39416085  0.91341367  1
  Si  Si23  1  0.34885626  0.39416085  0.41341367  1
  S  S24  1  0.70745238  0.71710476  0.24924628  1
  S  S25  1  0.01376298  0.29675238  0.24826175  1
  S  S26  1  0.28298940  0.29675238  0.74826175  1
  S  S27  1  0.00965238  0.71710476  0.74924628  1
  S  S28  1  0.94502284  0.32003194  0.58105584  1
  S  S29  1  0.67931689  0.62645276  0.58177082  1
  S  S30  1  0.94713687  0.62645276  0.08177082  1
  S  S31  1  0.37501010  0.32003194  0.08105584  1
  S  S32  1  0.61710875  0.64946656  0.91606958  1
  S  S33  1  0.34724457  0.96465560  0.91488003  1
  S  S34  1  0.61741003  0.96465560  0.41488003  1
  S  S35  1  0.03235681  0.64946656  0.41606958  1
  O  O36  1  0.19446409  0.01394081  0.30632185  1
  O  O37  1  0.81037773  0.79607868  0.30286674  1
  O  O38  1  0.97316737  0.18603595  0.30256788  1
  O  O39  1  0.21286858  0.18603595  0.80256788  1
  O  O40  1  0.98570096  0.79607868  0.80286674  1
  O  O41  1  0.81947673  0.01394081  0.80632185  1
  O  O42  1  0.80519684  0.96158333  0.69061394  1
  O  O43  1  0.17784225  0.20715001  0.69638644  1
  O  O44  1  0.03419042  0.82632895  0.69600236  1
  O  O45  1  0.79213852  0.82632895  0.19600236  1
  O  O46  1  0.02930776  0.20715001  0.19638644  1
  O  O47  1  0.15638648  0.96158333  0.19061394  1
  O  O48  1  0.87234267  0.35411490  0.63529569  1
  O  O49  1  0.48302485  0.12789870  0.64087481  1
  O  O50  1  0.65312969  0.52178758  0.63578522  1
  O  O51  1  0.86865890  0.52178758  0.13578522  1
  O  O52  1  0.64487485  0.12789870  0.14087481  1
  O  O53  1  0.48177323  0.35411490  0.13529569  1
  O  O54  1  0.46587147  0.30725111  0.02870504  1
  O  O55  1  0.84071878  0.54004424  0.02889813  1
  O  O56  1  0.70791330  0.16617230  0.02573315  1
  O  O57  1  0.45826000  0.16617230  0.52573315  1
  O  O58  1  0.69932646  0.54004424  0.52889813  1
  O  O59  1  0.84138064  0.30725111  0.52870504  1
  O  O60  1  0.54594451  0.69124469  0.96924467  1
  O  O61  1  0.15922459  0.47491194  0.97314009  1
  O  O62  1  0.32010334  0.85787442  0.96915548  1
  O  O63  1  0.53777008  0.85787442  0.46915548  1
  O  O64  1  0.31568635  0.47491194  0.47314009  1
  O  O65  1  0.14529919  0.69124469  0.46924467  1
  O  O66  1  0.12169908  0.63643171  0.36331943  1
  O  O67  1  0.50856275  0.88324111  0.36244702  1
  O  O68  1  0.36323172  0.51412147  0.35658102  1
  O  O69  1  0.15088875  0.51412147  0.85658102  1
  O  O70  1  0.37467737  0.88324111  0.86244702  1
  O  O71  1  0.51473163  0.63643171  0.86331943  1
  O  O72  1  0.00038743  0.80256739  0.41122656  1
  O  O73  1  0.79191931  0.97659163  0.40958233  1
  O  O74  1  0.17162722  0.19331150  0.41150075  1
  O  O75  1  0.02168428  0.19331150  0.91150075  1
  O  O76  1  0.18467233  0.97659163  0.90958233  1
  O  O77  1  0.80217996  0.80256739  0.91122656  1
  O  O78  1  0.95948002  0.16017184  0.58864226  1
  O  O79  1  0.16560298  0.02766674  0.59619199  1
  O  O80  1  0.83670150  0.80310293  0.58668418  1
  O  O81  1  0.96640143  0.80310293  0.08668418  1
  O  O82  1  0.86206375  0.02766674  0.09619199  1
  O  O83  1  0.20069182  0.16017184  0.08864226  1
  O  O84  1  0.68309927  0.15664988  0.74552924  1
  O  O85  1  0.46728609  0.32784121  0.74353071  1
  O  O86  1  0.85002974  0.53978440  0.74366826  1
  O  O87  1  0.68975566  0.53978440  0.24366826  1
  O  O88  1  0.86055612  0.32784121  0.24353071  1
  O  O89  1  0.47355161  0.15664988  0.24552924  1
  O  O90  1  0.62452047  0.48672309  0.92558182  1
  O  O91  1  0.85006604  0.37304407  0.92156519  1
  O  O92  1  0.50162578  0.14361131  0.92243169  1
  O  O93  1  0.64198653  0.14361131  0.42243169  1
  O  O94  1  0.52297903  0.37304407  0.42156519  1
  O  O95  1  0.86220361  0.48672309  0.42558182  1
  O  O96  1  0.35017270  0.47718259  0.07741245  1
  O  O97  1  0.12739422  0.64678287  0.07740992  1
  O  O98  1  0.51010013  0.84799698  0.07805733  1
  O  O99  1  0.33789586  0.84799698  0.57805733  1
  O  O100  1  0.51938764  0.64678287  0.57740992  1
  O  O101  1  0.12700889  0.47718259  0.57741245  1
  O  O102  1  0.30233027  0.80610903  0.26015040  1
  O  O103  1  0.52979051  0.69879867  0.25486061  1
  O  O104  1  0.17539858  0.46860595  0.25490312  1
  O  O105  1  0.29320638  0.46860595  0.75490312  1
  O  O106  1  0.16900716  0.69879867  0.75486061  1
  O  O107  1  0.50377776  0.80610903  0.76015040  1
