# generated using pymatgen
data_Na2HfTiSi(PO6)2
_symmetry_space_group_name_H-M   'P 1'
_cell_length_a   8.88604661
_cell_length_b   8.87208824
_cell_length_c   22.46261324
_cell_angle_alpha   90.04308123
_cell_angle_beta   89.93020933
_cell_angle_gamma   119.79931336
_symmetry_Int_Tables_number   1
_chemical_formula_structural   Na2HfTiSi(PO6)2
_chemical_formula_sum   'Na12 Hf6 Ti6 Si6 P12 O72'
_cell_volume   1536.73763733
_cell_formula_units_Z   6
loop_
 _symmetry_equiv_pos_site_id
 _symmetry_equiv_pos_as_xyz
  1  'x, y, z'
loop_
 _atom_site_type_symbol
 _atom_site_label
 _atom_site_symmetry_multiplicity
 _atom_site_fract_x
 _atom_site_fract_y
 _atom_site_fract_z
 _atom_site_occupancy
  Na  Na0  1  0.00144088  0.63098574  0.25068954  1
  Na  Na1  1  0.36600483  0.00165834  0.74838617  1
  Na  Na2  1  0.66566570  0.96280669  0.58369955  1
  Na  Na3  1  0.02909632  0.33432628  0.08825398  1
  Na  Na4  1  0.97735252  0.67153355  0.92016369  1
  Na  Na5  1  0.33281785  0.03252556  0.41834469  1
  Na  Na6  1  0.00163400  0.99764119  0.50071039  1
  Na  Na7  1  0.00615005  0.99564755  0.00281337  1
  Na  Na8  1  0.66547430  0.32794924  0.83028106  1
  Na  Na9  1  0.67318193  0.33328213  0.33885534  1
  Na  Na10  1  0.35363560  0.67673267  0.16694550  1
  Na  Na11  1  0.32242539  0.64124755  0.66241483  1
  Hf  Hf12  1  0.99717973  0.00695290  0.85158245  1
  Hf  Hf13  1  0.66396230  0.32864634  0.18993128  1
  Hf  Hf14  1  0.65972897  0.32950606  0.98081941  1
  Hf  Hf15  1  0.33552930  0.67555096  0.02084457  1
  Hf  Hf16  1  0.33135481  0.65913200  0.31391774  1
  Hf  Hf17  1  0.34004439  0.66962275  0.80924602  1
  Ti  Ti18  1  0.99267212  0.00303673  0.35659605  1
  Ti  Ti19  1  0.00322066  0.99689688  0.64530566  1
  Ti  Ti20  1  0.00204066  0.99622384  0.14796120  1
  Ti  Ti21  1  0.67036379  0.33007455  0.68298843  1
  Ti  Ti22  1  0.66966780  0.34196617  0.48252377  1
  Ti  Ti23  1  0.32276077  0.66862966  0.51943862  1
  Si  Si24  1  0.00091514  0.28394012  0.24949591  1
  Si  Si25  1  0.71135062  0.00472662  0.74385187  1
  Si  Si26  1  0.37374070  0.04476714  0.58146860  1
  Si  Si27  1  0.95920876  0.63222580  0.08444208  1
  Si  Si28  1  0.33574625  0.96556858  0.91296370  1
  Si  Si29  1  0.03418516  0.66347074  0.41627232  1
  P  P30  1  0.28257664  0.00258340  0.25373305  1
  P  P31  1  0.71866352  0.72243021  0.25117350  1
  P  P32  1  0.29039614  0.28716419  0.74509851  1
  P  P33  1  0.98985435  0.70392162  0.74808612  1
  P  P34  1  0.95670052  0.33559047  0.58227791  1
  P  P35  1  0.66517156  0.62008070  0.58415377  1
  P  P36  1  0.67180157  0.03975561  0.08543706  1
  P  P37  1  0.36916526  0.32729909  0.08569596  1
  P  P38  1  0.62474643  0.66624668  0.91589957  1
  P  P39  1  0.04467864  0.37642174  0.91809498  1
  P  P40  1  0.62432549  0.95713790  0.41982427  1
  P  P41  1  0.33358107  0.37682301  0.41984656  1
  O  O42  1  0.19680281  0.01624947  0.31146225  1
  O  O43  1  0.83170256  0.80562916  0.30702157  1
  O  O44  1  0.98617863  0.16392419  0.30759920  1
  O  O45  1  0.21102826  0.17312840  0.80157055  1
  O  O46  1  0.97121643  0.78665006  0.80653395  1
  O  O47  1  0.82461717  0.03046629  0.80334665  1
  O  O48  1  0.80993269  0.98371291  0.68550822  1
  O  O49  1  0.17411871  0.19035980  0.69131081  1
  O  O50  1  0.02271647  0.83129810  0.69560554  1
  O  O51  1  0.80881940  0.82788445  0.19481310  1
  O  O52  1  0.01699148  0.19217369  0.18870256  1
  O  O53  1  0.16717869  0.97536602  0.19843768  1
  O  O54  1  0.87124873  0.36308751  0.63854726  1
  O  O55  1  0.50315238  0.13709355  0.63914578  1
  O  O56  1  0.64470193  0.50692510  0.63874279  1
  O  O57  1  0.86420369  0.50574587  0.14209783  1
  O  O58  1  0.64360113  0.12607223  0.14081722  1
  O  O59  1  0.47983808  0.34863318  0.14083276  1
  O  O60  1  0.45667712  0.30352921  0.02996376  1
  O  O61  1  0.84853860  0.54444135  0.02378012  1
  O  O62  1  0.69707191  0.15618645  0.03072003  1
  O  O63  1  0.46970491  0.16282465  0.52274602  1
  O  O64  1  0.69054287  0.53054476  0.52832906  1
  O  O65  1  0.83458961  0.30614096  0.52879378  1
  O  O66  1  0.53624581  0.68300632  0.97188198  1
  O  O67  1  0.14720345  0.45698282  0.97605116  1
  O  O68  1  0.30650006  0.83746045  0.96978069  1
  O  O69  1  0.54105308  0.84686651  0.47643895  1
  O  O70  1  0.31306981  0.47303866  0.47339948  1
  O  O71  1  0.17320246  0.69583773  0.47155819  1
  O  O72  1  0.11959015  0.63387080  0.35582919  1
  O  O73  1  0.50422020  0.86804943  0.36568279  1
  O  O74  1  0.36193844  0.48537862  0.36255286  1
  O  O75  1  0.13883469  0.49318235  0.86417293  1
  O  O76  1  0.35305007  0.87226877  0.85225663  1
  O  O77  1  0.51575030  0.64513903  0.85998442  1
  O  O78  1  0.02881751  0.84513343  0.41237412  1
  O  O79  1  0.80573225  0.97574430  0.41154134  1
  O  O80  1  0.17076158  0.19325088  0.41387819  1
  O  O81  1  0.02148487  0.19410582  0.91218494  1
  O  O82  1  0.15630684  0.97371725  0.91083495  1
  O  O83  1  0.80755881  0.82848896  0.91091185  1
  O  O84  1  0.96825575  0.16763657  0.58701116  1
  O  O85  1  0.18085976  0.02073183  0.58999147  1
  O  O86  1  0.82886299  0.80398015  0.58867585  1
  O  O87  1  0.98369858  0.82551360  0.09266940  1
  O  O88  1  0.83950911  0.03015478  0.09012055  1
  O  O89  1  0.18565460  0.16719529  0.09031887  1
  O  O90  1  0.68535238  0.17615791  0.73896775  1
  O  O91  1  0.47114671  0.30442459  0.73862355  1
  O  O92  1  0.82849226  0.52667084  0.73999695  1
  O  O93  1  0.70111766  0.53940110  0.24649168  1
  O  O94  1  0.82975232  0.30982219  0.24977020  1
  O  O95  1  0.46133839  0.16615225  0.24805162  1
  O  O96  1  0.65270749  0.50777529  0.91961983  1
  O  O97  1  0.86611463  0.36629740  0.92208173  1
  O  O98  1  0.50676355  0.15447507  0.91931553  1
  O  O99  1  0.63851329  0.13790501  0.42460264  1
  O  O100  1  0.49287416  0.35009173  0.42518315  1
  O  O101  1  0.84469542  0.49386146  0.42754855  1
  O  O102  1  0.34680564  0.48876743  0.08029751  1
  O  O103  1  0.14891235  0.64189130  0.08140821  1
  O  O104  1  0.51441705  0.85713763  0.07960655  1
  O  O105  1  0.36376949  0.85325976  0.57480544  1
  O  O106  1  0.50450309  0.64266130  0.57818749  1
  O  O107  1  0.13771501  0.49772848  0.57513194  1
  O  O108  1  0.30103266  0.83700238  0.25582262  1
  O  O109  1  0.53945090  0.70810258  0.25548022  1
  O  O110  1  0.17237870  0.47960581  0.25262637  1
  O  O111  1  0.30274420  0.46519824  0.75066443  1
  O  O112  1  0.15659679  0.68836466  0.75131071  1
  O  O113  1  0.51455795  0.83441492  0.74734581  1
