# generated using pymatgen
data_Pr2MgV4O12
_symmetry_space_group_name_H-M   'P 1'
_cell_length_a   5.36417652
_cell_length_b   5.49990547
_cell_length_c   7.58826963
_cell_angle_alpha   90.05050656
_cell_angle_beta   90.72365534
_cell_angle_gamma   90.63128911
_symmetry_Int_Tables_number   1
_chemical_formula_structural   Pr2MgV4O12
_chemical_formula_sum   'Pr2 Mg1 V4 O12'
_cell_volume   223.84108993
_cell_formula_units_Z   1
loop_
 _symmetry_equiv_pos_site_id
 _symmetry_equiv_pos_as_xyz
  1  'x, y, z'
loop_
 _atom_site_type_symbol
 _atom_site_label
 _atom_site_symmetry_multiplicity
 _atom_site_fract_x
 _atom_site_fract_y
 _atom_site_fract_z
 _atom_site_occupancy
  Pr  Pr0  1  0.00864500  0.95950600  0.75030700  1
  Pr  Pr1  1  0.51310600  0.54281200  0.24467700  1
  Mg  Mg2  1  0.98142200  0.05571700  0.25618700  1
  V  V3  1  0.00070400  0.49852200  0.99186500  1
  V  V4  1  0.01317200  0.49561600  0.50042000  1
  V  V5  1  0.50192800  0.01231000  0.50279600  1
  V  V6  1  0.49072800  0.00835400  0.99992000  1
  O  O7  1  0.07898000  0.45913100  0.24467100  1
  O  O8  1  0.23119300  0.21467700  0.96287800  1
  O  O9  1  0.19927000  0.19920200  0.53168600  1
  O  O10  1  0.27294100  0.70580600  0.53220100  1
  O  O11  1  0.28193300  0.72309200  0.96585300  1
  O  O12  1  0.38997000  0.98694600  0.25483100  1
  O  O13  1  0.56797900  0.00394800  0.74134900  1
  O  O14  1  0.73598500  0.26310800  0.05910800  1
  O  O15  1  0.72347800  0.28756100  0.45215900  1
  O  O16  1  0.79102200  0.79500000  0.05210000  1
  O  O17  1  0.79743400  0.80721600  0.44120600  1
  O  O18  1  0.92847400  0.50528900  0.75685800  1
