# generated using pymatgen
data_Na30Mg8Nb16Si27(SO16)9
_symmetry_space_group_name_H-M   'P 1'
_cell_length_a   18.07925994
_cell_length_b   9.04393194
_cell_length_c   22.56123259
_cell_angle_alpha   89.94311595
_cell_angle_beta   90.07573230
_cell_angle_gamma   120.09088554
_symmetry_Int_Tables_number   1
_chemical_formula_structural   Na30Mg8Nb16Si27(SO16)9
_chemical_formula_sum   'Na30 Mg8 Nb16 Si27 S9 O144'
_cell_volume   3191.77678948
_cell_formula_units_Z   1
loop_
 _symmetry_equiv_pos_site_id
 _symmetry_equiv_pos_as_xyz
  1  'x, y, z'
loop_
 _atom_site_type_symbol
 _atom_site_label
 _atom_site_symmetry_multiplicity
 _atom_site_fract_x
 _atom_site_fract_y
 _atom_site_fract_z
 _atom_site_occupancy
  Na  Na0  1  0.18273120  0.00574651  0.74114563  1
  Na  Na1  1  0.65695893  0.33825681  0.58916748  1
  Na  Na2  1  0.01183633  0.67700414  0.58895768  1
  Na  Na3  1  0.50993473  0.67195420  0.58881660  1
  Na  Na4  1  0.65668419  0.97512779  0.08789381  1
  Na  Na5  1  0.50838619  0.34796647  0.08828960  1
  Na  Na6  1  0.48132023  0.68227691  0.90835390  1
  Na  Na7  1  0.98366643  0.68497431  0.90940415  1
  Na  Na8  1  0.35609789  0.03383818  0.91626626  1
  Na  Na9  1  0.85621884  0.03445017  0.91319863  1
  Na  Na10  1  0.15991638  0.28809252  0.91593556  1
  Na  Na11  1  0.66038122  0.28721903  0.91320575  1
  Na  Na12  1  0.48244480  0.28235758  0.40649135  1
  Na  Na13  1  0.98314561  0.28626472  0.41525182  1
  Na  Na14  1  0.16008538  0.03512640  0.41494445  1
  Na  Na15  1  0.65979245  0.03272117  0.41271421  1
  Na  Na16  1  0.35769077  0.67831332  0.41412669  1
  Na  Na17  1  0.85623659  0.67934025  0.41352367  1
  Na  Na18  1  0.99955441  0.01191822  0.49436136  1
  Na  Na19  1  0.49511012  0.00252678  0.49240088  1
  Na  Na20  1  0.00077575  0.99942259  0.99089168  1
  Na  Na21  1  0.49394484  0.98608694  0.99159766  1
  Na  Na22  1  0.34558218  0.36244547  0.82615897  1
  Na  Na23  1  0.83826971  0.34599368  0.82185406  1
  Na  Na24  1  0.33967953  0.33140249  0.32125275  1
  Na  Na25  1  0.83227521  0.33284878  0.32531094  1
  Na  Na26  1  0.16663631  0.66658436  0.16076578  1
  Na  Na27  1  0.67168792  0.66438222  0.16753934  1
  Na  Na28  1  0.16947432  0.65079343  0.66576077  1
  Na  Na29  1  0.67233671  0.67952031  0.66936937  1
  Mg  Mg30  1  0.99942667  0.99983420  0.35355291  1
  Mg  Mg31  1  0.50000257  0.00604873  0.35299852  1
  Mg  Mg32  1  0.99794610  0.99127807  0.85394110  1
  Mg  Mg33  1  0.49948813  0.99290566  0.85395754  1
  Mg  Mg34  1  0.34086444  0.34863627  0.68320923  1
  Mg  Mg35  1  0.83803889  0.34298554  0.68405483  1
  Mg  Mg36  1  0.33915661  0.33333342  0.18315657  1
  Mg  Mg37  1  0.83303021  0.33322046  0.18056578  1
  Nb  Nb38  1  0.00115170  0.99384947  0.64322784  1
  Nb  Nb39  1  0.49949588  0.98641852  0.64424719  1
  Nb  Nb40  1  0.00164900  0.99806138  0.13940532  1
  Nb  Nb41  1  0.49750620  0.01156059  0.14331620  1
  Nb  Nb42  1  0.33327108  0.33720760  0.98171715  1
  Nb  Nb43  1  0.83478992  0.33643860  0.98153160  1
  Nb  Nb44  1  0.33438607  0.33187454  0.48164751  1
  Nb  Nb45  1  0.83444584  0.33160927  0.48113429  1
  Nb  Nb46  1  0.16590948  0.66197080  0.02264926  1
  Nb  Nb47  1  0.66895879  0.66761429  0.02100223  1
  Nb  Nb48  1  0.16730513  0.66688284  0.52234373  1
  Nb  Nb49  1  0.66889932  0.67240969  0.52041389  1
  Nb  Nb50  1  0.16683969  0.66744552  0.31423268  1
  Nb  Nb51  1  0.66202363  0.65486472  0.31261156  1
  Nb  Nb52  1  0.16135063  0.66598827  0.81490032  1
  Nb  Nb53  1  0.66239470  0.66908463  0.81345981  1
  Si  Si54  1  0.49462117  0.29168571  0.25483666  1
  Si  Si55  1  0.99587558  0.69902420  0.75429225  1
  Si  Si56  1  0.49579133  0.69782051  0.75533087  1
  Si  Si57  1  0.47888559  0.32985852  0.58481251  1
  Si  Si58  1  0.97745059  0.33051305  0.58590374  1
  Si  Si59  1  0.19219749  0.04651712  0.58879401  1
  Si  Si60  1  0.69308755  0.04504402  0.58760320  1
  Si  Si61  1  0.32915187  0.61601389  0.58569448  1
  Si  Si62  1  0.83123921  0.61918759  0.58524599  1
  Si  Si63  1  0.47836799  0.62670197  0.08546666  1
  Si  Si64  1  0.97803981  0.61482374  0.08730592  1
  Si  Si65  1  0.32760628  0.04164822  0.08559396  1
  Si  Si66  1  0.83341967  0.04718927  0.08626630  1
  Si  Si67  1  0.19435141  0.33989007  0.08848800  1
  Si  Si68  1  0.69128856  0.34029911  0.08669515  1
  Si  Si69  1  0.30998495  0.66539362  0.91576013  1
  Si  Si70  1  0.81058057  0.66403542  0.91449809  1
  Si  Si71  1  0.01954568  0.37326326  0.91729699  1
  Si  Si72  1  0.51984701  0.37527070  0.91706931  1
  Si  Si73  1  0.16810422  0.96068127  0.91792119  1
  Si  Si74  1  0.66827344  0.96163515  0.91773821  1
  Si  Si75  1  0.31157083  0.95817541  0.41678349  1
  Si  Si76  1  0.81071408  0.95770603  0.41328422  1
  Si  Si77  1  0.16771350  0.37727194  0.41649017  1
  Si  Si78  1  0.66814715  0.37554184  0.41781450  1
  Si  Si79  1  0.02037632  0.66580775  0.41685552  1
  Si  Si80  1  0.52004243  0.66481712  0.41635478  1
  S  S81  1  0.14374538  -0.00199250  0.25205079  1
  S  S82  1  0.64751231  0.00157683  0.25137102  1
  S  S83  1  0.35359676  0.70970679  0.25186779  1
  S  S84  1  0.85620676  0.71072085  0.25182807  1
  S  S85  1  0.99995104  0.29012987  0.25171062  1
  S  S86  1  0.14426824  0.29134800  0.75162374  1
  S  S87  1  0.64523662  0.29111604  0.75123537  1
  S  S88  1  0.35519402  0.99905459  0.75165095  1
  S  S89  1  0.85553018  -0.00104145  0.75151869  1
  O  O90  1  0.10126551  0.00691466  0.30700299  1
  O  O91  1  0.60368826  0.00970481  0.30537893  1
  O  O92  1  0.40062222  0.78990679  0.30712448  1
  O  O93  1  0.90377224  0.79363612  0.30684460  1
  O  O94  1  0.49316007  0.19140918  0.31356706  1
  O  O95  1  0.99460974  0.19716941  0.30708678  1
  O  O96  1  0.10202265  0.19543064  0.80587267  1
  O  O97  1  0.60089137  0.19561575  0.80498441  1
  O  O98  1  0.49315850  0.79513302  0.81344357  1
  O  O99  1  0.99730336  0.79970006  0.81285141  1
  O  O100  1  0.40258002  0.01489065  0.80633700  1
  O  O101  1  0.90279918  0.01505006  0.80672077  1
  O  O102  1  0.40196642  0.98664074  0.69833409  1
  O  O103  1  0.90279436  0.98254490  0.69892737  1
  O  O104  1  0.09011845  0.20393432  0.69790324  1
  O  O105  1  0.59179494  0.20509506  0.69624263  1
  O  O106  1  0.01153776  0.83174101  0.69452546  1
  O  O107  1  0.50733025  0.82542620  0.69437783  1
  O  O108  1  0.39967054  0.82017549  0.19921014  1
  O  O109  1  0.90206699  0.81946439  0.19912123  1
  O  O110  1  0.01000375  0.20115077  0.19935129  1
  O  O111  1  0.50679388  0.18850915  0.19448445  1
  O  O112  1  0.08816165  0.97668136  0.19945335  1
  O  O113  1  0.59540356  0.98221246  0.19669225  1
  O  O114  1  0.44163476  0.38673688  0.63737650  1
  O  O115  1  0.94162529  0.39121018  0.63823493  1
  O  O116  1  0.24219817  0.11902334  0.64887861  1
  O  O117  1  0.74833476  0.12931343  0.64387462  1
  O  O118  1  0.31259022  0.50582283  0.64266335  1
  O  O119  1  0.80477597  0.49322425  0.63929302  1
  O  O120  1  0.44283844  0.49625609  0.13839023  1
  O  O121  1  0.93944003  0.50669277  0.14487514  1
  O  O122  1  0.31459394  0.12046262  0.14334023  1
  O  O123  1  0.80615902  0.11678636  0.14104486  1
  O  O124  1  0.24959552  0.36951749  0.14516499  1
  O  O125  1  0.74478371  0.36768028  0.14424514  1
  O  O126  1  0.23388932  0.30248074  0.02589859  1
  O  O127  1  0.73220377  0.29983783  0.02594429  1
  O  O128  1  0.41947602  0.53895387  0.02376359  1
  O  O129  1  0.91806474  0.53326624  0.02585019  1
  O  O130  1  0.35120070  0.16651699  0.02483045  1
  O  O131  1  0.84979609  0.16396028  0.02486634  1
  O  O132  1  0.23701196  0.16631803  0.52819774  1
  O  O133  1  0.73368896  0.16619037  0.52586423  1
  O  O134  1  0.35137393  0.53683664  0.52475266  1
  O  O135  1  0.85208069  0.53775717  0.52423008  1
  O  O136  1  0.41970722  0.30104201  0.52318297  1
  O  O137  1  0.91895014  0.30031786  0.52339249  1
  O  O138  1  0.25978492  0.68670616  0.97171720  1
  O  O139  1  0.75912523  0.68384029  0.97143469  1
  O  O140  1  0.08253246  0.46878373  0.97244010  1
  O  O141  1  0.57940467  0.46917587  0.97503027  1
  O  O142  1  0.15386876  0.82862388  0.97098626  1
  O  O143  1  0.65584315  0.83949818  0.97469356  1
  O  O144  1  0.25906740  0.83347520  0.47176678  1
  O  O145  1  0.76148177  0.83507408  0.47084707  1
  O  O146  1  0.15284625  0.47606653  0.47138531  1
  O  O147  1  0.65595571  0.47335873  0.47466585  1
  O  O148  1  0.07951964  0.69330818  0.47470445  1
  O  O149  1  0.57960614  0.69101274  0.47455961  1
  O  O150  1  0.07043900  0.63315763  0.35964200  1
  O  O151  1  0.56846092  0.62938346  0.35978423  1
  O  O152  1  0.24735880  0.86168620  0.35811082  1
  O  O153  1  0.74660320  0.86449833  0.35689327  1
  O  O154  1  0.18440818  0.50754022  0.35823244  1
  O  O155  1  0.68460640  0.50645157  0.36072762  1
  O  O156  1  0.06612117  0.50503655  0.85872171  1
  O  O157  1  0.56865882  0.50727583  0.85986112  1
  O  O158  1  0.18386424  0.86837261  0.85721019  1
  O  O159  1  0.68446201  0.86278490  0.86053068  1
  O  O160  1  0.24594287  0.63249880  0.85766968  1
  O  O161  1  0.74684129  0.62993650  0.85733702  1
  O  O162  1  0.01006563  0.83116122  0.41008694  1
  O  O163  1  0.51032196  0.83061400  0.40990159  1
  O  O164  1  0.40337102  0.97308250  0.41399442  1
  O  O165  1  0.90465823  0.97981246  0.41062922  1
  O  O166  1  0.08473677  0.19101783  0.41011349  1
  O  O167  1  0.58653160  0.18710657  0.41503125  1
  O  O168  1  0.00897530  0.18781792  0.90961181  1
  O  O169  1  0.51057867  0.19038051  0.91035230  1
  O  O170  1  0.08722602  0.98816662  0.91408214  1
  O  O171  1  0.58641308  0.98562457  0.91487363  1
  O  O172  1  0.40304051  0.83328684  0.91335533  1
  O  O173  1  0.90315872  0.83294831  0.91405484  1
  O  O174  1  0.49419476  0.16606570  0.59185290  1
  O  O175  1  0.98830962  0.16136012  0.59293180  1
  O  O176  1  0.09337053  0.02392599  0.59153775  1
  O  O177  1  0.59480979  0.02650458  0.59187976  1
  O  O178  1  0.41943569  0.81021726  0.59073010  1
  O  O179  1  0.91971114  0.80912459  0.59134689  1
  O  O180  1  0.49358158  0.82141336  0.09325206  1
  O  O181  1  0.98878004  0.81267172  0.09333322  1
  O  O182  1  0.41869261  0.02768952  0.09059558  1
  O  O183  1  0.91890952  0.02434610  0.09441562  1
  O  O184  1  0.09519596  0.16278544  0.09513893  1
  O  O185  1  0.59310109  0.16148442  0.09131997  1
  O  O186  1  0.33973070  0.14338788  0.74664039  1
  O  O187  1  0.84267030  0.14464408  0.74507633  1
  O  O188  1  0.22797333  0.30220430  0.74684947  1
  O  O189  1  0.72931115  0.30726715  0.74680075  1
  O  O190  1  0.41633280  0.50976808  0.74831528  1
  O  O191  1  0.91614151  0.51202851  0.74781534  1
  O  O192  1  0.34014406  0.53846892  0.24613289  1
  O  O193  1  0.84469320  0.53883245  0.24783022  1
  O  O194  1  0.41611706  0.32304413  0.24844615  1
  O  O195  1  0.92507290  0.31156456  0.24736102  1
  O  O196  1  0.22828388  0.14593676  0.24752248  1
  O  O197  1  0.73319984  0.15330451  0.24825037  1
  O  O198  1  0.31517291  0.48846921  0.92061612  1
  O  O199  1  0.81606110  0.48850192  0.92200900  1
  O  O200  1  0.42762979  0.36853391  0.92082399  1
  O  O201  1  0.92760760  0.36780500  0.92165346  1
  O  O202  1  0.25781546  0.14475886  0.92167454  1
  O  O203  1  0.75765052  0.14556597  0.92126125  1
  O  O204  1  0.31442461  0.14219378  0.42083604  1
  O  O205  1  0.81574808  0.14397113  0.42120011  1
  O  O206  1  0.25588261  0.36892445  0.42204022  1
  O  O207  1  0.75773827  0.37026304  0.42124381  1
  O  O208  1  0.42735494  0.48748264  0.42113639  1
  O  O209  1  0.92812253  0.48652326  0.41969305  1
  O  O210  1  0.17387789  0.49358838  0.07469409  1
  O  O211  1  0.66758095  0.49161380  0.07627358  1
  O  O212  1  0.07428979  0.65170213  0.07368206  1
  O  O213  1  0.57611353  0.65852411  0.07306358  1
  O  O214  1  0.25117459  0.84753999  0.07354155  1
  O  O215  1  0.75163346  0.85404010  0.07331519  1
  O  O216  1  0.16937138  0.84818602  0.57601078  1
  O  O217  1  0.66878157  0.84614760  0.57602263  1
  O  O218  1  0.25170332  0.65565434  0.57362246  1
  O  O219  1  0.75073107  0.65055154  0.57295688  1
  O  O220  1  0.07312540  0.49663083  0.57204155  1
  O  O221  1  0.57616868  0.49555576  0.57265547  1
  O  O222  1  0.14893446  0.83362431  0.25366725  1
  O  O223  1  0.65393522  0.84011898  0.25282333  1
  O  O224  1  0.26672218  0.70254686  0.25337276  1
  O  O225  1  0.77002259  0.70146565  0.25294254  1
  O  O226  1  0.08168187  0.46600686  0.25371605  1
  O  O227  1  0.59000292  0.48535265  0.25477234  1
  O  O228  1  0.15348859  0.46625203  0.75257504  1
  O  O229  1  0.65192649  0.46530264  0.75192078  1
  O  O230  1  0.09262569  0.70067719  0.75290429  1
  O  O231  1  0.59030312  0.69503541  0.75440673  1
  O  O232  1  0.26865017  0.83553457  0.75151462  1
  O  O233  1  0.77004163  0.83346246  0.75229686  1
