# generated using pymatgen
data_NaYZrP2SO12
_symmetry_space_group_name_H-M   'P 1'
_cell_length_a   9.02967728
_cell_length_b   9.04617058
_cell_length_c   23.87603626
_cell_angle_alpha   89.62668517
_cell_angle_beta   90.00000000
_cell_angle_gamma   119.93970615
_symmetry_Int_Tables_number   1
_chemical_formula_structural   NaYZrP2SO12
_chemical_formula_sum   'Na6 Y6 Zr6 P12 S6 O72'
_cell_volume   1689.97829351
_cell_formula_units_Z   6
loop_
 _symmetry_equiv_pos_site_id
 _symmetry_equiv_pos_as_xyz
  1  'x, y, z'
loop_
 _atom_site_type_symbol
 _atom_site_label
 _atom_site_symmetry_multiplicity
 _atom_site_fract_x
 _atom_site_fract_y
 _atom_site_fract_z
 _atom_site_occupancy
  Na  Na0  1  0.98814860  0.99326287  0.50106139  1
  Na  Na1  1  0.00511428  0.99326287  0.00106139  1
  Na  Na2  1  0.65481560  0.32659587  0.83439439  1
  Na  Na3  1  0.67178128  0.32659587  0.33439439  1
  Na  Na4  1  0.32148160  0.65992987  0.16772839  1
  Na  Na5  1  0.33844728  0.65992987  0.66772839  1
  Y  Y6  1  0.99369881  0.00497871  0.64765180  1
  Y  Y7  1  0.01127990  0.00497871  0.14765180  1
  Y  Y8  1  0.66036581  0.33831171  0.98098480  1
  Y  Y9  1  0.67794690  0.33831171  0.48098480  1
  Y  Y10  1  0.32703181  0.67164571  0.31431880  1
  Y  Y11  1  0.34461290  0.67164571  0.81431880  1
  Zr  Zr12  1  0.00136316  0.00343042  0.35210082  1
  Zr  Zr13  1  0.00206726  0.00343042  0.85210082  1
  Zr  Zr14  1  0.66803016  0.33676342  0.68543382  1
  Zr  Zr15  1  0.66873426  0.33676342  0.18543382  1
  Zr  Zr16  1  0.33469616  0.67009742  0.01876782  1
  Zr  Zr17  1  0.33540026  0.67009742  0.51876782  1
  P  P18  1  0.29618986  0.00626703  0.25002288  1
  P  P19  1  0.99639933  0.29021817  0.24934543  1
  P  P20  1  0.29381884  0.29021817  0.74934543  1
  P  P21  1  0.71007717  0.00626703  0.75002288  1
  P  P22  1  0.96285686  0.33960003  0.58335588  1
  P  P23  1  0.66306633  0.62355117  0.58267843  1
  P  P24  1  0.96048584  0.62355117  0.08267843  1
  P  P25  1  0.37674417  0.33960003  0.08335588  1
  P  P26  1  0.62952286  0.67293403  0.91668988  1
  P  P27  1  0.32973233  0.95688517  0.91601243  1
  P  P28  1  0.62715184  0.95688517  0.41601243  1
  P  P29  1  0.04341017  0.67293403  0.41668988  1
  S  S30  1  0.70988894  0.70639852  0.25004157  1
  S  S31  1  0.99650958  0.70639852  0.75004157  1
  S  S32  1  0.37655594  0.03973152  0.58337457  1
  S  S33  1  0.66317658  0.03973152  0.08337457  1
  S  S34  1  0.04322194  0.37306552  0.91670857  1
  S  S35  1  0.32984258  0.37306552  0.41670857  1
  O  O36  1  0.20326862  0.02660313  0.30260011  1
  O  O37  1  0.81630691  0.78846196  0.30057784  1
  O  O38  1  0.97235523  0.17579720  0.30255891  1
  O  O39  1  0.20344196  0.17579720  0.80255891  1
  O  O40  1  0.97215506  0.78846196  0.80057784  1
  O  O41  1  0.82333452  0.02660313  0.80260011  1
  O  O42  1  0.78960605  0.97809661  0.69828863  1
  O  O43  1  0.18958722  0.20609239  0.69756962  1
  O  O44  1  0.02113077  0.80714731  0.69944108  1
  O  O45  1  0.78601655  0.80714731  0.19944108  1
  O  O46  1  0.01650517  0.20609239  0.19756962  1
  O  O47  1  0.18849056  0.97809661  0.19828863  1
  O  O48  1  0.86993562  0.35993613  0.63593311  1
  O  O49  1  0.48297391  0.12179496  0.63391084  1
  O  O50  1  0.63902223  0.50913020  0.63589191  1
  O  O51  1  0.87010896  0.50913020  0.13589191  1
  O  O52  1  0.63882206  0.12179496  0.13391084  1
  O  O53  1  0.49000152  0.35993613  0.13593311  1
  O  O54  1  0.45627305  0.31142961  0.03162163  1
  O  O55  1  0.85625422  0.53942539  0.03090262  1
  O  O56  1  0.68779777  0.14048031  0.03277408  1
  O  O57  1  0.45268355  0.14048031  0.53277408  1
  O  O58  1  0.68317217  0.53942539  0.53090262  1
  O  O59  1  0.85515756  0.31142961  0.53162163  1
  O  O60  1  0.53660162  0.69327013  0.96926711  1
  O  O61  1  0.14963991  0.45512896  0.96724484  1
  O  O62  1  0.30568823  0.84246420  0.96922591  1
  O  O63  1  0.53677496  0.84246420  0.46922591  1
  O  O64  1  0.30548806  0.45512896  0.46724484  1
  O  O65  1  0.15666752  0.69327013  0.46926711  1
  O  O66  1  0.12293905  0.64476361  0.36495563  1
  O  O67  1  0.52292022  0.87275939  0.36423662  1
  O  O68  1  0.35446377  0.47381431  0.36610808  1
  O  O69  1  0.11934955  0.47381431  0.86610808  1
  O  O70  1  0.34983817  0.87275939  0.86423662  1
  O  O71  1  0.52182356  0.64476361  0.86495563  1
  O  O72  1  0.02962707  0.83774801  0.40929031  1
  O  O73  1  0.80788536  0.97287577  0.40941691  1
  O  O74  1  0.17183538  0.20130830  0.41116772  1
  O  O75  1  0.02947292  0.20130830  0.91116772  1
  O  O76  1  0.16499042  0.97287577  0.90941691  1
  O  O77  1  0.80812094  0.83774801  0.90929031  1
  O  O78  1  0.98893042  0.18587388  0.58900338  1
  O  O79  1  0.20449887  0.01531449  0.59023059  1
  O  O80  1  0.81979350  0.80012521  0.58963101  1
  O  O81  1  0.98033171  0.80012521  0.08963101  1
  O  O82  1  0.81081562  0.01531449  0.09023059  1
  O  O83  1  0.19694347  0.18587388  0.08900338  1
  O  O84  1  0.69629407  0.17108101  0.74262331  1
  O  O85  1  0.47455236  0.30620877  0.74274991  1
  O  O86  1  0.83850238  0.53464130  0.74450072  1
  O  O87  1  0.69613992  0.53464130  0.24450072  1
  O  O88  1  0.83165742  0.30620877  0.24274991  1
  O  O89  1  0.47478794  0.17108101  0.24262331  1
  O  O90  1  0.65559742  0.51920688  0.92233638  1
  O  O91  1  0.87116587  0.34864749  0.92356359  1
  O  O92  1  0.48646050  0.13345821  0.92296401  1
  O  O93  1  0.64699871  0.13345821  0.42296401  1
  O  O94  1  0.47748262  0.34864749  0.42356359  1
  O  O95  1  0.86361047  0.51920688  0.42233638  1
  O  O96  1  0.36296007  0.50441501  0.07595731  1
  O  O97  1  0.14121836  0.63954277  0.07608391  1
  O  O98  1  0.50516838  0.86797530  0.07783472  1
  O  O99  1  0.36280592  0.86797530  0.57783472  1
  O  O100  1  0.49832342  0.63954277  0.57608391  1
  O  O101  1  0.14145394  0.50441501  0.57595731  1
  O  O102  1  0.32226342  0.85254088  0.25567038  1
  O  O103  1  0.53783187  0.68198149  0.25689759  1
  O  O104  1  0.15312650  0.46679221  0.25629801  1
  O  O105  1  0.31366471  0.46679221  0.75629801  1
  O  O106  1  0.14414862  0.68198149  0.75689759  1
  O  O107  1  0.53027647  0.85254088  0.75567038  1
