# generated using pymatgen
data_Na4Sc3Ta(PO4)6
_symmetry_space_group_name_H-M   'P 1'
_cell_length_a   8.92109886
_cell_length_b   8.91582732
_cell_length_c   22.78569813
_cell_angle_alpha   89.95826239
_cell_angle_beta   90.06213226
_cell_angle_gamma   119.99648110
_symmetry_Int_Tables_number   1
_chemical_formula_structural   Na4Sc3Ta(PO4)6
_chemical_formula_sum   'Na12 Sc9 Ta3 P18 O72'
_cell_volume   1569.59680033
_cell_formula_units_Z   3
loop_
 _symmetry_equiv_pos_site_id
 _symmetry_equiv_pos_as_xyz
  1  'x, y, z'
loop_
 _atom_site_type_symbol
 _atom_site_label
 _atom_site_symmetry_multiplicity
 _atom_site_fract_x
 _atom_site_fract_y
 _atom_site_fract_z
 _atom_site_occupancy
  Na  Na0  1  0.63614617  0.99965335  0.25064146  1
  Na  Na1  1  0.36322352  0.36345171  0.25065221  1
  Na  Na2  1  0.00009112  0.63679609  0.25032870  1
  Na  Na3  1  0.29919258  0.33252644  0.58518390  1
  Na  Na4  1  0.03476760  0.69974758  0.58511856  1
  Na  Na5  1  0.66584001  0.70163359  0.08204358  1
  Na  Na6  1  0.99185401  0.99929246  0.49785786  1
  Na  Na7  1  0.00815701  0.00750636  0.99687861  1
  Na  Na8  1  0.66683257  0.33353405  0.82832394  1
  Na  Na9  1  0.66649562  0.33320089  0.33454427  1
  Na  Na10  1  0.32500351  0.66626586  0.16302485  1
  Na  Na11  1  0.34297820  0.67560879  0.66687643  1
  Sc  Sc12  1  0.00061510  0.00031108  0.35454911  1
  Sc  Sc13  1  0.99964787  0.99977311  0.85155922  1
  Sc  Sc14  1  0.99207933  0.99929329  0.65202213  1
  Sc  Sc15  1  0.00717773  0.00651985  0.14540417  1
  Sc  Sc16  1  0.66616046  0.33124617  0.68865127  1
  Sc  Sc17  1  0.66708958  0.33164306  0.18207824  1
  Sc  Sc18  1  0.32692834  0.66611901  0.01763437  1
  Sc  Sc19  1  0.33968736  0.67247711  0.51629277  1
  Sc  Sc20  1  0.33361088  0.66691211  0.32011408  1
  Ta  Ta21  1  0.66627377  0.33153183  0.97764531  1
  Ta  Ta22  1  0.66715365  0.33210770  0.47964177  1
  Ta  Ta23  1  0.33253766  0.66623668  0.81304636  1
  P  P24  1  0.29086341  0.99933949  0.25021281  1
  P  P25  1  0.70825901  0.70882180  0.24927598  1
  P  P26  1  0.00075905  0.29165005  0.25029437  1
  P  P27  1  0.29193344  0.29210351  0.75052397  1
  P  P28  1  0.00000494  0.70807797  0.75040190  1
  P  P29  1  0.70755705  -0.00035152  0.75173560  1
  P  P30  1  0.95554695  0.33154836  0.58341250  1
  P  P31  1  0.37808644  0.04263811  0.58384621  1
  P  P32  1  0.66641384  0.62294034  0.58354311  1
  P  P33  1  0.95872197  0.62293787  0.08310756  1
  P  P34  1  0.66599607  0.04177248  0.08286409  1
  P  P35  1  0.37578227  0.33258819  0.08244355  1
  P  P36  1  0.62340456  0.66768191  0.91814890  1
  P  P37  1  0.04422000  0.37634362  0.91724342  1
  P  P38  1  0.33201443  0.95560608  0.91706174  1
  P  P39  1  0.62848927  0.96147152  0.41669474  1
  P  P40  1  0.33332007  0.37195907  0.41794097  1
  P  P41  1  0.03869047  0.66672257  0.41779638  1
  O  O42  1  0.20954693  0.03327000  0.30403650  1
  O  O43  1  0.82523020  0.79318875  0.30253905  1
  O  O44  1  0.96719433  0.17641216  0.30412426  1
  O  O45  1  0.20350456  0.18049276  0.80393752  1
  O  O46  1  0.97670595  0.79628943  0.80385087  1
  O  O47  1  0.81771357  0.02401625  0.80573931  1
  O  O48  1  0.78200955  0.96294385  0.69612176  1
  O  O49  1  0.18487674  0.22100367  0.69336106  1
  O  O50  1  0.03560639  0.81512606  0.69323508  1
  O  O51  1  0.78656412  0.81884873  0.19310654  1
  O  O52  1  0.03338406  0.20980050  0.19571706  1
  O  O53  1  0.17627176  0.96667121  0.19560730  1
  O  O54  1  0.87307270  0.36604581  0.63632160  1
  O  O55  1  0.48892229  0.12861798  0.63737011  1
  O  O56  1  0.63475305  0.50686995  0.63675350  1
  O  O57  1  0.87621381  0.51766978  0.13967683  1
  O  O58  1  0.64085129  0.12228579  0.13923832  1
  O  O59  1  0.48601387  0.36306422  0.13859615  1
  O  O60  1  0.47638813  0.31250216  0.02870729  1
  O  O61  1  0.83443643  0.52414847  0.02949382  1
  O  O62  1  0.68700662  0.16233808  0.02909394  1
  O  O63  1  0.47239695  0.16264669  0.52855714  1
  O  O64  1  0.69158629  0.52759479  0.52829981  1
  O  O65  1  0.83877237  0.31056532  0.52794129  1
  O  O66  1  0.54212971  0.68961734  0.97406193  1
  O  O67  1  0.15210329  0.46125845  0.97150190  1
  O  O68  1  0.30989884  0.84839331  0.97142281  1
  O  O69  1  0.53925652  0.84915177  0.46995656  1
  O  O70  1  0.31075328  0.45767299  0.47274739  1
  O  O71  1  0.14666017  0.68891908  0.47269527  1
  O  O72  1  0.11451244  0.63259962  0.36159903  1
  O  O73  1  0.52017020  0.88854523  0.35997162  1
  O  O74  1  0.36782638  0.48207899  0.36167084  1
  O  O75  1  0.13248204  0.49620811  0.86258455  1
  O  O76  1  0.36297187  0.86711383  0.86247270  1
  O  O77  1  0.50217999  0.63722479  0.86400411  1
  O  O78  1  0.01412896  0.82353787  0.41142981  1
  O  O79  1  0.80978379  0.98593860  0.41104744  1
  O  O80  1  0.17632967  0.19083361  0.41153325  1
  O  O81  1  0.01749086  0.19553717  0.90942547  1
  O  O82  1  0.17829794  0.98296288  0.90936826  1
  O  O83  1  0.80402937  0.82151344  0.90987672  1
  O  O84  1  0.97793075  0.17171861  0.58660336  1
  O  O85  1  0.19803081  0.03026726  0.58617156  1
  O  O86  1  0.83450792  0.79902792  0.58662192  1
  O  O87  1  0.96261548  0.79812086  0.08615646  1
  O  O88  1  0.82901596  0.02368147  0.08603512  1
  O  O89  1  0.19874094  0.16917577  0.08589048  1
  O  O90  1  0.68072756  0.15527701  0.74473460  1
  O  O91  1  0.47496752  0.31971902  0.74449158  1
  O  O92  1  0.84457230  0.52499348  0.74426030  1
  O  O93  1  0.68612371  0.52404885  0.24399301  1
  O  O94  1  0.83822407  0.31337877  0.24411691  1
  O  O95  1  0.47509266  0.16186860  0.24392731  1
  O  O96  1  0.63756201  0.49693120  0.92520314  1
  O  O97  1  0.86001610  0.36252608  0.92521997  1
  O  O98  1  0.50262924  0.13993396  0.92486831  1
  O  O99  1  0.64445404  0.14531223  0.42614188  1
  O  O100  1  0.50121319  0.35533308  0.42648679  1
  O  O101  1  0.85416798  0.49866803  0.42614317  1
  O  O102  1  0.36634828  0.49931252  0.07590248  1
  O  O103  1  0.13673693  0.64219250  0.07677259  1
  O  O104  1  0.50757781  0.85961750  0.07654872  1
  O  O105  1  0.34992885  0.85872229  0.57620245  1
  O  O106  1  0.50234486  0.63657724  0.57538539  1
  O  O107  1  0.13716342  0.49518831  0.57542291  1
  O  O108  1  0.31182216  0.83645772  0.25636449  1
  O  O109  1  0.52452709  0.68783021  0.25604659  1
  O  O110  1  0.16329478  0.47569168  0.25642277  1
  O  O111  1  0.31026364  0.47858211  0.76072483  1
  O  O112  1  0.16837596  0.69022391  0.76059142  1
  O  O113  1  0.52139080  0.83146170  0.76109172  1
