# generated using pymatgen
data_Co2P2O7
_symmetry_space_group_name_H-M   'P 1'
_cell_length_a   8.31521656
_cell_length_b   7.00181644
_cell_length_c   8.97598847
_cell_angle_alpha   66.69733462
_cell_angle_beta   90.00000000
_cell_angle_gamma   90.00000000
_symmetry_Int_Tables_number   1
_chemical_formula_structural   Co2P2O7
_chemical_formula_sum   'Co8 P8 O28'
_cell_volume   479.96733034
_cell_formula_units_Z   4
loop_
 _symmetry_equiv_pos_site_id
 _symmetry_equiv_pos_as_xyz
  1  'x, y, z'
loop_
 _atom_site_type_symbol
 _atom_site_label
 _atom_site_symmetry_multiplicity
 _atom_site_fract_x
 _atom_site_fract_y
 _atom_site_fract_z
 _atom_site_occupancy
  Co  Co0  1  0.93573255  0.30298517  0.31689508  1
  Co  Co1  1  0.43573255  0.69701483  0.18310492  1
  Co  Co2  1  0.06426745  0.69701483  0.68310492  1
  Co  Co3  1  0.56426745  0.30298517  0.81689508  1
  Co  Co4  1  0.42740420  0.76746054  0.60760682  1
  Co  Co5  1  0.92740420  0.23253946  0.89239318  1
  Co  Co6  1  0.57259580  0.23253946  0.39239318  1
  Co  Co7  1  0.07259580  0.76746054  0.10760682  1
  P  P8  1  0.27696113  0.46547939  0.96759045  1
  P  P9  1  0.77696113  0.53452061  0.53240955  1
  P  P10  1  0.72303887  0.53452061  0.03240955  1
  P  P11  1  0.22303887  0.46547939  0.46759045  1
  P  P12  1  0.26793444  0.06279814  0.25802684  1
  P  P13  1  0.76793444  0.93720186  0.24197316  1
  P  P14  1  0.73206556  0.93720186  0.74197316  1
  P  P15  1  0.23206556  0.06279814  0.75802684  1
  O  O16  1  0.11355755  0.44142354  0.89908394  1
  O  O17  1  0.61355755  0.55857646  0.60091606  1
  O  O18  1  0.88644245  0.55857646  0.10091606  1
  O  O19  1  0.38644245  0.44142354  0.39908394  1
  O  O20  1  0.41097897  0.51795656  0.84277936  1
  O  O21  1  0.91097897  0.48204344  0.65722064  1
  O  O22  1  0.58902103  0.48204344  0.15722064  1
  O  O23  1  0.08902103  0.51795656  0.34277936  1
  O  O24  1  0.11047674  0.12059409  0.30890748  1
  O  O25  1  0.61047674  0.87940591  0.19109252  1
  O  O26  1  0.88952326  0.87940591  0.69109252  1
  O  O27  1  0.38952326  0.12059409  0.80890748  1
  O  O28  1  0.40200355  0.02340972  0.38215569  1
  O  O29  1  0.90200355  0.97659028  0.11784431  1
  O  O30  1  0.59799645  0.97659028  0.61784431  1
  O  O31  1  0.09799645  0.02340972  0.88215569  1
  O  O32  1  0.16780202  0.24981166  0.60001668  1
  O  O33  1  0.66780202  0.75018834  0.89998332  1
  O  O34  1  0.83219798  0.75018834  0.39998332  1
  O  O35  1  0.33219798  0.24981166  0.10001668  1
  O  O36  1  0.23340840  0.62040099  0.54838012  1
  O  O37  1  0.73340840  0.37959901  0.95161988  1
  O  O38  1  0.76659160  0.37959901  0.45161988  1
  O  O39  1  0.26659160  0.62040099  0.04838012  1
  O  O40  1  0.24393237  0.88262871  0.70333835  1
  O  O41  1  0.74393237  0.11737129  0.79666165  1
  O  O42  1  0.75606763  0.11737129  0.29666165  1
  O  O43  1  0.25606763  0.88262871  0.20333835  1
