# generated using pymatgen
data_Na4Hf3ZnSi3(SO8)3
_symmetry_space_group_name_H-M   'P 1'
_cell_length_a   9.03273476
_cell_length_b   9.01917061
_cell_length_c   23.01244827
_cell_angle_alpha   90.03659383
_cell_angle_beta   89.96115637
_cell_angle_gamma   120.08218655
_symmetry_Int_Tables_number   1
_chemical_formula_structural   Na4Hf3ZnSi3(SO8)3
_chemical_formula_sum   'Na12 Hf9 Zn3 Si9 S9 O72'
_cell_volume   1622.25427476
_cell_formula_units_Z   3
loop_
 _symmetry_equiv_pos_site_id
 _symmetry_equiv_pos_as_xyz
  1  'x, y, z'
loop_
 _atom_site_type_symbol
 _atom_site_label
 _atom_site_symmetry_multiplicity
 _atom_site_fract_x
 _atom_site_fract_y
 _atom_site_fract_z
 _atom_site_occupancy
  Na  Na0  1  0.63231748  0.01040256  0.23864663  1
  Na  Na1  1  0.37886806  0.35316036  0.25152086  1
  Na  Na2  1  0.98857577  0.64331730  0.24545937  1
  Na  Na3  1  0.99016669  0.35142823  0.75624473  1
  Na  Na4  1  0.38372589  0.01809815  0.75733665  1
  Na  Na5  1  0.70178384  0.67807821  0.40167216  1
  Na  Na6  1  0.00717192  0.02246180  0.48532399  1
  Na  Na7  1  0.00321565  0.01603957  0.00026771  1
  Na  Na8  1  0.65729207  0.32442283  0.83508495  1
  Na  Na9  1  0.64262026  0.31528586  0.32286685  1
  Na  Na10  1  0.35470516  0.69216316  0.16221622  1
  Na  Na11  1  0.35793364  0.66413656  0.67276016  1
  Hf  Hf12  1  0.00997319  0.02242927  0.85614320  1
  Hf  Hf13  1  0.99347976  0.00680749  0.64853250  1
  Hf  Hf14  1  0.99068643  0.99029690  0.14864834  1
  Hf  Hf15  1  0.66640559  0.31274956  0.97938393  1
  Hf  Hf16  1  0.65610968  0.32218039  0.47707262  1
  Hf  Hf17  1  0.33212194  0.67741402  0.01867044  1
  Hf  Hf18  1  0.34271629  0.66213042  0.51645891  1
  Hf  Hf19  1  0.35058765  0.67804409  0.31436321  1
  Hf  Hf20  1  0.34060836  0.66836788  0.81647062  1
  Zn  Zn21  1  0.00791060  0.00572741  0.35119805  1
  Zn  Zn22  1  0.65441121  0.32453695  0.68988741  1
  Zn  Zn23  1  0.63802100  0.30973398  0.18221292  1
  Si  Si24  1  0.28716936  0.99837055  0.25250067  1
  Si  Si25  1  0.70915509  0.70080728  0.25345742  1
  Si  Si26  1  0.29686194  0.29780653  0.74870342  1
  Si  Si27  1  0.70447900  0.99782310  0.74960287  1
  Si  Si28  1  0.66984892  0.03653874  0.08738362  1
  Si  Si29  1  0.04251777  0.38312064  0.91686887  1
  Si  Si30  1  0.32712073  0.95882757  0.91449837  1
  Si  Si31  1  0.63575795  0.96244272  0.41642510  1
  Si  Si32  1  0.32479404  0.36493953  0.41542382  1
  S  S33  1  0.00203191  0.29304744  0.25103709  1
  S  S34  1  0.99876255  0.71185028  0.74903831  1
  S  S35  1  0.95852687  0.33675511  0.58514805  1
  S  S36  1  0.36966096  0.03554322  0.58423432  1
  S  S37  1  0.66934188  0.62437888  0.58403764  1
  S  S38  1  0.95690363  0.62393402  0.08411374  1
  S  S39  1  0.37318584  0.33602442  0.08340088  1
  S  S40  1  0.62593721  0.66613114  0.91823121  1
  S  S41  1  0.04241158  0.66124312  0.42012582  1
  O  O42  1  0.20763271  0.04366401  0.30718607  1
  O  O43  1  0.81590434  0.77614353  0.31293694  1
  O  O44  1  0.96748590  0.18704327  0.30280067  1
  O  O45  1  0.20245339  0.17196381  0.80452591  1
  O  O46  1  0.97696181  0.79216739  0.80153724  1
  O  O47  1  0.82712250  0.01870165  0.80424774  1
  O  O48  1  0.79455656  0.96773512  0.69108965  1
  O  O49  1  0.16824891  0.19800542  0.69221580  1
  O  O50  1  0.02479171  0.82228497  0.69635920  1
  O  O51  1  0.80084350  0.83582584  0.19843000  1
  O  O52  1  0.03329782  0.21346404  0.19841042  1
  O  O53  1  0.16972559  0.97149703  0.19384254  1
  O  O54  1  0.88364781  0.35646129  0.63904135  1
  O  O55  1  0.46894441  0.10843063  0.63766832  1
  O  O56  1  0.64645542  0.52140181  0.63568835  1
  O  O57  1  0.88452069  0.53126400  0.13862544  1
  O  O58  1  0.64409433  0.11435463  0.14725317  1
  O  O59  1  0.46872152  0.36492090  0.13840441  1
  O  O60  1  0.46657871  0.31963340  0.03288828  1
  O  O61  1  0.84904071  0.53728661  0.03290723  1
  O  O62  1  0.68723752  0.15646079  0.03029550  1
  O  O63  1  0.46092297  0.14736780  0.53296334  1
  O  O64  1  0.68626904  0.54250550  0.53019115  1
  O  O65  1  0.85073804  0.31772386  0.53377226  1
  O  O66  1  0.54422176  0.69303857  0.96951321  1
  O  O67  1  0.16665062  0.47693528  0.97165149  1
  O  O68  1  0.31621328  0.84299059  0.97023685  1
  O  O69  1  0.52274810  0.83970090  0.47172687  1
  O  O70  1  0.31250685  0.47037077  0.47274139  1
  O  O71  1  0.14965228  0.67391196  0.47107831  1
  O  O72  1  0.11416974  0.63335692  0.36595254  1
  O  O73  1  0.51738399  0.87989802  0.35789079  1
  O  O74  1  0.36212847  0.49016594  0.35881750  1
  O  O75  1  0.13107759  0.48690267  0.85580491  1
  O  O76  1  0.35979387  0.87517973  0.85524381  1
  O  O77  1  0.51848760  0.63993219  0.86476094  1
  O  O78  1  0.02139732  0.81036573  0.41910119  1
  O  O79  1  0.81193058  0.96229654  0.41492508  1
  O  O80  1  0.16520051  0.17846491  0.41392706  1
  O  O81  1  0.01540325  0.18890824  0.91241513  1
  O  O82  1  0.15034497  0.96422195  0.90994606  1
  O  O83  1  0.79567723  0.81895355  0.91020221  1
  O  O84  1  0.97578347  0.17817136  0.58689425  1
  O  O85  1  0.19730666  0.01973907  0.58697574  1
  O  O86  1  0.82502985  0.79874364  0.58727597  1
  O  O87  1  0.97964707  0.80112551  0.08638917  1
  O  O88  1  0.84542848  0.02257816  0.08820719  1
  O  O89  1  0.20186205  0.17751954  0.08669560  1
  O  O90  1  0.69805715  0.17534942  0.74479831  1
  O  O91  1  0.48124215  0.31158241  0.74411236  1
  O  O92  1  0.85454051  0.53830360  0.74170183  1
  O  O93  1  0.68757678  0.51254628  0.24119868  1
  O  O94  1  0.85813860  0.32466188  0.24249742  1
  O  O95  1  0.48382823  0.15645841  0.24681064  1
  O  O96  1  0.64013211  0.51191621  0.92487029  1
  O  O97  1  0.85544721  0.37031582  0.92303754  1
  O  O98  1  0.49372828  0.15207137  0.92229870  1
  O  O99  1  0.65273227  0.15114074  0.42639359  1
  O  O100  1  0.51349429  0.37277281  0.42638616  1
  O  O101  1  0.86811474  0.50450431  0.42858267  1
  O  O102  1  0.34970324  0.48681348  0.07525273  1
  O  O103  1  0.13197872  0.64399618  0.07690989  1
  O  O104  1  0.50178837  0.84304830  0.07781078  1
  O  O105  1  0.34713940  0.86164332  0.57547835  1
  O  O106  1  0.51482304  0.64745457  0.57871493  1
  O  O107  1  0.13358456  0.48861800  0.57793060  1
  O  O108  1  0.29121876  0.81431702  0.25675425  1
  O  O109  1  0.51471604  0.68296328  0.25486669  1
  O  O110  1  0.16299203  0.46499950  0.25650255  1
  O  O111  1  0.29662872  0.47927882  0.75358758  1
  O  O112  1  0.16150356  0.70351577  0.75250026  1
  O  O113  1  0.50870744  0.83491922  0.75334231  1
