# generated using pymatgen
data_Na7Ta2In2Si5PO24
_symmetry_space_group_name_H-M   'P 1'
_cell_length_a   9.15488290
_cell_length_b   9.15747887
_cell_length_c   22.61764241
_cell_angle_alpha   89.84231737
_cell_angle_beta   90.03667992
_cell_angle_gamma   119.91913231
_symmetry_Int_Tables_number   1
_chemical_formula_structural   Na7Ta2In2Si5PO24
_chemical_formula_sum   'Na21 Ta6 In6 Si15 P3 O72'
_cell_volume   1643.45646647
_cell_formula_units_Z   3
loop_
 _symmetry_equiv_pos_site_id
 _symmetry_equiv_pos_as_xyz
  1  'x, y, z'
loop_
 _atom_site_type_symbol
 _atom_site_label
 _atom_site_symmetry_multiplicity
 _atom_site_fract_x
 _atom_site_fract_y
 _atom_site_fract_z
 _atom_site_occupancy
  Na  Na0  1  0.64392218  0.01285967  0.25021139  1
  Na  Na1  1  0.37269288  0.36107758  0.24730267  1
  Na  Na2  1  0.98594118  0.62579456  0.24812670  1
  Na  Na3  1  0.63859551  0.62655328  0.74807171  1
  Na  Na4  1  0.98630729  0.35764252  0.74856312  1
  Na  Na5  1  0.37379299  0.01469366  0.74809271  1
  Na  Na6  1  0.30761025  0.34409245  0.58268862  1
  Na  Na7  1  0.03965412  0.69527113  0.58119537  1
  Na  Na8  1  0.65431034  0.95956608  0.58149101  1
  Na  Na9  1  0.30036086  0.96161721  0.07974175  1
  Na  Na10  1  0.04147353  0.34752862  0.08193553  1
  Na  Na11  1  0.97627233  0.67877995  0.91522013  1
  Na  Na12  1  0.31974695  0.29191461  0.91513406  1
  Na  Na13  1  0.32155979  0.02524783  0.41521752  1
  Na  Na14  1  0.70733486  0.67859844  0.41502924  1
  Na  Na15  1  0.99560072  0.00319054  0.49475790  1
  Na  Na16  1  0.99006278  0.99819413  0.99564911  1
  Na  Na17  1  0.66713572  0.32478631  0.82942367  1
  Na  Na18  1  0.67469324  0.33320326  0.32985001  1
  Na  Na19  1  0.33762004  0.66066092  0.16112859  1
  Na  Na20  1  0.33479333  0.66718248  0.66182731  1
  Ta  Ta21  1  0.99958330  0.99955001  0.64689009  1
  Ta  Ta22  1  0.00048683  0.99669810  0.14692661  1
  Ta  Ta23  1  0.66618965  0.33148269  0.98021450  1
  Ta  Ta24  1  0.67352804  0.33221905  0.48035459  1
  Ta  Ta25  1  0.32975537  0.66866776  0.31322836  1
  Ta  Ta26  1  0.33027462  0.66934272  0.81345637  1
  In  In27  1  0.99759169  0.00230184  0.35043017  1
  In  In28  1  0.99840610  0.00230870  0.85088658  1
  In  In29  1  0.66720839  0.33377181  0.68292034  1
  In  In30  1  0.66741762  0.33770163  0.18278090  1
  In  In31  1  0.33409218  0.66436724  0.01708326  1
  In  In32  1  0.33326021  0.66818962  0.51610310  1
  Si  Si33  1  0.29258945  -0.00026671  0.25144253  1
  Si  Si34  1  0.70630290  0.70791406  0.25141775  1
  Si  Si35  1  0.00112925  0.29240132  0.24937584  1
  Si  Si36  1  0.29313260  0.29437525  0.75116525  1
  Si  Si37  1  0.00031690  0.70815328  0.75173764  1
  Si  Si38  1  0.70624090  0.99816948  0.75043990  1
  Si  Si39  1  0.96127232  0.33192290  0.58476981  1
  Si  Si40  1  0.37278190  0.04156869  0.58373203  1
  Si  Si41  1  0.66790807  0.62668967  0.58350539  1
  Si  Si42  1  0.95822913  0.62894847  0.08366249  1
  Si  Si43  1  0.37265200  0.33493434  0.08429371  1
  Si  Si44  1  0.03653977  0.37020238  0.91783501  1
  Si  Si45  1  0.33707157  0.96170753  0.91822946  1
  Si  Si46  1  0.62877393  0.96270586  0.41748659  1
  Si  Si47  1  0.03711257  0.66400404  0.41750558  1
  P  P48  1  0.66919986  0.04242268  0.08386147  1
  P  P49  1  0.62343725  0.66475828  0.91720988  1
  P  P50  1  0.33537706  0.37502540  0.41729075  1
  O  O51  1  0.21935683  0.03729394  0.30983194  1
  O  O52  1  0.81768808  0.77897813  0.30980579  1
  O  O53  1  0.96079222  0.17478330  0.30551780  1
  O  O54  1  0.22029834  0.18161499  0.80922131  1
  O  O55  1  0.96533179  0.78274787  0.81017667  1
  O  O56  1  0.82572347  0.03851997  0.80569792  1
  O  O57  1  0.79962888  0.96474123  0.69127774  1
  O  O58  1  0.16374157  0.19871624  0.69282768  1
  O  O59  1  0.03454485  0.83611056  0.69325177  1
  O  O60  1  0.80583458  0.84128716  0.19472498  1
  O  O61  1  0.03448165  0.19984301  0.19047538  1
  O  O62  1  0.16307987  0.96530825  0.19336912  1
  O  O63  1  0.88947067  0.37199340  0.64317311  1
  O  O64  1  0.48373044  0.11494666  0.64233131  1
  O  O65  1  0.63096994  0.51746728  0.64271098  1
  O  O66  1  0.88744473  0.51415354  0.14191991  1
  O  O67  1  0.63696136  0.11337106  0.14024616  1
  O  O68  1  0.47215772  0.35384165  0.14430290  1
  O  O69  1  0.47093998  0.30203021  0.02677721  1
  O  O70  1  0.83298616  0.52635745  0.02578259  1
  O  O71  1  0.69701412  0.16688583  0.03009031  1
  O  O72  1  0.46861110  0.17024448  0.52572242  1
  O  O73  1  0.69946517  0.52963756  0.52589949  1
  O  O74  1  0.82742893  0.29947494  0.52811576  1
  O  O75  1  0.54567948  0.69145497  0.97156362  1
  O  O76  1  0.14868504  0.44861353  0.97592970  1
  O  O77  1  0.30322586  0.85037094  0.97653737  1
  O  O78  1  0.55156355  0.85100144  0.47613226  1
  O  O79  1  0.31033713  0.44951021  0.47368648  1
  O  O80  1  0.14794693  0.69892791  0.47601764  1
  O  O81  1  0.13662765  0.63738858  0.35922610  1
  O  O82  1  0.49709355  0.86149699  0.35973281  1
  O  O83  1  0.36129200  0.49403580  0.36234971  1
  O  O84  1  0.13730807  0.50246125  0.85981852  1
  O  O85  1  0.36326422  0.86241278  0.85955579  1
  O  O86  1  0.50716585  0.63507850  0.86118353  1
  O  O87  1  0.01719587  0.82951433  0.41196659  1
  O  O88  1  0.81057941  0.97826459  0.41250340  1
  O  O89  1  0.18944508  0.19536600  0.41150388  1
  O  O90  1  0.02170672  0.18874850  0.91259140  1
  O  O91  1  0.17186800  0.98236131  0.91244496  1
  O  O92  1  0.80448271  0.80794690  0.91133341  1
  O  O93  1  0.96761724  0.15373002  0.58903503  1
  O  O94  1  0.18608800  0.03276203  0.58926055  1
  O  O95  1  0.84559636  0.81322525  0.58911627  1
  O  O96  1  0.97275322  0.81787758  0.08971315  1
  O  O97  1  0.83812496  0.03890408  0.08786866  1
  O  O98  1  0.18333950  0.15478820  0.08881809  1
  O  O99  1  0.67639704  0.15716165  0.74497446  1
  O  O100  1  0.48105915  0.32237327  0.74521448  1
  O  O101  1  0.84247332  0.51990506  0.74580732  1
  O  O102  1  0.67779300  0.51965999  0.24564163  1
  O  O103  1  0.84066866  0.32043917  0.24369762  1
  O  O104  1  0.48200521  0.15467400  0.24400493  1
  O  O105  1  0.63040928  0.49378900  0.92258770  1
  O  O106  1  0.85340903  0.36954854  0.92352898  1
  O  O107  1  0.50817756  0.15304790  0.92407501  1
  O  O108  1  0.62706171  0.14466873  0.42271504  1
  O  O109  1  0.50525871  0.36914304  0.42081198  1
  O  O110  1  0.84603720  0.49263856  0.42285660  1
  O  O111  1  0.33839425  0.49072429  0.07932294  1
  O  O112  1  0.14882117  0.66031623  0.07868444  1
  O  O113  1  0.51418301  0.87008210  0.07557585  1
  O  O114  1  0.34442837  0.85306034  0.57895284  1
  O  O115  1  0.50623153  0.65241718  0.57762146  1
  O  O116  1  0.14902645  0.48998119  0.57724562  1
  O  O117  1  0.30008079  0.82019167  0.25665826  1
  O  O118  1  0.51832321  0.69655507  0.25743821  1
  O  O119  1  0.17915976  0.47931042  0.25682223  1
  O  O120  1  0.30341353  0.48171646  0.75733738  1
  O  O121  1  0.17973182  0.69965856  0.75681138  1
  O  O122  1  0.52011204  0.81968686  0.75691335  1
