# generated using pymatgen
data_Na3Ca2In2PS5O24
_symmetry_space_group_name_H-M   'P 1'
_cell_length_a   9.09126712
_cell_length_b   9.06728350
_cell_length_c   23.64819094
_cell_angle_alpha   89.95606502
_cell_angle_beta   89.99416692
_cell_angle_gamma   119.92855206
_symmetry_Int_Tables_number   1
_chemical_formula_structural   Na3Ca2In2PS5O24
_chemical_formula_sum   'Na9 Ca6 In6 P3 S15 O72'
_cell_volume   1689.43775674
_cell_formula_units_Z   3
loop_
 _symmetry_equiv_pos_site_id
 _symmetry_equiv_pos_as_xyz
  1  'x, y, z'
loop_
 _atom_site_type_symbol
 _atom_site_label
 _atom_site_symmetry_multiplicity
 _atom_site_fract_x
 _atom_site_fract_y
 _atom_site_fract_z
 _atom_site_occupancy
  Na  Na0  1  0.36902410  0.99783053  0.74902121  1
  Na  Na1  1  0.66260436  0.96558376  0.58839493  1
  Na  Na2  1  0.67206266  0.69970368  0.08132747  1
  Na  Na3  1  0.02615025  0.00253141  0.50097477  1
  Na  Na4  1  0.01228420  0.00085434  -0.00021839  1
  Na  Na5  1  0.68038917  0.33701331  0.83353448  1
  Na  Na6  1  0.66669985  0.33344076  0.33343561  1
  Na  Na7  1  0.30629463  0.66380083  0.16612741  1
  Na  Na8  1  0.33312892  0.66196486  0.66665664  1
  Ca  Ca9  1  0.00502337  0.00130040  0.64786189  1
  Ca  Ca10  1  0.00792771  0.00222870  0.14827802  1
  Ca  Ca11  1  0.31726630  0.66569485  0.01591418  1
  Ca  Ca12  1  0.32739194  0.66683249  0.51488569  1
  Ca  Ca13  1  0.33249420  0.66681888  0.31804967  1
  Ca  Ca14  1  0.33953380  0.66596112  0.81920818  1
  In  In15  1  0.00111929  0.00011805  0.34763147  1
  In  In16  1  0.98789026  0.00025451  0.84730501  1
  In  In17  1  0.66907477  0.33083330  0.68360265  1
  In  In18  1  0.67317123  0.33485227  0.18487804  1
  In  In19  1  0.67304643  0.33544827  0.98303897  1
  In  In20  1  0.65955887  0.33091842  0.48249088  1
  P  P21  1  0.70139629  0.00526841  0.74720275  1
  P  P22  1  0.37680333  0.04187385  0.58362811  1
  P  P23  1  0.95448398  0.62198055  0.08414387  1
  S  S24  1  0.30465998  0.00853634  0.25009628  1
  S  S25  1  0.70381483  0.69892491  0.24905442  1
  S  S26  1  0.99356293  0.29371343  0.25033568  1
  S  S27  1  0.29947626  0.29441584  0.75033799  1
  S  S28  1  0.99449817  0.70040967  0.75095713  1
  S  S29  1  0.95707495  0.33563523  0.58241100  1
  S  S30  1  0.66611288  0.62353377  0.58313230  1
  S  S31  1  0.66483195  0.03976617  0.08341726  1
  S  S32  1  0.38039471  0.33462723  0.08259827  1
  S  S33  1  0.64231229  0.66675086  0.91884122  1
  S  S34  1  0.02563377  0.35692922  0.91611538  1
  S  S35  1  0.33202177  0.97874626  0.91470004  1
  S  S36  1  0.64421295  0.97470489  0.41725182  1
  S  S37  1  0.33164307  0.35843396  0.41588660  1
  S  S38  1  0.02255097  0.66599303  0.41614105  1
  O  O39  1  0.22482425  0.03297291  0.30222927  1
  O  O40  1  0.81236288  0.78393387  0.29989016  1
  O  O41  1  0.97225182  0.19081962  0.30262306  1
  O  O42  1  0.22034501  0.18360057  0.80159265  1
  O  O43  1  0.97074688  0.77912352  0.80319105  1
  O  O44  1  0.81074802  0.02786301  0.80071043  1
  O  O45  1  0.77931051  0.98719483  0.69233659  1
  O  O46  1  0.20095744  0.21435250  0.69949505  1
  O  O47  1  0.02096215  0.80619112  0.70093874  1
  O  O48  1  0.78153095  0.79466285  0.19683009  1
  O  O49  1  0.01028735  0.21123125  0.19971137  1
  O  O50  1  0.20424231  0.98927127  0.19961005  1
  O  O51  1  0.87955983  0.35977777  0.63454794  1
  O  O52  1  0.48068673  0.12337473  0.63947542  1
  O  O53  1  0.65162642  0.52482007  0.63516303  1
  O  O54  1  0.86895254  0.51637400  0.13820641  1
  O  O55  1  0.64207359  0.11985005  0.13487347  1
  O  O56  1  0.48233042  0.35365090  0.13440919  1
  O  O57  1  0.45968674  0.31038838  0.03109359  1
  O  O58  1  0.84243432  0.53718675  0.03092820  1
  O  O59  1  0.68077650  0.13859064  0.03152656  1
  O  O60  1  0.46908991  0.15169143  0.53118112  1
  O  O61  1  0.68764960  0.54323479  0.53165308  1
  O  O62  1  0.85334056  0.31719311  0.53143378  1
  O  O63  1  0.56706452  0.68842614  0.97138333  1
  O  O64  1  0.12486014  0.43423179  0.96742342  1
  O  O65  1  0.30853535  0.87300946  0.96463666  1
  O  O66  1  0.57158292  0.87843312  0.47011456  1
  O  O67  1  0.30916121  0.43531696  0.46732706  1
  O  O68  1  0.12360129  0.69139259  0.46735207  1
  O  O69  1  0.10023877  0.64069746  0.36547632  1
  O  O70  1  0.53660244  0.89119572  0.36797956  1
  O  O71  1  0.35325260  0.46009657  0.36512879  1
  O  O72  1  0.10373839  0.45913249  0.86528694  1
  O  O73  1  0.35670388  0.90439784  0.86243215  1
  O  O74  1  0.53843148  0.64642970  0.86890260  1
  O  O75  1  0.00377364  0.82191924  0.41005908  1
  O  O76  1  0.81711281  0.99239185  0.41039609  1
  O  O77  1  0.17742899  0.18283321  0.41061649  1
  O  O78  1  0.00805070  0.18298228  0.91144215  1
  O  O79  1  0.17717004  0.99781309  0.90943920  1
  O  O80  1  0.81648148  0.82132548  0.91283841  1
  O  O81  1  0.96002788  0.17343533  0.58573483  1
  O  O82  1  0.19972313  0.02127188  0.58494722  1
  O  O83  1  0.81577592  0.79759016  0.58579737  1
  O  O84  1  0.96031888  0.79591641  0.08627589  1
  O  O85  1  0.81930186  0.02375123  0.08682342  1
  O  O86  1  0.20823717  0.18750082  0.08615514  1
  O  O87  1  0.68132547  0.16990457  0.74713381  1
  O  O88  1  0.47122441  0.30600341  0.74694963  1
  O  O89  1  0.83865612  0.52913280  0.74579009  1
  O  O90  1  0.68840522  0.52546991  0.24737923  1
  O  O91  1  0.83408010  0.30622895  0.24812096  1
  O  O92  1  0.47713552  0.16708389  0.24631671  1
  O  O93  1  0.66014087  0.51053685  0.92167932  1
  O  O94  1  0.85014432  0.33528243  0.92060360  1
  O  O95  1  0.48749994  0.15208772  0.92159390  1
  O  O96  1  0.66516865  0.15028805  0.42105151  1
  O  O97  1  0.48737209  0.33974290  0.42005625  1
  O  O98  1  0.84795987  0.51185313  0.42200778  1
  O  O99  1  0.37717481  0.49705435  0.07841134  1
  O  O100  1  0.13166132  0.64203507  0.08122091  1
  O  O101  1  0.51535382  0.86508486  0.07978084  1
  O  O102  1  0.37416649  0.86923959  0.58042020  1
  O  O103  1  0.51133219  0.63949151  0.57998450  1
  O  O104  1  0.12906147  0.48282312  0.57865035  1
  O  O105  1  0.32477988  0.85752680  0.25561925  1
  O  O106  1  0.53431478  0.68065716  0.25543551  1
  O  O107  1  0.14349762  0.46539906  0.25520127  1
  O  O108  1  0.31968999  0.46448774  0.75650256  1
  O  O109  1  0.14857480  0.68415816  0.75693446  1
  O  O110  1  0.51834063  0.85202487  0.75355303  1
