# generated using pymatgen
data_Na2Sc2Ga2SiS5O24
_symmetry_space_group_name_H-M   'P 1'
_cell_length_a   8.69031892
_cell_length_b   8.68201336
_cell_length_c   22.77100416
_cell_angle_alpha   89.44393884
_cell_angle_beta   90.48021172
_cell_angle_gamma   119.72616069
_symmetry_Int_Tables_number   1
_chemical_formula_structural   Na2Sc2Ga2SiS5O24
_chemical_formula_sum   'Na6 Sc6 Ga6 Si3 S15 O72'
_cell_volume   1491.88944790
_cell_formula_units_Z   3
loop_
 _symmetry_equiv_pos_site_id
 _symmetry_equiv_pos_as_xyz
  1  'x, y, z'
loop_
 _atom_site_type_symbol
 _atom_site_label
 _atom_site_symmetry_multiplicity
 _atom_site_fract_x
 _atom_site_fract_y
 _atom_site_fract_z
 _atom_site_occupancy
  Na  Na0  1  0.98951726  0.98765155  0.50401857  1
  Na  Na1  1  0.99956063  0.99985520  0.99897810  1
  Na  Na2  1  0.67052161  0.32076321  0.82879080  1
  Na  Na3  1  0.65214577  0.32009581  0.33103060  1
  Na  Na4  1  0.33011769  0.67662536  0.17147771  1
  Na  Na5  1  0.36178185  0.67743646  0.66593014  1
  Sc  Sc6  1  0.01495009  0.00333175  0.34832795  1
  Sc  Sc7  1  0.97718155  0.98699357  0.64651011  1
  Sc  Sc8  1  0.66443879  0.33163530  0.68635395  1
  Sc  Sc9  1  0.66681035  0.34400927  0.48162762  1
  Sc  Sc10  1  0.34448168  0.66876599  0.52246106  1
  Sc  Sc11  1  0.34528545  0.67446251  0.81330630  1
  Ga  Ga12  1  0.99563701  0.00311352  0.84273456  1
  Ga  Ga13  1  0.00583804  0.99410980  0.15595092  1
  Ga  Ga14  1  0.65658279  0.32485106  0.18576549  1
  Ga  Ga15  1  0.66787905  0.33179939  0.98438843  1
  Ga  Ga16  1  0.33219403  0.66558661  0.01592854  1
  Ga  Ga17  1  0.33284077  0.68178066  0.31415895  1
  Si  Si18  1  0.30019262  0.99878639  0.24693152  1
  Si  Si19  1  0.70945850  0.00685635  0.75368862  1
  Si  Si20  1  0.66942841  0.62805026  0.58404482  1
  S  S21  1  0.70569251  0.70459784  0.24674914  1
  S  S22  1  0.00041179  0.29519393  0.24621538  1
  S  S23  1  0.28888104  0.28605953  0.75312173  1
  S  S24  1  0.99896142  0.70932601  0.75384061  1
  S  S25  1  0.96098004  0.33566158  0.58231609  1
  S  S26  1  0.37176608  0.04160063  0.58280995  1
  S  S27  1  0.95454893  0.62104791  0.08291198  1
  S  S28  1  0.66801108  0.03932390  0.08289503  1
  S  S29  1  0.37522162  0.33637693  0.08152794  1
  S  S30  1  0.63009706  0.66290432  0.92195833  1
  S  S31  1  0.03668164  0.37144950  0.92153461  1
  S  S32  1  0.33278643  0.96453673  0.92043945  1
  S  S33  1  0.62638416  0.95949700  0.41338816  1
  S  S34  1  0.33233388  0.38354467  0.41176508  1
  S  S35  1  0.04172295  0.66180117  0.41402902  1
  O  O36  1  0.21013560  0.03225297  0.30407223  1
  O  O37  1  0.81479608  0.78830779  0.29910694  1
  O  O38  1  0.96346038  0.18197627  0.29881533  1
  O  O39  1  0.21395682  0.17874196  0.80907753  1
  O  O40  1  0.98144199  0.79365927  0.80922243  1
  O  O41  1  0.81960874  0.03239277  0.81581848  1
  O  O42  1  0.79936030  0.97701146  0.69662351  1
  O  O43  1  0.18516977  0.19956578  0.70104732  1
  O  O44  1  0.03041369  0.81928407  0.70152234  1
  O  O45  1  0.77992612  0.82027334  0.19291538  1
  O  O46  1  0.02377980  0.21016363  0.19245166  1
  O  O47  1  0.17704594  0.96036779  0.18774355  1
  O  O48  1  0.87441529  0.34890950  0.63550571  1
  O  O49  1  0.48085089  0.11761699  0.63582881  1
  O  O50  1  0.64679780  0.51345346  0.64269827  1
  O  O51  1  0.87238230  0.50869874  0.13554734  1
  O  O52  1  0.63671081  0.12081633  0.13478371  1
  O  O53  1  0.48730567  0.36838114  0.13441753  1
  O  O54  1  0.45688731  0.30585662  0.02859302  1
  O  O55  1  0.84634113  0.53901567  0.02887571  1
  O  O56  1  0.69829371  0.15005833  0.02878163  1
  O  O57  1  0.46013189  0.14268170  0.52877790  1
  O  O58  1  0.68436572  0.53301839  0.52416258  1
  O  O59  1  0.85225715  0.30751060  0.52870531  1
  O  O60  1  0.54492314  0.69209448  0.97479300  1
  O  O61  1  0.14694938  0.45784129  0.97564093  1
  O  O62  1  0.30341239  0.85215126  0.97469144  1
  O  O63  1  0.54114103  0.85468937  0.46650523  1
  O  O64  1  0.31690053  0.46744053  0.46518437  1
  O  O65  1  0.14527104  0.68224937  0.46704560  1
  O  O66  1  0.12725862  0.64301415  0.36010477  1
  O  O67  1  0.51980325  0.87451506  0.35934383  1
  O  O68  1  0.35182420  0.49133235  0.35780785  1
  O  O69  1  0.11600821  0.48060418  0.86911292  1
  O  O70  1  0.36333625  0.88374059  0.86877464  1
  O  O71  1  0.52093516  0.63470715  0.86923684  1
  O  O72  1  0.01950184  0.82085406  0.40922951  1
  O  O73  1  0.80287193  0.97459335  0.40861045  1
  O  O74  1  0.16855077  0.20750820  0.40836291  1
  O  O75  1  0.02125523  0.19480965  0.91803442  1
  O  O76  1  0.17428455  0.98498560  0.91353518  1
  O  O77  1  0.80925916  0.81742227  0.91706828  1
  O  O78  1  0.99479993  0.18542219  0.58588583  1
  O  O79  1  0.20077733  0.03525710  0.58729546  1
  O  O80  1  0.84576154  0.82198355  0.58355098  1
  O  O81  1  0.96852983  0.79848920  0.08771254  1
  O  O82  1  0.82845420  0.02039029  0.09032300  1
  O  O83  1  0.19578760  0.17946508  0.08764764  1
  O  O84  1  0.68622293  0.17927156  0.74941507  1
  O  O85  1  0.46937729  0.31344545  0.75069911  1
  O  O86  1  0.83688426  0.53670801  0.75014232  1
  O  O87  1  0.70216452  0.53282612  0.23858765  1
  O  O88  1  0.84557383  0.32285740  0.23827184  1
  O  O89  1  0.49535702  0.17749168  0.23997812  1
  O  O90  1  0.64109586  0.49622845  0.92932274  1
  O  O91  1  0.85607302  0.35411030  0.92851087  1
  O  O92  1  0.49565820  0.14260599  0.92849901  1
  O  O93  1  0.64264002  0.13677238  0.41650407  1
  O  O94  1  0.48912901  0.35888661  0.41403787  1
  O  O95  1  0.86474001  0.50001077  0.41587211  1
  O  O96  1  0.36029896  0.50106538  0.07400688  1
  O  O97  1  0.13539361  0.64032028  0.07650212  1
  O  O98  1  0.50572474  0.86054098  0.07514141  1
  O  O99  1  0.34368735  0.85917018  0.57781926  1
  O  O100  1  0.49251665  0.64884910  0.58009742  1
  O  O101  1  0.13217130  0.50245878  0.57725179  1
  O  O102  1  0.31974905  0.82138923  0.25529089  1
  O  O103  1  0.52420023  0.67403116  0.25365328  1
  O  O104  1  0.16383173  0.46766489  0.25321877  1
  O  O105  1  0.29517936  0.45896482  0.75972986  1
  O  O106  1  0.15393367  0.68321990  0.76053380  1
  O  O107  1  0.51364083  0.82605405  0.75841463  1
