# generated using pymatgen
data_Na9Ca10Nb2P3(S5O24)3
_symmetry_space_group_name_H-M   'P 1'
_cell_length_a   9.22213212
_cell_length_b   9.18585973
_cell_length_c   23.90826106
_cell_angle_alpha   89.74308680
_cell_angle_beta   90.05024578
_cell_angle_gamma   119.93762472
_symmetry_Int_Tables_number   1
_chemical_formula_structural   Na9Ca10Nb2P3(S5O24)3
_chemical_formula_sum   'Na9 Ca10 Nb2 P3 S15 O72'
_cell_volume   1755.08233356
_cell_formula_units_Z   1
loop_
 _symmetry_equiv_pos_site_id
 _symmetry_equiv_pos_as_xyz
  1  'x, y, z'
loop_
 _atom_site_type_symbol
 _atom_site_label
 _atom_site_symmetry_multiplicity
 _atom_site_fract_x
 _atom_site_fract_y
 _atom_site_fract_z
 _atom_site_occupancy
  Na  Na0  1  0.66625155  0.97138837  0.58931417  1
  Na  Na1  1  0.30430257  0.97091259  0.08888454  1
  Na  Na2  1  0.33144526  0.04493688  0.41125347  1
  Na  Na3  1  0.01020454  0.01405674  0.50275296  1
  Na  Na4  1  0.98547474  0.00244850  0.00345414  1
  Na  Na5  1  0.66956583  0.32203972  0.82997647  1
  Na  Na6  1  0.65817356  0.33523806  0.32940793  1
  Na  Na7  1  0.33187159  0.65771649  0.16236251  1
  Na  Na8  1  0.32175739  0.65378178  0.66142407  1
  Ca  Ca9  1  0.00021054  0.00380386  0.34808391  1
  Ca  Ca10  1  0.99645417  0.00169965  0.84943179  1
  Ca  Ca11  1  0.00154647  0.99878147  0.65564391  1
  Ca  Ca12  1  0.99878597  0.99771638  0.15556544  1
  Ca  Ca13  1  0.66516809  0.33326977  0.68509082  1
  Ca  Ca14  1  0.66525973  0.33110580  0.18504965  1
  Ca  Ca15  1  0.67312203  0.33855351  0.97995049  1
  Ca  Ca16  1  0.67007982  0.34880283  0.48055607  1
  Ca  Ca17  1  0.33204179  0.65786010  0.01791347  1
  Ca  Ca18  1  0.32543978  0.64969836  0.51787785  1
  Nb  Nb19  1  0.33321488  0.66099189  0.31499757  1
  Nb  Nb20  1  0.34017363  0.67313843  0.81478360  1
  P  P21  1  0.30561787  0.99555374  0.25380144  1
  P  P22  1  0.69594509  -0.00006104  0.75106870  1
  P  P23  1  0.33386669  0.37085626  0.41450986  1
  S  S24  1  0.69114157  0.69814224  0.25378630  1
  S  S25  1  0.00701920  0.31074617  0.25287056  1
  S  S26  1  0.30167317  0.31037629  0.75393083  1
  S  S27  1  0.00888730  0.69886089  0.75429970  1
  S  S28  1  0.96071700  0.32863057  0.58403282  1
  S  S29  1  0.36765066  0.03449683  0.58093646  1
  S  S30  1  0.67061858  0.64014000  0.58423609  1
  S  S31  1  0.96779804  0.63706985  0.08332522  1
  S  S32  1  0.66668836  0.03475759  0.08263126  1
  S  S33  1  0.36741057  0.32850424  0.08354240  1
  S  S34  1  0.62071006  0.66434545  0.91397603  1
  S  S35  1  0.04475194  0.37927846  0.91355605  1
  S  S36  1  0.33446113  0.95596450  0.91501663  1
  S  S37  1  0.61908918  0.95317727  0.41545967  1
  S  S38  1  0.04735778  0.66614490  0.41355103  1
  O  O39  1  0.21806377  0.01256862  0.30554517  1
  O  O40  1  0.79161557  0.77992938  0.30317179  1
  O  O41  1  0.98343880  0.20787631  0.30234205  1
  O  O42  1  0.22153147  0.20536944  0.80283649  1
  O  O43  1  0.98911057  0.78197062  0.80315310  1
  O  O44  1  0.80522489  0.01455936  0.80010710  1
  O  O45  1  0.74682207  0.95613920  0.69545331  1
  O  O46  1  0.20277971  0.24623723  0.70252179  1
  O  O47  1  0.04554219  0.79846242  0.70269890  1
  O  O48  1  0.75577345  0.79826528  0.20250393  1
  O  O49  1  0.04057760  0.24387838  0.20186839  1
  O  O50  1  0.20470281  0.95674710  0.19931846  1
  O  O51  1  0.87655657  0.34166617  0.63463006  1
  O  O52  1  0.47428672  0.12461907  0.62950983  1
  O  O53  1  0.65655034  0.54212278  0.63468645  1
  O  O54  1  0.88506119  0.54008537  0.13399515  1
  O  O55  1  0.64870650  0.11846311  0.13275638  1
  O  O56  1  0.46482447  0.34377490  0.13429106  1
  O  O57  1  0.45118427  0.31257071  0.03274946  1
  O  O58  1  0.87311160  0.55432859  0.03213321  1
  O  O59  1  0.68275054  0.13252674  0.03121666  1
  O  O60  1  0.44436890  0.12671716  0.52769007  1
  O  O61  1  0.68241442  0.55780186  0.53291632  1
  O  O62  1  0.86228327  0.31360864  0.53295705  1
  O  O63  1  0.54270928  0.67902211  0.96482608  1
  O  O64  1  0.13432901  0.45716328  0.96515834  1
  O  O65  1  0.32097384  0.86627898  0.96722361  1
  O  O66  1  0.54463799  0.86488093  0.46798490  1
  O  O67  1  0.32209142  0.45579126  0.46657823  1
  O  O68  1  0.14404173  0.68749292  0.46423166  1
  O  O69  1  0.14480809  0.65555479  0.36330181  1
  O  O70  1  0.50680873  0.85165107  0.36618522  1
  O  O71  1  0.33794827  0.48833148  0.36194616  1
  O  O72  1  0.14656941  0.48734210  0.86381180  1
  O  O73  1  0.34247700  0.85043192  0.86550394  1
  O  O74  1  0.51060424  0.65714489  0.86369536  1
  O  O75  1  0.03297725  0.81905217  0.40717871  1
  O  O76  1  0.78655043  0.97495633  0.40828507  1
  O  O77  1  0.18025741  0.19263276  0.41012555  1
  O  O78  1  0.02663208  0.21057312  0.90909252  1
  O  O79  1  0.18498383  0.97187133  0.90767543  1
  O  O80  1  0.78769248  0.81334468  0.90786578  1
  O  O81  1  0.97030143  0.16979594  0.58704301  1
  O  O82  1  0.19762211  0.01250362  0.58636205  1
  O  O83  1  0.82184112  0.81308618  0.58637098  1
  O  O84  1  0.99035012  0.81102158  0.08558365  1
  O  O85  1  0.81386727  0.01062453  0.08698573  1
  O  O86  1  0.20005593  0.16940348  0.08694462  1
  O  O87  1  0.65681896  0.14244039  0.74854429  1
  O  O88  1  0.47400543  0.34200564  0.74811558  1
  O  O89  1  0.86535381  0.52763946  0.74883570  1
  O  O90  1  0.66355254  0.52690730  0.24855320  1
  O  O91  1  0.86763342  0.34358419  0.24731781  1
  O  O92  1  0.48511961  0.14203326  0.24949685  1
  O  O93  1  0.62722424  0.50714339  0.91150594  1
  O  O94  1  0.87942697  0.36992891  0.91125923  1
  O  O95  1  0.49066429  0.11987906  0.91190716  1
  O  O96  1  0.62139800  0.11663558  0.41330963  1
  O  O97  1  0.49409856  0.35712975  0.40986373  1
  O  O98  1  0.88247506  0.51209661  0.41302705  1
  O  O99  1  0.34341946  0.47629962  0.08051288  1
  O  O100  1  0.14208254  0.66175426  0.08104150  1
  O  O101  1  0.50697802  0.86767991  0.07987371  1
  O  O102  1  0.36015063  0.86734002  0.57962651  1
  O  O103  1  0.52127062  0.66491466  0.58229043  1
  O  O104  1  0.13131875  0.47709453  0.58188344  1
  O  O105  1  0.32190333  0.82749503  0.26741680  1
  O  O106  1  0.51611479  0.68139064  0.26299417  1
  O  O107  1  0.16703709  0.48534787  0.26166931  1
  O  O108  1  0.31720149  0.48532993  0.76366240  1
  O  O109  1  0.16618329  0.68074739  0.76423413  1
  O  O110  1  0.50957583  0.83005029  0.76707328  1
