# generated using pymatgen
data_Na3Ti3Ga(PO4)6
_symmetry_space_group_name_H-M   'P 1'
_cell_length_a   8.62061792
_cell_length_b   8.61910318
_cell_length_c   22.16128850
_cell_angle_alpha   90.01655089
_cell_angle_beta   89.96925268
_cell_angle_gamma   120.21851526
_symmetry_Int_Tables_number   1
_chemical_formula_structural   Na3Ti3Ga(PO4)6
_chemical_formula_sum   'Na9 Ti9 Ga3 P18 O72'
_cell_volume   1422.87110724
_cell_formula_units_Z   3
loop_
 _symmetry_equiv_pos_site_id
 _symmetry_equiv_pos_as_xyz
  1  'x, y, z'
loop_
 _atom_site_type_symbol
 _atom_site_label
 _atom_site_symmetry_multiplicity
 _atom_site_fract_x
 _atom_site_fract_y
 _atom_site_fract_z
 _atom_site_occupancy
  Na  Na0  1  0.36521987  0.36281257  0.24856149  1
  Na  Na1  1  0.63527131  0.63376788  0.74916137  1
  Na  Na2  1  0.96899096  0.30028725  0.41541107  1
  Na  Na3  1  0.00064798  0.99256784  0.49958898  1
  Na  Na4  1  0.99984391  0.99984809  0.00066252  1
  Na  Na5  1  0.66721845  0.32586523  0.83389502  1
  Na  Na6  1  0.66737401  0.33375835  0.33090779  1
  Na  Na7  1  0.33236900  0.67386879  0.16492119  1
  Na  Na8  1  0.32574885  0.66715109  0.66551875  1
  Ti  Ti9  1  -0.00025725  0.00141241  0.85411394  1
  Ti  Ti10  1  0.00172738  0.00193421  0.64501508  1
  Ti  Ti11  1  0.99827569  0.99732496  0.14535795  1
  Ti  Ti12  1  0.66679807  0.33393656  0.98098949  1
  Ti  Ti13  1  0.66016189  0.33395662  0.48136228  1
  Ti  Ti14  1  0.33418555  0.66693280  0.02176603  1
  Ti  Ti15  1  0.33289734  0.66766926  0.52081070  1
  Ti  Ti16  1  0.33447196  0.67346095  0.31171756  1
  Ti  Ti17  1  0.32740257  0.66780804  0.81464240  1
  Ga  Ga18  1  0.99966353  0.99380636  0.35087593  1
  Ga  Ga19  1  0.66800163  0.32781133  0.68500064  1
  Ga  Ga20  1  0.67263431  0.33248269  0.18456165  1
  P  P21  1  0.28896982  0.00094004  0.24988099  1
  P  P22  1  0.71438693  0.71066682  0.25040059  1
  P  P23  1  0.99288099  0.28596640  0.25106852  1
  P  P24  1  0.28907493  0.28683865  0.74972466  1
  P  P25  1  0.00119260  0.71139382  0.74933819  1
  P  P26  1  0.71308453  0.00604807  0.74971047  1
  P  P27  1  0.95388744  0.33370702  0.58369575  1
  P  P28  1  0.37883057  0.04477900  0.58464197  1
  P  P29  1  0.66549760  0.62110678  0.58508658  1
  P  P30  1  0.95439070  0.62036157  0.08404425  1
  P  P31  1  0.66677631  0.04670847  0.08416080  1
  P  P32  1  0.37937108  0.33363946  0.08469359  1
  P  P33  1  0.62083854  0.66572055  0.91648951  1
  P  P34  1  0.04433107  0.37821970  0.91750223  1
  P  P35  1  0.33325481  0.95539834  0.91736482  1
  P  P36  1  0.62299281  0.95396007  0.41681488  1
  P  P37  1  0.33453300  0.37728239  0.41578504  1
  P  P38  1  0.04584191  0.67289420  0.41667362  1
  O  O39  1  0.21132697  0.04123883  0.30624326  1
  O  O40  1  0.82512240  0.79032049  0.30730448  1
  O  O41  1  0.96686430  0.17965573  0.30980885  1
  O  O42  1  0.19889698  0.17004012  0.80593466  1
  O  O43  1  0.96723288  0.79853161  0.80529431  1
  O  O44  1  0.82930570  0.02939296  0.80607751  1
  O  O45  1  0.79784008  0.96604170  0.69434223  1
  O  O46  1  0.17029192  0.19972028  0.69368737  1
  O  O47  1  0.03117572  0.82976948  0.69334199  1
  O  O48  1  0.79975882  0.82991824  0.19409267  1
  O  O49  1  0.03416128  0.20066876  0.19601102  1
  O  O50  1  0.16942734  0.96787533  0.19379682  1
  O  O51  1  0.87596088  0.37055581  0.63969094  1
  O  O52  1  0.49269990  0.12289035  0.64069865  1
  O  O53  1  0.63115810  0.51071742  0.64272343  1
  O  O54  1  0.87755432  0.50757081  0.14041387  1
  O  O55  1  0.62879060  0.12231983  0.14038539  1
  O  O56  1  0.48884195  0.36862313  0.14249720  1
  O  O57  1  0.46830722  0.30392275  0.02838305  1
  O  O58  1  0.83693929  0.53356086  0.02718598  1
  O  O59  1  0.69725480  0.16392871  0.02728471  1
  O  O60  1  0.46650207  0.16314453  0.52768358  1
  O  O61  1  0.69588254  0.53143797  0.52876455  1
  O  O62  1  0.84063590  0.30252873  0.52557352  1
  O  O63  1  0.53289073  0.69664895  0.97184753  1
  O  O64  1  0.16272014  0.46543135  0.97283621  1
  O  O65  1  0.30233628  0.83679115  0.97264880  1
  O  O66  1  0.53243167  0.83709883  0.47272220  1
  O  O67  1  0.30138724  0.46638912  0.47123881  1
  O  O68  1  0.16229860  0.69609091  0.47276936  1
  O  O69  1  0.13144648  0.63303559  0.36121341  1
  O  O70  1  0.50353095  0.86626687  0.36064723  1
  O  O71  1  0.36493321  0.49148190  0.35841433  1
  O  O72  1  0.13351319  0.49614551  0.86060046  1
  O  O73  1  0.36263023  0.86656540  0.86054068  1
  O  O74  1  0.50801459  0.63703124  0.85848159  1
  O  O75  1  0.02749142  0.83818444  0.41107437  1
  O  O76  1  0.81180604  0.97935401  0.41133499  1
  O  O77  1  0.16316741  0.19221407  0.41105570  1
  O  O78  1  0.02669098  0.19237408  0.90939186  1
  O  O79  1  0.16525728  0.97276960  0.90896288  1
  O  O80  1  0.80836704  0.83459007  0.90930279  1
  O  O81  1  0.97349648  0.16520632  0.59007375  1
  O  O82  1  0.19142630  0.02613025  0.58946154  1
  O  O83  1  0.83499642  0.80884478  0.58972716  1
  O  O84  1  0.97403764  0.80853740  0.08943583  1
  O  O85  1  0.83483448  0.02676449  0.08993872  1
  O  O86  1  0.19065382  0.16518083  0.08977315  1
  O  O87  1  0.69428031  0.17141529  0.74457740  1
  O  O88  1  0.47832111  0.31245943  0.74448108  1
  O  O89  1  0.82974107  0.52657454  0.74405514  1
  O  O90  1  0.68299084  0.51930402  0.24350850  1
  O  O91  1  0.83038426  0.30934773  0.24397784  1
  O  O92  1  0.47553161  0.16909231  0.24299457  1
  O  O93  1  0.63997485  0.49837894  0.92325370  1
  O  O94  1  0.85829087  0.35968976  0.92303465  1
  O  O95  1  0.50165510  0.14185612  0.92314032  1
  O  O96  1  0.64393476  0.14320265  0.42321447  1
  O  O97  1  0.50341979  0.36049392  0.42360872  1
  O  O98  1  0.86104780  0.49738225  0.42358058  1
  O  O99  1  0.35782441  0.49997034  0.07527342  1
  O  O100  1  0.14285262  0.64321836  0.07495546  1
  O  O101  1  0.50049702  0.85741426  0.07493631  1
  O  O102  1  0.35686180  0.85720003  0.57532659  1
  O  O103  1  0.49961014  0.64192774  0.57524953  1
  O  O104  1  0.14350025  0.49981779  0.57515324  1
  O  O105  1  0.30528189  0.83056734  0.25688700  1
  O  O106  1  0.52300032  0.68961131  0.25638129  1
  O  O107  1  0.16971626  0.47350188  0.25682386  1
  O  O108  1  0.31065558  0.47649570  0.75639010  1
  O  O109  1  0.16976736  0.69405518  0.75650618  1
  O  O110  1  0.52781976  0.83079387  0.75672539  1
