# generated using pymatgen
data_Na4ZnSiGe(PO6)2
_symmetry_space_group_name_H-M   'P 1'
_cell_length_a   8.95628466
_cell_length_b   8.94091026
_cell_length_c   21.67169983
_cell_angle_alpha   90.27688362
_cell_angle_beta   90.00000000
_cell_angle_gamma   120.05689878
_symmetry_Int_Tables_number   1
_chemical_formula_structural   Na4ZnSiGe(PO6)2
_chemical_formula_sum   'Na24 Zn6 Si6 Ge6 P12 O72'
_cell_volume   1502.02504899
_cell_formula_units_Z   6
loop_
 _symmetry_equiv_pos_site_id
 _symmetry_equiv_pos_as_xyz
  1  'x, y, z'
loop_
 _atom_site_type_symbol
 _atom_site_label
 _atom_site_symmetry_multiplicity
 _atom_site_fract_x
 _atom_site_fract_y
 _atom_site_fract_z
 _atom_site_occupancy
  Na  Na0  1  0.63586013  0.01131903  0.24852944  1
  Na  Na1  1  0.37194542  0.35766179  0.24967992  1
  Na  Na2  1  0.98998150  0.62679052  0.24475285  1
  Na  Na3  1  0.63680902  0.62679052  0.74475285  1
  Na  Na4  1  0.98571637  0.35766179  0.74967992  1
  Na  Na5  1  0.37545890  0.01131903  0.74852944  1
  Na  Na6  1  0.30765475  0.34711315  0.58289625  1
  Na  Na7  1  0.03644148  0.69378578  0.58046281  1
  Na  Na8  1  0.65454112  0.95531689  0.57997589  1
  Na  Na9  1  0.30077677  0.95531689  0.07997589  1
  Na  Na10  1  0.65734530  0.69378578  0.08046281  1
  Na  Na11  1  0.03945940  0.34711315  0.08289625  1
  Na  Na12  1  0.97542755  0.68173891  0.91688699  1
  Na  Na13  1  0.70626777  0.03111710  0.91181507  1
  Na  Na14  1  0.32168217  0.29260256  0.91446740  1
  Na  Na15  1  0.97091939  0.29260256  0.41446740  1
  Na  Na16  1  0.32484834  0.03111710  0.41181507  1
  Na  Na17  1  0.70631036  0.68173891  0.41688699  1
  Na  Na18  1  0.99540780  0.99936231  0.49579719  1
  Na  Na19  1  0.00395451  0.99936231  0.99579719  1
  Na  Na20  1  0.66699181  0.32936922  0.82930556  1
  Na  Na21  1  0.66237840  0.32936922  0.32930556  1
  Na  Na22  1  0.32815482  0.66645071  0.16267985  1
  Na  Na23  1  0.33829489  0.66645071  0.66267985  1
  Zn  Zn24  1  0.00106068  0.00130260  0.34902480  1
  Zn  Zn25  1  0.00024193  0.00130260  0.84902480  1
  Zn  Zn26  1  0.66655381  0.33017089  0.68244613  1
  Zn  Zn27  1  0.66361808  0.33017089  0.18244613  1
  Zn  Zn28  1  0.32703108  0.67108523  0.01584933  1
  Zn  Zn29  1  0.34405315  0.67108523  0.51584933  1
  Si  Si30  1  0.29243676  0.99633937  0.25271247  1
  Si  Si31  1  0.70390260  0.99633937  0.75271247  1
  Si  Si32  1  0.67045325  0.62534099  0.58599869  1
  Si  Si33  1  0.95488874  0.62534099  0.08599869  1
  Si  Si34  1  0.33770288  0.96658751  0.91951649  1
  Si  Si35  1  0.62888364  0.96658751  0.41951649  1
  Ge  Ge36  1  0.98887497  0.99062900  0.64932509  1
  Ge  Ge37  1  0.00175404  0.99062900  0.14932509  1
  Ge  Ge38  1  0.66429978  0.33228317  0.98313597  1
  Ge  Ge39  1  0.66798439  0.33228317  0.48313597  1
  Ge  Ge40  1  0.33586894  0.67882003  0.31630716  1
  Ge  Ge41  1  0.34295009  0.67882003  0.81630716  1
  P  P42  1  0.70341285  0.71002204  0.25179611  1
  P  P43  1  0.00705610  0.29412288  0.25124243  1
  P  P44  1  0.28706679  0.29412288  0.75124243  1
  P  P45  1  0.00660919  0.71002204  0.75179611  1
  P  P46  1  0.95813685  0.32805841  0.58480991  1
  P  P47  1  0.36849627  0.04306329  0.58502701  1
  P  P48  1  0.67456802  0.04306329  0.08502701  1
  P  P49  1  0.36992256  0.32805841  0.08480991  1
  P  P50  1  0.62039729  0.65938091  0.91864541  1
  P  P51  1  0.04150346  0.38008970  0.91754875  1
  P  P52  1  0.33858523  0.38008970  0.41754875  1
  P  P53  1  0.03898261  0.65938091  0.41864541  1
  O  O54  1  0.21375756  0.03233262  0.31282995  1
  O  O55  1  0.81063576  0.78789361  0.30903288  1
  O  O56  1  0.97490969  0.18682185  0.30856305  1
  O  O57  1  0.21191217  0.18682185  0.80856305  1
  O  O58  1  0.97725784  0.78789361  0.80903288  1
  O  O59  1  0.81857506  0.03233262  0.81282995  1
  O  O60  1  0.79353222  0.95528476  0.69034274  1
  O  O61  1  0.16652866  0.20585706  0.69192214  1
  O  O62  1  0.04409098  0.83085453  0.69267298  1
  O  O63  1  0.78676355  0.83085453  0.19267298  1
  O  O64  1  0.03932840  0.20585706  0.19192214  1
  O  O65  1  0.16175254  0.95528476  0.19034274  1
  O  O66  1  0.88196742  0.35800763  0.64251998  1
  O  O67  1  0.47819872  0.11657174  0.64204645  1
  O  O68  1  0.63872154  0.51202527  0.64586074  1
  O  O69  1  0.87330474  0.51202527  0.14586074  1
  O  O70  1  0.63837401  0.11657174  0.14204645  1
  O  O71  1  0.47604121  0.35800763  0.14251998  1
  O  O72  1  0.45406083  0.29022482  0.02603880  1
  O  O73  1  0.82338699  0.53339273  0.02309653  1
  O  O74  1  0.70853845  0.16306778  0.02612078  1
  O  O75  1  0.45453034  0.16306778  0.52612078  1
  O  O76  1  0.71000675  0.53339273  0.52309653  1
  O  O77  1  0.83616499  0.29022482  0.52603880  1
  O  O78  1  0.54036927  0.68638749  0.97578004  1
  O  O79  1  0.14920844  0.45458493  0.97505928  1
  O  O80  1  0.30010677  0.85268400  0.97955932  1
  O  O81  1  0.55257623  0.85268400  0.47955932  1
  O  O82  1  0.30537549  0.45458493  0.47505928  1
  O  O83  1  0.14601722  0.68638749  0.47578004  1
  O  O84  1  0.12314148  0.62396665  0.35906385  1
  O  O85  1  0.49674210  0.87724407  0.35743334  1
  O  O86  1  0.37149180  0.50071477  0.35851848  1
  O  O87  1  0.12922197  0.50071477  0.85851848  1
  O  O88  1  0.38050097  0.87724407  0.85743334  1
  O  O89  1  0.50082417  0.62396665  0.85906385  1
  O  O90  1  0.01381933  0.81553661  0.41246164  1
  O  O91  1  0.82064243  0.99504956  0.41151992  1
  O  O92  1  0.18409900  0.19752410  0.41170660  1
  O  O93  1  0.01342511  0.19752410  0.91170660  1
  O  O94  1  0.17440713  0.99504956  0.91151992  1
  O  O95  1  0.80171728  0.81553661  0.91246164  1
  O  O96  1  0.97184327  0.15759868  0.58778355  1
  O  O97  1  0.18820703  0.03733499  0.58904723  1
  O  O98  1  0.85674187  0.82043221  0.58853139  1
  O  O99  1  0.96369034  0.82043221  0.08853139  1
  O  O100  1  0.84912796  0.03733499  0.08904723  1
  O  O101  1  0.18575540  0.15759868  0.08778355  1
  O  O102  1  0.67431282  0.15954104  0.74535185  1
  O  O103  1  0.46851460  0.32147072  0.74524008  1
  O  O104  1  0.85077657  0.52884661  0.74497477  1
  O  O105  1  0.67807105  0.52884661  0.24497477  1
  O  O106  1  0.85295712  0.32147072  0.24524008  1
  O  O107  1  0.48522921  0.15954104  0.24535185  1
  O  O108  1  0.63174309  0.48774463  0.92040207  1
  O  O109  1  0.85971768  0.37076917  0.92038591  1
  O  O110  1  0.52439340  0.16105644  0.92464342  1
  O  O111  1  0.63666404  0.16105644  0.42464342  1
  O  O112  1  0.51105249  0.37076917  0.42038591  1
  O  O113  1  0.85600254  0.48774463  0.42040207  1
  O  O114  1  0.34800668  0.48541991  0.07706445  1
  O  O115  1  0.14696108  0.65285560  0.08079472  1
  O  O116  1  0.52306911  0.85910700  0.07769324  1
  O  O117  1  0.33603689  0.85910700  0.57769324  1
  O  O118  1  0.50589351  0.65285560  0.58079472  1
  O  O119  1  0.13741223  0.48541991  0.57706445  1
  O  O120  1  0.29916421  0.80950136  0.25580805  1
  O  O121  1  0.51942319  0.69658813  0.25470634  1
  O  O122  1  0.18076627  0.47578295  0.25478844  1
  O  O123  1  0.29501568  0.47578295  0.75478844  1
  O  O124  1  0.17716395  0.69658813  0.75470634  1
  O  O125  1  0.51033615  0.80950136  0.75580805  1
