# generated using pymatgen
data_Na14Mg2Si9Sn6(SO16)3
_symmetry_space_group_name_H-M   'P 1'
_cell_length_a   18.15807212
_cell_length_b   9.12604090
_cell_length_c   22.48505394
_cell_angle_alpha   90.29916328
_cell_angle_beta   89.80474727
_cell_angle_gamma   120.04915803
_symmetry_Int_Tables_number   1
_chemical_formula_structural   Na14Mg2Si9Sn6(SO16)3
_chemical_formula_sum   'Na42 Mg6 Si27 Sn18 S9 O144'
_cell_volume   3225.18974465
_cell_formula_units_Z   3
loop_
 _symmetry_equiv_pos_site_id
 _symmetry_equiv_pos_as_xyz
  1  'x, y, z'
loop_
 _atom_site_type_symbol
 _atom_site_label
 _atom_site_symmetry_multiplicity
 _atom_site_fract_x
 _atom_site_fract_y
 _atom_site_fract_z
 _atom_site_occupancy
  Na  Na0  1  0.31181066  0.00081047  0.24605432  1
  Na  Na1  1  0.81704329  0.01424152  0.24887976  1
  Na  Na2  1  0.18627843  0.36387910  0.25123600  1
  Na  Na3  1  0.69328666  0.36606606  0.24992094  1
  Na  Na4  1  0.99251046  0.62135954  0.25375672  1
  Na  Na5  1  0.49589398  0.63590236  0.24862338  1
  Na  Na6  1  0.31771249  0.62006908  0.74202596  1
  Na  Na7  1  0.81226002  0.62362976  0.74247529  1
  Na  Na8  1  0.99382954  0.35159119  0.74419028  1
  Na  Na9  1  0.49441237  0.36792568  0.74999821  1
  Na  Na10  1  0.19343140  0.02280732  0.74574043  1
  Na  Na11  1  0.68815108  0.00991516  0.74823862  1
  Na  Na12  1  0.15292705  0.33455352  0.58538332  1
  Na  Na13  1  0.65750299  0.35190983  0.57984161  1
  Na  Na14  1  0.01207568  0.69413109  0.57920179  1
  Na  Na15  1  0.51521310  0.69494734  0.57583794  1
  Na  Na16  1  0.32934668  0.96409174  0.58460834  1
  Na  Na17  1  0.83180731  0.95618442  0.57509111  1
  Na  Na18  1  0.15660992  0.96380390  0.08518599  1
  Na  Na19  1  0.65459963  0.97311263  0.08862789  1
  Na  Na20  1  0.33398580  0.70592921  0.08488130  1
  Na  Na21  1  0.82909267  0.69427728  0.08775596  1
  Na  Na22  1  0.01302009  0.33093807  0.08064912  1
  Na  Na23  1  0.51421599  0.33154785  0.08313220  1
  Na  Na24  1  0.98508009  0.66818949  0.91809153  1
  Na  Na25  1  0.34991496  0.03849528  0.91510408  1
  Na  Na26  1  0.16338946  0.29472690  0.91599399  1
  Na  Na27  1  0.48752370  0.30544332  0.41812751  1
  Na  Na28  1  0.66903953  0.03125061  0.41480475  1
  Na  Na29  1  0.84906654  0.66867849  0.41897003  1
  Na  Na30  1  0.99890997  0.99767408  0.49736742  1
  Na  Na31  1  0.49374041  0.98496721  0.49411437  1
  Na  Na32  1  0.99120402  0.00066401  0.99572907  1
  Na  Na33  1  0.50633923  0.01063739  0.00220096  1
  Na  Na34  1  0.33841814  0.33735164  0.82617020  1
  Na  Na35  1  0.82770010  0.32184680  0.83117072  1
  Na  Na36  1  0.32854445  0.33453733  0.33247619  1
  Na  Na37  1  0.83702651  0.33158877  0.33044233  1
  Na  Na38  1  0.17088963  0.67668501  0.16975488  1
  Na  Na39  1  0.67056706  0.67560389  0.16715182  1
  Na  Na40  1  0.16898571  0.66416052  0.66233191  1
  Na  Na41  1  0.67285367  0.66620642  0.66556029  1
  Mg  Mg42  1  0.32766144  0.33355945  0.68775686  1
  Mg  Mg43  1  0.83387819  0.33421103  0.68252138  1
  Mg  Mg44  1  0.33387571  0.33172377  0.18467654  1
  Mg  Mg45  1  0.82674638  0.32045255  0.18922412  1
  Mg  Mg46  1  0.16579406  0.67701354  0.01489625  1
  Mg  Mg47  1  0.67295212  0.66459327  0.51028475  1
  Si  Si48  1  0.14716350  0.00606584  0.24874745  1
  Si  Si49  1  0.64496490  0.99538868  0.25162853  1
  Si  Si50  1  0.35268824  0.70381847  0.24943595  1
  Si  Si51  1  0.84842736  0.69734817  0.25104713  1
  Si  Si52  1  0.00156873  0.29869994  0.25142337  1
  Si  Si53  1  0.14507154  0.29220550  0.75260494  1
  Si  Si54  1  0.64981143  0.29346978  0.74699317  1
  Si  Si55  1  0.50106171  0.70641032  0.75269588  1
  Si  Si56  1  0.34980056  0.99841784  0.75213550  1
  Si  Si57  1  0.85261259  0.00159978  0.74996587  1
  Si  Si58  1  0.97921964  0.33724464  0.58494854  1
  Si  Si59  1  0.18918502  0.04554926  0.58668923  1
  Si  Si60  1  0.33497525  0.62728877  0.58491904  1
  Si  Si61  1  0.82987910  0.62421356  0.58664991  1
  Si  Si62  1  0.47836068  0.62152652  0.08391435  1
  Si  Si63  1  0.33028080  0.03032894  0.08658371  1
  Si  Si64  1  0.83533750  0.04273965  0.08423296  1
  Si  Si65  1  0.68885293  0.33222154  0.08622258  1
  Si  Si66  1  0.81271522  0.66184757  0.91649691  1
  Si  Si67  1  0.02023941  0.37836069  0.92108468  1
  Si  Si68  1  0.52127778  0.36933687  0.91540480  1
  Si  Si69  1  0.16641106  0.96357308  0.91867086  1
  Si  Si70  1  0.31277854  0.96275297  0.41677999  1
  Si  Si71  1  0.81863792  0.97020468  0.41980312  1
  Si  Si72  1  0.66490407  0.37047134  0.41802150  1
  Si  Si73  1  0.02265521  0.67484346  0.41540031  1
  Si  Si74  1  0.51964121  0.66055257  0.42101334  1
  Sn  Sn75  1  0.99764909  0.99502117  0.35101050  1
  Sn  Sn76  1  0.49759367  0.98243073  0.35634215  1
  Sn  Sn77  1  0.99654965  0.01071406  0.85588768  1
  Sn  Sn78  1  0.50462424  0.01255956  0.84743889  1
  Sn  Sn79  1  0.99714400  0.00868357  0.64481580  1
  Sn  Sn80  1  0.49596756  0.98703572  0.65450719  1
  Sn  Sn81  1  0.99386720  0.00324502  0.15725042  1
  Sn  Sn82  1  0.49825551  0.98796747  0.14667675  1
  Sn  Sn83  1  0.34260409  0.32777403  0.98265670  1
  Sn  Sn84  1  0.83046254  0.32501969  0.98122138  1
  Sn  Sn85  1  0.33027349  0.33528799  0.48074819  1
  Sn  Sn86  1  0.84323684  0.34832890  0.47752012  1
  Sn  Sn87  1  0.66788654  0.65695668  0.01896772  1
  Sn  Sn88  1  0.16782588  0.67747992  0.51842364  1
  Sn  Sn89  1  0.16653468  0.67801015  0.31332917  1
  Sn  Sn90  1  0.67166418  0.67951704  0.32126926  1
  Sn  Sn91  1  0.16595797  0.66752000  0.81764710  1
  Sn  Sn92  1  0.66659609  0.65537475  0.81308594  1
  S  S93  1  0.50009215  0.29223936  0.25020006  1
  S  S94  1  0.00015600  0.70876744  0.75071642  1
  S  S95  1  0.48015719  0.33278903  0.58543703  1
  S  S96  1  0.68532106  0.03951342  0.58444745  1
  S  S97  1  0.98077455  0.62791222  0.08443219  1
  S  S98  1  0.18686798  0.33300137  0.08265518  1
  S  S99  1  0.31478524  0.66603179  0.91868899  1
  S  S100  1  0.66477678  0.95772244  0.91632365  1
  S  S101  1  0.16637216  0.37453995  0.41621960  1
  O  O102  1  0.10200051  0.04312052  0.30466845  1
  O  O103  1  0.60130412  0.03490714  0.30857062  1
  O  O104  1  0.41626758  0.79526314  0.30505893  1
  O  O105  1  0.91056335  0.78687861  0.30776907  1
  O  O106  1  0.48657675  0.18691098  0.30350660  1
  O  O107  1  0.98258067  0.16627189  0.30488890  1
  O  O108  1  0.10279123  0.16940226  0.81056900  1
  O  O109  1  0.60865617  0.17048289  0.80497789  1
  O  O110  1  0.47977558  0.79648395  0.80864797  1
  O  O111  1  0.98833684  0.78691738  0.80517529  1
  O  O112  1  0.40769800  0.02765296  0.81183510  1
  O  O113  1  0.91554731  0.03919290  0.80650926  1
  O  O114  1  0.38853886  0.95201556  0.69265240  1
  O  O115  1  0.89079492  0.94985767  0.69163356  1
  O  O116  1  0.08360171  0.21169302  0.69357094  1
  O  O117  1  0.58475377  0.20944990  0.68872098  1
  O  O118  1  0.01583188  0.81520998  0.69739879  1
  O  O119  1  0.52608551  0.82751458  0.69227225  1
  O  O120  1  0.38922246  0.82830472  0.18997713  1
  O  O121  1  0.88529916  0.81915395  0.19012366  1
  O  O122  1  0.02770456  0.23133471  0.18889541  1
  O  O123  1  0.51473820  0.21475164  0.19566617  1
  O  O124  1  0.08602267  0.96207753  0.18714119  1
  O  O125  1  0.58466716  0.95508456  0.19133744  1
  O  O126  1  0.43847813  0.35265751  0.63826454  1
  O  O127  1  0.94396469  0.37627660  0.64502808  1
  O  O128  1  0.24789749  0.12118371  0.64435649  1
  O  O129  1  0.73678377  0.11875970  0.63792424  1
  O  O130  1  0.31847545  0.51815657  0.64406375  1
  O  O131  1  0.81547080  0.50846296  0.64407244  1
  O  O132  1  0.44050872  0.50555795  0.14166920  1
  O  O133  1  0.93952176  0.52458735  0.13669956  1
  O  O134  1  0.31263498  0.12005689  0.14178052  1
  O  O135  1  0.81851980  0.12162830  0.14260752  1
  O  O136  1  0.23935781  0.35819181  0.13543233  1
  O  O137  1  0.74866799  0.37436341  0.14283047  1
  O  O138  1  0.22558342  0.30598346  0.02726957  1
  O  O139  1  0.72680884  0.28663990  0.02598060  1
  O  O140  1  0.41266872  0.54289721  0.02582947  1
  O  O141  1  0.92853776  0.55574394  0.02907593  1
  O  O142  1  0.35204708  0.14562606  0.02400816  1
  O  O143  1  0.85865905  0.16715590  0.02555490  1
  O  O144  1  0.22839429  0.16909844  0.52770636  1
  O  O145  1  0.72263107  0.14315223  0.53044931  1
  O  O146  1  0.35795295  0.54715432  0.52683512  1
  O  O147  1  0.85006393  0.54375750  0.52585070  1
  O  O148  1  0.42745867  0.29896398  0.53055131  1
  O  O149  1  0.91467570  0.28998575  0.52839667  1
  O  O150  1  0.27352333  0.69177129  0.97065729  1
  O  O151  1  0.77420135  0.70289554  0.97594468  1
  O  O152  1  0.08116281  0.46294270  0.97752594  1
  O  O153  1  0.57530122  0.45260878  0.97588097  1
  O  O154  1  0.14927149  0.84851230  0.97598128  1
  O  O155  1  0.65397523  0.85824381  0.97082175  1
  O  O156  1  0.27461450  0.84630935  0.47631877  1
  O  O157  1  0.77701980  0.84970929  0.47640833  1
  O  O158  1  0.15594503  0.45342917  0.47134362  1
  O  O159  1  0.64331193  0.44395387  0.47615938  1
  O  O160  1  0.07637297  0.69695338  0.47620204  1
  O  O161  1  0.57733304  0.69341387  0.47896767  1
  O  O162  1  0.06211650  0.63519430  0.35615814  1
  O  O163  1  0.55798706  0.62096608  0.35875618  1
  O  O164  1  0.25732989  0.88103467  0.35634333  1
  O  O165  1  0.75987307  0.89571027  0.35808152  1
  O  O166  1  0.17891037  0.47757481  0.36231507  1
  O  O167  1  0.68455926  0.48909798  0.35736441  1
  O  O168  1  0.05951551  0.49645423  0.85936446  1
  O  O169  1  0.56141460  0.48323771  0.85598802  1
  O  O170  1  0.18989413  0.88629246  0.85856850  1
  O  O171  1  0.67690940  0.87937869  0.86206001  1
  O  O172  1  0.26293769  0.63692135  0.86292106  1
  O  O173  1  0.75671838  0.63266599  0.85645328  1
  O  O174  1  0.01244824  0.84373749  0.41229658  1
  O  O175  1  0.51497915  0.83585829  0.41513318  1
  O  O176  1  0.41053265  0.99612699  0.41044721  1
  O  O177  1  0.91162566  0.98109749  0.41260100  1
  O  O178  1  0.09001941  0.20492737  0.41245962  1
  O  O179  1  0.57927015  0.18132191  0.40960892  1
  O  O180  1  0.01524775  0.19367352  0.91520481  1
  O  O181  1  0.50593169  0.17187788  0.91273550  1
  O  O182  1  0.08033298  0.97778501  0.90996430  1
  O  O183  1  0.58696566  0.97385252  0.91266373  1
  O  O184  1  0.39983908  0.82083563  0.91314144  1
  O  O185  1  0.91069518  0.82423032  0.91047537  1
  O  O186  1  0.48999376  0.17632261  0.58864546  1
  O  O187  1  0.99003601  0.16663852  0.58514918  1
  O  O188  1  0.09217301  0.02069501  0.59085699  1
  O  O189  1  0.59777719  0.02656075  0.58839262  1
  O  O190  1  0.42266371  0.82529734  0.58722230  1
  O  O191  1  0.92054955  0.81279224  0.58858748  1
  O  O192  1  0.48852654  0.81251892  0.08470316  1
  O  O193  1  0.99118181  0.80362931  0.08768848  1
  O  O194  1  0.42065554  0.02444135  0.08887911  1
  O  O195  1  0.92312727  0.01949901  0.08710115  1
  O  O196  1  0.10075673  0.17424653  0.08585718  1
  O  O197  1  0.59160456  0.16337605  0.09003062  1
  O  O198  1  0.34431880  0.16810245  0.74691890  1
  O  O199  1  0.84308592  0.16780420  0.74406586  1
  O  O200  1  0.23909379  0.31683706  0.74903414  1
  O  O201  1  0.74306586  0.31442136  0.74371159  1
  O  O202  1  0.41920114  0.52071778  0.74553098  1
  O  O203  1  0.92509433  0.53857489  0.74618645  1
  O  O204  1  0.34359947  0.51893035  0.24303298  1
  O  O205  1  0.84353872  0.51759291  0.24469180  1
  O  O206  1  0.42363112  0.30938712  0.24487323  1
  O  O207  1  0.91965566  0.32004791  0.24374296  1
  O  O208  1  0.24100236  0.17127644  0.24444780  1
  O  O209  1  0.73808143  0.15959431  0.24786243  1
  O  O210  1  0.31948549  0.50775094  0.92271914  1
  O  O211  1  0.82604246  0.49641741  0.92374719  1
  O  O212  1  0.42410638  0.34385739  0.91787560  1
  O  O213  1  0.92610753  0.36598499  0.92267098  1
  O  O214  1  0.25032757  0.16076653  0.92379407  1
  O  O215  1  0.74235086  0.12931549  0.91945241  1
  O  O216  1  0.32536572  0.15421449  0.42392085  1
  O  O217  1  0.81842626  0.15020219  0.42336708  1
  O  O218  1  0.24476823  0.35977903  0.41949450  1
  O  O219  1  0.74984674  0.34945967  0.42318629  1
  O  O220  1  0.42475902  0.48488757  0.42216963  1
  O  O221  1  0.92587127  0.51059090  0.41725201  1
  O  O222  1  0.17618236  0.48326941  0.07699822  1
  O  O223  1  0.67607214  0.49971298  0.07949413  1
  O  O224  1  0.06615957  0.64449202  0.07848622  1
  O  O225  1  0.57523711  0.64995988  0.07388276  1
  O  O226  1  0.24877363  0.83847158  0.07792574  1
  O  O227  1  0.74935717  0.85313061  0.07555295  1
  O  O228  1  0.17710118  0.85337218  0.57972761  1
  O  O229  1  0.67260141  0.86679316  0.57968721  1
  O  O230  1  0.24961308  0.64672731  0.57632578  1
  O  O231  1  0.74707949  0.65024803  0.58056360  1
  O  O232  1  0.07680807  0.50238944  0.57560846  1
  O  O233  1  0.56516864  0.48552337  0.58003044  1
  O  O234  1  0.15235768  0.82999607  0.25116425  1
  O  O235  1  0.64788848  0.81578217  0.25592956  1
  O  O236  1  0.25815514  0.68770987  0.25599876  1
  O  O237  1  0.75365627  0.68375148  0.25512062  1
  O  O238  1  0.09091976  0.48268134  0.25647431  1
  O  O239  1  0.57792887  0.46243982  0.25420066  1
  O  O240  1  0.15079815  0.48117411  0.75835324  1
  O  O241  1  0.65243778  0.47683117  0.75078077  1
  O  O242  1  0.07964897  0.69452788  0.75467378  1
  O  O243  1  0.58993338  0.70023764  0.75830926  1
  O  O244  1  0.25527650  0.82092988  0.75639518  1
  O  O245  1  0.75812677  0.82893652  0.75663903  1
