# generated using pymatgen
data_Na10Al4Zn4Si3(S3O16)3
_symmetry_space_group_name_H-M   'P 1'
_cell_length_a   17.59884090
_cell_length_b   8.76432454
_cell_length_c   21.91400991
_cell_angle_alpha   89.76456892
_cell_angle_beta   88.60688265
_cell_angle_gamma   119.87647881
_symmetry_Int_Tables_number   1
_chemical_formula_structural   Na10Al4Zn4Si3(S3O16)3
_chemical_formula_sum   'Na30 Al12 Zn12 Si9 S27 O144'
_cell_volume   2929.47494727
_cell_formula_units_Z   3
loop_
 _symmetry_equiv_pos_site_id
 _symmetry_equiv_pos_as_xyz
  1  'x, y, z'
loop_
 _atom_site_type_symbol
 _atom_site_label
 _atom_site_symmetry_multiplicity
 _atom_site_fract_x
 _atom_site_fract_y
 _atom_site_fract_z
 _atom_site_occupancy
  Na  Na0  1  0.18743501  0.36836613  0.24632154  1
  Na  Na1  1  0.68766812  0.37105086  0.24618715  1
  Na  Na2  1  0.98974028  0.63810737  0.25367058  1
  Na  Na3  1  0.49208823  0.63228301  0.25952530  1
  Na  Na4  1  0.32513074  0.64920425  0.74394901  1
  Na  Na5  1  0.82189333  0.64329397  0.74427149  1
  Na  Na6  1  0.99130494  0.34789924  0.75185739  1
  Na  Na7  1  0.18689468  0.00400793  0.74301361  1
  Na  Na8  1  0.68701302  0.00655495  0.74294614  1
  Na  Na9  1  0.51936877  0.70127264  0.57516658  1
  Na  Na10  1  0.32361529  0.96904164  0.58841990  1
  Na  Na11  1  0.82338874  0.96391918  0.58674091  1
  Na  Na12  1  0.15396858  0.97686802  0.07939796  1
  Na  Na13  1  0.65382785  0.97688905  0.07900242  1
  Na  Na14  1  0.32610732  0.68513463  0.09099169  1
  Na  Na15  1  0.82570924  0.68495132  0.09147924  1
  Na  Na16  1  0.65891023  0.01149795  0.42412192  1
  Na  Na17  1  0.35474819  0.67227224  0.41030050  1
  Na  Na18  1  0.01557563  0.00319716  0.49827364  1
  Na  Na19  1  0.50890006  0.01474592  0.49772332  1
  Na  Na20  1  0.00729804  0.02585411  0.99722347  1
  Na  Na21  1  0.50759129  0.02756615  0.99682858  1
  Na  Na22  1  0.34607434  0.32097582  0.83165956  1
  Na  Na23  1  0.83334638  0.31818559  0.83378501  1
  Na  Na24  1  0.33613292  0.32668065  0.33287015  1
  Na  Na25  1  0.83877267  0.34764992  0.33160423  1
  Na  Na26  1  0.16957355  0.65441183  0.16534494  1
  Na  Na27  1  0.67006247  0.65514213  0.16644562  1
  Na  Na28  1  0.16303778  0.67550841  0.66018578  1
  Na  Na29  1  0.66178700  0.65671475  0.66250674  1
  Al  Al30  1  0.99820197  0.99481287  0.64477153  1
  Al  Al31  1  0.50284042  0.01218999  0.64937243  1
  Al  Al32  1  0.99445687  0.01421619  0.14905043  1
  Al  Al33  1  0.49589433  0.01167249  0.14881299  1
  Al  Al34  1  0.32619174  0.32564963  0.98236349  1
  Al  Al35  1  0.82571274  0.32550551  0.98254482  1
  Al  Al36  1  0.32996811  0.32611002  0.48022684  1
  Al  Al37  1  0.82977267  0.33327903  0.48423954  1
  Al  Al38  1  0.17407085  0.67871720  0.31547046  1
  Al  Al39  1  0.67265407  0.67550698  0.31939222  1
  Al  Al40  1  0.17585066  0.67594720  0.81882752  1
  Al  Al41  1  0.66773563  0.66922797  0.81626639  1
  Zn  Zn42  1  0.99424703  0.98747865  0.34941405  1
  Zn  Zn43  1  0.49639846  0.98479559  0.34928383  1
  Zn  Zn44  1  0.99516284  0.00284500  0.85058737  1
  Zn  Zn45  1  0.49568784  0.00441410  0.85040758  1
  Zn  Zn46  1  0.33143773  0.30549297  0.67978003  1
  Zn  Zn47  1  0.83026464  0.31462130  0.67801738  1
  Zn  Zn48  1  0.33003678  0.34659342  0.18158368  1
  Zn  Zn49  1  0.82929795  0.34810887  0.18083104  1
  Zn  Zn50  1  0.16254769  0.64631077  0.01571835  1
  Zn  Zn51  1  0.66192004  0.64523245  0.01526768  1
  Zn  Zn52  1  0.16064053  0.67495693  0.51800834  1
  Zn  Zn53  1  0.66481508  0.67590385  0.51390407  1
  Si  Si54  1  0.35117904  0.71126870  0.24971707  1
  Si  Si55  1  0.85178293  0.71499884  0.25042285  1
  Si  Si56  1  0.35430407  -0.00083836  0.75171893  1
  Si  Si57  1  0.85304899  0.99592599  0.75005141  1
  Si  Si58  1  0.18125565  0.04234652  0.58352683  1
  Si  Si59  1  0.68122816  0.03978180  0.58448184  1
  Si  Si60  1  0.18012356  0.32456403  0.08528852  1
  Si  Si61  1  0.67958216  0.32510555  0.08478363  1
  Si  Si62  1  0.51634484  0.65405612  0.41737671  1
  S  S63  1  0.14628280  0.99236455  0.25137110  1
  S  S64  1  0.64776074  0.99427276  0.24924659  1
  S  S65  1  0.00065730  0.29425954  0.25166018  1
  S  S66  1  0.50071537  0.28994980  0.25076827  1
  S  S67  1  0.14432870  0.29651194  0.75188853  1
  S  S68  1  0.64300835  0.29788334  0.75195396  1
  S  S69  1  0.00294083  0.71223925  0.75152394  1
  S  S70  1  0.50390031  0.70937231  0.75188750  1
  S  S71  1  0.48100730  0.32852154  0.58216541  1
  S  S72  1  0.97896098  0.32968813  0.58260831  1
  S  S73  1  0.33462676  0.62317592  0.58371246  1
  S  S74  1  0.83736020  0.62570761  0.58320368  1
  S  S75  1  0.47806627  0.62423527  0.08061096  1
  S  S76  1  0.97803151  0.62407251  0.08039791  1
  S  S77  1  0.33888362  0.05472429  0.08164362  1
  S  S78  1  0.83905060  0.05563912  0.08156817  1
  S  S79  1  0.31448578  0.65659668  0.91807681  1
  S  S80  1  0.81344395  0.65641682  0.91706576  1
  S  S81  1  0.01619214  0.37903194  0.91630553  1
  S  S82  1  0.51643416  0.37936934  0.91706763  1
  S  S83  1  0.17055413  0.96359135  0.91774919  1
  S  S84  1  0.67030537  0.96254782  0.91739279  1
  S  S85  1  0.30970872  0.96387434  0.41680565  1
  S  S86  1  0.81741854  0.97162644  0.41847459  1
  S  S87  1  0.16477690  0.37650430  0.41614902  1
  S  S88  1  0.67415689  0.38303760  0.41733808  1
  S  S89  1  0.01587492  0.65471704  0.41647009  1
  O  O90  1  0.11025088  0.03744477  0.30484173  1
  O  O91  1  0.61202966  0.03256359  0.30529478  1
  O  O92  1  0.40751604  0.78393147  0.31001726  1
  O  O93  1  0.91790912  0.78959407  0.30553712  1
  O  O94  1  0.49276050  0.19239378  0.30689294  1
  O  O95  1  0.99134118  0.19749462  0.30763668  1
  O  O96  1  0.11140049  0.18201714  0.80666058  1
  O  O97  1  0.60936512  0.18360329  0.80649483  1
  O  O98  1  0.49131371  0.78787822  0.80721406  1
  O  O99  1  0.98976296  0.78649510  0.80768467  1
  O  O100  1  0.40627867  0.01683505  0.81181004  1
  O  O101  1  0.91701146  0.04459961  0.80626458  1
  O  O102  1  0.40151241  0.96130021  0.69053842  1
  O  O103  1  0.89950975  0.95679534  0.68887507  1
  O  O104  1  0.08779596  0.21461209  0.69869001  1
  O  O105  1  0.59007431  0.21380250  0.69733885  1
  O  O106  1  0.01952853  0.82900092  0.69708740  1
  O  O107  1  0.52182208  0.82638734  0.69629509  1
  O  O108  1  0.40220378  0.83334439  0.18766906  1
  O  O109  1  0.89996738  0.83531282  0.18666490  1
  O  O110  1  0.01860730  0.21107153  0.19699319  1
  O  O111  1  0.51518648  0.20450430  0.19566466  1
  O  O112  1  0.09188389  0.96255334  0.19609846  1
  O  O113  1  0.59183360  0.97151350  0.19550725  1
  O  O114  1  0.44691370  0.37434400  0.63732264  1
  O  O115  1  0.94739157  0.36455407  0.64156753  1
  O  O116  1  0.23576723  0.10554489  0.64595613  1
  O  O117  1  0.73766978  0.11134196  0.64510857  1
  O  O118  1  0.32816107  0.52841506  0.64106962  1
  O  O119  1  0.82911367  0.53238939  0.64160093  1
  O  O120  1  0.44578320  0.52691782  0.13911673  1
  O  O121  1  0.94593806  0.52725860  0.13909035  1
  O  O122  1  0.32689416  0.13459757  0.13673515  1
  O  O123  1  0.82729287  0.13570933  0.13665573  1
  O  O124  1  0.23598225  0.36582548  0.14658897  1
  O  O125  1  0.73546468  0.36650664  0.14595583  1
  O  O126  1  0.23249131  0.28524500  0.02846281  1
  O  O127  1  0.73226099  0.28557088  0.02809990  1
  O  O128  1  0.42083780  0.52637251  0.02904781  1
  O  O129  1  0.92083698  0.52535810  0.02894249  1
  O  O130  1  0.35155786  0.16159425  0.02505167  1
  O  O131  1  0.85173338  0.16235990  0.02488656  1
  O  O132  1  0.23907502  0.17475218  0.52609467  1
  O  O133  1  0.73351395  0.16367590  0.52338565  1
  O  O134  1  0.34842596  0.53742710  0.52887800  1
  O  O135  1  0.84911563  0.53447554  0.52967817  1
  O  O136  1  0.42472837  0.30164274  0.52895594  1
  O  O137  1  0.91998226  0.31093467  0.53173585  1
  O  O138  1  0.27430718  0.68422983  0.97342268  1
  O  O139  1  0.77402165  0.68348012  0.97287387  1
  O  O140  1  0.06473953  0.46084255  0.97085156  1
  O  O141  1  0.56306686  0.45610282  0.97292037  1
  O  O142  1  0.15961475  0.86150402  0.97414844  1
  O  O143  1  0.65958208  0.86058365  0.97374800  1
  O  O144  1  0.27403244  0.85342584  0.47294038  1
  O  O145  1  0.78103660  0.87358408  0.47673616  1
  O  O146  1  0.15540449  0.46110423  0.47117229  1
  O  O147  1  0.66419549  0.46502197  0.47221695  1
  O  O148  1  0.06626754  0.67084327  0.47038179  1
  O  O149  1  0.57309355  0.69647990  0.47792455  1
  O  O150  1  0.05999894  0.63343959  0.35929289  1
  O  O151  1  0.57155401  0.63886155  0.35711404  1
  O  O152  1  0.25350226  0.87034939  0.36358402  1
  O  O153  1  0.75787068  0.87794866  0.36681230  1
  O  O154  1  0.17684875  0.49015165  0.35956401  1
  O  O155  1  0.68463579  0.48826534  0.36026500  1
  O  O156  1  0.06364285  0.49131914  0.85976434  1
  O  O157  1  0.56509816  0.49553266  0.86224846  1
  O  O158  1  0.17903250  0.86902953  0.86241498  1
  O  O159  1  0.67956588  0.87023313  0.86188161  1
  O  O160  1  0.25915768  0.63545920  0.86304973  1
  O  O161  1  0.75893823  0.63536959  0.86210645  1
  O  O162  1  0.00664602  0.81180546  0.41242784  1
  O  O163  1  0.50600586  0.83195366  0.41353021  1
  O  O164  1  0.39940175  0.99376392  0.40921223  1
  O  O165  1  0.90620324  0.00134030  0.41072024  1
  O  O166  1  0.08944348  0.19964104  0.41052999  1
  O  O167  1  0.59825291  0.20272056  0.41252525  1
  O  O168  1  0.00714152  0.20305831  0.91227414  1
  O  O169  1  0.50730800  0.20371721  0.91192141  1
  O  O170  1  0.09455143  0.98959218  0.91217130  1
  O  O171  1  0.59466757  0.98967894  0.91195873  1
  O  O172  1  0.40407205  0.80508712  0.91203277  1
  O  O173  1  0.90317117  0.80699537  0.91083334  1
  O  O174  1  0.47947324  0.15586865  0.59021685  1
  O  O175  1  0.97624186  0.15540109  0.58660021  1
  O  O176  1  0.08503791  0.03060719  0.59234011  1
  O  O177  1  0.58268188  0.01990945  0.59300028  1
  O  O178  1  0.41574513  0.80372959  0.58436671  1
  O  O179  1  0.91734791  0.80603376  0.58395079  1
  O  O180  1  0.47922517  0.79747814  0.08255747  1
  O  O181  1  0.97913901  0.79689356  0.08218765  1
  O  O182  1  0.41739677  0.03042564  0.08487504  1
  O  O183  1  0.91822641  0.03308581  0.08478796  1
  O  O184  1  0.08416251  0.13941309  0.09400357  1
  O  O185  1  0.58401682  0.13966638  0.09277624  1
  O  O186  1  0.33655882  0.16360961  0.74771005  1
  O  O187  1  0.83865208  0.16682450  0.74584632  1
  O  O188  1  0.23636923  0.34055750  0.74237851  1
  O  O189  1  0.73525432  0.33735277  0.74345058  1
  O  O190  1  0.42530553  0.53641785  0.74420844  1
  O  O191  1  0.92429831  0.53571049  0.74474353  1
  O  O192  1  0.34014187  0.51283168  0.24700585  1
  O  O193  1  0.83875235  0.51484183  0.24590530  1
  O  O194  1  0.42382983  0.31279031  0.24481936  1
  O  O195  1  0.92383797  0.31633139  0.24375609  1
  O  O196  1  0.23760767  0.13401393  0.24289374  1
  O  O197  1  0.73806762  0.14107877  0.24187069  1
  O  O198  1  0.31735940  0.48787530  0.92272007  1
  O  O199  1  0.81791595  0.48884947  0.92218704  1
  O  O200  1  0.42766178  0.36603707  0.92064686  1
  O  O201  1  0.92750366  0.36555952  0.91972972  1
  O  O202  1  0.25437582  0.13780428  0.91937717  1
  O  O203  1  0.75436134  0.13731594  0.91945773  1
  O  O204  1  0.31167632  0.13491537  0.42116249  1
  O  O205  1  0.81930174  0.14699720  0.42108818  1
  O  O206  1  0.24893638  0.37062912  0.41775735  1
  O  O207  1  0.75626939  0.36656065  0.42000114  1
  O  O208  1  0.41624257  0.47908880  0.42516652  1
  O  O209  1  0.92678638  0.48987961  0.42237843  1
  O  O210  1  0.17307970  0.50174927  0.07763180  1
  O  O211  1  0.67322507  0.50301916  0.07747617  1
  O  O212  1  0.07033106  0.66580037  0.07312709  1
  O  O213  1  0.57041758  0.66677640  0.07317146  1
  O  O214  1  0.25937657  0.87661715  0.07726746  1
  O  O215  1  0.75997618  0.87757905  0.07710659  1
  O  O216  1  0.17168991  0.84650763  0.57726906  1
  O  O217  1  0.67052525  0.84197889  0.58083084  1
  O  O218  1  0.25705753  0.64544226  0.57935744  1
  O  O219  1  0.75916207  0.64573572  0.57823478  1
  O  O220  1  0.06971050  0.47120878  0.57394067  1
  O  O221  1  0.57213027  0.47036850  0.57449255  1
  O  O222  1  0.14459585  0.81852623  0.26055835  1
  O  O223  1  0.64796917  0.82361745  0.25507960  1
  O  O224  1  0.25161056  0.68820087  0.25705649  1
  O  O225  1  0.75281639  0.69249470  0.26076907  1
  O  O226  1  0.08167888  0.47612153  0.25355152  1
  O  O227  1  0.58229346  0.46919368  0.25136851  1
  O  O228  1  0.14521279  0.47012483  0.76078066  1
  O  O229  1  0.64657565  0.47224231  0.75948559  1
  O  O230  1  0.08251300  0.68981303  0.75533526  1
  O  O231  1  0.58549503  0.69335461  0.75673243  1
  O  O232  1  0.25369395  0.81276075  0.75844396  1
  O  O233  1  0.75464377  0.81339158  0.75991202  1
