# generated using pymatgen
data_Na12Ca2Nb4(SiO4)9
_symmetry_space_group_name_H-M   'P 1'
_cell_length_a   9.28399667
_cell_length_b   9.28399633
_cell_length_c   22.53100024
_cell_angle_alpha   90.00000000
_cell_angle_beta   90.00000000
_cell_angle_gamma   120.00000116
_symmetry_Int_Tables_number   1
_chemical_formula_structural   Na12Ca2Nb4(SiO4)9
_chemical_formula_sum   'Na24 Ca4 Nb8 Si18 O72'
_cell_volume   1681.82589545
_cell_formula_units_Z   2
loop_
 _symmetry_equiv_pos_site_id
 _symmetry_equiv_pos_as_xyz
  1  'x, y, z'
loop_
 _atom_site_type_symbol
 _atom_site_label
 _atom_site_symmetry_multiplicity
 _atom_site_fract_x
 _atom_site_fract_y
 _atom_site_fract_z
 _atom_site_occupancy
  Na  Na0  1  0.64740338  0.02505926  0.24341284  1
  Na  Na1  1  0.37765588  0.35259662  0.24341284  1
  Na  Na2  1  0.97494074  0.62234412  0.24341284  1
  Na  Na3  1  0.64740338  0.62234412  0.74341284  1
  Na  Na4  1  0.97494074  0.35259662  0.74341284  1
  Na  Na5  1  0.37765588  0.02505926  0.74341284  1
  Na  Na6  1  0.31542913  0.33586702  0.58780281  1
  Na  Na7  1  0.02043889  0.68457087  0.58780281  1
  Na  Na8  1  0.66413298  0.97956111  0.58780281  1
  Na  Na9  1  0.31542913  0.97956111  0.08780281  1
  Na  Na10  1  0.66413298  0.68457087  0.08780281  1
  Na  Na11  1  0.02043889  0.33586702  0.08780281  1
  Na  Na12  1  0.96283951  0.68233704  0.90777154  1
  Na  Na13  1  0.71949653  0.03716049  0.90777154  1
  Na  Na14  1  0.31766296  0.28050347  0.90777154  1
  Na  Na15  1  0.96283951  0.28050347  0.40777154  1
  Na  Na16  1  0.31766296  0.03716049  0.40777154  1
  Na  Na17  1  0.71949653  0.68233704  0.40777154  1
  Na  Na18  1  0.00000000  -0.00000000  0.49731558  1
  Na  Na19  1  0.00000000  -0.00000000  0.99731558  1
  Na  Na20  1  0.66666700  0.33333300  0.81943396  1
  Na  Na21  1  0.66666700  0.33333300  0.31943396  1
  Na  Na22  1  0.33333300  0.66666700  0.16852407  1
  Na  Na23  1  0.33333300  0.66666700  0.66852407  1
  Ca  Ca24  1  0.00000000  -0.00000000  0.35415837  1
  Ca  Ca25  1  0.00000000  -0.00000000  0.85415837  1
  Ca  Ca26  1  0.66666700  0.33333300  0.67781284  1
  Ca  Ca27  1  0.66666700  0.33333300  0.17781284  1
  Nb  Nb28  1  0.00000000  -0.00000000  0.65123015  1
  Nb  Nb29  1  0.00000000  -0.00000000  0.15123015  1
  Nb  Nb30  1  0.66666700  0.33333300  0.98064137  1
  Nb  Nb31  1  0.66666700  0.33333300  0.48064137  1
  Nb  Nb32  1  0.33333300  0.66666700  0.01822964  1
  Nb  Nb33  1  0.33333300  0.66666700  0.51822964  1
  Nb  Nb34  1  0.33333300  0.66666700  0.31059703  1
  Nb  Nb35  1  0.33333300  0.66666700  0.81059703  1
  Si  Si36  1  0.29580117  0.99373253  0.25397387  1
  Si  Si37  1  0.69793136  0.70419883  0.25397387  1
  Si  Si38  1  0.00626747  0.30206864  0.25397387  1
  Si  Si39  1  0.29580117  0.30206864  0.75397387  1
  Si  Si40  1  0.00626747  0.70419883  0.75397387  1
  Si  Si41  1  0.69793136  0.99373253  0.75397387  1
  Si  Si42  1  0.97023549  0.33224585  0.58370574  1
  Si  Si43  1  0.36201137  0.02976451  0.58370574  1
  Si  Si44  1  0.66775415  0.63798863  0.58370574  1
  Si  Si45  1  0.97023549  0.63798863  0.08370574  1
  Si  Si46  1  0.66775415  0.02976451  0.08370574  1
  Si  Si47  1  0.36201137  0.33224585  0.08370574  1
  Si  Si48  1  0.61470756  0.65137448  0.91723479  1
  Si  Si49  1  0.03666592  0.38529244  0.91723479  1
  Si  Si50  1  0.34862552  0.96333408  0.91723479  1
  Si  Si51  1  0.61470756  0.96333408  0.41723479  1
  Si  Si52  1  0.34862552  0.38529244  0.41723479  1
  Si  Si53  1  0.03666592  0.65137448  0.41723479  1
  O  O54  1  0.22115331  0.01774615  0.31434876  1
  O  O55  1  0.79659284  0.77884669  0.31434876  1
  O  O56  1  0.98225385  0.20340716  0.31434876  1
  O  O57  1  0.22115331  0.20340716  0.81434876  1
  O  O58  1  0.98225385  0.77884669  0.81434876  1
  O  O59  1  0.79659284  0.01774615  0.81434876  1
  O  O60  1  0.81051023  0.97881092  0.69561254  1
  O  O61  1  0.16830069  0.18948977  0.69561254  1
  O  O62  1  0.02118908  0.83169931  0.69561254  1
  O  O63  1  0.81051023  0.83169931  0.19561254  1
  O  O64  1  0.02118908  0.18948977  0.19561254  1
  O  O65  1  0.16830069  0.97881092  0.19561254  1
  O  O66  1  0.91711337  0.39032121  0.64191494  1
  O  O67  1  0.47320884  0.08288663  0.64191494  1
  O  O68  1  0.60967879  0.52679116  0.64191494  1
  O  O69  1  0.91711337  0.52679116  0.14191494  1
  O  O70  1  0.60967879  0.08288663  0.14191494  1
  O  O71  1  0.47320884  0.39032121  0.14191494  1
  O  O72  1  0.47228000  0.30755780  0.02826517  1
  O  O73  1  0.83527880  0.52772000  0.02826517  1
  O  O74  1  0.69244220  0.16472120  0.02826517  1
  O  O75  1  0.47228000  0.16472120  0.52826517  1
  O  O76  1  0.69244220  0.52772000  0.52826517  1
  O  O77  1  0.83527880  0.30755780  0.52826517  1
  O  O78  1  0.49934857  0.64484079  0.97365473  1
  O  O79  1  0.14549122  0.50065143  0.97365473  1
  O  O80  1  0.35515921  0.85450878  0.97365473  1
  O  O81  1  0.49934857  0.85450878  0.47365473  1
  O  O82  1  0.35515921  0.50065143  0.47365473  1
  O  O83  1  0.14549122  0.64484079  0.47365473  1
  O  O84  1  0.13694432  0.63678594  0.35777979  1
  O  O85  1  0.49984062  0.86305568  0.35777979  1
  O  O86  1  0.36321406  0.50015938  0.35777979  1
  O  O87  1  0.13694432  0.50015938  0.85777979  1
  O  O88  1  0.36321406  0.86305568  0.85777979  1
  O  O89  1  0.49984062  0.63678594  0.85777979  1
  O  O90  1  0.01884678  0.81354564  0.42296751  1
  O  O91  1  0.79469886  0.98115322  0.42296751  1
  O  O92  1  0.18645436  0.20530114  0.42296751  1
  O  O93  1  0.01884678  0.20530114  0.92296751  1
  O  O94  1  0.18645436  0.98115322  0.92296751  1
  O  O95  1  0.79469886  0.81354564  0.92296751  1
  O  O96  1  0.96953096  0.15422859  0.58854018  1
  O  O97  1  0.18469763  0.03046904  0.58854018  1
  O  O98  1  0.84577141  0.81530237  0.58854018  1
  O  O99  1  0.96953096  0.81530237  0.08854018  1
  O  O100  1  0.84577141  0.03046904  0.08854018  1
  O  O101  1  0.18469763  0.15422859  0.08854018  1
  O  O102  1  0.66711802  0.14692932  0.74527987  1
  O  O103  1  0.47981230  0.33288198  0.74527987  1
  O  O104  1  0.85307068  0.52018770  0.74527987  1
  O  O105  1  0.66711802  0.52018770  0.24527987  1
  O  O106  1  0.85307068  0.33288198  0.24527987  1
  O  O107  1  0.47981230  0.14692932  0.24527987  1
  O  O108  1  0.62402778  0.47745303  0.92119570  1
  O  O109  1  0.85342626  0.37597222  0.92119570  1
  O  O110  1  0.52254697  0.14657374  0.92119570  1
  O  O111  1  0.62402778  0.14657374  0.42119570  1
  O  O112  1  0.52254697  0.37597222  0.42119570  1
  O  O113  1  0.85342626  0.47745303  0.42119570  1
  O  O114  1  0.31319496  0.47931192  0.07167833  1
  O  O115  1  0.16611595  0.68680504  0.07167833  1
  O  O116  1  0.52068808  0.83388405  0.07167833  1
  O  O117  1  0.31319496  0.83388405  0.57167833  1
  O  O118  1  0.52068808  0.68680504  0.57167833  1
  O  O119  1  0.16611595  0.47931192  0.57167833  1
  O  O120  1  0.28743910  0.80892889  0.25221322  1
  O  O121  1  0.52148879  0.71256090  0.25221322  1
  O  O122  1  0.19107111  0.47851121  0.25221322  1
  O  O123  1  0.28743910  0.47851121  0.75221322  1
  O  O124  1  0.19107111  0.71256090  0.75221322  1
  O  O125  1  0.52148879  0.80892889  0.75221322  1
