# generated using pymatgen
data_Ba2YMgSbO6
_symmetry_space_group_name_H-M   'P 1'
_cell_length_a   6.62998751
_cell_length_b   6.28366854
_cell_length_c   6.62998821
_cell_angle_alpha   61.71339612
_cell_angle_beta   55.33124767
_cell_angle_gamma   61.71339297
_symmetry_Int_Tables_number   1
_chemical_formula_structural   Ba2YMgSbO6
_chemical_formula_sum   'Ba2 Y1 Mg1 Sb1 O6'
_cell_volume   191.91711668
_cell_formula_units_Z   1
loop_
 _symmetry_equiv_pos_site_id
 _symmetry_equiv_pos_as_xyz
  1  'x, y, z'
loop_
 _atom_site_type_symbol
 _atom_site_label
 _atom_site_symmetry_multiplicity
 _atom_site_fract_x
 _atom_site_fract_y
 _atom_site_fract_z
 _atom_site_occupancy
  Ba  Ba0  1  0.80720800  0.69279200  0.80720800  1
  Ba  Ba1  1  0.19279200  0.30720800  0.19279200  1
  Y  Y2  1  0.00000000  0.00000000  0.00000000  1
  Mg  Mg3  1  0.50000000  0.00000000  0.50000000  1
  Sb  Sb4  1  0.50000000  0.50000000  0.50000000  1
  O  O5  1  0.26692700  0.76801400  0.73307300  1
  O  O6  1  0.24375500  0.75624500  0.24375500  1
  O  O7  1  0.75624500  0.24375500  0.75624500  1
  O  O8  1  0.26692700  0.23198600  0.73307300  1
  O  O9  1  0.73307300  0.23198600  0.26692700  1
  O  O10  1  0.73307300  0.76801400  0.26692700  1
