# generated using pymatgen
data_BaReH9
_symmetry_space_group_name_H-M   'P 1'
_cell_length_a   5.22523196
_cell_length_b   5.22524386
_cell_length_c   9.69046833
_cell_angle_alpha   90.00004243
_cell_angle_beta   89.99985552
_cell_angle_gamma   119.99981592
_symmetry_Int_Tables_number   1
_chemical_formula_structural   BaReH9
_chemical_formula_sum   'Ba2 Re2 H18'
_cell_volume   229.13336979
_cell_formula_units_Z   2
loop_
 _symmetry_equiv_pos_site_id
 _symmetry_equiv_pos_as_xyz
  1  'x, y, z'
loop_
 _atom_site_type_symbol
 _atom_site_label
 _atom_site_symmetry_multiplicity
 _atom_site_fract_x
 _atom_site_fract_y
 _atom_site_fract_z
 _atom_site_occupancy
  Ba  Ba0  1  0.00000171  -0.00000606  -0.00000126  1
  Ba  Ba1  1  0.00000123  -0.00000361  0.49999910  1
  Re  Re2  1  0.33330543  0.66662783  0.24999473  1
  Re  Re3  1  0.66669262  0.33336998  0.74999854  1
  H  H4  1  0.46676337  0.53318940  0.37363993  1
  H  H5  1  0.46675792  0.93352938  0.37363847  1
  H  H6  1  0.06640825  0.53318734  0.37364140  1
  H  H7  1  0.93358847  0.46681132  0.87363932  1
  H  H8  1  0.14970365  0.29942209  0.25000004  1
  H  H9  1  0.85029119  0.14976300  0.75000064  1
  H  H10  1  0.29948489  0.14976139  0.75000042  1
  H  H11  1  0.70051490  0.85023621  0.25000005  1
  H  H12  1  0.14970125  0.85024170  0.25000061  1
  H  H13  1  0.85030268  0.70058702  0.75000089  1
  H  H14  1  0.46675672  0.93352593  0.12636287  1
  H  H15  1  0.53323662  0.46681108  0.62636033  1
  H  H16  1  0.93358912  0.46681069  0.62636078  1
  H  H17  1  0.06641071  0.53318847  0.12636045  1
  H  H18  1  0.46676239  0.53319073  0.12636092  1
  H  H19  1  0.53324462  0.06647247  0.87363768  1
  H  H20  1  0.53323826  0.46681177  0.87364052  1
  H  H21  1  0.53324400  0.06647187  0.62636258  1
