# generated using pymatgen
data_Na5La3NbSiP5O24
_symmetry_space_group_name_H-M   'P 1'
_cell_length_a   9.48751470
_cell_length_b   9.48424903
_cell_length_c   23.97300904
_cell_angle_alpha   90.01031506
_cell_angle_beta   90.04054998
_cell_angle_gamma   120.26053788
_symmetry_Int_Tables_number   1
_chemical_formula_structural   Na5La3NbSiP5O24
_chemical_formula_sum   'Na15 La9 Nb3 Si3 P15 O72'
_cell_volume   1863.21179774
_cell_formula_units_Z   3
loop_
 _symmetry_equiv_pos_site_id
 _symmetry_equiv_pos_as_xyz
  1  'x, y, z'
loop_
 _atom_site_type_symbol
 _atom_site_label
 _atom_site_symmetry_multiplicity
 _atom_site_fract_x
 _atom_site_fract_y
 _atom_site_fract_z
 _atom_site_occupancy
  Na  Na0  1  0.63721606  0.00096645  0.25210307  1
  Na  Na1  1  0.36215273  0.36064535  0.25091850  1
  Na  Na2  1  0.00169873  0.63906477  0.25147693  1
  Na  Na3  1  0.31071388  0.34287968  0.58575988  1
  Na  Na4  1  0.03209084  0.69782424  0.58236910  1
  Na  Na5  1  0.66255538  0.96208732  0.58261595  1
  Na  Na6  1  0.29678705  0.95604218  0.07640987  1
  Na  Na7  1  0.97591187  0.67882699  0.91579472  1
  Na  Na8  1  0.69491295  0.01962269  0.91352052  1
  Na  Na9  1  0.99594235  0.99586387  0.49805118  1
  Na  Na10  1  0.00879216  0.01697838  0.99729617  1
  Na  Na11  1  0.65404661  0.33326754  0.82737585  1
  Na  Na12  1  0.66616124  0.33054711  0.33909783  1
  Na  Na13  1  0.33159343  0.65482690  0.16308356  1
  Na  Na14  1  0.34236878  0.66508593  0.67430596  1
  La  La15  1  0.00036344  -0.00000506  0.35454914  1
  La  La16  1  0.01134171  0.01174710  0.84802161  1
  La  La17  1  0.99612112  0.99666422  0.65697820  1
  La  La18  1  0.99014309  0.00033862  0.14298310  1
  La  La19  1  0.66613481  0.33568518  0.68846609  1
  La  La20  1  0.67294723  0.33902941  0.17903328  1
  La  La21  1  0.33218964  0.65209620  0.01489141  1
  La  La22  1  0.33589253  0.66658360  0.51070151  1
  La  La23  1  0.33387356  0.66741092  0.32834366  1
  Nb  Nb24  1  0.66515162  0.33280764  0.97817408  1
  Nb  Nb25  1  0.66732544  0.33865408  0.48282229  1
  Nb  Nb26  1  0.32768551  0.66599876  0.81915096  1
  Si  Si27  1  0.66963551  0.62808455  0.58095515  1
  Si  Si28  1  0.02704723  0.37272462  0.91634859  1
  Si  Si29  1  0.34088200  0.96284388  0.91967241  1
  P  P30  1  0.29979774  0.99644945  0.24788176  1
  P  P31  1  0.69530074  0.69953399  0.25064552  1
  P  P32  1  0.00393203  0.30406617  0.25056690  1
  P  P33  1  0.30673348  0.32547404  0.75145852  1
  P  P34  1  0.01634475  0.69583802  0.75477758  1
  P  P35  1  0.67729240  0.98226220  0.75479654  1
  P  P36  1  0.95207689  0.33012103  0.57925083  1
  P  P37  1  0.37736536  0.04770569  0.57927513  1
  P  P38  1  0.95951963  0.62966805  0.07826544  1
  P  P39  1  0.66759167  0.04743020  0.07795582  1
  P  P40  1  0.37814421  0.32657434  0.07996613  1
  P  P41  1  0.62303080  0.65417709  0.91522344  1
  P  P42  1  0.64424305  0.99296468  0.42022666  1
  P  P43  1  0.34802052  0.35645259  0.42036274  1
  P  P44  1  0.01015172  0.65273819  0.42058094  1
  O  O45  1  0.21223824  0.01882749  0.29795380  1
  O  O46  1  0.80160038  0.78244138  0.30177431  1
  O  O47  1  0.98005847  0.19769689  0.30165541  1
  O  O48  1  0.21511847  0.20979105  0.79920026  1
  O  O49  1  0.99433746  0.78019400  0.80528513  1
  O  O50  1  0.78439585  0.00298637  0.80521783  1
  O  O51  1  0.75230787  0.95870896  0.69960962  1
  O  O52  1  0.21237122  0.25693254  0.69533488  1
  O  O53  1  0.04236217  0.79410426  0.69976190  1
  O  O54  1  0.77770334  0.80369136  0.19802334  1
  O  O55  1  0.02459169  0.22175854  0.19783857  1
  O  O56  1  0.20118761  0.97610276  0.19365160  1
  O  O57  1  0.87803952  0.35355623  0.63231154  1
  O  O58  1  0.47753008  0.11735848  0.63227832  1
  O  O59  1  0.63832651  0.51363270  0.63405817  1
  O  O60  1  0.88687743  0.54886912  0.13474616  1
  O  O61  1  0.65903730  0.12079355  0.13421389  1
  O  O62  1  0.45611856  0.33331979  0.13675333  1
  O  O63  1  0.49362632  0.32801212  0.03065334  1
  O  O64  1  0.84558106  0.51881591  0.02851482  1
  O  O65  1  0.67408447  0.16430607  0.02779573  1
  O  O66  1  0.48149011  0.15995408  0.52868173  1
  O  O67  1  0.67895699  0.51270624  0.52697963  1
  O  O68  1  0.83920678  0.31917632  0.52850161  1
  O  O69  1  0.56261353  0.69649410  0.96766709  1
  O  O70  1  0.13024604  0.44647474  0.97139792  1
  O  O71  1  0.31813290  0.86656828  0.97670040  1
  O  O72  1  0.55826757  0.88481426  0.47096236  1
  O  O73  1  0.32733067  0.44156910  0.47132142  1
  O  O74  1  0.11553481  0.67348625  0.47169290  1
  O  O75  1  0.08385777  0.62707664  0.36619229  1
  O  O76  1  0.54387704  0.91760882  0.36568706  1
  O  O77  1  0.37512849  0.45676936  0.36612107  1
  O  O78  1  0.13829380  0.50409775  0.86381336  1
  O  O79  1  0.36893182  0.85611950  0.86700446  1
  O  O80  1  0.50550192  0.63073046  0.86533119  1
  O  O81  1  0.98431270  0.79910354  0.41703989  1
  O  O82  1  0.81561910  0.01577193  0.41672085  1
  O  O83  1  0.20074014  0.18381376  0.41697211  1
  O  O84  1  0.97207471  0.18292545  0.90909011  1
  O  O85  1  0.18038570  0.97676271  0.91022302  1
  O  O86  1  0.79879885  0.79393547  0.90573453  1
  O  O87  1  0.95971427  0.16970103  0.58038037  1
  O  O88  1  0.21202841  0.04551155  0.58087789  1
  O  O89  1  0.84315814  0.80380256  0.58150811  1
  O  O90  1  0.97263972  0.79972125  0.07424843  1
  O  O91  1  0.82297503  0.03563519  0.07343287  1
  O  O92  1  0.21692472  0.15980368  0.07448258  1
  O  O93  1  0.65079694  0.12891015  0.75105292  1
  O  O94  1  0.48001010  0.35149586  0.75034975  1
  O  O95  1  0.87178121  0.52072089  0.75113461  1
  O  O96  1  0.67387600  0.52541857  0.24750202  1
  O  O97  1  0.85123573  0.32533487  0.24756959  1
  O  O98  1  0.47532549  0.14919949  0.24649550  1
  O  O99  1  0.63618792  0.49414499  0.92531230  1
  O  O100  1  0.84751518  0.37459011  0.92560157  1
  O  O101  1  0.51660307  0.14867257  0.92683539  1
  O  O102  1  0.65455698  0.16229368  0.42872715  1
  O  O103  1  0.50731781  0.34450600  0.42886477  1
  O  O104  1  0.83925620  0.49104557  0.42871389  1
  O  O105  1  0.35500414  0.47397658  0.07838931  1
  O  O106  1  0.13332176  0.65570858  0.07726058  1
  O  O107  1  0.50801939  0.88310547  0.07534342  1
  O  O108  1  0.34630890  0.87173720  0.57287792  1
  O  O109  1  0.51230287  0.65484143  0.57629578  1
  O  O110  1  0.12551974  0.48054922  0.57359484  1
  O  O111  1  0.31535153  0.84005638  0.25418261  1
  O  O112  1  0.52225580  0.68171403  0.25510223  1
  O  O113  1  0.16013447  0.47737351  0.25502724  1
  O  O114  1  0.31626249  0.49440522  0.76379769  1
  O  O115  1  0.17930016  0.68765918  0.76463424  1
  O  O116  1  0.50633087  0.82052403  0.76409892  1
