# generated using pymatgen
data_Na6Ge2S7
_symmetry_space_group_name_H-M   'P 1'
_cell_length_a   6.91015025
_cell_length_b   6.91015025
_cell_length_c   15.03189527
_cell_angle_alpha   80.20878698
_cell_angle_beta   80.20878698
_cell_angle_gamma   98.01117561
_symmetry_Int_Tables_number   1
_chemical_formula_structural   Na6Ge2S7
_chemical_formula_sum   'Na12 Ge4 S14'
_cell_volume   686.47143451
_cell_formula_units_Z   2
loop_
 _symmetry_equiv_pos_site_id
 _symmetry_equiv_pos_as_xyz
  1  'x, y, z'
loop_
 _atom_site_type_symbol
 _atom_site_label
 _atom_site_symmetry_multiplicity
 _atom_site_fract_x
 _atom_site_fract_y
 _atom_site_fract_z
 _atom_site_occupancy
  Na  Na0  1  0.97017205  0.26184839  0.42602722  1
  Na  Na1  1  0.73815161  0.02982795  0.07397278  1
  Na  Na2  1  0.02982795  0.73815161  0.57397278  1
  Na  Na3  1  0.26184839  0.97017205  0.92602722  1
  Na  Na4  1  0.50822020  0.95171346  0.63746088  1
  Na  Na5  1  0.04828654  0.49177980  0.86253912  1
  Na  Na6  1  0.42189694  0.57810306  0.25000000  1
  Na  Na7  1  0.57810306  0.42189694  0.75000000  1
  Na  Na8  1  0.50000000  0.50000000  0.00000000  1
  Na  Na9  1  0.50000000  0.50000000  0.50000000  1
  Na  Na10  1  0.49177980  0.04828654  0.36253912  1
  Na  Na11  1  0.95171346  0.50822020  0.13746088  1
  Ge  Ge12  1  0.23870839  0.07548016  0.13877945  1
  Ge  Ge13  1  0.92451984  0.76129161  0.36122055  1
  Ge  Ge14  1  0.76129161  0.92451984  0.86122055  1
  Ge  Ge15  1  0.07548016  0.23870839  0.63877945  1
  S  S16  1  0.79399494  0.31044353  0.60502065  1
  S  S17  1  0.20600506  0.68955647  0.39497935  1
  S  S18  1  0.86627314  0.73986275  0.97290704  1
  S  S19  1  0.26013725  0.13372686  0.52709296  1
  S  S20  1  0.13372686  0.26013725  0.02709296  1
  S  S21  1  0.73986275  0.86627314  0.47290704  1
  S  S22  1  0.75626300  0.50646469  0.32092133  1
  S  S23  1  0.49353531  0.24373700  0.17907867  1
  S  S24  1  0.24373700  0.49353531  0.67907867  1
  S  S25  1  0.50646469  0.75626300  0.82092133  1
  S  S26  1  0.96156399  0.03843601  0.25000000  1
  S  S27  1  0.03843601  0.96156399  0.75000000  1
  S  S28  1  0.31044353  0.79399494  0.10502065  1
  S  S29  1  0.68955647  0.20600506  0.89497935  1
