# generated using pymatgen
data_Na10Ca2Ti6Si7S5O48
_symmetry_space_group_name_H-M   'P 1'
_cell_length_a   18.00488477
_cell_length_b   9.03190429
_cell_length_c   22.41874591
_cell_angle_alpha   90.04979920
_cell_angle_beta   89.65096862
_cell_angle_gamma   120.06341593
_symmetry_Int_Tables_number   1
_chemical_formula_structural   Na10Ca2Ti6Si7S5O48
_chemical_formula_sum   'Na30 Ca6 Ti18 Si21 S15 O144'
_cell_volume   3155.18117606
_cell_formula_units_Z   3
loop_
 _symmetry_equiv_pos_site_id
 _symmetry_equiv_pos_as_xyz
  1  'x, y, z'
loop_
 _atom_site_type_symbol
 _atom_site_label
 _atom_site_symmetry_multiplicity
 _atom_site_fract_x
 _atom_site_fract_y
 _atom_site_fract_z
 _atom_site_occupancy
  Na  Na0  1  0.81145659  0.00569684  0.25122051  1
  Na  Na1  1  0.18960278  0.37924607  0.24681885  1
  Na  Na2  1  0.68967136  0.36480766  0.25264618  1
  Na  Na3  1  0.99423246  0.61112291  0.25383405  1
  Na  Na4  1  0.49624153  0.63393252  0.24392068  1
  Na  Na5  1  0.31346916  0.61799526  0.75263701  1
  Na  Na6  1  0.99568053  0.35820810  0.74465765  1
  Na  Na7  1  0.49471091  0.38124062  0.75370015  1
  Na  Na8  1  0.19064955  0.01578601  0.74648589  1
  Na  Na9  1  0.68963424  0.99802920  0.74732807  1
  Na  Na10  1  0.15198258  0.33377827  0.57647519  1
  Na  Na11  1  0.01606286  0.69107035  0.58617086  1
  Na  Na12  1  0.48792055  0.66691624  0.91682988  1
  Na  Na13  1  0.99511931  0.68679594  0.92425219  1
  Na  Na14  1  0.84585326  0.01887049  0.91654508  1
  Na  Na15  1  0.49432411  0.30537579  0.42409788  1
  Na  Na16  1  0.16169774  0.02282892  0.41733303  1
  Na  Na17  1  0.34712252  0.66859515  0.41514961  1
  Na  Na18  1  0.99004514  0.99483117  0.49851075  1
  Na  Na19  1  0.51733055  0.01260004  0.49799138  1
  Na  Na20  1  0.01511959  0.02040769  0.99849172  1
  Na  Na21  1  0.50593258  0.02272467  0.00029224  1
  Na  Na22  1  0.32625515  0.31923195  0.83244850  1
  Na  Na23  1  0.82847073  0.33488181  0.83175424  1
  Na  Na24  1  0.33736284  0.33715438  0.33188543  1
  Na  Na25  1  0.83046240  0.33177392  0.33250764  1
  Na  Na26  1  0.17470483  0.67699888  0.16482282  1
  Na  Na27  1  0.66023191  0.66826372  0.15944460  1
  Na  Na28  1  0.17238910  0.68311029  0.66230201  1
  Na  Na29  1  0.67303214  0.67197325  0.66435200  1
  Ca  Ca30  1  0.33078633  0.32659443  0.68483883  1
  Ca  Ca31  1  0.83662105  0.33245174  0.68324917  1
  Ca  Ca32  1  0.33936592  0.34347276  0.18223605  1
  Ca  Ca33  1  0.83089020  0.32879735  0.18420630  1
  Ca  Ca34  1  0.16427111  0.66611428  0.01657811  1
  Ca  Ca35  1  0.66370196  0.66365627  0.51570520  1
  Ti  Ti36  1  0.99598196  0.99809155  0.35475535  1
  Ti  Ti37  1  0.50213927  0.98684894  0.35620355  1
  Ti  Ti38  1  0.00095488  0.01626525  0.85593234  1
  Ti  Ti39  1  0.49869881  0.00234669  0.85524166  1
  Ti  Ti40  1  0.00011128  0.02932777  0.64373019  1
  Ti  Ti41  1  0.49430407  0.98372282  0.65022274  1
  Ti  Ti42  1  0.99263703  0.00663766  0.14906953  1
  Ti  Ti43  1  0.49533397  0.96138819  0.14528267  1
  Ti  Ti44  1  0.34052793  0.32162624  0.98077541  1
  Ti  Ti45  1  0.83049872  0.33882662  0.97325236  1
  Ti  Ti46  1  0.32630230  0.31796271  0.47575497  1
  Ti  Ti47  1  0.83870945  0.34589121  0.47664682  1
  Ti  Ti48  1  0.65886878  0.65888249  0.01152316  1
  Ti  Ti49  1  0.16159092  0.67060169  0.51299740  1
  Ti  Ti50  1  0.17044318  0.66140509  0.31676678  1
  Ti  Ti51  1  0.66348198  0.65339154  0.31631975  1
  Ti  Ti52  1  0.16408787  0.67479220  0.81643158  1
  Ti  Ti53  1  0.67317079  0.68357532  0.81657355  1
  Si  Si54  1  0.63951714  0.98438461  0.25090433  1
  Si  Si55  1  0.35173032  0.71869505  0.25318916  1
  Si  Si56  1  0.85374250  0.71754778  0.25312998  1
  Si  Si57  1  0.00564653  0.29321401  0.25268227  1
  Si  Si58  1  0.14035982  0.29700922  0.75102318  1
  Si  Si59  1  0.50592153  0.71856283  0.75369531  1
  Si  Si60  1  0.35416623  0.99071512  0.75366211  1
  Si  Si61  1  0.85296346  0.98374132  0.75209914  1
  Si  Si62  1  0.98189789  0.33965308  0.58186064  1
  Si  Si63  1  0.18305322  0.02894283  0.58495967  1
  Si  Si64  1  0.48579136  0.62893939  0.08238514  1
  Si  Si65  1  0.80918171  0.66634657  0.91744965  1
  Si  Si66  1  0.01952858  0.37363636  0.91784455  1
  Si  Si67  1  0.52294962  0.37464776  0.91276229  1
  Si  Si68  1  0.16809513  0.97200320  0.91598845  1
  Si  Si69  1  0.66512052  0.96038723  0.91672557  1
  Si  Si70  1  0.31066933  0.95313670  0.41608459  1
  Si  Si71  1  0.16346986  0.37197505  0.41823179  1
  Si  Si72  1  0.66765047  0.36474969  0.41571995  1
  Si  Si73  1  0.01935982  0.66263977  0.41203667  1
  Si  Si74  1  0.51819849  0.66346169  0.41816252  1
  S  S75  1  0.13946252  0.99203514  0.25062321  1
  S  S76  1  0.50270379  0.28608913  0.25299508  1
  S  S77  1  0.63877402  0.28600813  0.75077236  1
  S  S78  1  0.00232745  0.71668659  0.75258155  1
  S  S79  1  0.48169271  0.31996817  0.58450735  1
  S  S80  1  0.67991247  0.03930791  0.58526268  1
  S  S81  1  0.33620584  0.63930196  0.58110706  1
  S  S82  1  0.83608156  0.63324369  0.58302933  1
  S  S83  1  0.98068278  0.64209791  0.08438685  1
  S  S84  1  0.34066020  0.04027794  0.08412185  1
  S  S85  1  0.83407398  0.02924623  0.08135143  1
  S  S86  1  0.18096584  0.32013399  0.08537180  1
  S  S87  1  0.68335386  0.33556875  0.08161710  1
  S  S88  1  0.31561473  0.66403941  0.91375901  1
  S  S89  1  0.81589559  0.96935536  0.41439195  1
  O  O90  1  0.10065969  0.00900446  0.30741758  1
  O  O91  1  0.58561482  0.00340139  0.30561252  1
  O  O92  1  0.40933142  0.82505119  0.30932578  1
  O  O93  1  0.91682085  0.82274762  0.30914238  1
  O  O94  1  0.49608881  0.19516793  0.30864811  1
  O  O95  1  0.00415356  0.17153059  0.30734733  1
  O  O96  1  0.08287631  0.16639283  0.80384175  1
  O  O97  1  0.59792006  0.18489910  0.80552912  1
  O  O98  1  0.50382788  0.82924489  0.81067963  1
  O  O99  1  0.99616182  0.79995663  0.80672228  1
  O  O100  1  0.41670494  0.00428573  0.80889834  1
  O  O101  1  0.90803172  -0.00801552  0.80992025  1
  O  O102  1  0.40596937  0.96990307  0.69406244  1
  O  O103  1  0.90660348  0.98102006  0.69127394  1
  O  O104  1  0.08513223  0.20479157  0.68797451  1
  O  O105  1  0.58692323  0.19769375  0.69686714  1
  O  O106  1  0.00916807  0.81091690  0.69707792  1
  O  O107  1  0.51517342  0.83999377  0.69320558  1
  O  O108  1  0.40229865  0.82439606  0.19061449  1
  O  O109  1  0.90586498  0.84485043  0.19417751  1
  O  O110  1  0.01495148  0.19420722  0.19131535  1
  O  O111  1  0.51031815  0.20095349  0.19947538  1
  O  O112  1  0.08561873  0.97800173  0.19827708  1
  O  O113  1  0.58026728  0.96460180  0.19058410  1
  O  O114  1  0.44170735  0.33323578  0.64005358  1
  O  O115  1  0.95850638  0.39070958  0.64474649  1
  O  O116  1  0.22848148  0.08719460  0.64786875  1
  O  O117  1  0.72296365  0.11541891  0.64253557  1
  O  O118  1  0.32362329  0.54157212  0.63653580  1
  O  O119  1  0.82648496  0.53838175  0.63813702  1
  O  O120  1  0.45823552  0.54520642  0.14703196  1
  O  O121  1  0.93900193  0.54907173  0.13965495  1
  O  O122  1  0.32896037  0.11547231  0.13849458  1
  O  O123  1  0.82371060  0.09969561  0.13798964  1
  O  O124  1  0.22316548  0.33017672  0.14297133  1
  O  O125  1  0.72538657  0.35793446  0.13978246  1
  O  O126  1  0.23040946  0.30701638  0.03419134  1
  O  O127  1  0.73655481  0.31750213  0.03295930  1
  O  O128  1  0.41772986  0.51501806  0.02734870  1
  O  O129  1  0.92874710  0.54625495  0.03045543  1
  O  O130  1  0.34469632  0.14826757  0.03018182  1
  O  O131  1  0.84430864  0.14019735  0.02943168  1
  O  O132  1  0.23926831  0.17142112  0.52953961  1
  O  O133  1  0.72787725  0.14851474  0.53355918  1
  O  O134  1  0.34623322  0.55190928  0.52809578  1
  O  O135  1  0.84292079  0.53800468  0.52986555  1
  O  O136  1  0.42944634  0.31048562  0.53075986  1
  O  O137  1  0.91349928  0.31921976  0.52878968  1
  O  O138  1  0.28057285  0.68889583  0.96811492  1
  O  O139  1  0.76397779  0.70502932  0.97302391  1
  O  O140  1  0.07160207  0.43216152  0.97672971  1
  O  O141  1  0.58317861  0.47076374  0.97043175  1
  O  O142  1  0.13667663  0.84323219  0.97037528  1
  O  O143  1  0.64836585  0.82532788  0.96981744  1
  O  O144  1  0.26262716  0.82328412  0.47162337  1
  O  O145  1  0.78257361  0.87319466  0.46895519  1
  O  O146  1  0.15464420  0.46636468  0.47650104  1
  O  O147  1  0.63734166  0.43175504  0.47037127  1
  O  O148  1  0.08176250  0.69542660  0.46980010  1
  O  O149  1  0.57140983  0.71313472  0.47668967  1
  O  O150  1  0.06408904  0.63291203  0.35293345  1
  O  O151  1  0.56985632  0.63096498  0.36034686  1
  O  O152  1  0.24509368  0.86337261  0.35918240  1
  O  O153  1  0.76295428  0.88115830  0.36067963  1
  O  O154  1  0.18496251  0.49980346  0.35929961  1
  O  O155  1  0.68341995  0.49593692  0.35566831  1
  O  O156  1  0.06863034  0.50838029  0.86017984  1
  O  O157  1  0.56398039  0.50271772  0.85484864  1
  O  O158  1  0.18335839  0.87013911  0.85608854  1
  O  O159  1  0.68858528  0.88159105  0.85668871  1
  O  O160  1  0.26278096  0.64709664  0.85990417  1
  O  O161  1  0.74712790  0.63576736  0.85908117  1
  O  O162  1  0.01217052  0.83622230  0.40784888  1
  O  O163  1  0.49502501  0.81481456  0.40503491  1
  O  O164  1  0.40795495  0.99042900  0.41095111  1
  O  O165  1  0.90503461  0.99535715  0.40697300  1
  O  O166  1  0.08541114  0.17647130  0.41084896  1
  O  O167  1  0.58412739  0.17607470  0.40162703  1
  O  O168  1  0.99424668  0.17519700  0.90518629  1
  O  O169  1  0.51049291  0.18431978  0.90719179  1
  O  O170  1  0.08500854  0.99463525  0.90081410  1
  O  O171  1  0.58035267  0.97751432  0.91153418  1
  O  O172  1  0.40510236  0.81672573  0.90760492  1
  O  O173  1  0.90761919  0.82310236  0.91056048  1
  O  O174  1  0.48575020  0.15733515  0.58551260  1
  O  O175  1  0.98799980  0.16156620  0.58480087  1
  O  O176  1  0.08739771  0.01619462  0.58659909  1
  O  O177  1  0.59304754  0.02856714  0.58678083  1
  O  O178  1  0.41620106  0.81148173  0.58548392  1
  O  O179  1  0.92080375  0.79875408  0.58386490  1
  O  O180  1  0.48972493  0.81997039  0.08419292  1
  O  O181  1  0.98525451  0.81281758  0.08485301  1
  O  O182  1  0.42402237  0.04292878  0.08442376  1
  O  O183  1  0.91682246  0.02206831  0.08489266  1
  O  O184  1  0.09420500  0.15725590  0.08615481  1
  O  O185  1  0.59778355  0.17839136  0.08202396  1
  O  O186  1  0.34749848  0.16015735  0.75459752  1
  O  O187  1  0.84244550  0.15327524  0.75350678  1
  O  O188  1  0.23375937  0.31725680  0.75208399  1
  O  O189  1  0.72476968  0.30339643  0.74821920  1
  O  O190  1  0.41960819  0.53675411  0.75257952  1
  O  O191  1  0.92974910  0.53837441  0.75277565  1
  O  O192  1  0.34147413  0.52883426  0.25480064  1
  O  O193  1  0.84461020  0.53218440  0.25120778  1
  O  O194  1  0.43021121  0.31992837  0.25195369  1
  O  O195  1  0.91908690  0.30185927  0.25244230  1
  O  O196  1  0.22536712  0.14647673  0.24750922  1
  O  O197  1  0.73255484  0.15271292  0.25026203  1
  O  O198  1  0.32666043  0.51076458  0.91526083  1
  O  O199  1  0.81880507  0.49290291  0.92748832  1
  O  O200  1  0.42745470  0.35932398  0.92556895  1
  O  O201  1  0.92265956  0.36283616  0.92464988  1
  O  O202  1  0.25590189  0.15929932  0.92679526  1
  O  O203  1  0.75316064  0.14635293  0.92883520  1
  O  O204  1  0.31610617  0.14155973  0.42598390  1
  O  O205  1  0.82336642  0.14123863  0.41729132  1
  O  O206  1  0.25282505  0.35789574  0.42548223  1
  O  O207  1  0.75441215  0.34925294  0.42592205  1
  O  O208  1  0.42290580  0.48247299  0.42355509  1
  O  O209  1  0.92403250  0.49414349  0.42504343  1
  O  O210  1  0.17073004  0.47059741  0.08188966  1
  O  O211  1  0.67551460  0.48929600  0.07167853  1
  O  O212  1  0.06690440  0.66474314  0.08311835  1
  O  O213  1  0.58260397  0.65871027  0.07032319  1
  O  O214  1  0.26895232  0.86698617  0.07811000  1
  O  O215  1  0.76029199  0.85558683  0.07499325  1
  O  O216  1  0.16742304  0.83662898  0.57055921  1
  O  O217  1  0.66967403  0.86814067  0.58258766  1
  O  O218  1  0.25905085  0.65745448  0.57570865  1
  O  O219  1  0.76550877  0.66673421  0.57834901  1
  O  O220  1  0.08023531  0.49816258  0.56978532  1
  O  O221  1  0.56833611  0.46837689  0.58244383  1
  O  O222  1  0.14433888  0.83311961  0.25112574  1
  O  O223  1  0.64625082  0.81007026  0.25652234  1
  O  O224  1  0.25572319  0.69908925  0.25526912  1
  O  O225  1  0.76029201  0.70737281  0.25692557  1
  O  O226  1  0.09168984  0.48254234  0.25421445  1
  O  O227  1  0.58559086  0.46199140  0.25387707  1
  O  O228  1  0.14593281  0.48391994  0.75667262  1
  O  O229  1  0.64356589  0.45418437  0.75285721  1
  O  O230  1  0.08535723  0.70822909  0.75380768  1
  O  O231  1  0.59216880  0.70103208  0.75400490  1
  O  O232  1  0.26021596  0.81415167  0.75641116  1
  O  O233  1  0.75634099  0.81204167  0.75387907  1
