# generated using pymatgen
data_MgFe8(OF)8
_symmetry_space_group_name_H-M   'P 1'
_cell_length_a   9.73417917
_cell_length_b   10.16872918
_cell_length_c   3.09753800
_cell_angle_alpha   90.00000000
_cell_angle_beta   90.00000000
_cell_angle_gamma   90.73944235
_symmetry_Int_Tables_number   1
_chemical_formula_structural   MgFe8(OF)8
_chemical_formula_sum   'Mg1 Fe8 O8 F8'
_cell_volume   306.58188571
_cell_formula_units_Z   1
loop_
 _symmetry_equiv_pos_site_id
 _symmetry_equiv_pos_as_xyz
  1  'x, y, z'
loop_
 _atom_site_type_symbol
 _atom_site_label
 _atom_site_symmetry_multiplicity
 _atom_site_fract_x
 _atom_site_fract_y
 _atom_site_fract_z
 _atom_site_occupancy
  Mg  Mg0  1  0.47803300  0.74956000  0.50000000  1
  Fe  Fe1  1  0.02748700  0.03120400  0.00000000  1
  Fe  Fe2  1  0.01178900  0.48589500  0.00000000  1
  Fe  Fe3  1  0.23068700  0.26377900  0.50000000  1
  Fe  Fe4  1  0.12262700  0.74467100  0.50000000  1
  Fe  Fe5  1  0.52883700  0.47719000  0.00000000  1
  Fe  Fe6  1  0.50579400  0.03017300  0.00000000  1
  Fe  Fe7  1  0.77258800  0.27899500  0.50000000  1
  Fe  Fe8  1  0.76771700  0.70237800  0.50000000  1
  O  O9  1  0.10929500  0.40246900  0.50000000  1
  O  O10  1  0.08138000  0.93163400  0.50000000  1
  O  O11  1  0.15998200  0.16637400  0.00000000  1
  O  O12  1  0.13299500  0.63966300  0.00000000  1
  O  O13  1  0.61396600  0.40210000  0.50000000  1
  O  O14  1  0.61953900  0.66314200  0.00000000  1
  O  O15  1  0.86512200  0.34349300  0.00000000  1
  O  O16  1  0.89583300  0.57555200  0.50000000  1
  F  F17  1  0.36311400  0.34541800  0.00000000  1
  F  F18  1  0.38967900  0.83540300  0.00000000  1
  F  F19  1  0.40270200  0.11806000  0.50000000  1
  F  F20  1  0.41090800  0.56848900  0.50000000  1
  F  F21  1  0.59603400  0.91519800  0.50000000  1
  F  F22  1  0.66613700  0.16727900  0.00000000  1
  F  F23  1  0.83637600  0.81668800  0.00000000  1
  F  F24  1  0.89749300  0.10676500  0.50000000  1
