# generated using pymatgen
data_MgFe6(OF)6
_symmetry_space_group_name_H-M   'P 1'
_cell_length_a   8.18824639
_cell_length_b   5.73526181
_cell_length_c   5.94054880
_cell_angle_alpha   67.89770587
_cell_angle_beta   64.48696904
_cell_angle_gamma   68.17641888
_symmetry_Int_Tables_number   1
_chemical_formula_structural   MgFe6(OF)6
_chemical_formula_sum   'Mg1 Fe6 O6 F6'
_cell_volume   225.81853595
_cell_formula_units_Z   1
loop_
 _symmetry_equiv_pos_site_id
 _symmetry_equiv_pos_as_xyz
  1  'x, y, z'
loop_
 _atom_site_type_symbol
 _atom_site_label
 _atom_site_symmetry_multiplicity
 _atom_site_fract_x
 _atom_site_fract_y
 _atom_site_fract_z
 _atom_site_occupancy
  Mg  Mg0  1  0.97641900  0.00823700  0.51493100  1
  Fe  Fe1  1  0.80270500  0.61017800  0.67784300  1
  Fe  Fe2  1  0.63695000  0.32652000  0.33662800  1
  Fe  Fe3  1  0.33826700  0.69763500  0.63985900  1
  Fe  Fe4  1  0.19846000  0.37944900  0.37856800  1
  Fe  Fe5  1  0.50575800  0.98478500  0.99531900  1
  Fe  Fe6  1  0.00238800  0.99202900  0.01147400  1
  O  O7  1  0.68582800  0.05208000  0.64156700  1
  O  O8  1  0.36703900  0.42728500  0.49131200  1
  O  O9  1  0.30233400  0.99515700  0.34890700  1
  O  O10  1  0.63609000  0.62808500  0.03911400  1
  O  O11  1  0.99322900  0.25240700  0.67075900  1
  O  O12  1  0.02199000  0.72455500  0.34207900  1
  F  F13  1  0.34892800  0.39986400  0.98164400  1
  F  F14  1  0.31766200  0.91729600  0.86122400  1
  F  F15  1  0.92842600  0.27744000  0.20925400  1
  F  F16  1  0.61384600  0.59996700  0.52616800  1
  F  F17  1  0.06101200  0.72517000  0.79819300  1
  F  F18  1  0.67933800  0.08519200  0.13039600  1
