# generated using pymatgen
data_Na4Mg(Ni2O5)2
_symmetry_space_group_name_H-M   'P 1'
_cell_length_a   5.08996761
_cell_length_b   6.16242070
_cell_length_c   6.99857168
_cell_angle_alpha   107.02176451
_cell_angle_beta   95.21941458
_cell_angle_gamma   105.16576318
_symmetry_Int_Tables_number   1
_chemical_formula_structural   Na4Mg(Ni2O5)2
_chemical_formula_sum   'Na4 Mg1 Ni4 O10'
_cell_volume   199.22724499
_cell_formula_units_Z   1
loop_
 _symmetry_equiv_pos_site_id
 _symmetry_equiv_pos_as_xyz
  1  'x, y, z'
loop_
 _atom_site_type_symbol
 _atom_site_label
 _atom_site_symmetry_multiplicity
 _atom_site_fract_x
 _atom_site_fract_y
 _atom_site_fract_z
 _atom_site_occupancy
  Na  Na0  1  0.20125600  0.39195100  0.39113500  1
  Na  Na1  1  0.56451000  0.71296800  0.21984400  1
  Na  Na2  1  0.84034100  0.08293700  0.56866500  1
  Na  Na3  1  0.99942000  0.52674900  0.03746000  1
  Mg  Mg4  1  0.41338800  0.29286900  0.79250300  1
  Ni  Ni5  1  0.40282700  0.79696800  0.79953400  1
  Ni  Ni6  1  0.99421600  0.00290900  0.98538200  1
  Ni  Ni7  1  0.79893700  0.58917500  0.60751200  1
  Ni  Ni8  1  0.58596000  0.20131200  0.18797600  1
  O  O9  1  0.11413100  0.91812800  0.72468400  1
  O  O10  1  0.11788300  0.49657200  0.71732900  1
  O  O11  1  0.30451100  0.88996100  0.06394400  1
  O  O12  1  0.31369400  0.32132000  0.07397300  1
  O  O13  1  0.53246400  0.73026700  0.55291000  1
  O  O14  1  0.67874300  0.65836900  0.86769100  1
  O  O15  1  0.54763600  0.28503000  0.52478200  1
  O  O16  1  0.67879500  0.10606200  0.88868400  1
  O  O17  1  0.84035700  0.51932100  0.33330600  1
  O  O18  1  0.86444100  0.05715100  0.23214500  1
