# generated using pymatgen
data_Na10La4Zr4Si7S5O48
_symmetry_space_group_name_H-M   'P 1'
_cell_length_a   18.99605337
_cell_length_b   9.49028337
_cell_length_c   23.35307274
_cell_angle_alpha   90.02359510
_cell_angle_beta   88.84292147
_cell_angle_gamma   119.71687043
_symmetry_Int_Tables_number   1
_chemical_formula_structural   Na10La4Zr4Si7S5O48
_chemical_formula_sum   'Na30 La12 Zr12 Si21 S15 O144'
_cell_volume   3655.39328961
_cell_formula_units_Z   3
loop_
 _symmetry_equiv_pos_site_id
 _symmetry_equiv_pos_as_xyz
  1  'x, y, z'
loop_
 _atom_site_type_symbol
 _atom_site_label
 _atom_site_symmetry_multiplicity
 _atom_site_fract_x
 _atom_site_fract_y
 _atom_site_fract_z
 _atom_site_occupancy
  Na  Na0  1  0.18492246  0.37572185  0.23709828  1
  Na  Na1  1  0.68518775  0.37777082  0.23721699  1
  Na  Na2  1  0.99050009  0.63585619  0.25592246  1
  Na  Na3  1  0.49282848  0.63664024  0.25579469  1
  Na  Na4  1  0.49170602  0.34150892  0.76281123  1
  Na  Na5  1  0.18556697  0.99750672  0.74096435  1
  Na  Na6  1  0.68177102  0.99684143  0.74004072  1
  Na  Na7  1  0.66352644  0.34533645  0.57745290  1
  Na  Na8  1  0.01505926  0.70720340  0.57427130  1
  Na  Na9  1  0.82437122  0.96249486  0.59207117  1
  Na  Na10  1  0.49838797  0.67968584  0.91041576  1
  Na  Na11  1  0.99813270  0.67829515  0.90945461  1
  Na  Na12  1  0.84768604  0.03647217  0.90480370  1
  Na  Na13  1  0.15345542  0.29738129  0.92411050  1
  Na  Na14  1  0.49531130  0.31486006  0.40884462  1
  Na  Na15  1  0.99150029  0.30916923  0.40972064  1
  Na  Na16  1  0.34506763  0.65688213  0.40262027  1
  Na  Na17  1  0.84794350  0.66257875  0.40745342  1
  Na  Na18  1  0.03010058  0.01534099  0.49871772  1
  Na  Na19  1  0.52482754  0.98742424  0.49685321  1
  Na  Na20  1  0.01768295  0.02510710  0.00349227  1
  Na  Na21  1  0.52555942  0.05987689  0.99796643  1
  Na  Na22  1  0.34639072  0.32571418  0.83515075  1
  Na  Na23  1  0.85482929  0.34255293  0.82692012  1
  Na  Na24  1  0.34373830  0.33774948  0.32980810  1
  Na  Na25  1  0.84097987  0.33492342  0.33394138  1
  Na  Na26  1  0.17966861  0.65032693  0.16501520  1
  Na  Na27  1  0.67887873  0.65101989  0.16577616  1
  Na  Na28  1  0.17904897  0.69110634  0.67316536  1
  Na  Na29  1  0.67899261  0.69043183  0.66900101  1
  La  La30  1  0.00200010  0.99835296  0.34812422  1
  La  La31  1  0.50263493  0.00079591  0.34664548  1
  La  La32  1  0.99794311  0.00186434  0.84223136  1
  La  La33  1  0.49425756  -0.00041941  0.85387492  1
  La  La34  1  0.33466307  0.33327901  0.68177764  1
  La  La35  1  0.83823058  0.34240158  0.68614556  1
  La  La36  1  0.33542354  0.33871766  0.17851094  1
  La  La37  1  0.83544178  0.33751796  0.17941200  1
  La  La38  1  0.16049136  0.65419077  0.01927114  1
  La  La39  1  0.65990120  0.64725309  0.02079209  1
  La  La40  1  0.16627834  0.67737836  0.51725127  1
  La  La41  1  0.65866842  0.67280805  0.51699336  1
  Zr  Zr42  1  0.99447742  0.97897897  0.65144662  1
  Zr  Zr43  1  0.49560215  0.97521723  0.65074386  1
  Zr  Zr44  1  0.99781553  0.01626820  0.15005048  1
  Zr  Zr45  1  0.49755795  0.01407987  0.14986208  1
  Zr  Zr46  1  0.32501387  0.31210216  0.98000969  1
  Zr  Zr47  1  0.82234430  0.32018251  0.98021028  1
  Zr  Zr48  1  0.32308132  0.32577189  0.47988049  1
  Zr  Zr49  1  0.82563644  0.34642853  0.48125619  1
  Zr  Zr50  1  0.16318454  0.64539666  0.31447583  1
  Zr  Zr51  1  0.66220830  0.64699527  0.31527992  1
  Zr  Zr52  1  0.16132623  0.68170151  0.81414451  1
  Zr  Zr53  1  0.66297831  0.68073077  0.81453831  1
  Si  Si54  1  0.34744993  0.70610146  0.25223592  1
  Si  Si55  1  0.84781992  0.70703008  0.25224350  1
  Si  Si56  1  0.00237860  0.30784798  0.25474960  1
  Si  Si57  1  0.50243028  0.30797137  0.25443499  1
  Si  Si58  1  0.00508106  0.69863158  0.75499679  1
  Si  Si59  1  0.50241703  0.69568085  0.75533283  1
  Si  Si60  1  0.34825879  0.98907650  0.74847528  1
  Si  Si61  1  0.84205171  0.98421531  0.75288625  1
  Si  Si62  1  0.17796523  0.03748759  0.58981617  1
  Si  Si63  1  0.68215678  0.04631125  0.58937762  1
  Si  Si64  1  0.83555412  0.64124233  0.58175205  1
  Si  Si65  1  0.17829547  0.31922699  0.08844524  1
  Si  Si66  1  0.67820398  0.31726362  0.09116694  1
  Si  Si67  1  0.01454927  0.37148307  0.91671322  1
  Si  Si68  1  0.51101080  0.37300553  0.91548306  1
  Si  Si69  1  0.16707789  0.96954289  0.91617331  1
  Si  Si70  1  0.66976724  0.96699895  0.91887346  1
  Si  Si71  1  0.16843863  0.36893116  0.41797620  1
  Si  Si72  1  0.66825841  0.36672722  0.42108883  1
  Si  Si73  1  0.01151161  0.65297849  0.41891494  1
  Si  Si74  1  0.50815673  0.65236019  0.41444105  1
  S  S75  1  0.14595199  0.98202061  0.24550931  1
  S  S76  1  0.64639255  0.98158436  0.24543372  1
  S  S77  1  0.14630567  0.31300145  0.74894281  1
  S  S78  1  0.64097520  0.30158427  0.74531081  1
  S  S79  1  0.47988539  0.30627175  0.58088941  1
  S  S80  1  0.97879258  0.31281283  0.57754976  1
  S  S81  1  0.34377494  0.64538251  0.57922490  1
  S  S82  1  0.48020724  0.65508541  0.08280943  1
  S  S83  1  0.97958868  0.65419279  0.08196086  1
  S  S84  1  0.34218493  0.03852581  0.08187079  1
  S  S85  1  0.84244877  0.03877145  0.07988319  1
  S  S86  1  0.30848803  0.64090887  0.91606355  1
  S  S87  1  0.81240300  0.65017029  0.91608697  1
  S  S88  1  0.31301007  0.97710971  0.41414752  1
  S  S89  1  0.81133592  0.97408149  0.41578354  1
  O  O90  1  0.11623171  0.01325198  0.30041229  1
  O  O91  1  0.61704906  0.01283375  0.30052188  1
  O  O92  1  0.39474290  0.76654193  0.31231023  1
  O  O93  1  0.89671308  0.76629710  0.31186801  1
  O  O94  1  0.49301342  0.22182766  0.31586603  1
  O  O95  1  0.99426203  0.22073557  0.31567903  1
  O  O96  1  0.11773447  0.23597254  0.80647239  1
  O  O97  1  0.60401574  0.20532034  0.79777557  1
  O  O98  1  0.49437239  0.77096298  0.81496271  1
  O  O99  1  0.00247157  0.77581059  0.81612694  1
  O  O100  1  0.40960214  0.04387465  0.80111351  1
  O  O101  1  0.88504541  0.00017162  0.81356541  1
  O  O102  1  0.40103810  0.97454610  0.69153713  1
  O  O103  1  0.90064130  0.98364731  0.69691337  1
  O  O104  1  0.09018800  0.20734916  0.70387874  1
  O  O105  1  0.59115518  0.21043214  0.69423596  1
  O  O106  1  0.01096018  0.82487609  0.70099896  1
  O  O107  1  0.51036687  0.82276637  0.70055466  1
  O  O108  1  0.40685589  0.83085696  0.19951492  1
  O  O109  1  0.90654313  0.83264545  0.19909752  1
  O  O110  1  0.01250670  0.19832307  0.20156949  1
  O  O111  1  0.51179542  0.19612577  0.20194816  1
  O  O112  1  0.09149110  0.97225768  0.19837275  1
  O  O113  1  0.59150754  0.97156779  0.19867707  1
  O  O114  1  0.44340837  0.32303415  0.63507191  1
  O  O115  1  0.94098704  0.33555249  0.62975044  1
  O  O116  1  0.22249809  0.11138809  0.64920174  1
  O  O117  1  0.72615153  0.11569001  0.64951161  1
  O  O118  1  0.33445104  0.55444321  0.63208562  1
  O  O119  1  0.81765600  0.51472737  0.63278770  1
  O  O120  1  0.44573069  0.56890918  0.13851137  1
  O  O121  1  0.94410442  0.56893934  0.13737808  1
  O  O122  1  0.33276722  0.10662793  0.13599982  1
  O  O123  1  0.83392313  0.11264424  0.13302840  1
  O  O124  1  0.22044317  0.32388771  0.14890656  1
  O  O125  1  0.71919770  0.32036639  0.15182173  1
  O  O126  1  0.23605524  0.30895101  0.03308162  1
  O  O127  1  0.73933845  0.31185574  0.03726425  1
  O  O128  1  0.43073285  0.55396944  0.03432602  1
  O  O129  1  0.93095698  0.55453025  0.03292693  1
  O  O130  1  0.34773990  0.14599742  0.03229119  1
  O  O131  1  0.84817788  0.14163471  0.02879026  1
  O  O132  1  0.23864968  0.16110127  0.53471930  1
  O  O133  1  0.73862177  0.17820842  0.53536945  1
  O  O134  1  0.34733900  0.55149832  0.52781459  1
  O  O135  1  0.84923026  0.55271647  0.52202090  1
  O  O136  1  0.43292509  0.31114454  0.53089162  1
  O  O137  1  0.93050794  0.30456883  0.52627760  1
  O  O138  1  0.27552274  0.66670990  0.96961648  1
  O  O139  1  0.77798887  0.67381131  0.96930349  1
  O  O140  1  0.07594003  0.43723931  0.96973619  1
  O  O141  1  0.56448025  0.46275385  0.96997443  1
  O  O142  1  0.15078719  0.84705034  0.96845248  1
  O  O143  1  0.66822359  0.85976530  0.97184708  1
  O  O144  1  0.27970644  0.88777234  0.46819298  1
  O  O145  1  0.77948759  0.89030026  0.47136384  1
  O  O146  1  0.16426680  0.47058056  0.47125357  1
  O  O147  1  0.66407184  0.44936173  0.48038578  1
  O  O148  1  0.05671798  0.67233000  0.47904249  1
  O  O149  1  0.56069301  0.67610030  0.47007597  1
  O  O150  1  0.06856896  0.64222156  0.36340103  1
  O  O151  1  0.55997934  0.63860955  0.35649050  1
  O  O152  1  0.26230976  0.88761093  0.36507280  1
  O  O153  1  0.75881393  0.87687120  0.36806790  1
  O  O154  1  0.18333630  0.48711553  0.35907587  1
  O  O155  1  0.67757684  0.49396300  0.36599460  1
  O  O156  1  0.06643453  0.50035871  0.86192306  1
  O  O157  1  0.56060385  0.48762887  0.85650005  1
  O  O158  1  0.17758694  0.88089203  0.85634008  1
  O  O159  1  0.68318245  0.87716989  0.85946749  1
  O  O160  1  0.26006368  0.63605791  0.86609860  1
  O  O161  1  0.76241722  0.63594408  0.86616075  1
  O  O162  1  0.99013272  0.79890531  0.41425873  1
  O  O163  1  0.48421074  0.79524020  0.41255011  1
  O  O164  1  0.39683930  0.00606643  0.40853562  1
  O  O165  1  0.89428402  0.99568443  0.40933091  1
  O  O166  1  0.08795294  0.19172567  0.41610049  1
  O  O167  1  0.58730436  0.19021813  0.41568106  1
  O  O168  1  0.99213187  0.18252045  0.90973935  1
  O  O169  1  0.49221020  0.18735818  0.91523362  1
  O  O170  1  0.09329551  0.01213356  0.91387702  1
  O  O171  1  0.58922851  0.98380987  0.91664556  1
  O  O172  1  0.39468567  0.76537952  0.91117118  1
  O  O173  1  0.89693264  0.78814999  0.91017037  1
  O  O174  1  0.48270813  0.15221522  0.58125449  1
  O  O175  1  0.97871089  0.15558533  0.58210208  1
  O  O176  1  0.08806719  0.02838506  0.58899529  1
  O  O177  1  0.59260009  0.04117524  0.58911751  1
  O  O178  1  0.42305824  0.80305183  0.58067160  1
  O  O179  1  0.92321806  0.81461689  0.59015024  1
  O  O180  1  0.48037914  0.81234057  0.08408335  1
  O  O181  1  0.98095974  0.81281420  0.08256298  1
  O  O182  1  0.42069557  0.03583902  0.08315591  1
  O  O183  1  0.92133580  0.03626036  0.08241193  1
  O  O184  1  0.08785484  0.14865773  0.08925429  1
  O  O185  1  0.58802377  0.14786439  0.08962265  1
  O  O186  1  0.32829187  0.13902134  0.74312075  1
  O  O187  1  0.82076206  0.13074491  0.74962503  1
  O  O188  1  0.22787782  0.33056538  0.74083052  1
  O  O189  1  0.72397574  0.32961263  0.74110444  1
  O  O190  1  0.43214814  0.50710572  0.74783985  1
  O  O191  1  0.92976149  0.51706145  0.75127318  1
  O  O192  1  0.33015735  0.51828405  0.24545286  1
  O  O193  1  0.83134558  0.52027920  0.24471391  1
  O  O194  1  0.43132900  0.35465075  0.24686784  1
  O  O195  1  0.93122474  0.35403247  0.24751681  1
  O  O196  1  0.22987129  0.11530619  0.23769830  1
  O  O197  1  0.73038938  0.11424862  0.23765448  1
  O  O198  1  0.30435105  0.47653976  0.91931770  1
  O  O199  1  0.81898204  0.49755758  0.92103306  1
  O  O200  1  0.42424627  0.38332746  0.92248727  1
  O  O201  1  0.92798700  0.37728350  0.92670630  1
  O  O202  1  0.25310727  0.14899440  0.92368781  1
  O  O203  1  0.75692444  0.14931636  0.92300501  1
  O  O204  1  0.31817238  0.14079824  0.41819294  1
  O  O205  1  0.81858002  0.13812896  0.41693104  1
  O  O206  1  0.25494052  0.36115616  0.42270315  1
  O  O207  1  0.75596779  0.36358823  0.41836511  1
  O  O208  1  0.42135044  0.47100589  0.42082765  1
  O  O209  1  0.92485250  0.47262102  0.41948830  1
  O  O210  1  0.16847457  0.47959844  0.08585404  1
  O  O211  1  0.66837147  0.47723426  0.08877611  1
  O  O212  1  0.06310090  0.68130424  0.07958311  1
  O  O213  1  0.56414184  0.68482466  0.08002063  1
  O  O214  1  0.27393175  0.87380268  0.07584118  1
  O  O215  1  0.77482920  0.87351317  0.07589967  1
  O  O216  1  0.15846946  0.84883054  0.58566415  1
  O  O217  1  0.67721871  0.87123167  0.58245880  1
  O  O218  1  0.27623160  0.67804518  0.57520861  1
  O  O219  1  0.76174464  0.68092373  0.57923729  1
  O  O220  1  0.06211262  0.45190402  0.57428884  1
  O  O221  1  0.56499665  0.44366616  0.57929312  1
  O  O222  1  0.14253408  0.82127710  0.24907664  1
  O  O223  1  0.64330282  0.82115153  0.24866701  1
  O  O224  1  0.25797949  0.69871595  0.25496094  1
  O  O225  1  0.75783853  0.69710513  0.25635096  1
  O  O226  1  0.09235770  0.48478111  0.25341206  1
  O  O227  1  0.59312439  0.48346612  0.25340121  1
  O  O228  1  0.15172840  0.47431906  0.74832609  1
  O  O229  1  0.64014783  0.45823053  0.74780946  1
  O  O230  1  0.09513628  0.70497424  0.74983248  1
  O  O231  1  0.59300784  0.70200711  0.75279220  1
  O  O232  1  0.26037706  0.81886980  0.75626428  1
  O  O233  1  0.75469324  0.80803948  0.75271005  1
