# generated using pymatgen
data_Na4Mg(WO4)2
_symmetry_space_group_name_H-M   'P 1'
_cell_length_a   6.60101858
_cell_length_b   6.59646438
_cell_length_c   6.59646438
_cell_angle_alpha   60.04897321
_cell_angle_beta   59.97715912
_cell_angle_gamma   59.97715912
_symmetry_Int_Tables_number   1
_chemical_formula_structural   Na4Mg(WO4)2
_chemical_formula_sum   'Na4 Mg1 W2 O8'
_cell_volume   203.10880380
_cell_formula_units_Z   1
loop_
 _symmetry_equiv_pos_site_id
 _symmetry_equiv_pos_as_xyz
  1  'x, y, z'
loop_
 _atom_site_type_symbol
 _atom_site_label
 _atom_site_symmetry_multiplicity
 _atom_site_fract_x
 _atom_site_fract_y
 _atom_site_fract_z
 _atom_site_occupancy
  Na  Na0  1  0.01941900  0.02016400  0.44099700  1
  Na  Na1  1  0.01941900  0.44099700  0.02016400  1
  Na  Na2  1  0.44320700  0.01918800  0.01918800  1
  Na  Na3  1  0.01841700  0.01918800  0.01918800  1
  Mg  Mg4  1  0.87631900  0.87368100  0.87368100  1
  W  W5  1  0.37490900  0.37509100  0.37509100  1
  W  W6  1  0.62574400  0.62425600  0.62425600  1
  O  O7  1  0.26255700  0.26201800  0.71286900  1
  O  O8  1  0.26255700  0.71286900  0.26201800  1
  O  O9  1  0.71275800  0.26254600  0.26254600  1
  O  O10  1  0.26215100  0.26254600  0.26254600  1
  O  O11  1  0.75116500  0.75167300  0.24599800  1
  O  O12  1  0.75116500  0.24599800  0.75167300  1
  O  O13  1  0.24780200  0.74989300  0.74989300  1
  O  O14  1  0.75241100  0.74989300  0.74989300  1
