# generated using pymatgen
data_NaYTiP2SO12
_symmetry_space_group_name_H-M   'P 1'
_cell_length_a   8.88172071
_cell_length_b   8.94674083
_cell_length_c   23.01943244
_cell_angle_alpha   88.82073976
_cell_angle_beta   90.00000000
_cell_angle_gamma   119.75988404
_symmetry_Int_Tables_number   1
_chemical_formula_structural   NaYTiP2SO12
_chemical_formula_sum   'Na6 Y6 Ti6 P12 S6 O72'
_cell_volume   1587.48950577
_cell_formula_units_Z   6
loop_
 _symmetry_equiv_pos_site_id
 _symmetry_equiv_pos_as_xyz
  1  'x, y, z'
loop_
 _atom_site_type_symbol
 _atom_site_label
 _atom_site_symmetry_multiplicity
 _atom_site_fract_x
 _atom_site_fract_y
 _atom_site_fract_z
 _atom_site_occupancy
  Na  Na0  1  0.98427505  0.99149577  0.49697624  1
  Na  Na1  1  0.00722071  0.99149577  0.99697624  1
  Na  Na2  1  0.65094205  0.32482877  0.83030924  1
  Na  Na3  1  0.67388771  0.32482877  0.33030924  1
  Na  Na4  1  0.31760805  0.65816277  0.16364324  1
  Na  Na5  1  0.34055371  0.65816277  0.66364324  1
  Y  Y6  1  0.99561161  0.00315535  0.64482714  1
  Y  Y7  1  0.00754374  0.00315535  0.14482714  1
  Y  Y8  1  0.66227861  0.33648835  0.97816014  1
  Y  Y9  1  0.67421074  0.33648835  0.47816014  1
  Y  Y10  1  0.32894461  0.66982235  0.31149414  1
  Y  Y11  1  0.34087674  0.66982235  0.81149414  1
  Ti  Ti12  1  0.00800413  0.01011039  0.35212511  1
  Ti  Ti13  1  0.00210626  0.01011039  0.85212511  1
  Ti  Ti14  1  0.67467113  0.34344339  0.68545811  1
  Ti  Ti15  1  0.66877326  0.34344339  0.18545811  1
  Ti  Ti16  1  0.34133713  0.67677739  0.01879211  1
  Ti  Ti17  1  0.33543926  0.67677739  0.51879211  1
  P  P18  1  0.30392889  0.02199519  0.25036624  1
  P  P19  1  0.98288256  0.28323764  0.24915249  1
  P  P20  1  0.30035508  0.28323764  0.74915249  1
  P  P21  1  0.71806629  0.02199519  0.75036624  1
  P  P22  1  0.97059589  0.35532819  0.58369924  1
  P  P23  1  0.64954956  0.61657064  0.58248549  1
  P  P24  1  0.96702208  0.61657064  0.08248549  1
  P  P25  1  0.38473329  0.35532819  0.08369924  1
  P  P26  1  0.63726189  0.68866219  0.91703324  1
  P  P27  1  0.31621556  0.94990464  0.91581949  1
  P  P28  1  0.63368808  0.94990464  0.41581949  1
  P  P29  1  0.05139929  0.68866219  0.41703324  1
  S  S30  1  0.71679269  0.69932953  0.25122057  1
  S  S31  1  0.98253684  0.69932953  0.75122057  1
  S  S32  1  0.38345969  0.03266253  0.58455357  1
  S  S33  1  0.64920384  0.03266253  0.08455357  1
  S  S34  1  0.05012569  0.36599653  0.91788757  1
  S  S35  1  0.31586984  0.36599653  0.41788757  1
  O  O36  1  0.19792389  0.03406883  0.30463629  1
  O  O37  1  0.82193553  0.78647932  0.30302850  1
  O  O38  1  0.96621589  0.16466048  0.30510956  1
  O  O39  1  0.19844459  0.16466048  0.80510956  1
  O  O40  1  0.96454378  0.78647932  0.80302850  1
  O  O41  1  0.83614494  0.03406883  0.80463629  1
  O  O42  1  0.79378749  0.98919745  0.69656201  1
  O  O43  1  0.19516903  0.20030635  0.69599676  1
  O  O44  1  0.01049055  0.79912780  0.69733056  1
  O  O45  1  0.78863726  0.79912780  0.19733056  1
  O  O46  1  0.00513732  0.20030635  0.19599676  1
  O  O47  1  0.19540996  0.98919745  0.19656201  1
  O  O48  1  0.86459089  0.36740183  0.63796929  1
  O  O49  1  0.48860253  0.11981232  0.63636150  1
  O  O50  1  0.63288289  0.49799348  0.63844256  1
  O  O51  1  0.86511159  0.49799348  0.13844256  1
  O  O52  1  0.63121078  0.11981232  0.13636150  1
  O  O53  1  0.50281194  0.36740183  0.13796929  1
  O  O54  1  0.46045449  0.32253045  0.02989501  1
  O  O55  1  0.86183603  0.53363935  0.02932976  1
  O  O56  1  0.67715755  0.13246080  0.03066356  1
  O  O57  1  0.45530426  0.13246080  0.53066356  1
  O  O58  1  0.67180432  0.53363935  0.52932976  1
  O  O59  1  0.86207696  0.32253045  0.52989501  1
  O  O60  1  0.53125689  0.70073583  0.97130329  1
  O  O61  1  0.15526853  0.45314632  0.96969550  1
  O  O62  1  0.29954889  0.83132748  0.97177656  1
  O  O63  1  0.53177759  0.83132748  0.47177656  1
  O  O64  1  0.29787678  0.45314632  0.46969550  1
  O  O65  1  0.16947794  0.70073583  0.47130329  1
  O  O66  1  0.12712049  0.65586445  0.36322901  1
  O  O67  1  0.52850203  0.86697335  0.36266376  1
  O  O68  1  0.34382355  0.46579480  0.36399756  1
  O  O69  1  0.12197026  0.46579480  0.86399756  1
  O  O70  1  0.33847032  0.86697335  0.86266376  1
  O  O71  1  0.52874296  0.65586445  0.86322901  1
  O  O72  1  0.04811219  0.86085518  0.41058287  1
  O  O73  1  0.81453397  0.95975261  0.41021079  1
  O  O74  1  0.15069904  0.19504895  0.41320980  1
  O  O75  1  0.04434991  0.19504895  0.91320980  1
  O  O76  1  0.14521865  0.95975261  0.91021079  1
  O  O77  1  0.81274299  0.86085518  0.91058287  1
  O  O78  1  0.00644033  0.20617024  0.59008357  1
  O  O79  1  0.20345198  0.99815277  0.58969071  1
  O  O80  1  0.80484217  0.79685615  0.58889080  1
  O  O81  1  0.99201397  0.79685615  0.08889080  1
  O  O82  1  0.79470080  0.99815277  0.08969071  1
  O  O83  1  0.19972991  0.20617024  0.09008357  1
  O  O84  1  0.71477919  0.19418818  0.74391587  1
  O  O85  1  0.48120097  0.29308561  0.74354379  1
  O  O86  1  0.81736604  0.52838195  0.74654280  1
  O  O87  1  0.71101691  0.52838195  0.24654280  1
  O  O88  1  0.81188565  0.29308561  0.24354379  1
  O  O89  1  0.47940999  0.19418818  0.24391587  1
  O  O90  1  0.67310733  0.53950324  0.92341657  1
  O  O91  1  0.87011898  0.33148577  0.92302371  1
  O  O92  1  0.47150917  0.13018915  0.92222380  1
  O  O93  1  0.65868097  0.13018915  0.42222380  1
  O  O94  1  0.46136780  0.33148577  0.42302371  1
  O  O95  1  0.86639691  0.53950324  0.42341657  1
  O  O96  1  0.38144519  0.52752218  0.07724987  1
  O  O97  1  0.14786697  0.62641961  0.07687779  1
  O  O98  1  0.48403204  0.86171595  0.07987680  1
  O  O99  1  0.37768291  0.86171595  0.57987680  1
  O  O100  1  0.47855165  0.62641961  0.57687779  1
  O  O101  1  0.14607599  0.52752218  0.57724987  1
  O  O102  1  0.33977333  0.87283724  0.25675057  1
  O  O103  1  0.53678498  0.66481977  0.25635771  1
  O  O104  1  0.13817517  0.46352315  0.25555780  1
  O  O105  1  0.32534697  0.46352315  0.75555780  1
  O  O106  1  0.12803380  0.66481977  0.75635771  1
  O  O107  1  0.53306291  0.87283724  0.75675057  1
