# generated using pymatgen
data_Na4Cu2S3
_symmetry_space_group_name_H-M   'P 1'
_cell_length_a   19.47401488
_cell_length_b   19.47401488
_cell_length_c   19.47401488
_cell_angle_alpha   151.70020534
_cell_angle_beta   151.70020534
_cell_angle_gamma   40.45126473
_symmetry_Int_Tables_number   1
_chemical_formula_structural   Na4Cu2S3
_chemical_formula_sum   'Na32 Cu16 S24'
_cell_volume   1656.53276216
_cell_formula_units_Z   8
loop_
 _symmetry_equiv_pos_site_id
 _symmetry_equiv_pos_as_xyz
  1  'x, y, z'
loop_
 _atom_site_type_symbol
 _atom_site_label
 _atom_site_symmetry_multiplicity
 _atom_site_fract_x
 _atom_site_fract_y
 _atom_site_fract_z
 _atom_site_occupancy
  Na  Na0  1  0.37500000  0.12500000  0.25000000  1
  Na  Na1  1  0.62500000  0.87500000  0.75000000  1
  Na  Na2  1  0.87500000  0.62500000  0.25000000  1
  Na  Na3  1  0.12500000  0.37500000  0.75000000  1
  Na  Na4  1  0.28307500  0.03307500  0.25000000  1
  Na  Na5  1  0.53307500  0.78307500  0.75000000  1
  Na  Na6  1  0.71692500  0.96692500  0.75000000  1
  Na  Na7  1  0.46692500  0.21692500  0.25000000  1
  Na  Na8  1  0.86689400  0.11689400  0.75000000  1
  Na  Na9  1  0.61689400  0.36689400  0.25000000  1
  Na  Na10  1  0.13310600  0.88310600  0.25000000  1
  Na  Na11  1  0.38310600  0.63310600  0.75000000  1
  Na  Na12  1  0.28812900  0.53812900  0.75000000  1
  Na  Na13  1  0.03812900  0.78812900  0.25000000  1
  Na  Na14  1  0.71187100  0.46187100  0.25000000  1
  Na  Na15  1  0.96187100  0.21187100  0.75000000  1
  Na  Na16  1  0.58402800  0.78565100  0.29138300  1
  Na  Na17  1  0.28565100  0.49426800  0.20162400  1
  Na  Na18  1  0.79264400  0.08402800  0.29837600  1
  Na  Na19  1  0.99426800  0.29264400  0.20861700  1
  Na  Na20  1  0.41597200  0.21434900  0.70861700  1
  Na  Na21  1  0.71434900  0.50573200  0.79837600  1
  Na  Na22  1  0.20735600  0.91597200  0.70162400  1
  Na  Na23  1  0.00573200  0.70735600  0.79138300  1
  Na  Na24  1  0.12397600  0.86724100  0.75481000  1
  Na  Na25  1  0.36724100  0.11243100  0.74326400  1
  Na  Na26  1  0.86916700  0.62397600  0.75673600  1
  Na  Na27  1  0.61243100  0.36916700  0.74519000  1
  Na  Na28  1  0.87602400  0.13275900  0.24519000  1
  Na  Na29  1  0.63275900  0.88756900  0.25673600  1
  Na  Na30  1  0.13083300  0.37602400  0.24326400  1
  Na  Na31  1  0.38756900  0.63083300  0.25481000  1
  Cu  Cu32  1  0.94725900  0.65239600  0.50776300  1
  Cu  Cu33  1  0.15239600  0.14463300  0.70513600  1
  Cu  Cu34  1  0.93949600  0.44725900  0.79486400  1
  Cu  Cu35  1  0.64463300  0.43949600  0.99223700  1
  Cu  Cu36  1  0.05274100  0.34760400  0.49223700  1
  Cu  Cu37  1  0.84760400  0.85536700  0.29486400  1
  Cu  Cu38  1  0.06050400  0.55274100  0.20513600  1
  Cu  Cu39  1  0.35536700  0.56050400  0.00776300  1
  Cu  Cu40  1  0.95048100  0.92586300  0.78873500  1
  Cu  Cu41  1  0.42586300  0.13712800  0.97538100  1
  Cu  Cu42  1  0.66174600  0.45048100  0.52461900  1
  Cu  Cu43  1  0.63712800  0.16174600  0.71126500  1
  Cu  Cu44  1  0.04951900  0.07413700  0.21126500  1
  Cu  Cu45  1  0.57413700  0.86287200  0.02461900  1
  Cu  Cu46  1  0.33825400  0.54951900  0.47538100  1
  Cu  Cu47  1  0.36287200  0.83825400  0.28873500  1
  S  S48  1  0.80978000  0.74808400  0.54695400  1
  S  S49  1  0.24808400  0.20113000  0.93830400  1
  S  S50  1  0.76282600  0.30978000  0.56169600  1
  S  S51  1  0.70113000  0.26282600  0.95304600  1
  S  S52  1  0.19022000  0.25191600  0.45304600  1
  S  S53  1  0.75191600  0.79887000  0.06169600  1
  S  S54  1  0.23717400  0.69022000  0.43830400  1
  S  S55  1  0.29887000  0.73717400  0.04695400  1
  S  S56  1  0.09617200  0.09593400  0.02685400  1
  S  S57  1  0.59593400  0.06908000  0.99976200  1
  S  S58  1  0.56931800  0.59617200  0.50023800  1
  S  S59  1  0.56908000  0.06931800  0.47314600  1
  S  S60  1  0.90382800  0.90406600  0.97314600  1
  S  S61  1  0.40406600  0.93092000  0.00023800  1
  S  S62  1  0.43068200  0.40382800  0.49976200  1
  S  S63  1  0.43092000  0.93068200  0.52685400  1
  S  S64  1  0.57388900  0.60290000  0.00460900  1
  S  S65  1  0.10290000  0.59829000  0.02901000  1
  S  S66  1  0.06928000  0.07388900  0.47099000  1
  S  S67  1  0.09829000  0.56928000  0.49539100  1
  S  S68  1  0.42611100  0.39710000  0.99539100  1
  S  S69  1  0.89710000  0.40171000  0.97099000  1
  S  S70  1  0.93072000  0.92611100  0.52901000  1
  S  S71  1  0.90171000  0.43072000  0.50460900  1
