# generated using pymatgen
data_Na8Al2Si5Ge2SO24
_symmetry_space_group_name_H-M   'P 1'
_cell_length_a   8.81760141
_cell_length_b   8.79582523
_cell_length_c   21.54690094
_cell_angle_alpha   90.38865587
_cell_angle_beta   88.89878359
_cell_angle_gamma   120.15165683
_symmetry_Int_Tables_number   1
_chemical_formula_structural   Na8Al2Si5Ge2SO24
_chemical_formula_sum   'Na24 Al6 Si15 Ge6 S3 O72'
_cell_volume   1444.75488328
_cell_formula_units_Z   3
loop_
 _symmetry_equiv_pos_site_id
 _symmetry_equiv_pos_as_xyz
  1  'x, y, z'
loop_
 _atom_site_type_symbol
 _atom_site_label
 _atom_site_symmetry_multiplicity
 _atom_site_fract_x
 _atom_site_fract_y
 _atom_site_fract_z
 _atom_site_occupancy
  Na  Na0  1  0.63958213  0.00306816  0.25143522  1
  Na  Na1  1  0.35933592  0.36307480  0.24844907  1
  Na  Na2  1  0.99945650  0.63707420  0.24995111  1
  Na  Na3  1  0.63311902  0.63460650  0.74735787  1
  Na  Na4  1  0.99804869  0.36517814  0.74940101  1
  Na  Na5  1  0.36868886  0.00532883  0.74991448  1
  Na  Na6  1  0.29927835  0.33746653  0.58531560  1
  Na  Na7  1  0.03969177  0.70357501  0.58326917  1
  Na  Na8  1  0.66582009  0.95989409  0.58331018  1
  Na  Na9  1  0.28917165  0.96305145  0.08091686  1
  Na  Na10  1  0.66793411  0.69508555  0.08716242  1
  Na  Na11  1  0.04215180  0.33511609  0.08821014  1
  Na  Na12  1  0.97108302  0.66566707  0.91627802  1
  Na  Na13  1  0.70219002  0.04052953  0.90948437  1
  Na  Na14  1  0.32446418  0.28628164  0.91893483  1
  Na  Na15  1  0.96209312  0.29521118  0.41095773  1
  Na  Na16  1  0.33053636  0.02825705  0.41586655  1
  Na  Na17  1  0.70972259  0.67439086  0.41852860  1
  Na  Na18  1  0.99341944  0.99272308  0.49969691  1
  Na  Na19  1  0.01478583  0.00601311  0.00042235  1
  Na  Na20  1  0.66605545  0.32655727  0.83306250  1
  Na  Na21  1  0.67133682  0.33228000  0.33340147  1
  Na  Na22  1  0.32658349  0.65844630  0.16585120  1
  Na  Na23  1  0.33553069  0.66742304  0.66418180  1
  Al  Al24  1  0.98980804  0.98964823  0.34968633  1
  Al  Al25  1  0.01151404  0.00966492  0.85085717  1
  Al  Al26  1  0.01221077  0.99899996  0.15025280  1
  Al  Al27  1  0.66502556  0.33179534  0.98012369  1
  Al  Al28  1  0.30523302  0.64583029  0.01949481  1
  Al  Al29  1  0.33729383  0.68165935  0.52406211  1
  Si  Si30  1  0.28801704  0.00405231  0.24977634  1
  Si  Si31  1  0.71155533  0.71688175  0.25033395  1
  Si  Si32  1  0.99934402  0.28586687  0.24993894  1
  Si  Si33  1  0.28966309  0.29033153  0.75045054  1
  Si  Si34  1  0.99555505  0.71663282  0.75056703  1
  Si  Si35  1  0.71392533  0.99907536  0.75182829  1
  Si  Si36  1  0.96018278  0.33348501  0.58475027  1
  Si  Si37  1  0.38277011  0.05137916  0.58437568  1
  Si  Si38  1  0.66635275  0.61930586  0.58320163  1
  Si  Si39  1  0.95109804  0.62203658  0.08186250  1
  Si  Si40  1  0.37835146  0.33506920  0.08208302  1
  Si  Si41  1  0.03969913  0.37128834  0.91685093  1
  Si  Si42  1  0.33358192  0.95361523  0.91878485  1
  Si  Si43  1  0.62169417  0.95386492  0.41786151  1
  Si  Si44  1  0.04655773  0.66892131  0.41922261  1
  Ge  Ge45  1  0.00073112  0.00162220  0.64648912  1
  Ge  Ge46  1  0.66805634  0.33575596  0.68761459  1
  Ge  Ge47  1  0.66862738  0.35036194  0.19000997  1
  Ge  Ge48  1  0.68412152  0.32984870  0.48478868  1
  Ge  Ge49  1  0.32804326  0.67930998  0.30998463  1
  Ge  Ge50  1  0.31766155  0.67213453  0.80873541  1
  S  S51  1  0.66551037  0.04348447  0.08156478  1
  S  S52  1  0.61916933  0.66569721  0.91795987  1
  S  S53  1  0.33289683  0.38020998  0.41677654  1
  O  O54  1  0.20468848  0.04400483  0.31111836  1
  O  O55  1  0.83153754  0.79328122  0.31086989  1
  O  O56  1  0.96539323  0.16632051  0.31139324  1
  O  O57  1  0.20897022  0.16744077  0.81096042  1
  O  O58  1  0.96133257  0.80129053  0.81204599  1
  O  O59  1  0.83573757  0.03334552  0.81130832  1
  O  O60  1  0.79423651  0.95502166  0.68905309  1
  O  O61  1  0.16337593  0.21071616  0.68948743  1
  O  O62  1  0.04076154  0.84024536  0.68845892  1
  O  O63  1  0.79537346  0.83973085  0.18915767  1
  O  O64  1  0.03449304  0.19995509  0.18835706  1
  O  O65  1  0.16895501  0.96041174  0.18911661  1
  O  O66  1  0.87277708  0.37853455  0.64443233  1
  O  O67  1  0.50893447  0.13545383  0.64445966  1
  O  O68  1  0.62691871  0.49536644  0.64446638  1
  O  O69  1  0.86656275  0.49193206  0.14417515  1
  O  O70  1  0.63228436  0.11801204  0.13908712  1
  O  O71  1  0.50335422  0.37453790  0.14443489  1
  O  O72  1  0.46948389  0.29695823  0.02250971  1
  O  O73  1  0.82714440  0.52833475  0.02267049  1
  O  O74  1  0.69163692  0.15369382  0.02632940  1
  O  O75  1  0.46919999  0.17999783  0.52255463  1
  O  O76  1  0.70875245  0.53202073  0.52145289  1
  O  O77  1  0.83543071  0.28252526  0.52310583  1
  O  O78  1  0.53302673  0.68934528  0.97352839  1
  O  O79  1  0.16513192  0.45402429  0.97642016  1
  O  O80  1  0.30749705  0.82806007  0.97807921  1
  O  O81  1  0.53193563  0.82796215  0.47719216  1
  O  O82  1  0.31032315  0.46377015  0.47295990  1
  O  O83  1  0.16844269  0.69779239  0.47799466  1
  O  O84  1  0.12709553  0.62259620  0.35583912  1
  O  O85  1  0.49538385  0.87108599  0.35583006  1
  O  O86  1  0.35963194  0.48591071  0.35958262  1
  O  O87  1  0.12859336  0.50427696  0.85542167  1
  O  O88  1  0.37571703  0.86989788  0.85518782  1
  O  O89  1  0.51575097  0.63675404  0.86103188  1
  O  O90  1  0.02653140  0.84355325  0.41154773  1
  O  O91  1  0.81968508  0.98127353  0.41097430  1
  O  O92  1  0.17361208  0.20279540  0.41413859  1
  O  O93  1  0.01628848  0.17450713  0.91036038  1
  O  O94  1  0.15509757  0.96749915  0.91291648  1
  O  O95  1  0.79602619  0.82505971  0.91468257  1
  O  O96  1  0.97347940  0.15411465  0.58959169  1
  O  O97  1  0.18747496  0.03398591  0.58820455  1
  O  O98  1  0.84583106  0.81411500  0.58737447  1
  O  O99  1  0.96921394  0.81685429  0.08898978  1
  O  O100  1  0.82597358  0.02953529  0.08452060  1
  O  O101  1  0.18137991  0.16068159  0.08891717  1
  O  O102  1  0.69187574  0.17447395  0.74550722  1
  O  O103  1  0.48597922  0.31069858  0.74442910  1
  O  O104  1  0.82238605  0.51786032  0.74553193  1
  O  O105  1  0.68748464  0.51718222  0.24657756  1
  O  O106  1  0.82297373  0.30878302  0.24440243  1
  O  O107  1  0.48980098  0.17604603  0.24198119  1
  O  O108  1  0.63956644  0.50698488  0.92162358  1
  O  O109  1  0.84592523  0.35600679  0.92368210  1
  O  O110  1  0.50940520  0.15157196  0.92246365  1
  O  O111  1  0.63663918  0.15239342  0.42234392  1
  O  O112  1  0.49164496  0.36162076  0.41808784  1
  O  O113  1  0.84583832  0.48681473  0.42227939  1
  O  O114  1  0.36425475  0.51571302  0.07664998  1
  O  O115  1  0.14839027  0.64345189  0.07906044  1
  O  O116  1  0.50982363  0.86412244  0.07650504  1
  O  O117  1  0.35989908  0.85623205  0.57936143  1
  O  O118  1  0.49282230  0.63884052  0.57678904  1
  O  O119  1  0.15377167  0.50528255  0.57572638  1
  O  O120  1  0.31162406  0.82863853  0.25397337  1
  O  O121  1  0.51004771  0.68682970  0.25804068  1
  O  O122  1  0.17698222  0.48587090  0.25534585  1
  O  O123  1  0.31422301  0.49002996  0.75736673  1
  O  O124  1  0.17281899  0.69519429  0.75231735  1
  O  O125  1  0.51503327  0.82064603  0.75601432  1
