# generated using pymatgen
data_NaCaTaSi(SO6)2
_symmetry_space_group_name_H-M   'P 1'
_cell_length_a   9.03073011
_cell_length_b   9.03072980
_cell_length_c   23.37290540
_cell_angle_alpha   90.14278143
_cell_angle_beta   89.85721857
_cell_angle_gamma   119.48449934
_symmetry_Int_Tables_number   1
_chemical_formula_structural   NaCaTaSi(SO6)2
_chemical_formula_sum   'Na6 Ca6 Ta6 Si6 S12 O72'
_cell_volume   1659.28059826
_cell_formula_units_Z   6
loop_
 _symmetry_equiv_pos_site_id
 _symmetry_equiv_pos_as_xyz
  1  'x, y, z'
loop_
 _atom_site_type_symbol
 _atom_site_label
 _atom_site_symmetry_multiplicity
 _atom_site_fract_x
 _atom_site_fract_y
 _atom_site_fract_z
 _atom_site_occupancy
  Na  Na0  1  0.97604052  0.99441301  0.49278541  1
  Na  Na1  1  0.00558699  0.02395948  0.99278541  1
  Na  Na2  1  0.67291798  0.31392004  0.82692857  1
  Na  Na3  1  0.68607996  0.32708202  0.32692857  1
  Na  Na4  1  0.33111118  0.64111559  0.16060730  1
  Na  Na5  1  0.35888441  0.66888882  0.66060730  1
  Ca  Ca6  1  0.99394912  0.00225459  0.35388498  1
  Ca  Ca7  1  0.99774541  0.00605088  0.85388498  1
  Ca  Ca8  1  0.66408643  0.33124337  0.68674684  1
  Ca  Ca9  1  0.66875663  0.33591357  0.18674684  1
  Ca  Ca10  1  0.33003374  0.65847983  0.02015788  1
  Ca  Ca11  1  0.34152017  0.66996626  0.52015788  1
  Ta  Ta12  1  0.97730919  0.98693903  0.64713243  1
  Ta  Ta13  1  0.01306097  0.02269081  0.14713243  1
  Ta  Ta14  1  0.66703620  0.33541071  0.98095635  1
  Ta  Ta15  1  0.66458929  0.33296380  0.48095635  1
  Ta  Ta16  1  0.33923642  0.67307863  0.31410137  1
  Ta  Ta17  1  0.32692137  0.66076358  0.81410137  1
  Si  Si18  1  0.00684547  0.30697656  0.25441565  1
  Si  Si19  1  0.69302344  0.99315453  0.75441565  1
  Si  Si20  1  0.66420317  0.62370656  0.58577901  1
  Si  Si21  1  0.37629344  0.33579683  0.08577901  1
  Si  Si22  1  0.03411249  0.37120573  0.91929828  1
  Si  Si23  1  0.62879427  0.96588751  0.41929828  1
  S  S24  1  0.28522297  0.98881436  0.25038088  1
  S  S25  1  0.70366150  0.71313338  0.25056875  1
  S  S26  1  0.28686662  0.29633850  0.75056875  1
  S  S27  1  0.01118564  0.71477703  0.75038088  1
  S  S28  1  0.95257915  0.32279575  0.58332093  1
  S  S29  1  0.36803459  0.04822824  0.58308720  1
  S  S30  1  0.95177176  0.63196541  0.08308720  1
  S  S31  1  0.67720425  0.04742085  0.08332093  1
  S  S32  1  0.61988175  0.65538598  0.91667678  1
  S  S33  1  0.34578016  0.96281903  0.91719002  1
  S  S34  1  0.34461402  0.38011825  0.41667678  1
  S  S35  1  0.03718097  0.65421984  0.41719002  1
  O  O36  1  0.20765523  0.00757802  0.30191712  1
  O  O37  1  0.80192585  0.78651542  0.30207420  1
  O  O38  1  0.99208310  0.19202106  0.30588892  1
  O  O39  1  0.21348458  0.19807415  0.80207420  1
  O  O40  1  0.99242198  0.79234477  0.80191712  1
  O  O41  1  0.80797894  0.00791690  0.80588892  1
  O  O42  1  0.80426191  0.97022061  0.69309078  1
  O  O43  1  0.17879843  0.21422150  0.69839291  1
  O  O44  1  0.03630090  0.82848133  0.69780230  1
  O  O45  1  0.78577850  0.82120157  0.19839291  1
  O  O46  1  0.02977939  0.19573809  0.19309078  1
  O  O47  1  0.17151867  0.96369910  0.19780230  1
  O  O48  1  0.87659248  0.34215112  0.63485303  1
  O  O49  1  0.47101778  0.12036627  0.63361196  1
  O  O50  1  0.66285380  0.52875269  0.64140490  1
  O  O51  1  0.87963373  0.52898222  0.13361196  1
  O  O52  1  0.65784888  0.12340752  0.13485303  1
  O  O53  1  0.47124731  0.33714620  0.14140490  1
  O  O54  1  0.47770848  0.30832539  0.02710639  1
  O  O55  1  0.83858992  0.53470499  0.03033210  1
  O  O56  1  0.70510107  0.16098280  0.03084131  1
  O  O57  1  0.46529501  0.16141008  0.53033210  1
  O  O58  1  0.69167461  0.52229152  0.52710639  1
  O  O59  1  0.83901720  0.29489893  0.53084131  1
  O  O60  1  0.54927789  0.68633189  0.96785666  1
  O  O61  1  0.14025696  0.47000147  0.97259936  1
  O  O62  1  0.32774861  0.86859078  0.96883381  1
  O  O63  1  0.52999853  0.85974304  0.47259936  1
  O  O64  1  0.31366811  0.45072211  0.46785666  1
  O  O65  1  0.13140922  0.67225139  0.46883381  1
  O  O66  1  0.12694666  0.63026488  0.36458048  1
  O  O67  1  0.49832342  0.85911128  0.35988199  1
  O  O68  1  0.36819666  0.49287747  0.36467988  1
  O  O69  1  0.14088872  0.50167658  0.85988199  1
  O  O70  1  0.36973512  0.87305334  0.86458048  1
  O  O71  1  0.50712253  0.63180334  0.86467988  1
  O  O72  1  0.01040280  0.79806275  0.40822211  1
  O  O73  1  0.81842669  -0.00020062  0.41596802  1
  O  O74  1  0.21096468  0.20623533  0.40808729  1
  O  O75  1  0.00020062  0.18157331  0.91596802  1
  O  O76  1  0.20193725  0.98959720  0.90822211  1
  O  O77  1  0.79376467  0.78903532  0.90808729  1
  O  O78  1  0.96801020  0.16060408  0.58849168  1
  O  O79  1  0.20246257  0.05080079  0.58730233  1
  O  O80  1  0.85587007  0.82071942  0.59282504  1
  O  O81  1  0.94919921  0.79753743  0.08730233  1
  O  O82  1  0.83939592  0.03198980  0.08849168  1
  O  O83  1  0.17928058  0.14412993  0.09282504  1
  O  O84  1  0.65894634  0.14751626  0.74688790  1
  O  O85  1  0.46083028  0.33217392  0.74411218  1
  O  O86  1  0.87161441  0.54398581  0.74247871  1
  O  O87  1  0.66782608  0.53916972  0.24411218  1
  O  O88  1  0.85248374  0.34105366  0.24688790  1
  O  O89  1  0.45601419  0.12838559  0.24247871  1
  O  O90  1  0.62340625  0.48707548  0.92261250  1
  O  O91  1  0.83979921  0.36305350  0.92684409  1
  O  O92  1  0.50904411  0.13617475  0.92172338  1
  O  O93  1  0.63694650  0.16020079  0.42684409  1
  O  O94  1  0.51292452  0.37659375  0.42261250  1
  O  O95  1  0.86382525  0.49095589  0.42172338  1
  O  O96  1  0.33416792  0.48597528  0.08223123  1
  O  O97  1  0.12523343  0.66732235  0.07476346  1
  O  O98  1  0.53396723  0.87890044  0.07409253  1
  O  O99  1  0.33267765  0.87476657  0.57476346  1
  O  O100  1  0.51402472  0.66583208  0.58223123  1
  O  O101  1  0.12109956  0.46603277  0.57409253  1
  O  O102  1  0.29323371  0.82249017  0.25496117  1
  O  O103  1  0.52788586  0.70493356  0.25742418  1
  O  O104  1  0.19149813  0.49420248  0.26120543  1
  O  O105  1  0.29506644  0.47211414  0.75742418  1
  O  O106  1  0.17750983  0.70676629  0.75496117  1
  O  O107  1  0.50579752  0.80850187  0.76120543  1
