# generated using pymatgen
data_Na2ScNbSi2SO12
_symmetry_space_group_name_H-M   'P 1'
_cell_length_a   9.01287823
_cell_length_b   9.01287792
_cell_length_c   22.81325978
_cell_angle_alpha   90.21057906
_cell_angle_beta   89.78942093
_cell_angle_gamma   119.65287573
_symmetry_Int_Tables_number   1
_chemical_formula_structural   Na2ScNbSi2SO12
_chemical_formula_sum   'Na12 Sc6 Nb6 Si12 S6 O72'
_cell_volume   1610.45851189
_cell_formula_units_Z   6
loop_
 _symmetry_equiv_pos_site_id
 _symmetry_equiv_pos_as_xyz
  1  'x, y, z'
loop_
 _atom_site_type_symbol
 _atom_site_label
 _atom_site_symmetry_multiplicity
 _atom_site_fract_x
 _atom_site_fract_y
 _atom_site_fract_z
 _atom_site_occupancy
  Na  Na0  1  0.98163481  0.62080804  0.24956756  1
  Na  Na1  1  0.37919196  0.01836519  0.74956756  1
  Na  Na2  1  0.64830181  0.95414104  0.58290056  1
  Na  Na3  1  0.04585896  0.35169819  0.08290056  1
  Na  Na4  1  0.31496781  0.28747504  0.91623456  1
  Na  Na5  1  0.71252496  0.68503219  0.41623456  1
  Na  Na6  1  0.01332610  0.99045102  0.49421443  1
  Na  Na7  1  0.00954898  0.98667390  0.99421443  1
  Na  Na8  1  0.67999310  0.32378402  0.82754743  1
  Na  Na9  1  0.67621598  0.32000690  0.32754743  1
  Na  Na10  1  0.34665910  0.65711802  0.16088143  1
  Na  Na11  1  0.34288198  0.65334090  0.66088143  1
  Sc  Sc12  1  0.98800746  0.99880193  0.35301621  1
  Sc  Sc13  1  0.00119807  0.01199254  0.85301621  1
  Sc  Sc14  1  0.65467446  0.33213493  0.68634921  1
  Sc  Sc15  1  0.66786507  0.34532554  0.18634921  1
  Sc  Sc16  1  0.32134046  0.66546893  0.01968321  1
  Sc  Sc17  1  0.33453107  0.67865954  0.51968321  1
  Nb  Nb18  1  0.99876641  0.00313055  0.64581243  1
  Nb  Nb19  1  0.99686945  0.00123359  0.14581243  1
  Nb  Nb20  1  0.66543341  0.33646355  0.97914543  1
  Nb  Nb21  1  0.66353645  0.33456659  0.47914543  1
  Nb  Nb22  1  0.33209941  0.66979755  0.31247943  1
  Nb  Nb23  1  0.33020245  0.66790059  0.81247943  1
  Si  Si24  1  0.70560454  0.71001341  0.25239255  1
  Si  Si25  1  0.99845981  0.29181972  0.25120953  1
  Si  Si26  1  0.28998659  0.29439546  0.75239255  1
  Si  Si27  1  0.70818028  0.00154019  0.75120953  1
  Si  Si28  1  0.37227154  0.04334641  0.58572555  1
  Si  Si29  1  0.66512681  0.62515272  0.58454253  1
  Si  Si30  1  0.95665359  0.62772846  0.08572555  1
  Si  Si31  1  0.37484728  0.33487319  0.08454253  1
  Si  Si32  1  0.03893754  0.37668041  0.91905955  1
  Si  Si33  1  0.33179281  0.95848672  0.91787653  1
  Si  Si34  1  0.62331959  0.96106246  0.41905955  1
  Si  Si35  1  0.04151328  0.66820719  0.41787653  1
  S  S36  1  0.28820841  0.99883850  0.25007130  1
  S  S37  1  0.00116150  0.71179159  0.75007130  1
  S  S38  1  0.95487541  0.33217150  0.58340430  1
  S  S39  1  0.66782850  0.04512459  0.08340430  1
  S  S40  1  0.62154141  0.66550550  0.91673830  1
  S  S41  1  0.33449450  0.37845859  0.41673830  1
  O  O42  1  0.21112434  0.01986123  0.30341820  1
  O  O43  1  0.82190277  0.78917091  0.30995177  1
  O  O44  1  0.99010425  0.18008865  0.30617621  1
  O  O45  1  0.21082909  0.17809723  0.80995177  1
  O  O46  1  0.98013877  0.78887566  0.80341820  1
  O  O47  1  0.81991135  0.00989575  0.80617621  1
  O  O48  1  0.80073361  0.97471507  0.69040017  1
  O  O49  1  0.16178374  0.18546890  0.69552413  1
  O  O50  1  0.02730228  0.82171455  0.69741215  1
  O  O51  1  0.81453110  0.83821626  0.19552413  1
  O  O52  1  0.02528493  0.19926639  0.19040017  1
  O  O53  1  0.17828545  0.97269772  0.19741215  1
  O  O54  1  0.87779134  0.35319423  0.63675120  1
  O  O55  1  0.48856977  0.12250391  0.64328477  1
  O  O56  1  0.65677125  0.51342165  0.63950921  1
  O  O57  1  0.87749609  0.51143023  0.14328477  1
  O  O58  1  0.64680577  0.12220866  0.13675120  1
  O  O59  1  0.48657835  0.34322875  0.13950921  1
  O  O60  1  0.46740061  0.30804807  0.02373317  1
  O  O61  1  0.82845074  0.51880190  0.02885713  1
  O  O62  1  0.69396928  0.15504755  0.03074515  1
  O  O63  1  0.48119810  0.17154926  0.52885713  1
  O  O64  1  0.69195193  0.53259939  0.52373317  1
  O  O65  1  0.84495245  0.30603072  0.53074515  1
  O  O66  1  0.54445734  0.68652823  0.97008520  1
  O  O67  1  0.15523577  0.45583791  0.97661877  1
  O  O68  1  0.32343725  0.84675565  0.97284321  1
  O  O69  1  0.54416209  0.84476423  0.47661877  1
  O  O70  1  0.31347177  0.45554266  0.47008520  1
  O  O71  1  0.15324435  0.67656275  0.47284321  1
  O  O72  1  0.13406661  0.64138207  0.35706717  1
  O  O73  1  0.49511674  0.85213590  0.36219113  1
  O  O74  1  0.36063528  0.48838155  0.36407915  1
  O  O75  1  0.14786410  0.50488326  0.86219113  1
  O  O76  1  0.35861793  0.86593339  0.85706717  1
  O  O77  1  0.51161845  0.63936472  0.86407915  1
  O  O78  1  0.01331976  0.83093731  0.41251004  1
  O  O79  1  0.81145853  0.98281115  0.41154633  1
  O  O80  1  0.19361238  0.20498956  0.40931414  1
  O  O81  1  0.01718885  0.18854147  0.91154633  1
  O  O82  1  0.16906269  0.98668024  0.91251004  1
  O  O83  1  0.79501044  0.80638762  0.90931414  1
  O  O84  1  0.95878623  0.16539469  0.58626368  1
  O  O85  1  0.18343727  0.03165325  0.59063165  1
  O  O86  1  0.83946436  0.82106862  0.59056753  1
  O  O87  1  0.96834675  0.81656273  0.09063165  1
  O  O88  1  0.83460531  0.04121377  0.08626368  1
  O  O89  1  0.17893138  0.16053564  0.09056753  1
  O  O90  1  0.67998676  0.16427031  0.74584304  1
  O  O91  1  0.47812553  0.31614415  0.74487933  1
  O  O92  1  0.86027938  0.53832256  0.74264714  1
  O  O93  1  0.68385585  0.52187447  0.24487933  1
  O  O94  1  0.83572969  0.32001324  0.24584304  1
  O  O95  1  0.46167744  0.13972062  0.24264714  1
  O  O96  1  0.62545323  0.49872769  0.91959668  1
  O  O97  1  0.85010427  0.36498625  0.92396465  1
  O  O98  1  0.50613136  0.15440162  0.92390053  1
  O  O99  1  0.63501375  0.14989573  0.42396465  1
  O  O100  1  0.50127231  0.37454677  0.41959668  1
  O  O101  1  0.84559838  0.49386864  0.42390053  1
  O  O102  1  0.34665276  0.49760431  0.07917704  1
  O  O103  1  0.14479153  0.64947815  0.07821333  1
  O  O104  1  0.52694538  0.87165656  0.07598114  1
  O  O105  1  0.35052185  0.85520847  0.57821333  1
  O  O106  1  0.50239569  0.65334724  0.57917704  1
  O  O107  1  0.12834344  0.47305462  0.57598114  1
  O  O108  1  0.29211923  0.83206169  0.25293068  1
  O  O109  1  0.51677027  0.69832025  0.25729865  1
  O  O110  1  0.17279736  0.48773562  0.25723453  1
  O  O111  1  0.30167975  0.48322973  0.75729865  1
  O  O112  1  0.16793831  0.70788077  0.75293068  1
  O  O113  1  0.51226438  0.82720264  0.75723453  1
