# generated using pymatgen
data_Na9Nb8Zn4Si3(P5O24)3
_symmetry_space_group_name_H-M   'P 1'
_cell_length_a   8.85599841
_cell_length_b   8.86511916
_cell_length_c   22.70882693
_cell_angle_alpha   89.98566676
_cell_angle_beta   90.12870326
_cell_angle_gamma   120.14681790
_symmetry_Int_Tables_number   1
_chemical_formula_structural   Na9Nb8Zn4Si3(P5O24)3
_chemical_formula_sum   'Na9 Nb8 Zn4 Si3 P15 O72'
_cell_volume   1541.70651252
_cell_formula_units_Z   1
loop_
 _symmetry_equiv_pos_site_id
 _symmetry_equiv_pos_as_xyz
  1  'x, y, z'
loop_
 _atom_site_type_symbol
 _atom_site_label
 _atom_site_symmetry_multiplicity
 _atom_site_fract_x
 _atom_site_fract_y
 _atom_site_fract_z
 _atom_site_occupancy
  Na  Na0  1  0.98614023  0.62705974  0.24497840  1
  Na  Na1  1  0.37370693  0.01560550  0.74508562  1
  Na  Na2  1  0.32053209  0.03076100  0.41112523  1
  Na  Na3  1  0.99236268  0.00228538  0.49401855  1
  Na  Na4  1  0.00030044  0.99996502  0.99276860  1
  Na  Na5  1  0.67717194  0.34364749  0.82576436  1
  Na  Na6  1  0.66555725  0.33098443  0.32480602  1
  Na  Na7  1  0.34079719  0.66788130  0.16521667  1
  Na  Na8  1  0.33284321  0.66049477  0.66489385  1
  Nb  Nb9  1  0.00267145  0.00144428  0.64631888  1
  Nb  Nb10  1  0.00029660  0.99936298  0.14588623  1
  Nb  Nb11  1  0.66873234  0.33754485  0.97924895  1
  Nb  Nb12  1  0.66404518  0.33538274  0.48033166  1
  Nb  Nb13  1  0.33060208  0.66727928  0.02110127  1
  Nb  Nb14  1  0.33273424  0.66435710  0.52146333  1
  Nb  Nb15  1  0.33853182  0.66224265  0.31090199  1
  Nb  Nb16  1  0.33343299  0.66342320  0.81117610  1
  Zn  Zn17  1  0.99778908  0.00630904  0.35227237  1
  Zn  Zn18  1  0.99785629  0.99813182  0.85256459  1
  Zn  Zn19  1  0.67129361  0.33534715  0.68286094  1
  Zn  Zn20  1  0.66375771  0.32874749  0.18233744  1
  Si  Si21  1  0.37863919  0.04486263  0.58694626  1
  Si  Si22  1  0.95380017  0.62121934  0.08721727  1
  Si  Si23  1  0.32872670  0.37124566  0.41693260  1
  P  P24  1  0.29594460  0.00721676  0.25271125  1
  P  P25  1  0.71445194  0.71202678  0.25215839  1
  P  P26  1  0.99442269  0.28554884  0.25208216  1
  P  P27  1  0.28981340  0.28741936  0.75266385  1
  P  P28  1  0.99185607  0.70604078  0.75258930  1
  P  P29  1  0.71599669  0.00488540  0.75301297  1
  P  P30  1  0.95399696  0.33279591  0.58496482  1
  P  P31  1  0.66701573  0.62204121  0.58553457  1
  P  P32  1  0.66725437  0.04682579  0.08423765  1
  P  P33  1  0.37998065  0.33439062  0.08436628  1
  P  P34  1  0.62425500  0.66874242  0.91713149  1
  P  P35  1  0.04398511  0.37448529  0.91668385  1
  P  P36  1  0.33123268  0.95591391  0.91603193  1
  P  P37  1  0.62502995  0.95416312  0.41714385  1
  P  P38  1  0.04309814  0.66298158  0.41587317  1
  O  O39  1  0.21538244  0.02312918  0.30942167  1
  O  O40  1  0.82576694  0.79443022  0.30559859  1
  O  O41  1  0.97617953  0.18426397  0.30658410  1
  O  O42  1  0.20708114  0.17573583  0.80577325  1
  O  O43  1  0.97598798  0.79172349  0.80701877  1
  O  O44  1  0.81886842  0.02409986  0.80724027  1
  O  O45  1  0.79882887  0.97230704  0.69614629  1
  O  O46  1  0.17067216  0.20048783  0.69572958  1
  O  O47  1  0.03099201  0.83073067  0.69633966  1
  O  O48  1  0.80196320  0.83009892  0.19530108  1
  O  O49  1  0.02620466  0.20139956  0.19556179  1
  O  O50  1  0.16853443  0.97297270  0.19763517  1
  O  O51  1  0.88653799  0.37183548  0.63928465  1
  O  O52  1  0.48380521  0.11325837  0.64619445  1
  O  O53  1  0.63031412  0.51424553  0.63937955  1
  O  O54  1  0.88909450  0.51670873  0.14661326  1
  O  O55  1  0.62586463  0.11170727  0.13874299  1
  O  O56  1  0.48642030  0.37169868  0.13881769  1
  O  O57  1  0.46503902  0.30361146  0.02820623  1
  O  O58  1  0.83014915  0.52484672  0.02793191  1
  O  O59  1  0.69244773  0.16128586  0.02830709  1
  O  O60  1  0.47053043  0.16551903  0.52653530  1
  O  O61  1  0.69627604  0.53541345  0.52899299  1
  O  O62  1  0.84061961  0.30778290  0.52867732  1
  O  O63  1  0.52531655  0.68138122  0.97122501  1
  O  O64  1  0.15766104  0.47549234  0.97102828  1
  O  O65  1  0.31862414  0.84055437  0.96988073  1
  O  O66  1  0.52530730  0.84286163  0.47155869  1
  O  O67  1  0.31542111  0.47886239  0.47291119  1
  O  O68  1  0.16185869  0.68669296  0.46977199  1
  O  O69  1  0.13062367  0.63775020  0.35963458  1
  O  O70  1  0.50151066  0.86960712  0.36219278  1
  O  O71  1  0.36225655  0.50187709  0.35949585  1
  O  O72  1  0.13404947  0.49482638  0.86195410  1
  O  O73  1  0.36018209  0.86850715  0.86030538  1
  O  O74  1  0.50408592  0.63944922  0.86201493  1
  O  O75  1  0.02833117  0.82478999  0.41329077  1
  O  O76  1  0.79980081  0.96942166  0.41380899  1
  O  O77  1  0.16945443  0.17762958  0.41512411  1
  O  O78  1  0.02721009  0.19845760  0.91403297  1
  O  O79  1  0.17113447  0.97206331  0.91399987  1
  O  O80  1  0.80217371  0.82605300  0.91382038  1
  O  O81  1  0.97194104  0.16627113  0.58944684  1
  O  O82  1  0.18102826  0.02363506  0.59103391  1
  O  O83  1  0.83106521  0.80816513  0.58960845  1
  O  O84  1  0.97758466  0.81931561  0.09079562  1
  O  O85  1  0.83401817  0.02912789  0.08908074  1
  O  O86  1  0.19273304  0.17058681  0.08949133  1
  O  O87  1  0.67619354  0.15254487  0.74632889  1
  O  O88  1  0.47178960  0.31474736  0.74407725  1
  O  O89  1  0.84236270  0.52386284  0.74302609  1
  O  O90  1  0.68628767  0.52971397  0.24405243  1
  O  O91  1  0.84533293  0.32353449  0.24580823  1
  O  O92  1  0.47661729  0.15980615  0.24315965  1
  O  O93  1  0.62984460  0.49444877  0.92329462  1
  O  O94  1  0.86325187  0.36601238  0.92375675  1
  O  O95  1  0.50320623  0.13536655  0.92400966  1
  O  O96  1  0.63103068  0.13414607  0.42377080  1
  O  O97  1  0.51217067  0.36287637  0.42343135  1
  O  O98  1  0.86495297  0.49328565  0.42367594  1
  O  O99  1  0.35304176  0.49332619  0.07174250  1
  O  O100  1  0.15110956  0.65252143  0.07212679  1
  O  O101  1  0.51119704  0.85814443  0.07159370  1
  O  O102  1  0.34703587  0.84838916  0.57263862  1
  O  O103  1  0.50831328  0.64918950  0.57350586  1
  O  O104  1  0.14168649  0.49069459  0.57339878  1
  O  O105  1  0.29767975  0.82686681  0.25497448  1
  O  O106  1  0.53064745  0.70378315  0.25577422  1
  O  O107  1  0.16965246  0.47642299  0.25600996  1
  O  O108  1  0.29984091  0.47168825  0.75707433  1
  O  O109  1  0.17315487  0.70225474  0.75672608  1
  O  O110  1  0.52464464  0.82930608  0.75776611  1
