# generated using pymatgen
data_Na9Ta10Zn2Si9(PO8)9
_symmetry_space_group_name_H-M   'P 1'
_cell_length_a   8.86047990
_cell_length_b   8.86395846
_cell_length_c   22.77872439
_cell_angle_alpha   90.01592343
_cell_angle_beta   89.99906970
_cell_angle_gamma   119.73957396
_symmetry_Int_Tables_number   1
_chemical_formula_structural   Na9Ta10Zn2Si9(PO8)9
_chemical_formula_sum   'Na9 Ta10 Zn2 Si9 P9 O72'
_cell_volume   1553.38348165
_cell_formula_units_Z   1
loop_
 _symmetry_equiv_pos_site_id
 _symmetry_equiv_pos_as_xyz
  1  'x, y, z'
loop_
 _atom_site_type_symbol
 _atom_site_label
 _atom_site_symmetry_multiplicity
 _atom_site_fract_x
 _atom_site_fract_y
 _atom_site_fract_z
 _atom_site_occupancy
  Na  Na0  1  0.63386011  0.00879518  0.24688255  1
  Na  Na1  1  0.37742841  0.36515086  0.24596887  1
  Na  Na2  1  0.99105575  0.36596018  0.74628007  1
  Na  Na3  1  0.00018301  0.99934791  0.49845277  1
  Na  Na4  1  0.99979739  0.99918548  0.99893733  1
  Na  Na5  1  0.65500493  0.33214642  0.82740865  1
  Na  Na6  1  0.67841069  0.34394097  0.32847129  1
  Na  Na7  1  0.32521510  0.66471556  0.16512022  1
  Na  Na8  1  0.34197113  0.67317471  0.66591884  1
  Ta  Ta9  1  0.99290886  0.99769858  0.35628149  1
  Ta  Ta10  1  0.00631915  0.00384776  0.85599943  1
  Ta  Ta11  1  0.00218929  0.00264163  0.64570207  1
  Ta  Ta12  1  0.99768332  0.00118500  0.14565210  1
  Ta  Ta13  1  0.66712395  0.33411974  0.97785393  1
  Ta  Ta14  1  0.66637158  0.33407930  0.47822154  1
  Ta  Ta15  1  0.33336261  0.66609667  0.01923712  1
  Ta  Ta16  1  0.33306767  0.66611367  0.51965483  1
  Ta  Ta17  1  0.33014406  0.66353854  0.31363360  1
  Ta  Ta18  1  0.33737950  0.66721040  0.81294003  1
  Zn  Zn19  1  0.65351020  0.33211507  0.68452091  1
  Zn  Zn20  1  0.68071301  0.34618708  0.18464419  1
  Si  Si21  1  0.71228069  0.70658723  0.25024717  1
  Si  Si22  1  0.99767448  0.29133859  0.25000443  1
  Si  Si23  1  0.29752931  0.29017503  0.74996516  1
  Si  Si24  1  0.62307314  0.66860021  0.91685820  1
  Si  Si25  1  0.04638952  0.38058832  0.91623959  1
  Si  Si26  1  0.33474095  0.95392691  0.91674255  1
  Si  Si27  1  0.61879509  0.95414017  0.41684326  1
  Si  Si28  1  0.33213812  0.37704223  0.41695692  1
  Si  Si29  1  0.04504496  0.66743785  0.41736566  1
  P  P30  1  0.28221541  0.99585242  0.25036884  1
  P  P31  1  0.00021785  0.71359982  0.75046673  1
  P  P32  1  0.71236302  0.99775445  0.75018256  1
  P  P33  1  0.95503510  0.33479459  0.58549398  1
  P  P34  1  0.37977705  0.04437311  0.58442851  1
  P  P35  1  0.66661986  0.62220778  0.58438238  1
  P  P36  1  0.95689397  0.62268196  0.08359206  1
  P  P37  1  0.66424634  0.04368491  0.08472792  1
  P  P38  1  0.37781259  0.33330404  0.08470854  1
  O  O39  1  0.19377993  0.02243282  0.30449274  1
  O  O40  1  0.83350448  0.80928307  0.30676321  1
  O  O41  1  0.97919306  0.16721678  0.30620855  1
  O  O42  1  0.18642848  0.16845736  0.80616818  1
  O  O43  1  0.97916119  0.80633716  0.80461908  1
  O  O44  1  0.82720370  0.01808725  0.80428010  1
  O  O45  1  0.80052748  0.96828652  0.69456368  1
  O  O46  1  0.16011788  0.19230009  0.69354446  1
  O  O47  1  0.02536689  0.83020462  0.69525448  1
  O  O48  1  0.80751794  0.83934088  0.19335271  1
  O  O49  1  0.03764445  0.19733902  0.19276793  1
  O  O50  1  0.16789866  0.96822730  0.19460813  1
  O  O51  1  0.88494333  0.36521116  0.64199819  1
  O  O52  1  0.48662782  0.11593773  0.63898059  1
  O  O53  1  0.63301595  0.51582874  0.63899418  1
  O  O54  1  0.88610458  0.51598365  0.13861762  1
  O  O55  1  0.63215600  0.11297820  0.14135180  1
  O  O56  1  0.47858433  0.36424362  0.14141156  1
  O  O57  1  0.46951376  0.30885044  0.03020568  1
  O  O58  1  0.84112537  0.53452018  0.02871745  1
  O  O59  1  0.69247096  0.16045206  0.03029040  1
  O  O60  1  0.46400448  0.15936864  0.52901991  1
  O  O61  1  0.69366229  0.53446600  0.52891064  1
  O  O62  1  0.83892662  0.30708029  0.53069973  1
  O  O63  1  0.52914462  0.69648948  0.97396058  1
  O  O64  1  0.16876076  0.47195275  0.97323385  1
  O  O65  1  0.30439147  0.83258401  0.97405949  1
  O  O66  1  0.52605283  0.83137246  0.47352031  1
  O  O67  1  0.30400498  0.47198780  0.47356797  1
  O  O68  1  0.16674854  0.69471208  0.47431031  1
  O  O69  1  0.13629836  0.63473448  0.35953947  1
  O  O70  1  0.50232620  0.86879213  0.35740063  1
  O  O71  1  0.36623301  0.49846282  0.35796998  1
  O  O72  1  0.13318798  0.49939006  0.85732483  1
  O  O73  1  0.36522824  0.86306571  0.85897018  1
  O  O74  1  0.49774688  0.63429634  0.85929178  1
  O  O75  1  0.02669862  0.83881757  0.40941976  1
  O  O76  1  0.81135875  0.97553787  0.41024725  1
  O  O77  1  0.16440509  0.18653942  0.40862500  1
  O  O78  1  0.02202182  0.18731514  0.90827820  1
  O  O79  1  0.16266368  0.97360668  0.90889289  1
  O  O80  1  0.81277241  0.83697614  0.90757285  1
  O  O81  1  0.97388782  0.16602240  0.58999420  1
  O  O82  1  0.19125857  0.02263496  0.59079068  1
  O  O83  1  0.83178683  0.80853531  0.58989250  1
  O  O84  1  0.97789747  0.80913411  0.08924748  1
  O  O85  1  0.83288971  0.02493472  0.08919510  1
  O  O86  1  0.19243296  0.16666633  0.08849024  1
  O  O87  1  0.70398984  0.16363321  0.74544966  1
  O  O88  1  0.48365895  0.30897454  0.74778945  1
  O  O89  1  0.84779571  0.53089291  0.74606274  1
  O  O90  1  0.67422028  0.51200611  0.24736599  1
  O  O91  1  0.82073164  0.29483348  0.24669651  1
  O  O92  1  0.46156317  0.15482542  0.24541945  1
  O  O93  1  0.64011033  0.49528482  0.92704631  1
  O  O94  1  0.85474818  0.35920519  0.92700121  1
  O  O95  1  0.50408053  0.14533858  0.92736186  1
  O  O96  1  0.64086504  0.14601046  0.42732030  1
  O  O97  1  0.50560135  0.36031996  0.42697036  1
  O  O98  1  0.85490629  0.49519933  0.42736270  1
  O  O99  1  0.35173913  0.49370803  0.07442722  1
  O  O100  1  0.14308783  0.64823111  0.07372322  1
  O  O101  1  0.50641612  0.85771357  0.07432608  1
  O  O102  1  0.35070835  0.85728696  0.57402693  1
  O  O103  1  0.50637954  0.64882175  0.57405318  1
  O  O104  1  0.14128190  0.49230185  0.57475479  1
  O  O105  1  0.30139913  0.83082297  0.25589335  1
  O  O106  1  0.52345593  0.70461736  0.25623403  1
  O  O107  1  0.18019410  0.47795200  0.25583072  1
  O  O108  1  0.29470567  0.47649558  0.75597962  1
  O  O109  1  0.17101589  0.70186840  0.75587179  1
  O  O110  1  0.53112069  0.83192169  0.75605971  1
