# generated using pymatgen
data_Na6Sc6Nb2Si5S7O48
_symmetry_space_group_name_H-M   'P 1'
_cell_length_a   17.87602644
_cell_length_b   8.97121654
_cell_length_c   23.08749540
_cell_angle_alpha   90.03552639
_cell_angle_beta   90.12388674
_cell_angle_gamma   120.08879394
_symmetry_Int_Tables_number   1
_chemical_formula_structural   Na6Sc6Nb2Si5S7O48
_chemical_formula_sum   'Na18 Sc18 Nb6 Si15 S21 O144'
_cell_volume   3203.60265106
_cell_formula_units_Z   3
loop_
 _symmetry_equiv_pos_site_id
 _symmetry_equiv_pos_as_xyz
  1  'x, y, z'
loop_
 _atom_site_type_symbol
 _atom_site_label
 _atom_site_symmetry_multiplicity
 _atom_site_fract_x
 _atom_site_fract_y
 _atom_site_fract_z
 _atom_site_occupancy
  Na  Na0  1  0.98955318  0.67689475  0.91203905  1
  Na  Na1  1  0.34800383  0.02964673  0.91488950  1
  Na  Na2  1  0.17021840  0.30388518  0.91320145  1
  Na  Na3  1  0.48911662  0.30414273  0.41991974  1
  Na  Na4  1  0.66930795  0.03379550  0.41645101  1
  Na  Na5  1  0.84624040  0.66625593  0.41824610  1
  Na  Na6  1  0.99963162  0.00314784  0.49545996  1
  Na  Na7  1  0.49760584  0.99595800  0.49975428  1
  Na  Na8  1  0.99898949  0.00271811  0.99679389  1
  Na  Na9  1  0.49922218  0.99602396  0.99303631  1
  Na  Na10  1  0.33721299  0.34357197  0.83584580  1
  Na  Na11  1  0.82816104  0.32397773  0.82257931  1
  Na  Na12  1  0.32925799  0.33542060  0.32627284  1
  Na  Na13  1  0.83604319  0.32907746  0.34070342  1
  Na  Na14  1  0.17096065  0.67074295  0.16659688  1
  Na  Na15  1  0.66471570  0.66590499  0.16829616  1
  Na  Na16  1  0.16765470  0.66511138  0.66751198  1
  Na  Na17  1  0.66192074  0.65906840  0.66033560  1
  Sc  Sc18  1  0.00397422  0.99978070  0.35758138  1
  Sc  Sc19  1  0.49692280  0.00446094  0.34877777  1
  Sc  Sc20  1  0.99727496  0.99036114  0.84742031  1
  Sc  Sc21  1  0.50337999  0.00834823  0.85513789  1
  Sc  Sc22  1  0.33723832  0.34439726  0.68038610  1
  Sc  Sc23  1  0.83397930  0.33480503  0.69184634  1
  Sc  Sc24  1  0.33507359  0.33362111  0.19258263  1
  Sc  Sc25  1  0.82977181  0.31893066  0.18323805  1
  Sc  Sc26  1  0.34070406  0.34685365  0.97425576  1
  Sc  Sc27  1  0.82942350  0.30987990  0.98385812  1
  Sc  Sc28  1  0.33614617  0.34720053  0.48864102  1
  Sc  Sc29  1  0.83906549  0.33112756  0.47529291  1
  Sc  Sc30  1  0.17237555  0.68007322  0.01378420  1
  Sc  Sc31  1  0.66561470  0.66587935  0.01995296  1
  Sc  Sc32  1  0.16593138  0.66512983  0.52150557  1
  Sc  Sc33  1  0.66704783  0.65531932  0.51681259  1
  Sc  Sc34  1  0.66926667  0.65812281  0.31639437  1
  Sc  Sc35  1  0.17114861  0.68309472  0.81406237  1
  Nb  Nb36  1  0.99529452  0.98794690  0.65218799  1
  Nb  Nb37  1  0.50005080  0.01570660  0.64168162  1
  Nb  Nb38  1  0.00073973  0.99637287  0.14634458  1
  Nb  Nb39  1  0.49405293  0.00067771  0.15218935  1
  Nb  Nb40  1  0.16500409  0.67434477  0.31122075  1
  Nb  Nb41  1  0.66164784  0.65219582  0.80762048  1
  Si  Si42  1  0.14423390  0.00305995  0.25170874  1
  Si  Si43  1  0.35254458  0.70342613  0.25368208  1
  Si  Si44  1  0.50423305  0.30596441  0.25274394  1
  Si  Si45  1  0.64362870  0.27960471  0.75098592  1
  Si  Si46  1  0.00327453  0.70146891  0.75256865  1
  Si  Si47  1  0.85325027  0.00192226  0.75339449  1
  Si  Si48  1  0.48214939  0.34831504  0.58179361  1
  Si  Si49  1  0.33047738  0.62513168  0.58530124  1
  Si  Si50  1  0.83078940  0.03432440  0.08451585  1
  Si  Si51  1  0.31288028  0.66872861  0.91478286  1
  Si  Si52  1  0.52479342  0.37794288  0.91843700  1
  Si  Si53  1  0.16413578  0.96016698  0.91814029  1
  Si  Si54  1  0.81135968  0.95396825  0.41589166  1
  Si  Si55  1  0.66451492  0.36776377  0.41712074  1
  Si  Si56  1  0.02368419  0.66934900  0.41901186  1
  S  S57  1  0.64596993  0.00135812  0.24931031  1
  S  S58  1  0.85588827  0.70891024  0.24889700  1
  S  S59  1  0.99915410  0.28806162  0.25015108  1
  S  S60  1  0.14663771  0.29050046  0.74993734  1
  S  S61  1  0.49813902  0.71010736  0.75107583  1
  S  S62  1  0.35581638  0.00239921  0.74916460  1
  S  S63  1  0.97904020  0.32943098  0.58462635  1
  S  S64  1  0.18505667  0.04150080  0.58423277  1
  S  S65  1  0.68799193  0.04216808  0.58376112  1
  S  S66  1  0.83518880  0.62754878  0.58389445  1
  S  S67  1  0.47918912  0.62859251  0.08466636  1
  S  S68  1  0.97923830  0.62388911  0.08401168  1
  S  S69  1  0.33371559  0.04058288  0.08398920  1
  S  S70  1  0.18663031  0.33429807  0.08426546  1
  S  S71  1  0.68616032  0.32991471  0.08403365  1
  S  S72  1  0.81049445  0.66459423  0.91712403  1
  S  S73  1  0.01955025  0.37569064  0.91752560  1
  S  S74  1  0.66805763  0.95469434  0.91606701  1
  S  S75  1  0.30991312  0.95639172  0.41654902  1
  S  S76  1  0.16930295  0.38229854  0.41572606  1
  S  S77  1  0.51890739  0.66407262  0.41616398  1
  O  O78  1  0.09720216  0.02671492  0.30584557  1
  O  O79  1  0.60767233  0.02498649  0.30236536  1
  O  O80  1  0.41320613  0.79690484  0.30761984  1
  O  O81  1  0.90703493  0.78738547  0.30119731  1
  O  O82  1  0.48961886  0.18689086  0.30891150  1
  O  O83  1  0.98560368  0.18581495  0.30168498  1
  O  O84  1  0.10668136  0.19053535  0.80332216  1
  O  O85  1  0.59939120  0.17063597  0.80756265  1
  O  O86  1  0.48807586  0.78817901  0.80365986  1
  O  O87  1  0.98910094  0.78963454  0.80989567  1
  O  O88  1  0.40636834  0.02403622  0.80236617  1
  O  O89  1  0.91289784  0.02972101  0.80823322  1
  O  O90  1  0.40073981  0.98144244  0.69707405  1
  O  O91  1  0.90310852  0.97152904  0.69504866  1
  O  O92  1  0.08906833  0.19600502  0.69785306  1
  O  O93  1  0.58133234  0.19035938  0.69371295  1
  O  O94  1  0.01248475  0.83564417  0.69546697  1
  O  O95  1  0.51236882  0.81416571  0.69878307  1
  O  O96  1  0.40278674  0.83384154  0.19476225  1
  O  O97  1  0.90235161  0.82342573  0.19607480  1
  O  O98  1  0.01154654  0.20350141  0.19715361  1
  O  O99  1  0.51241116  0.18872851  0.19475491  1
  O  O100  1  0.08090979  0.97076195  0.19334233  1
  O  O101  1  0.58954357  0.98234891  0.19695220  1
  O  O102  1  0.43179739  0.35469774  0.63853218  1
  O  O103  1  0.93818396  0.35312351  0.63580527  1
  O  O104  1  0.23710302  0.12140240  0.63642366  1
  O  O105  1  0.74071457  0.12840844  0.63467242  1
  O  O106  1  0.31597225  0.50686240  0.64138399  1
  O  O107  1  0.82644625  0.52398292  0.63460420  1
  O  O108  1  0.43827159  0.52331885  0.13582624  1
  O  O109  1  0.93460760  0.52144287  0.13530445  1
  O  O110  1  0.32476846  0.12609404  0.13484480  1
  O  O111  1  0.82141944  0.13393674  0.14026430  1
  O  O112  1  0.23942796  0.35527690  0.13503351  1
  O  O113  1  0.73941384  0.35423306  0.13610408  1
  O  O114  1  0.21971514  0.30036587  0.03060050  1
  O  O115  1  0.72730142  0.30637125  0.03181862  1
  O  O116  1  0.42666134  0.55370383  0.03206603  1
  O  O117  1  0.92825530  0.55263263  0.03021887  1
  O  O118  1  0.34763176  0.13816326  0.03010786  1
  O  O119  1  0.85118793  0.15849618  0.02794202  1
  O  O120  1  0.22383512  0.14563401  0.53162377  1
  O  O121  1  0.72230928  0.14423455  0.53018951  1
  O  O122  1  0.35107917  0.54652346  0.52774814  1
  O  O123  1  0.84956138  0.55782452  0.52990182  1
  O  O124  1  0.42493704  0.30204995  0.52217659  1
  O  O125  1  0.92680761  0.29973535  0.53188695  1
  O  O126  1  0.26877124  0.70293081  0.97219201  1
  O  O127  1  0.77120076  0.68872261  0.96921484  1
  O  O128  1  0.07297395  0.45402929  0.97010429  1
  O  O129  1  0.58345567  0.47257180  0.97414148  1
  O  O130  1  0.14179659  0.83073372  0.97356683  1
  O  O131  1  0.65899335  0.85481356  0.96884408  1
  O  O132  1  0.27036262  0.85362461  0.46810194  1
  O  O133  1  0.76755713  0.83182876  0.47225831  1
  O  O134  1  0.15901790  0.46433236  0.46788314  1
  O  O135  1  0.64176814  0.45190243  0.47167746  1
  O  O136  1  0.08392782  0.69374789  0.47346765  1
  O  O137  1  0.57226551  0.69309814  0.46856018  1
  O  O138  1  0.07521175  0.64563403  0.36060471  1
  O  O139  1  0.55850551  0.63552765  0.36413843  1
  O  O140  1  0.25672961  0.86598130  0.36285550  1
  O  O141  1  0.74902379  0.87223962  0.35884529  1
  O  O142  1  0.17996416  0.48947248  0.36262349  1
  O  O143  1  0.68390058  0.49109835  0.36056291  1
  O  O144  1  0.05784991  0.48225249  0.86555336  1
  O  O145  1  0.57596521  0.50559433  0.86109887  1
  O  O146  1  0.18253013  0.87219971  0.86231861  1
  O  O147  1  0.68113200  0.87471730  0.86363041  1
  O  O148  1  0.24802195  0.62413852  0.85972417  1
  O  O149  1  0.75759500  0.64289692  0.86402332  1
  O  O150  1  0.01019313  0.83395856  0.41076527  1
  O  O151  1  0.51119339  0.82071620  0.41015573  1
  O  O152  1  0.39759860  0.97719739  0.41077885  1
  O  O153  1  0.90614157  0.97134960  0.40814707  1
  O  O154  1  0.08988248  0.21215739  0.40998558  1
  O  O155  1  0.58031130  0.17113760  0.41153352  1
  O  O156  1  0.01024117  0.20275508  0.91209549  1
  O  O157  1  0.51032458  0.18554393  0.91123525  1
  O  O158  1  0.07997152  0.98852095  0.91292444  1
  O  O159  1  0.59003326  0.97030748  0.91128000  1
  O  O160  1  0.40672592  0.84159174  0.90917401  1
  O  O161  1  0.89859247  0.81916433  0.91204644  1
  O  O162  1  0.48971843  0.16560958  0.59141694  1
  O  O163  1  0.99009824  0.17307710  0.59199867  1
  O  O164  1  0.09677276  0.02551194  0.59089310  1
  O  O165  1  0.59776401  0.02143099  0.59156996  1
  O  O166  1  0.41994783  0.81743830  0.59728845  1
  O  O167  1  0.91682624  0.80819776  0.59105342  1
  O  O168  1  0.49034126  0.80724031  0.09210824  1
  O  O169  1  0.98760575  0.80258498  0.09073294  1
  O  O170  1  0.41468787  0.02153822  0.09083862  1
  O  O171  1  0.92030419  0.01948701  0.09640611  1
  O  O172  1  0.09568115  0.17169725  0.09300816  1
  O  O173  1  0.59905902  0.16958879  0.09031776  1
  O  O174  1  0.34540779  0.15446403  0.74277869  1
  O  O175  1  0.84031612  0.16140684  0.74125120  1
  O  O176  1  0.23119597  0.30152482  0.74332574  1
  O  O177  1  0.73958593  0.31856704  0.74157854  1
  O  O178  1  0.42411140  0.53305607  0.74586835  1
  O  O179  1  0.91676166  0.52234355  0.74150500  1
  O  O180  1  0.34027834  0.51876975  0.24085121  1
  O  O181  1  0.84799612  0.53917891  0.23941272  1
  O  O182  1  0.41718081  0.31069164  0.24121467  1
  O  O183  1  0.92518722  0.31637771  0.24136481  1
  O  O184  1  0.23879693  0.15872137  0.24041013  1
  O  O185  1  0.73144462  0.16113877  0.24203538  1
  O  O186  1  0.31809736  0.49380435  0.92449724  1
  O  O187  1  0.82220227  0.51122672  0.92201768  1
  O  O188  1  0.42821764  0.35401461  0.92002829  1
  O  O189  1  0.93306553  0.36512188  0.92460238  1
  O  O190  1  0.25105791  0.14781123  0.92670219  1
  O  O191  1  0.74597659  0.13185415  0.92160348  1
  O  O192  1  0.31848086  0.12896633  0.41808258  1
  O  O193  1  0.81820153  0.14198496  0.42402807  1
  O  O194  1  0.24633385  0.36183788  0.41963020  1
  O  O195  1  0.75139659  0.35311250  0.42539780  1
  O  O196  1  0.43215031  0.50454030  0.42152003  1
  O  O197  1  0.92745258  0.50082343  0.41984880  1
  O  O198  1  0.17114644  0.48083073  0.07914703  1
  O  O199  1  0.67570077  0.48196164  0.07881491  1
  O  O200  1  0.06614397  0.64595977  0.08073406  1
  O  O201  1  0.56696016  0.65105138  0.07840199  1
  O  O202  1  0.25775321  0.86387891  0.08057921  1
  O  O203  1  0.74954441  0.84366198  0.07774887  1
  O  O204  1  0.17347788  0.86708382  0.57843330  1
  O  O205  1  0.67559047  0.86803793  0.57836195  1
  O  O206  1  0.24999993  0.65791549  0.57685330  1
  O  O207  1  0.76056415  0.65443849  0.58025353  1
  O  O208  1  0.06670067  0.48243249  0.57837049  1
  O  O209  1  0.57853339  0.51008744  0.57968061  1
  O  O210  1  0.15046262  0.82164593  0.25826342  1
  O  O211  1  0.65394428  0.84750883  0.25057689  1
  O  O212  1  0.25748620  0.69161228  0.25920525  1
  O  O213  1  0.77146400  0.69891236  0.24991949  1
  O  O214  1  0.08037443  0.46161378  0.25406192  1
  O  O215  1  0.59137762  0.48979468  0.25119786  1
  O  O216  1  0.15257653  0.45935245  0.75157326  1
  O  O217  1  0.65041447  0.47576608  0.75851820  1
  O  O218  1  0.09076597  0.69234829  0.75216304  1
  O  O219  1  0.58042778  0.69582347  0.75692176  1
  O  O220  1  0.27102000  0.84207847  0.75129372  1
  O  O221  1  0.75828861  0.82315029  0.76094429  1
