# generated using pymatgen
data_Na4Ca2Ga2SiS5O24
_symmetry_space_group_name_H-M   'P 1'
_cell_length_a   8.99338836
_cell_length_b   8.97445957
_cell_length_c   22.82846919
_cell_angle_alpha   90.42205485
_cell_angle_beta   89.55940943
_cell_angle_gamma   119.76584492
_symmetry_Int_Tables_number   1
_chemical_formula_structural   Na4Ca2Ga2SiS5O24
_chemical_formula_sum   'Na12 Ca6 Ga6 Si3 S15 O72'
_cell_volume   1599.34624835
_cell_formula_units_Z   3
loop_
 _symmetry_equiv_pos_site_id
 _symmetry_equiv_pos_as_xyz
  1  'x, y, z'
loop_
 _atom_site_type_symbol
 _atom_site_label
 _atom_site_symmetry_multiplicity
 _atom_site_fract_x
 _atom_site_fract_y
 _atom_site_fract_z
 _atom_site_occupancy
  Na  Na0  1  0.00078971  0.63453624  0.23813473  1
  Na  Na1  1  0.99818693  0.36363308  0.75514572  1
  Na  Na2  1  0.37403465  0.99692633  0.74911046  1
  Na  Na3  1  0.66015019  0.97217752  0.59195332  1
  Na  Na4  1  0.68156401  0.68371532  0.07636065  1
  Na  Na5  1  0.33480430  0.03919108  0.42676834  1
  Na  Na6  1  0.02175836  0.00553527  0.50900564  1
  Na  Na7  1  0.01721448  0.99576355  0.00316610  1
  Na  Na8  1  0.66441753  0.33950274  0.83905465  1
  Na  Na9  1  0.66546480  0.33381441  0.32867196  1
  Na  Na10  1  0.31446628  0.66171884  0.15609716  1
  Na  Na11  1  0.35051154  0.67225044  0.66410129  1
  Ca  Ca12  1  0.99413940  0.00500720  0.35573985  1
  Ca  Ca13  1  0.67274508  0.33365131  0.17209549  1
  Ca  Ca14  1  0.67488633  0.33906432  0.98730586  1
  Ca  Ca15  1  0.65759445  0.33131944  0.48927523  1
  Ca  Ca16  1  0.33870072  0.66149315  0.30956713  1
  Ca  Ca17  1  0.35149338  0.67507401  0.81312533  1
  Ga  Ga18  1  0.97582403  0.99856502  0.85244935  1
  Ga  Ga19  1  0.00169923  0.98976906  0.65111668  1
  Ga  Ga20  1  0.00828470  0.00381885  0.14727234  1
  Ga  Ga21  1  0.65724841  0.30538526  0.67797659  1
  Ga  Ga22  1  0.31573097  0.66944659  0.01402236  1
  Ga  Ga23  1  0.32350534  0.67012230  0.52069211  1
  Si  Si24  1  0.72129483  0.01042029  0.74373351  1
  Si  Si25  1  0.34843780  0.01930580  0.58288962  1
  Si  Si26  1  0.98689636  0.65560511  0.08657125  1
  S  S27  1  0.29446057  0.00560801  0.24984944  1
  S  S28  1  0.71111827  0.70975297  0.24506668  1
  S  S29  1  0.99651968  0.28777482  0.24507020  1
  S  S30  1  0.29057669  0.27664574  0.74766954  1
  S  S31  1  0.98457689  0.70618795  0.75084073  1
  S  S32  1  0.97354757  0.33653432  0.58584651  1
  S  S33  1  0.66662990  0.63011056  0.58830992  1
  S  S34  1  0.66318889  0.01256539  0.08151813  1
  S  S35  1  0.34942820  0.33713734  0.08136301  1
  S  S36  1  0.64080365  0.67983078  0.91752261  1
  S  S37  1  0.04396290  0.36175661  0.91281978  1
  S  S38  1  0.31574240  0.96317708  0.91243484  1
  S  S39  1  0.62165960  0.95210201  0.42351778  1
  S  S40  1  0.33161654  0.38130982  0.42402164  1
  S  S41  1  0.04250274  0.66559407  0.41909550  1
  O  O42  1  0.22261408  0.01436812  0.30748490  1
  O  O43  1  0.80532986  0.79556111  0.29857386  1
  O  O44  1  0.99846410  0.20541807  0.29962572  1
  O  O45  1  0.21690570  0.17080728  0.80124634  1
  O  O46  1  0.96922554  0.79117634  0.80482706  1
  O  O47  1  0.84270191  0.04672588  0.80249813  1
  O  O48  1  0.81987820  0.99890282  0.68502880  1
  O  O49  1  0.18664188  0.19208195  0.69527321  1
  O  O50  1  0.02043599  0.81599196  0.69856198  1
  O  O51  1  0.80490973  0.80753002  0.19158463  1
  O  O52  1  0.99732313  0.18855193  0.19247503  1
  O  O53  1  0.18218370  0.99882909  0.20103028  1
  O  O54  1  0.89612131  0.36708397  0.64062278  1
  O  O55  1  0.49339002  0.11534056  0.63694389  1
  O  O56  1  0.64931570  0.51845214  0.63944945  1
  O  O57  1  0.92613864  0.55188591  0.14764246  1
  O  O58  1  0.62218306  0.07715542  0.13494197  1
  O  O59  1  0.45794607  0.37323830  0.13375591  1
  O  O60  1  0.41851444  0.29156583  0.03055840  1
  O  O61  1  0.83970098  0.56609241  0.03726901  1
  O  O62  1  0.69009332  0.11828355  0.03034245  1
  O  O63  1  0.41269763  0.12031904  0.52235594  1
  O  O64  1  0.69499987  0.56648719  0.53333076  1
  O  O65  1  0.86399579  0.30855734  0.53548484  1
  O  O66  1  0.55208382  0.69259637  0.97168522  1
  O  O67  1  0.15516619  0.45699001  0.96380621  1
  O  O68  1  0.29972601  0.84993929  0.96299534  1
  O  O69  1  0.53236690  0.85752896  0.47875888  1
  O  O70  1  0.33063988  0.47905675  0.47762153  1
  O  O71  1  0.15261100  0.67605441  0.46997895  1
  O  O72  1  0.11986770  0.65729664  0.36286016  1
  O  O73  1  0.52304428  0.86208804  0.37122082  1
  O  O74  1  0.33045049  0.46599367  0.36983317  1
  O  O75  1  0.11690762  0.45118422  0.85722638  1
  O  O76  1  0.33665406  0.89223413  0.85648568  1
  O  O77  1  0.54577545  0.66687286  0.86477375  1
  O  O78  1  0.03852687  0.83008902  0.42257853  1
  O  O79  1  0.79297980  0.97019274  0.42471279  1
  O  O80  1  0.17829414  0.20626081  0.42776256  1
  O  O81  1  0.03672805  0.18932542  0.91212013  1
  O  O82  1  0.15150508  0.96998255  0.91084520  1
  O  O83  1  0.81344360  0.84451646  0.91525309  1
  O  O84  1  0.98927897  0.18010184  0.59102909  1
  O  O85  1  0.15776741  0.99279697  0.59745296  1
  O  O86  1  0.81403306  0.80909679  0.59519101  1
  O  O87  1  0.01127980  0.85284282  0.09310192  1
  O  O88  1  0.82075068  0.99704520  0.09002137  1
  O  O89  1  0.17085098  0.19658286  0.09234602  1
  O  O90  1  0.70447907  0.19180080  0.74005860  1
  O  O91  1  0.46703480  0.29907744  0.74138493  1
  O  O92  1  0.82858821  0.53574391  0.74462267  1
  O  O93  1  0.69629347  0.53671464  0.24482049  1
  O  O94  1  0.84176523  0.30727623  0.24573339  1
  O  O95  1  0.46833178  0.15340794  0.24487336  1
  O  O96  1  0.66684663  0.53080644  0.91975281  1
  O  O97  1  0.87024204  0.33634798  0.91927638  1
  O  O98  1  0.46412971  0.13594092  0.92024134  1
  O  O99  1  0.63423525  0.12385173  0.42288440  1
  O  O100  1  0.48594387  0.36154891  0.42236020  1
  O  O101  1  0.87068931  0.51676512  0.42340309  1
  O  O102  1  0.34652501  0.50111880  0.07029992  1
  O  O103  1  0.17606858  0.67650666  0.07021822  1
  O  O104  1  0.51823951  0.83160257  0.07157844  1
  O  O105  1  0.34690870  0.83080399  0.57867867  1
  O  O106  1  0.50821348  0.64637761  0.58598996  1
  O  O107  1  0.14708247  0.49064180  0.57981053  1
  O  O108  1  0.29669734  0.84000043  0.24571300  1
  O  O109  1  0.53967990  0.69291233  0.24327162  1
  O  O110  1  0.15042225  0.46284452  0.24111261  1
  O  O111  1  0.29984162  0.44565455  0.75151012  1
  O  O112  1  0.13607449  0.67943029  0.75441129  1
  O  O113  1  0.52701348  0.85148235  0.74440935  1
