# generated using pymatgen
data_Na14Ca8Si3(S3O16)3
_symmetry_space_group_name_H-M   'P 1'
_cell_length_a   19.03452151
_cell_length_b   9.51374528
_cell_length_c   23.26541050
_cell_angle_alpha   89.92426601
_cell_angle_beta   90.01173191
_cell_angle_gamma   119.98148606
_symmetry_Int_Tables_number   1
_chemical_formula_structural   Na14Ca8Si3(S3O16)3
_chemical_formula_sum   'Na42 Ca24 Si9 S27 O144'
_cell_volume   3649.34889970
_cell_formula_units_Z   3
loop_
 _symmetry_equiv_pos_site_id
 _symmetry_equiv_pos_as_xyz
  1  'x, y, z'
loop_
 _atom_site_type_symbol
 _atom_site_label
 _atom_site_symmetry_multiplicity
 _atom_site_fract_x
 _atom_site_fract_y
 _atom_site_fract_z
 _atom_site_occupancy
  Na  Na0  1  0.80414444  0.99628923  0.25994951  1
  Na  Na1  1  0.18218336  0.36891807  0.26212534  1
  Na  Na2  1  0.68207101  0.33525455  0.25178089  1
  Na  Na3  1  0.99633855  0.62827493  0.23502698  1
  Na  Na4  1  0.51360959  0.66566044  0.24604923  1
  Na  Na5  1  0.30725807  0.61495712  0.75973784  1
  Na  Na6  1  0.00895289  0.35848885  0.74568620  1
  Na  Na7  1  0.51157377  0.35972713  0.73421303  1
  Na  Na8  1  0.18283527  0.02815726  0.75144378  1
  Na  Na9  1  0.67676130  0.01679102  0.76464129  1
  Na  Na10  1  0.14859228  0.32893302  0.58731151  1
  Na  Na11  1  0.63921801  0.32423815  0.59904021  1
  Na  Na12  1  0.34846074  0.00539372  0.58417671  1
  Na  Na13  1  0.82795375  0.95457118  0.57413920  1
  Na  Na14  1  0.14244255  0.95437667  0.08127196  1
  Na  Na15  1  0.64888385  0.96608876  0.07706086  1
  Na  Na16  1  0.33150468  0.70605950  0.06736573  1
  Na  Na17  1  0.84599529  0.68599096  0.07663945  1
  Na  Na18  1  0.48750417  0.69676200  0.91438164  1
  Na  Na19  1  0.97874446  0.65724345  0.92809848  1
  Na  Na20  1  0.35159174  0.00265783  0.91786487  1
  Na  Na21  1  0.82901721  0.02544177  0.90953371  1
  Na  Na22  1  0.17832277  0.33545660  0.89965980  1
  Na  Na23  1  0.66376710  0.27245310  0.90254283  1
  Na  Na24  1  0.48166032  0.30108960  0.43396204  1
  Na  Na25  1  0.98507178  0.28006368  0.42146498  1
  Na  Na26  1  0.16854118  0.05598652  0.42084083  1
  Na  Na27  1  0.67775340  0.02405523  0.40638870  1
  Na  Na28  1  0.33436581  0.63794496  0.41800286  1
  Na  Na29  1  0.84509073  0.69533089  0.42603500  1
  Na  Na30  1  0.99847196  0.00719095  0.49245164  1
  Na  Na31  1  0.50152408  0.00221254  0.51340155  1
  Na  Na32  1  0.99681493  0.98909040  0.00658276  1
  Na  Na33  1  0.50176301  0.99468524  0.98513879  1
  Na  Na34  1  0.32680334  0.35904314  0.83014013  1
  Na  Na35  1  0.80864809  0.31652017  0.83097252  1
  Na  Na36  1  0.32499345  0.32621737  0.34146821  1
  Na  Na37  1  0.82067435  0.28703599  0.33379867  1
  Na  Na38  1  0.15268962  0.65846250  0.15606183  1
  Na  Na39  1  0.66091362  0.67617459  0.16914144  1
  Na  Na40  1  0.16145272  0.64864944  0.67274639  1
  Na  Na41  1  0.65195443  0.62000318  0.66768249  1
  Ca  Ca42  1  0.99947994  0.00471862  0.35068412  1
  Ca  Ca43  1  0.50282970  0.00109906  0.34308663  1
  Ca  Ca44  1  0.00279434  0.00433394  0.84270407  1
  Ca  Ca45  1  0.50357205  0.00175920  0.84733964  1
  Ca  Ca46  1  0.00120627  0.99505256  0.65333237  1
  Ca  Ca47  1  0.50333375  0.00706961  0.65392657  1
  Ca  Ca48  1  0.99875660  0.00072690  0.15014498  1
  Ca  Ca49  1  0.50176466  0.00692863  0.15260711  1
  Ca  Ca50  1  0.33897095  0.33925111  0.67797709  1
  Ca  Ca51  1  0.83041663  0.34513345  0.68496292  1
  Ca  Ca52  1  0.33595968  0.32579939  0.18258682  1
  Ca  Ca53  1  0.83678352  0.33509729  0.17696216  1
  Ca  Ca54  1  0.33538191  0.33709490  0.98448506  1
  Ca  Ca55  1  0.83513501  0.33353320  0.98859481  1
  Ca  Ca56  1  0.33620484  0.33897379  0.49083519  1
  Ca  Ca57  1  0.83520586  0.33459758  0.48571226  1
  Ca  Ca58  1  0.16219645  0.65494403  0.01535177  1
  Ca  Ca59  1  0.66315763  0.66571114  0.01245616  1
  Ca  Ca60  1  0.16266953  0.65640442  0.51368233  1
  Ca  Ca61  1  0.66185563  0.66617510  0.51726309  1
  Ca  Ca62  1  0.16965940  0.66459849  0.31992452  1
  Ca  Ca63  1  0.66958210  0.67976949  0.32033982  1
  Ca  Ca64  1  0.16852161  0.65846114  0.82012216  1
  Ca  Ca65  1  0.66999790  0.66935896  0.81699340  1
  Si  Si66  1  0.65499282  0.00044371  0.24775304  1
  Si  Si67  1  0.15527794  0.30995509  0.74749388  1
  Si  Si68  1  0.65454771  0.31121150  0.75090938  1
  Si  Si69  1  0.48885634  0.32736251  0.58119270  1
  Si  Si70  1  0.98954120  0.64936184  0.08411719  1
  Si  Si71  1  0.32044364  0.66446653  0.91968517  1
  Si  Si72  1  0.66904972  0.97683107  0.91920453  1
  Si  Si73  1  0.82062479  0.97720543  0.41858865  1
  Si  Si74  1  0.16947589  0.35921833  0.41559257  1
  S  S75  1  0.15063641  0.00044449  0.25007748  1
  S  S76  1  0.34631241  0.69005911  0.24813593  1
  S  S77  1  0.84850139  0.69539055  0.25057651  1
  S  S78  1  0.00168212  0.30638294  0.25074707  1
  S  S79  1  0.50020974  0.30800063  0.25286855  1
  S  S80  1  0.00282129  0.69475706  0.75286016  1
  S  S81  1  0.49818510  0.69408341  0.75101813  1
  S  S82  1  0.34561985  0.99850974  0.75057938  1
  S  S83  1  0.84859183  0.00542176  0.74802016  1
  S  S84  1  0.98510291  0.32925642  0.58507830  1
  S  S85  1  0.18048582  0.02600629  0.58274179  1
  S  S86  1  0.68496300  0.03537059  0.58289908  1
  S  S87  1  0.32996348  0.64213888  0.58267891  1
  S  S88  1  0.83485851  0.64202856  0.57941428  1
  S  S89  1  0.48478075  0.63957715  0.08609921  1
  S  S90  1  0.33240631  0.02636408  0.08179744  1
  S  S91  1  0.83016412  0.01824401  0.08352946  1
  S  S92  1  0.18566238  0.33373205  0.08624227  1
  S  S93  1  0.68125394  0.33673410  0.08459905  1
  S  S94  1  0.82110767  0.67123563  0.91935713  1
  S  S95  1  0.01312831  0.35745492  0.91490742  1
  S  S96  1  0.51363758  0.36315109  0.91581227  1
  S  S97  1  0.16400009  0.96796310  0.91708607  1
  S  S98  1  0.31888264  0.97016153  0.41739703  1
  S  S99  1  0.66470911  0.36150192  0.41527902  1
  S  S100  1  0.01556395  0.66630170  0.41395083  1
  S  S101  1  0.51240663  0.66705119  0.41362618  1
  O  O102  1  0.11071796  0.01853207  0.30217002  1
  O  O103  1  0.61220367  0.01939589  0.30698796  1
  O  O104  1  0.39289608  0.77130607  0.30108424  1
  O  O105  1  0.89711818  0.77728329  0.30239630  1
  O  O106  1  0.48897229  0.21570889  0.30680640  1
  O  O107  1  0.99552391  0.21697551  0.30442494  1
  O  O108  1  0.11223643  0.20519680  0.80671960  1
  O  O109  1  0.61071749  0.20427230  0.80913046  1
  O  O110  1  0.48838671  0.76760948  0.80475023  1
  O  O111  1  0.99106198  0.76288960  0.80726521  1
  O  O112  1  0.39279788  0.01061844  0.80290910  1
  O  O113  1  0.89472812  0.01286771  0.80119118  1
  O  O114  1  0.38428868  0.97462352  0.69897240  1
  O  O115  1  0.88947057  0.98659094  0.69669151  1
  O  O116  1  0.10049947  0.21535288  0.69073736  1
  O  O117  1  0.60171047  0.21969502  0.69276723  1
  O  O118  1  0.00743084  0.79710941  0.70355975  1
  O  O119  1  0.50330013  0.79373682  0.70100647  1
  O  O120  1  0.38829216  0.78558475  0.19663669  1
  O  O121  1  0.88775792  0.79681772  0.19894413  1
  O  O122  1  0.01110242  0.22118804  0.20095743  1
  O  O123  1  0.50423225  0.21672367  0.20303886  1
  O  O124  1  0.10170626  0.98567489  0.19813490  1
  O  O125  1  0.59912222  0.98397063  0.19171746  1
  O  O126  1  0.43951371  0.32859374  0.63875937  1
  O  O127  1  0.94335406  0.33889256  0.63698257  1
  O  O128  1  0.22967372  0.10923049  0.63447642  1
  O  O129  1  0.73557648  0.12296051  0.63328892  1
  O  O130  1  0.32089131  0.53807784  0.63273803  1
  O  O131  1  0.83156662  0.53990845  0.62806107  1
  O  O132  1  0.44445162  0.54805915  0.13935021  1
  O  O133  1  0.94504730  0.55503977  0.14401778  1
  O  O134  1  0.32700180  0.11802034  0.13152252  1
  O  O135  1  0.82289505  0.10128175  0.13524285  1
  O  O136  1  0.23392678  0.34624702  0.13841642  1
  O  O137  1  0.72909447  0.35328422  0.13766212  1
  O  O138  1  0.22552427  0.31345465  0.03458208  1
  O  O139  1  0.72354790  0.31836786  0.03388208  1
  O  O140  1  0.43808008  0.55078947  0.03468872  1
  O  O141  1  0.93409732  0.56007638  0.02691679  1
  O  O142  1  0.33942757  0.11478801  0.02759026  1
  O  O143  1  0.83686441  0.11180313  0.03106328  1
  O  O144  1  0.22068558  0.12577134  0.53036896  1
  O  O145  1  0.72289678  0.13267570  0.52965086  1
  O  O146  1  0.33653281  0.56556601  0.52866926  1
  O  O147  1  0.84207182  0.57066877  0.52409852  1
  O  O148  1  0.43702828  0.31193956  0.52215394  1
  O  O149  1  0.94063461  0.32635501  0.53204006  1
  O  O150  1  0.27649959  0.68208703  0.97795836  1
  O  O151  1  0.78420827  0.68589545  0.97404073  1
  O  O152  1  0.06645186  0.44038772  0.96433580  1
  O  O153  1  0.56498559  0.44344007  0.96677854  1
  O  O154  1  0.15576990  0.86816359  0.96849820  1
  O  O155  1  0.66197336  0.87568910  0.97869435  1
  O  O156  1  0.28055103  0.87838741  0.47084883  1
  O  O157  1  0.77505349  0.86548600  0.47499936  1
  O  O158  1  0.15993947  0.45193411  0.47181803  1
  O  O159  1  0.65681353  0.44810479  0.46509863  1
  O  O160  1  0.06866616  0.68887219  0.46352825  1
  O  O161  1  0.56547539  0.68865522  0.46267584  1
  O  O162  1  0.05206404  0.64514658  0.36037859  1
  O  O163  1  0.54853188  0.64697850  0.35957524  1
  O  O164  1  0.26700466  0.88556379  0.36714547  1
  O  O165  1  0.76729826  0.89646350  0.35963623  1
  O  O166  1  0.18016708  0.46389735  0.35617603  1
  O  O167  1  0.67264756  0.45292528  0.36127322  1
  O  O168  1  0.04977124  0.45138762  0.86137563  1
  O  O169  1  0.55103612  0.46030926  0.86360750  1
  O  O170  1  0.17159107  0.88914918  0.86434779  1
  O  O171  1  0.68051322  0.88688091  0.86254091  1
  O  O172  1  0.26363987  0.63820717  0.86276902  1
  O  O173  1  0.76946004  0.65595282  0.87024842  1
  O  O174  1  0.00662470  0.81337607  0.41063127  1
  O  O175  1  0.50094821  0.81159310  0.41080206  1
  O  O176  1  0.40059304  0.98418365  0.41222809  1
  O  O177  1  0.91085774  0.99001999  0.41669205  1
  O  O178  1  0.08914096  0.17494723  0.41469232  1
  O  O179  1  0.59061667  0.19592896  0.41385277  1
  O  O180  1  0.00218474  0.19048806  0.91163100  1
  O  O181  1  0.50314116  0.19675083  0.91243862  1
  O  O182  1  0.08962487  0.98467087  0.91517636  1
  O  O183  1  0.58658936  0.99224872  0.91644393  1
  O  O184  1  0.40958588  0.83177539  0.91601024  1
  O  O185  1  0.90361771  0.82102926  0.91475985  1
  O  O186  1  0.49349872  0.15641009  0.58181002  1
  O  O187  1  0.98884000  0.17455138  0.58436417  1
  O  O188  1  0.09878829  0.01099925  0.58563237  1
  O  O189  1  0.60231834  0.01467042  0.58677620  1
  O  O190  1  0.40194627  0.80689029  0.58689283  1
  O  O191  1  0.90557168  0.81086059  0.58346376  1
  O  O192  1  0.48815793  0.80086047  0.08553450  1
  O  O193  1  0.99765296  0.83408501  0.08334026  1
  O  O194  1  0.40289193  0.99968848  0.08653794  1
  O  O195  1  0.90255808  0.99655625  0.08649020  1
  O  O196  1  0.10342076  0.18733824  0.08956124  1
  O  O197  1  0.59958995  0.18908685  0.08705696  1
  O  O198  1  0.33993589  0.14922901  0.74662590  1
  O  O199  1  0.84957543  0.16393875  0.74538906  1
  O  O200  1  0.24717327  0.33051906  0.74665883  1
  O  O201  1  0.74252825  0.31446714  0.74993568  1
  O  O202  1  0.42532873  0.52772858  0.74738103  1
  O  O203  1  0.93640352  0.52416319  0.74685144  1
  O  O204  1  0.34012151  0.52533643  0.24655950  1
  O  O205  1  0.84261015  0.53299493  0.24659808  1
  O  O206  1  0.43197093  0.34319463  0.24804022  1
  O  O207  1  0.92711061  0.32001750  0.24660438  1
  O  O208  1  0.23220858  0.15102479  0.24679414  1
  O  O209  1  0.74708086  0.16417102  0.24668435  1
  O  O210  1  0.33203894  0.50229088  0.91983884  1
  O  O211  1  0.83143293  0.52536122  0.92029433  1
  O  O212  1  0.43110178  0.34392206  0.92205058  1
  O  O213  1  0.93208172  0.34428186  0.92149404  1
  O  O214  1  0.23782401  0.13237487  0.92096690  1
  O  O215  1  0.75110166  0.16238432  0.91916884  1
  O  O216  1  0.32858768  0.13645195  0.41899914  1
  O  O217  1  0.83291176  0.16308975  0.42010657  1
  O  O218  1  0.25268268  0.34273643  0.41863135  1
  O  O219  1  0.73894912  0.34518385  0.41962962  1
  O  O220  1  0.43055098  0.51816785  0.41963089  1
  O  O221  1  0.93357179  0.52072612  0.42073403  1
  O  O222  1  0.18118079  0.48517711  0.08327749  1
  O  O223  1  0.67628650  0.48771164  0.08009574  1
  O  O224  1  0.08230645  0.67808099  0.08244597  1
  O  O225  1  0.56916060  0.66671995  0.08526567  1
  O  O226  1  0.25618636  0.86420528  0.08190167  1
  O  O227  1  0.75591887  0.85248670  0.08236832  1
  O  O228  1  0.17549218  0.86545913  0.57887773  1
  O  O229  1  0.68149344  0.87606860  0.58018309  1
  O  O230  1  0.25520629  0.65837497  0.58163197  1
  O  O231  1  0.75879884  0.65124761  0.58035969  1
  O  O232  1  0.06995824  0.47009735  0.58464241  1
  O  O233  1  0.58192605  0.48249179  0.58186794  1
  O  O234  1  0.15682554  0.85072048  0.25299700  1
  O  O235  1  0.66168771  0.83224989  0.24823784  1
  O  O236  1  0.26232360  0.66438872  0.24969596  1
  O  O237  1  0.76472704  0.67088825  0.25431922  1
  O  O238  1  0.07469594  0.47437347  0.25173078  1
  O  O239  1  0.57808960  0.46769879  0.25407941  1
  O  O240  1  0.16169840  0.49078572  0.74821496  1
  O  O241  1  0.65639178  0.48636844  0.75126486  1
  O  O242  1  0.08179102  0.69492680  0.75422099  1
  O  O243  1  0.57302532  0.68137519  0.75271606  1
  O  O244  1  0.26118071  0.85643141  0.75397635  1
  O  O245  1  0.76380583  0.87082076  0.75022503  1
