# generated using pymatgen
data_Na9Ca5Nb7Si9(SO8)9
_symmetry_space_group_name_H-M   'P 1'
_cell_length_a   9.12099719
_cell_length_b   9.12344071
_cell_length_c   23.13947190
_cell_angle_alpha   89.65419109
_cell_angle_beta   90.66822496
_cell_angle_gamma   120.18231277
_symmetry_Int_Tables_number   1
_chemical_formula_structural   Na9Ca5Nb7Si9(SO8)9
_chemical_formula_sum   'Na9 Ca5 Nb7 Si9 S9 O72'
_cell_volume   1664.38857356
_cell_formula_units_Z   1
loop_
 _symmetry_equiv_pos_site_id
 _symmetry_equiv_pos_as_xyz
  1  'x, y, z'
loop_
 _atom_site_type_symbol
 _atom_site_label
 _atom_site_symmetry_multiplicity
 _atom_site_fract_x
 _atom_site_fract_y
 _atom_site_fract_z
 _atom_site_occupancy
  Na  Na0  1  0.97474121  0.34635710  0.74597128  1
  Na  Na1  1  0.64023985  0.97186522  0.58071112  1
  Na  Na2  1  0.32448107  0.02208826  0.40634429  1
  Na  Na3  1  0.98381596  0.00176616  0.49447538  1
  Na  Na4  1  0.98242744  0.00344142  0.99134807  1
  Na  Na5  1  0.65638504  0.31457943  0.82939721  1
  Na  Na6  1  0.66165092  0.32660727  0.32249764  1
  Na  Na7  1  0.32766761  0.67763952  0.16378834  1
  Na  Na8  1  0.30980494  0.66814217  0.65631758  1
  Ca  Ca9  1  0.99288234  0.00186626  0.35007005  1
  Ca  Ca10  1  0.99175845  0.99573665  0.86052200  1
  Ca  Ca11  1  0.66112748  0.33167196  0.68657030  1
  Ca  Ca12  1  0.66789249  0.32395922  0.18103075  1
  Ca  Ca13  1  0.32538817  0.65632839  0.51842971  1
  Nb  Nb14  1  0.99150969  0.00041314  0.64522214  1
  Nb  Nb15  1  0.00135699  0.99224609  0.14377705  1
  Nb  Nb16  1  0.69955806  0.34860545  0.97897839  1
  Nb  Nb17  1  0.65930291  0.31208065  0.48419543  1
  Nb  Nb18  1  0.33717496  0.66368937  0.02058615  1
  Nb  Nb19  1  0.33965096  0.68347723  0.31180312  1
  Nb  Nb20  1  0.34715469  0.66777091  0.81596900  1
  Si  Si21  1  0.29539243  0.00916560  0.25484221  1
  Si  Si22  1  0.70233594  0.99608746  0.75208004  1
  Si  Si23  1  0.96452342  0.33333112  0.59013982  1
  Si  Si24  1  0.35797723  0.03151400  0.58659644  1
  Si  Si25  1  0.97064959  0.62981415  0.08472958  1
  Si  Si26  1  0.66827686  0.03989271  0.08341590  1
  Si  Si27  1  0.62067380  0.65099630  0.92182444  1
  Si  Si28  1  0.05213838  0.38349910  0.91620805  1
  Si  Si29  1  0.63354497  0.96566364  0.42179442  1
  S  S30  1  0.69884423  0.70892702  0.24870008  1
  S  S31  1  0.01311299  0.30387585  0.24960518  1
  S  S32  1  0.28369164  0.29504179  0.75132995  1
  S  S33  1  0.01267295  0.71632465  0.75128167  1
  S  S34  1  0.67779294  0.63080720  0.58271447  1
  S  S35  1  0.36654942  0.32984238  0.08261024  1
  S  S36  1  0.34747508  0.95579724  0.91795854  1
  S  S37  1  0.34697615  0.37823380  0.41575699  1
  S  S38  1  0.03318844  0.65451909  0.41460401  1
  O  O39  1  0.21409840  0.00345733  0.31532846  1
  O  O40  1  0.79397622  0.78470921  0.30122652  1
  O  O41  1  0.99135706  0.20698292  0.30204871  1
  O  O42  1  0.21155490  0.19589513  0.80294532  1
  O  O43  1  0.00377538  0.79858176  0.80288803  1
  O  O44  1  0.82802954  0.02293730  0.80316704  1
  O  O45  1  0.80035146  0.96890222  0.69143472  1
  O  O46  1  0.17202754  0.20572403  0.69843763  1
  O  O47  1  0.02736423  0.81994115  0.69760038  1
  O  O48  1  0.78296659  0.82057642  0.19649470  1
  O  O49  1  0.03137892  0.21709049  0.19766817  1
  O  O50  1  0.16060461  0.98367723  0.19835419  1
  O  O51  1  0.88808419  0.35135519  0.64846256  1
  O  O52  1  0.48511057  0.12908399  0.63683324  1
  O  O53  1  0.65857015  0.54015076  0.63565226  1
  O  O54  1  0.90148778  0.52483688  0.14123345  1
  O  O55  1  0.61157508  0.09007263  0.13985450  1
  O  O56  1  0.46348602  0.36489077  0.13539652  1
  O  O57  1  0.44513086  0.30211325  0.03186536  1
  O  O58  1  0.84110476  0.53503181  0.02676225  1
  O  O59  1  0.69794017  0.17240237  0.02722139  1
  O  O60  1  0.46248701  0.16244829  0.52413969  1
  O  O61  1  0.69541362  0.54286101  0.53056308  1
  O  O62  1  0.82405601  0.30298616  0.53195904  1
  O  O63  1  0.50589743  0.66093785  0.97357020  1
  O  O64  1  0.16159393  0.50312901  0.97073671  1
  O  O65  1  0.33421748  0.85598173  0.97028083  1
  O  O66  1  0.54534003  0.87408564  0.47952642  1
  O  O67  1  0.32452923  0.44949257  0.46791117  1
  O  O68  1  0.13467344  0.67884091  0.46604378  1
  O  O69  1  0.12408130  0.63447542  0.36199341  1
  O  O70  1  0.49594620  0.85415337  0.36316134  1
  O  O71  1  0.35719562  0.48126201  0.36325945  1
  O  O72  1  0.13769522  0.49790826  0.85627575  1
  O  O73  1  0.36636528  0.86790634  0.86463823  1
  O  O74  1  0.50055946  0.63833666  0.86157531  1
  O  O75  1  0.01675181  0.80617714  0.40817879  1
  O  O76  1  0.82113811  0.00364570  0.41456536  1
  O  O77  1  0.20737085  0.20027016  0.41075193  1
  O  O78  1  0.03834609  0.20512904  0.92108014  1
  O  O79  1  0.19692407  0.96893897  0.91339382  1
  O  O80  1  0.80435770  0.81025345  0.92244399  1
  O  O81  1  0.95266687  0.13918262  0.59119697  1
  O  O82  1  0.17349154  0.02471701  0.59390650  1
  O  O83  1  0.84329136  0.80342572  0.58544021  1
  O  O84  1  0.98279367  0.82149687  0.09288193  1
  O  O85  1  0.84529225  0.02710030  0.09410132  1
  O  O86  1  0.19050494  0.17375721  0.08903012  1
  O  O87  1  0.67559915  0.15676384  0.74998995  1
  O  O88  1  0.45830481  0.33770084  0.74389082  1
  O  O89  1  0.86421303  0.54387511  0.74699808  1
  O  O90  1  0.66913113  0.53848848  0.24130016  1
  O  O91  1  0.87424190  0.33879106  0.24425646  1
  O  O92  1  0.48351621  0.15916264  0.24810131  1
  O  O93  1  0.61513532  0.46722312  0.92770360  1
  O  O94  1  0.85989875  0.37071050  0.92312476  1
  O  O95  1  0.50449136  0.12461341  0.92089590  1
  O  O96  1  0.63025135  0.15405076  0.42304797  1
  O  O97  1  0.51199472  0.37381762  0.41870393  1
  O  O98  1  0.86304769  0.49814872  0.41760247  1
  O  O99  1  0.33345154  0.47623400  0.07381836  1
  O  O100  1  0.16248833  0.66989958  0.06976660  1
  O  O101  1  0.51720864  0.84674594  0.06497618  1
  O  O102  1  0.34087275  0.85120517  0.57803255  1
  O  O103  1  0.54035133  0.66824496  0.57577621  1
  O  O104  1  0.15434751  0.47189690  0.57999563  1
  O  O105  1  0.30165496  0.81658759  0.25949597  1
  O  O106  1  0.52506083  0.69951643  0.25377327  1
  O  O107  1  0.17984584  0.47454331  0.25535130  1
  O  O108  1  0.27975301  0.46209129  0.75385789  1
  O  O109  1  0.17014462  0.69860395  0.75234196  1
  O  O110  1  0.51025266  0.81540756  0.75952072  1
