# generated using pymatgen
data_Na4YZn(PO4)3
_symmetry_space_group_name_H-M   'P 1'
_cell_length_a   9.29909062
_cell_length_b   9.29909028
_cell_length_c   22.62263344
_cell_angle_alpha   90.00000000
_cell_angle_beta   90.00000000
_cell_angle_gamma   120.00000120
_symmetry_Int_Tables_number   1
_chemical_formula_structural   Na4YZn(PO4)3
_chemical_formula_sum   'Na24 Y6 Zn6 P18 O72'
_cell_volume   1694.16119211
_cell_formula_units_Z   6
loop_
 _symmetry_equiv_pos_site_id
 _symmetry_equiv_pos_as_xyz
  1  'x, y, z'
loop_
 _atom_site_type_symbol
 _atom_site_label
 _atom_site_symmetry_multiplicity
 _atom_site_fract_x
 _atom_site_fract_y
 _atom_site_fract_z
 _atom_site_occupancy
  Na  Na0  1  0.63809893  0.01263760  0.24684587  1
  Na  Na1  1  0.37453866  0.36190107  0.24684587  1
  Na  Na2  1  0.98736240  0.62546134  0.24684587  1
  Na  Na3  1  0.63809893  0.62546134  0.74684587  1
  Na  Na4  1  0.98736240  0.36190107  0.74684587  1
  Na  Na5  1  0.37453866  0.01263760  0.74684587  1
  Na  Na6  1  0.30476593  0.34597060  0.58017887  1
  Na  Na7  1  0.04120566  0.69523407  0.58017887  1
  Na  Na8  1  0.65402940  0.95879434  0.58017887  1
  Na  Na9  1  0.30476593  0.95879434  0.08017887  1
  Na  Na10  1  0.65402940  0.69523407  0.08017887  1
  Na  Na11  1  0.04120566  0.34597060  0.08017887  1
  Na  Na12  1  0.97143193  0.67930460  0.91351287  1
  Na  Na13  1  0.70787166  0.02856807  0.91351287  1
  Na  Na14  1  0.32069540  0.29212834  0.91351287  1
  Na  Na15  1  0.97143193  0.29212834  0.41351287  1
  Na  Na16  1  0.32069540  0.02856807  0.41351287  1
  Na  Na17  1  0.70787166  0.67930460  0.41351287  1
  Na  Na18  1  0.00000000  -0.00000000  0.49316666  1
  Na  Na19  1  0.00000000  -0.00000000  0.99316666  1
  Na  Na20  1  0.66666700  0.33333300  0.82649966  1
  Na  Na21  1  0.66666700  0.33333300  0.32649966  1
  Na  Na22  1  0.33333300  0.66666700  0.15983366  1
  Na  Na23  1  0.33333300  0.66666700  0.65983366  1
  Y  Y24  1  0.00000000  -0.00000000  0.65153512  1
  Y  Y25  1  0.00000000  -0.00000000  0.15153512  1
  Y  Y26  1  0.66666700  0.33333300  0.98486812  1
  Y  Y27  1  0.66666700  0.33333300  0.48486812  1
  Y  Y28  1  0.33333300  0.66666700  0.31820212  1
  Y  Y29  1  0.33333300  0.66666700  0.81820212  1
  Zn  Zn30  1  0.00000000  -0.00000000  0.34382843  1
  Zn  Zn31  1  0.00000000  -0.00000000  0.84382843  1
  Zn  Zn32  1  0.66666700  0.33333300  0.67716143  1
  Zn  Zn33  1  0.66666700  0.33333300  0.17716143  1
  Zn  Zn34  1  0.33333300  0.66666700  0.01049543  1
  Zn  Zn35  1  0.33333300  0.66666700  0.51049543  1
  P  P36  1  0.30400968  0.00625872  0.25185745  1
  P  P37  1  0.70224905  0.69599032  0.25185745  1
  P  P38  1  0.99374128  0.29775095  0.25185745  1
  P  P39  1  0.30400968  0.29775095  0.75185745  1
  P  P40  1  0.99374128  0.69599032  0.75185745  1
  P  P41  1  0.70224905  0.00625872  0.75185745  1
  P  P42  1  0.97067668  0.33959172  0.58519045  1
  P  P43  1  0.36891605  0.02932332  0.58519045  1
  P  P44  1  0.66040828  0.63108395  0.58519045  1
  P  P45  1  0.97067668  0.63108395  0.08519045  1
  P  P46  1  0.66040828  0.02932332  0.08519045  1
  P  P47  1  0.36891605  0.33959172  0.08519045  1
  P  P48  1  0.63734268  0.67292572  0.91852445  1
  P  P49  1  0.03558205  0.36265732  0.91852445  1
  P  P50  1  0.32707428  0.96441795  0.91852445  1
  P  P51  1  0.63734268  0.96441795  0.41852445  1
  P  P52  1  0.32707428  0.36265732  0.41852445  1
  P  P53  1  0.03558205  0.67292572  0.41852445  1
  O  O54  1  0.21693099  0.02699552  0.30713830  1
  O  O55  1  0.81006452  0.78306901  0.30713830  1
  O  O56  1  0.97300448  0.18993548  0.30713830  1
  O  O57  1  0.21693099  0.18993548  0.80713830  1
  O  O58  1  0.97300448  0.78306901  0.80713830  1
  O  O59  1  0.81006452  0.02699552  0.80713830  1
  O  O60  1  0.78120848  0.97888867  0.69580162  1
  O  O61  1  0.19768019  0.21879152  0.69580162  1
  O  O62  1  0.02111133  0.80231981  0.69580162  1
  O  O63  1  0.78120848  0.80231981  0.19580162  1
  O  O64  1  0.02111133  0.21879152  0.19580162  1
  O  O65  1  0.19768019  0.97888867  0.19580162  1
  O  O66  1  0.88359799  0.36032852  0.64047130  1
  O  O67  1  0.47673152  0.11640201  0.64047130  1
  O  O68  1  0.63967148  0.52326848  0.64047130  1
  O  O69  1  0.88359799  0.52326848  0.14047130  1
  O  O70  1  0.63967148  0.11640201  0.14047130  1
  O  O71  1  0.47673152  0.36032852  0.14047130  1
  O  O72  1  0.44787548  0.31222167  0.02913462  1
  O  O73  1  0.86434719  0.55212452  0.02913462  1
  O  O74  1  0.68777833  0.13565281  0.02913462  1
  O  O75  1  0.44787548  0.13565281  0.52913462  1
  O  O76  1  0.68777833  0.55212452  0.52913462  1
  O  O77  1  0.86434719  0.31222167  0.52913462  1
  O  O78  1  0.55026399  0.69366252  0.97380530  1
  O  O79  1  0.14339752  0.44973601  0.97380530  1
  O  O80  1  0.30633748  0.85660248  0.97380530  1
  O  O81  1  0.55026399  0.85660248  0.47380530  1
  O  O82  1  0.30633748  0.44973601  0.47380530  1
  O  O83  1  0.14339752  0.69366252  0.47380530  1
  O  O84  1  0.11454148  0.64555567  0.36246862  1
  O  O85  1  0.53101319  0.88545852  0.36246862  1
  O  O86  1  0.35444433  0.46898681  0.36246862  1
  O  O87  1  0.11454148  0.46898681  0.86246862  1
  O  O88  1  0.35444433  0.88545852  0.86246862  1
  O  O89  1  0.53101319  0.64555567  0.86246862  1
  O  O90  1  0.01865377  0.83043680  0.41396980  1
  O  O91  1  0.81178303  0.98134623  0.41396980  1
  O  O92  1  0.16956320  0.18821697  0.41396980  1
  O  O93  1  0.01865377  0.18821697  0.91396980  1
  O  O94  1  0.16956320  0.98134623  0.91396980  1
  O  O95  1  0.81178303  0.83043680  0.91396980  1
  O  O96  1  0.98971463  0.18212544  0.58821022  1
  O  O97  1  0.19241081  0.01028537  0.58821022  1
  O  O98  1  0.81787456  0.80758919  0.58821022  1
  O  O99  1  0.98971463  0.80758919  0.08821022  1
  O  O100  1  0.81787456  0.01028537  0.08821022  1
  O  O101  1  0.19241081  0.18212544  0.08821022  1
  O  O102  1  0.68532077  0.16376980  0.74730280  1
  O  O103  1  0.47845003  0.31467923  0.74730280  1
  O  O104  1  0.83623020  0.52154997  0.74730280  1
  O  O105  1  0.68532077  0.52154997  0.24730280  1
  O  O106  1  0.83623020  0.31467923  0.24730280  1
  O  O107  1  0.47845003  0.16376980  0.24730280  1
  O  O108  1  0.65638163  0.51545844  0.92154322  1
  O  O109  1  0.85907781  0.34361837  0.92154322  1
  O  O110  1  0.48454156  0.14092219  0.92154322  1
  O  O111  1  0.65638163  0.14092219  0.42154322  1
  O  O112  1  0.48454156  0.34361837  0.42154322  1
  O  O113  1  0.85907781  0.51545844  0.42154322  1
  O  O114  1  0.35198677  0.49710380  0.08063680  1
  O  O115  1  0.14511603  0.64801323  0.08063680  1
  O  O116  1  0.50289620  0.85488397  0.08063680  1
  O  O117  1  0.35198677  0.85488397  0.58063680  1
  O  O118  1  0.50289620  0.64801323  0.58063680  1
  O  O119  1  0.14511603  0.49710380  0.58063680  1
  O  O120  1  0.32304763  0.84879244  0.25487722  1
  O  O121  1  0.52574381  0.67695237  0.25487722  1
  O  O122  1  0.15120756  0.47425619  0.25487722  1
  O  O123  1  0.32304763  0.47425619  0.75487722  1
  O  O124  1  0.15120756  0.67695237  0.75487722  1
  O  O125  1  0.52574381  0.84879244  0.75487722  1
