# generated using pymatgen
data_Na6La2Ga2Si3(SO8)3
_symmetry_space_group_name_H-M   'P 1'
_cell_length_a   9.33704111
_cell_length_b   9.16601213
_cell_length_c   23.15163655
_cell_angle_alpha   91.28106433
_cell_angle_beta   90.08129417
_cell_angle_gamma   119.44607959
_symmetry_Int_Tables_number   1
_chemical_formula_structural   Na6La2Ga2Si3(SO8)3
_chemical_formula_sum   'Na18 La6 Ga6 Si9 S9 O72'
_cell_volume   1724.83066498
_cell_formula_units_Z   3
loop_
 _symmetry_equiv_pos_site_id
 _symmetry_equiv_pos_as_xyz
  1  'x, y, z'
loop_
 _atom_site_type_symbol
 _atom_site_label
 _atom_site_symmetry_multiplicity
 _atom_site_fract_x
 _atom_site_fract_y
 _atom_site_fract_z
 _atom_site_occupancy
  Na  Na0  1  0.63599260  0.99227349  0.27180660  1
  Na  Na1  1  0.35636965  0.36439522  0.25818966  1
  Na  Na2  1  0.64061408  0.64098196  0.72892185  1
  Na  Na3  1  0.97576832  0.35814310  0.73569500  1
  Na  Na4  1  0.03144330  0.69060631  0.59508336  1
  Na  Na5  1  0.67595203  0.96350357  0.58276562  1
  Na  Na6  1  0.31613112  0.97432344  0.10213660  1
  Na  Na7  1  0.02159720  0.32600321  0.08827423  1
  Na  Na8  1  0.97084267  0.64792611  0.89380456  1
  Na  Na9  1  0.70688324  0.04360989  0.90649205  1
  Na  Na10  1  0.95122406  0.29441627  0.42185903  1
  Na  Na11  1  0.34899002  0.03214411  0.41465004  1
  Na  Na12  1  0.97407312  0.98771821  0.50659763  1
  Na  Na13  1  0.98578562  0.01782511  0.99989486  1
  Na  Na14  1  0.66695649  0.32247771  0.81508260  1
  Na  Na15  1  0.67874760  0.35183186  0.34223069  1
  Na  Na16  1  0.32358979  0.67237585  0.17974769  1
  Na  Na17  1  0.33215848  0.66134052  0.66235042  1
  La  La18  1  0.00333964  0.02225800  0.83481875  1
  La  La19  1  0.99403277  0.00577013  0.16761916  1
  La  La20  1  0.67458001  0.33642809  0.98813541  1
  La  La21  1  0.34353433  0.65973003  0.01986879  1
  La  La22  1  0.35253967  0.65495012  0.51715740  1
  La  La23  1  0.31730477  0.67010441  0.80544363  1
  Ga  Ga24  1  0.99642517  0.02040480  0.34278544  1
  Ga  Ga25  1  0.95756807  0.97107721  0.64641233  1
  Ga  Ga26  1  0.69133353  0.34815197  0.67977048  1
  Ga  Ga27  1  0.66092801  0.28734703  0.20230990  1
  Ga  Ga28  1  0.67697714  0.30400789  0.49925808  1
  Ga  Ga29  1  0.31861991  0.69597217  0.31794927  1
  Si  Si30  1  0.29863144  0.00229576  0.25292739  1
  Si  Si31  1  0.01390495  0.32837266  0.25336006  1
  Si  Si32  1  0.98740460  0.69746717  0.74130935  1
  Si  Si33  1  0.69087187  0.01118239  0.74159117  1
  Si  Si34  1  0.96200520  0.31725625  0.58673239  1
  Si  Si35  1  0.67793122  0.60987513  0.58435611  1
  Si  Si36  1  0.66492678  0.03288584  0.08937835  1
  Si  Si37  1  0.02506801  0.35751409  0.91952603  1
  Si  Si38  1  0.64239706  0.96929163  0.41491455  1
  S  S39  1  0.68758113  0.68771490  0.25511116  1
  S  S40  1  0.31150133  0.29361486  0.73984524  1
  S  S41  1  0.37966136  0.05421357  0.58196397  1
  S  S42  1  0.97024054  0.63933649  0.08885201  1
  S  S43  1  0.36580993  0.33090322  0.09366177  1
  S  S44  1  0.64940566  0.67406581  0.91080233  1
  S  S45  1  0.32273599  0.97299286  0.92171950  1
  S  S46  1  0.32121594  0.34576399  0.40672263  1
  S  S47  1  0.03844851  0.67763660  0.41394311  1
  O  O48  1  0.18357545  0.02887722  0.30140711  1
  O  O49  1  0.80578536  0.78439215  0.30250184  1
  O  O50  1  0.96616965  0.17401404  0.29869074  1
  O  O51  1  0.25754643  0.22691677  0.79912444  1
  O  O52  1  0.98519376  0.77377575  0.80634494  1
  O  O53  1  0.78609200  0.05190943  0.80541573  1
  O  O54  1  0.80356703  0.98528851  0.69259305  1
  O  O55  1  0.19058598  0.18941044  0.69564585  1
  O  O56  1  0.00396960  0.82574800  0.69006710  1
  O  O57  1  0.74326425  0.77770594  0.20005007  1
  O  O58  1  0.06289067  0.27683692  0.19130186  1
  O  O59  1  0.21720600  0.97574548  0.18929826  1
  O  O60  1  0.86997584  0.35241290  0.64045632  1
  O  O61  1  0.48884388  0.14908583  0.63039918  1
  O  O62  1  0.65585575  0.50845981  0.64318230  1
  O  O63  1  0.86139973  0.53413298  0.13380401  1
  O  O64  1  0.65079838  0.15083249  0.14257619  1
  O  O65  1  0.46306460  0.33412488  0.14418070  1
  O  O66  1  0.45032072  0.34122165  0.03823757  1
  O  O67  1  0.89921694  0.57681773  0.02969409  1
  O  O68  1  0.67337028  0.11737147  0.02649405  1
  O  O69  1  0.45485448  0.13608328  0.52469885  1
  O  O70  1  0.69223199  0.50303773  0.52731444  1
  O  O71  1  0.84746285  0.27399753  0.52584184  1
  O  O72  1  0.56402199  0.68147225  0.96428764  1
  O  O73  1  0.11344912  0.44401418  0.98237700  1
  O  O74  1  0.32420813  0.89173144  0.97653457  1
  O  O75  1  0.57967366  0.86913882  0.47446120  1
  O  O76  1  0.28844373  0.41957833  0.45918294  1
  O  O77  1  0.13598418  0.70713534  0.46810886  1
  O  O78  1  0.12798363  0.64475739  0.36528615  1
  O  O79  1  0.50209923  0.87039450  0.36179307  1
  O  O80  1  0.34069480  0.44894810  0.35634229  1
  O  O81  1  0.12793865  0.47371276  0.86535321  1
  O  O82  1  0.34361339  0.87917621  0.87247670  1
  O  O83  1  0.55829143  0.67521841  0.85918016  1
  O  O84  1  0.02819376  0.83100458  0.40370763  1
  O  O85  1  0.83009702  0.00319691  0.39836473  1
  O  O86  1  0.16679484  0.17460154  0.40270862  1
  O  O87  1  0.99446732  0.16629917  0.91809016  1
  O  O88  1  0.16449368  0.97056245  0.91751018  1
  O  O89  1  0.81526137  0.82486736  0.91394522  1
  O  O90  1  0.97260817  0.14211729  0.59302753  1
  O  O91  1  0.21316060  0.03188607  0.58349714  1
  O  O92  1  0.85054448  0.79857972  0.58475666  1
  O  O93  1  0.00745327  0.81644225  0.09146848  1
  O  O94  1  0.83768807  0.02881676  0.09315552  1
  O  O95  1  0.20438309  0.17171512  0.08913998  1
  O  O96  1  0.67356145  0.17773523  0.73141184  1
  O  O97  1  0.47835411  0.31677654  0.73412662  1
  O  O98  1  0.81454735  0.51532706  0.74097852  1
  O  O99  1  0.66813021  0.51635294  0.25033046  1
  O  O100  1  0.83596473  0.32997199  0.25106823  1
  O  O101  1  0.48620369  0.17784670  0.25478693  1
  O  O102  1  0.66706489  0.52223136  0.90972092  1
  O  O103  1  0.84140010  0.34589129  0.91415265  1
  O  O104  1  0.46482936  0.14449476  0.91923087  1
  O  O105  1  0.65358441  0.16167205  0.42446656  1
  O  O106  1  0.46520541  0.32226504  0.41391326  1
  O  O107  1  0.87732301  0.52309291  0.41625612  1
  O  O108  1  0.33268017  0.47431574  0.09800447  1
  O  O109  1  0.13143724  0.63859414  0.09286235  1
  O  O110  1  0.49154505  0.85468745  0.09339476  1
  O  O111  1  0.36717349  0.88359785  0.58092665  1
  O  O112  1  0.52937756  0.65771442  0.58397383  1
  O  O113  1  0.13589087  0.49243476  0.57992199  1
  O  O114  1  0.33881177  0.84872743  0.26194222  1
  O  O115  1  0.52168051  0.67080694  0.26500090  1
  O  O116  1  0.18116426  0.50594840  0.27032153  1
  O  O117  1  0.32513121  0.46476702  0.73904509  1
  O  O118  1  0.13839770  0.65447216  0.73484348  1
  O  O119  1  0.52040834  0.83152893  0.74141531  1
