# generated using pymatgen
data_Na5TiAl3Si3(SO8)3
_symmetry_space_group_name_H-M   'P 1'
_cell_length_a   8.68493422
_cell_length_b   8.71133177
_cell_length_c   21.88426008
_cell_angle_alpha   90.31164799
_cell_angle_beta   90.47404029
_cell_angle_gamma   120.17244303
_symmetry_Int_Tables_number   1
_chemical_formula_structural   Na5TiAl3Si3(SO8)3
_chemical_formula_sum   'Na15 Ti3 Al9 Si9 S9 O72'
_cell_volume   1431.24729475
_cell_formula_units_Z   3
loop_
 _symmetry_equiv_pos_site_id
 _symmetry_equiv_pos_as_xyz
  1  'x, y, z'
loop_
 _atom_site_type_symbol
 _atom_site_label
 _atom_site_symmetry_multiplicity
 _atom_site_fract_x
 _atom_site_fract_y
 _atom_site_fract_z
 _atom_site_occupancy
  Na  Na0  1  0.64158402  0.00374131  0.25391160  1
  Na  Na1  1  0.00121117  0.62495760  0.24880981  1
  Na  Na2  1  0.62979027  0.63431837  0.74640865  1
  Na  Na3  1  0.36889589  0.00852593  0.75416595  1
  Na  Na4  1  0.66724392  0.96059073  0.58470208  1
  Na  Na5  1  0.97323873  0.67574171  0.91947112  1
  Na  Na6  1  0.69426123  0.02471543  0.91345426  1
  Na  Na7  1  0.96309823  0.30162462  0.41191863  1
  Na  Na8  1  0.70531830  0.67880871  0.42049154  1
  Na  Na9  1  0.00517972  0.98763210  0.50165906  1
  Na  Na10  1  0.00881841  0.99467914  0.00049143  1
  Na  Na11  1  0.65313274  0.32345151  0.83152330  1
  Na  Na12  1  0.66150947  0.32298514  0.33268826  1
  Na  Na13  1  0.31875090  0.64744473  0.16230399  1
  Na  Na14  1  0.32608468  0.64654968  0.66575704  1
  Ti  Ti15  1  0.66039390  0.34935784  0.98021515  1
  Ti  Ti16  1  0.68146848  0.34776114  0.47901307  1
  Ti  Ti17  1  0.35666551  0.67407547  0.81119204  1
  Al  Al18  1  0.98855631  0.99905854  0.35464466  1
  Al  Al19  1  0.00852894  0.01163779  0.85298378  1
  Al  Al20  1  0.98819204  0.99399631  0.65037004  1
  Al  Al21  1  0.00728522  0.00735858  0.14440003  1
  Al  Al22  1  0.65087946  0.33234738  0.68908339  1
  Al  Al23  1  0.69047646  0.33837064  0.18145253  1
  Al  Al24  1  0.32846506  0.68320409  0.01771805  1
  Al  Al25  1  0.34541792  0.67908126  0.51814115  1
  Al  Al26  1  0.31678161  0.65616024  0.31713397  1
  Si  Si27  1  0.00853856  0.28777275  0.24930875  1
  Si  Si28  1  0.27582868  0.28021155  0.74826393  1
  Si  Si29  1  0.72526739  0.01727176  0.74919760  1
  Si  Si30  1  0.66570775  0.62668376  0.58674343  1
  Si  Si31  1  0.97064720  0.63644582  0.08614512  1
  Si  Si32  1  0.62200079  0.67285539  0.92082010  1
  Si  Si33  1  0.32798915  0.95919551  0.91663530  1
  Si  Si34  1  0.61394854  0.95098465  0.41468943  1
  Si  Si35  1  0.06030907  0.68392890  0.41687514  1
  S  S36  1  0.28824625  0.00648393  0.24959754  1
  S  S37  1  0.70649151  0.70621003  0.24915097  1
  S  S38  1  0.99697639  0.70871618  0.74871701  1
  S  S39  1  0.96282311  0.33964303  0.58491913  1
  S  S40  1  0.37234904  0.04356973  0.58364624  1
  S  S41  1  0.66766687  0.04167654  0.08459361  1
  S  S42  1  0.37874244  0.33370308  0.08650793  1
  S  S43  1  0.05081005  0.37874942  0.91787122  1
  S  S44  1  0.33050734  0.37735585  0.41627347  1
  O  O45  1  0.20772079  0.03059030  0.30487690  1
  O  O46  1  0.82086319  0.78280363  0.30549339  1
  O  O47  1  0.96758640  0.16379766  0.31021460  1
  O  O48  1  0.19730728  0.15429293  0.80740704  1
  O  O49  1  0.96176379  0.78274485  0.80500846  1
  O  O50  1  0.83216907  0.03245856  0.81201465  1
  O  O51  1  0.79236983  0.95772862  0.68932414  1
  O  O52  1  0.16055212  0.18532713  0.68751241  1
  O  O53  1  0.03020759  0.82301178  0.69520152  1
  O  O54  1  0.79135941  0.82153441  0.19605412  1
  O  O55  1  0.02731479  0.18472887  0.19099525  1
  O  O56  1  0.17173357  0.96799825  0.19481445  1
  O  O57  1  0.87303108  0.36180478  0.63747763  1
  O  O58  1  0.48861203  0.12279165  0.63915121  1
  O  O59  1  0.64268720  0.50143661  0.64405530  1
  O  O60  1  0.87322528  0.51161590  0.14501344  1
  O  O61  1  0.63702325  0.12513731  0.14026815  1
  O  O62  1  0.49338456  0.35570411  0.14032605  1
  O  O63  1  0.45608420  0.30116403  0.02980431  1
  O  O64  1  0.83504776  0.53213919  0.02542209  1
  O  O65  1  0.69403997  0.14997927  0.02988766  1
  O  O66  1  0.45893020  0.15260312  0.52910716  1
  O  O67  1  0.69120497  0.52742341  0.52426546  1
  O  O68  1  0.84754118  0.30289201  0.52710576  1
  O  O69  1  0.52132334  0.70000561  0.97738871  1
  O  O70  1  0.15919073  0.46034299  0.97357945  1
  O  O71  1  0.28686781  0.82769107  0.97353377  1
  O  O72  1  0.53813398  0.82907032  0.47513480  1
  O  O73  1  0.29764283  0.45454946  0.47103254  1
  O  O74  1  0.17190268  0.69320947  0.47681337  1
  O  O75  1  0.12307178  0.62315660  0.35590994  1
  O  O76  1  0.49772647  0.85546537  0.35292601  1
  O  O77  1  0.36691164  0.49161600  0.36170834  1
  O  O78  1  0.12343490  0.48950715  0.86327664  1
  O  O79  1  0.36630252  0.86826037  0.85591368  1
  O  O80  1  0.50524582  0.63150777  0.85637482  1
  O  O81  1  0.02308760  0.84757061  0.40610768  1
  O  O82  1  0.81792947  0.98126881  0.40914593  1
  O  O83  1  0.17242250  0.19866998  0.40840044  1
  O  O84  1  0.02671576  0.19863992  0.91247612  1
  O  O85  1  0.15211081  0.97572078  0.90792022  1
  O  O86  1  0.81891647  0.84425073  0.91079591  1
  O  O87  1  0.97475169  0.17486157  0.58776616  1
  O  O88  1  0.19520969  0.02354777  0.58957344  1
  O  O89  1  0.84527370  0.82608145  0.59005329  1
  O  O90  1  0.98158230  0.82892801  0.09398885  1
  O  O91  1  0.82923727  0.02641825  0.09191654  1
  O  O92  1  0.20027690  0.17246605  0.09086232  1
  O  O93  1  0.68960385  0.18223166  0.73888469  1
  O  O94  1  0.48262079  0.31525907  0.74332148  1
  O  O95  1  0.83745015  0.52957177  0.74155782  1
  O  O96  1  0.68569181  0.52594848  0.24282016  1
  O  O97  1  0.82326872  0.30692986  0.24284918  1
  O  O98  1  0.46957746  0.16499713  0.24208842  1
  O  O99  1  0.64875668  0.49654525  0.92323283  1
  O  O100  1  0.86673292  0.35521725  0.92370608  1
  O  O101  1  0.51605435  0.14914541  0.92616146  1
  O  O102  1  0.64229518  0.15263177  0.42378310  1
  O  O103  1  0.49230235  0.36013524  0.42174117  1
  O  O104  1  0.85129765  0.50136627  0.42429320  1
  O  O105  1  0.36418306  0.49362269  0.07949236  1
  O  O106  1  0.15960014  0.64298618  0.07576797  1
  O  O107  1  0.50705134  0.86325837  0.07996404  1
  O  O108  1  0.35885166  0.86526648  0.57820270  1
  O  O109  1  0.48866437  0.64773846  0.57619366  1
  O  O110  1  0.13833958  0.49775438  0.57689756  1
  O  O111  1  0.31120829  0.84608458  0.25401570  1
  O  O112  1  0.52999279  0.69201055  0.25595065  1
  O  O113  1  0.18014499  0.49151402  0.25696266  1
  O  O114  1  0.30246248  0.48247128  0.75529108  1
  O  O115  1  0.15771269  0.69232282  0.75480337  1
  O  O116  1  0.51772880  0.83494363  0.75455904  1
