# generated using pymatgen
data_Nb2NiO6
_symmetry_space_group_name_H-M   'P 1'
_cell_length_a   5.04494309
_cell_length_b   5.71489573
_cell_length_c   14.10715072
_cell_angle_alpha   90.00000000
_cell_angle_beta   90.00000000
_cell_angle_gamma   90.00000000
_symmetry_Int_Tables_number   1
_chemical_formula_structural   Nb2NiO6
_chemical_formula_sum   'Nb8 Ni4 O24'
_cell_volume   406.72782922
_cell_formula_units_Z   4
loop_
 _symmetry_equiv_pos_site_id
 _symmetry_equiv_pos_as_xyz
  1  'x, y, z'
loop_
 _atom_site_type_symbol
 _atom_site_label
 _atom_site_symmetry_multiplicity
 _atom_site_fract_x
 _atom_site_fract_y
 _atom_site_fract_z
 _atom_site_occupancy
  Nb  Nb0  1  0.75641825  0.68369804  0.65797737  1
  Nb  Nb1  1  0.25641825  0.81630196  0.84202263  1
  Nb  Nb2  1  0.74358175  0.68369804  0.34202263  1
  Nb  Nb3  1  0.24358175  0.81630196  0.15797737  1
  Nb  Nb4  1  0.75641825  0.18369804  0.84202263  1
  Nb  Nb5  1  0.25641825  0.31630196  0.65797737  1
  Nb  Nb6  1  0.74358175  0.18369804  0.15797737  1
  Nb  Nb7  1  0.24358175  0.31630196  0.34202263  1
  Ni  Ni8  1  0.75000000  0.65249477  -0.00000000  1
  Ni  Ni9  1  0.25000000  0.84750523  0.50000000  1
  Ni  Ni10  1  0.25000000  0.34750523  -0.00000000  1
  Ni  Ni11  1  0.75000000  0.15249477  0.50000000  1
  O  O12  1  0.92672849  0.37887908  0.74394371  1
  O  O13  1  0.42672849  0.12112092  0.75605629  1
  O  O14  1  0.57327151  0.37887908  0.25605629  1
  O  O15  1  0.07327151  0.12112092  0.24394371  1
  O  O16  1  0.07327151  0.62112092  0.25605629  1
  O  O17  1  0.57327151  0.87887908  0.24394371  1
  O  O18  1  0.42672849  0.62112092  0.74394371  1
  O  O19  1  0.92672849  0.87887908  0.75605629  1
  O  O20  1  0.91409032  0.38716600  0.07730458  1
  O  O21  1  0.41409032  0.11283400  0.42269542  1
  O  O22  1  0.58590968  0.38716600  0.92269542  1
  O  O23  1  0.08590968  0.11283400  0.57730458  1
  O  O24  1  0.91643331  0.89058176  0.09279615  1
  O  O25  1  0.41643331  0.60941824  0.40720385  1
  O  O26  1  0.58356669  0.89058176  0.90720385  1
  O  O27  1  0.08356669  0.60941824  0.59279615  1
  O  O28  1  0.08356669  0.10941824  0.90720385  1
  O  O29  1  0.58356669  0.39058176  0.59279615  1
  O  O30  1  0.41643331  0.10941824  0.09279615  1
  O  O31  1  0.91643331  0.39058176  0.40720385  1
  O  O32  1  0.91409032  0.88716600  0.42269542  1
  O  O33  1  0.41409032  0.61283400  0.07730458  1
  O  O34  1  0.58590968  0.88716600  0.57730458  1
  O  O35  1  0.08590968  0.61283400  0.92269542  1
