# generated using pymatgen
data_Al2PbO4
_symmetry_space_group_name_H-M   'P 1'
_cell_length_a   5.08039751
_cell_length_b   5.26956251
_cell_length_c   8.45991594
_cell_angle_alpha   90.00000000
_cell_angle_beta   90.00000000
_cell_angle_gamma   118.81944669
_symmetry_Int_Tables_number   1
_chemical_formula_structural   Al2PbO4
_chemical_formula_sum   'Al4 Pb2 O8'
_cell_volume   198.43275274
_cell_formula_units_Z   2
loop_
 _symmetry_equiv_pos_site_id
 _symmetry_equiv_pos_as_xyz
  1  'x, y, z'
loop_
 _atom_site_type_symbol
 _atom_site_label
 _atom_site_symmetry_multiplicity
 _atom_site_fract_x
 _atom_site_fract_y
 _atom_site_fract_z
 _atom_site_occupancy
  Al  Al0  1  0.63962415  0.34386449  0.44578450  1
  Al  Al1  1  0.29575966  0.65613551  0.55421550  1
  Al  Al2  1  0.63962415  0.34386449  0.05421550  1
  Al  Al3  1  0.29575966  0.65613551  0.94578450  1
  Pb  Pb4  1  0.02777049  0.05579734  0.25000000  1
  Pb  Pb5  1  0.97197215  0.94420266  0.75000000  1
  O  O6  1  0.53581359  0.37211021  0.25000000  1
  O  O7  1  0.16370538  0.62788979  0.75000000  1
  O  O8  1  0.35637178  -0.00000000  0.50000000  1
  O  O9  1  0.35637178  -0.00000000  -0.00000000  1
  O  O10  1  0.00226346  0.38091432  0.44488911  1
  O  O11  1  0.62134914  0.61908568  0.55511089  1
  O  O12  1  0.62134914  0.61908568  0.94488911  1
  O  O13  1  0.00226346  0.38091432  0.05511089  1
