# generated using pymatgen
data_Ge3PbO7
_symmetry_space_group_name_H-M   'P 1'
_cell_length_a   5.26785428
_cell_length_b   14.13886916
_cell_length_c   16.17126778
_cell_angle_alpha   90.00000000
_cell_angle_beta   90.00000000
_cell_angle_gamma   90.00000000
_symmetry_Int_Tables_number   1
_chemical_formula_structural   Ge3PbO7
_chemical_formula_sum   'Ge24 Pb8 O56'
_cell_volume   1204.46032027
_cell_formula_units_Z   8
loop_
 _symmetry_equiv_pos_site_id
 _symmetry_equiv_pos_as_xyz
  1  'x, y, z'
loop_
 _atom_site_type_symbol
 _atom_site_label
 _atom_site_symmetry_multiplicity
 _atom_site_fract_x
 _atom_site_fract_y
 _atom_site_fract_z
 _atom_site_occupancy
  Ge  Ge0  1  0.82890450  0.63640472  0.65841900  1
  Ge  Ge1  1  0.32890450  0.36359528  0.84158100  1
  Ge  Ge2  1  0.67109550  0.13640472  0.34158100  1
  Ge  Ge3  1  0.17109550  0.86359528  0.15841900  1
  Ge  Ge4  1  0.17109550  0.36359528  0.34158100  1
  Ge  Ge5  1  0.67109550  0.63640472  0.15841900  1
  Ge  Ge6  1  0.32890450  0.86359528  0.65841900  1
  Ge  Ge7  1  0.82890450  0.13640472  0.84158100  1
  Ge  Ge8  1  0.84926931  0.96533485  0.59459915  1
  Ge  Ge9  1  0.34926931  0.03466515  0.90540085  1
  Ge  Ge10  1  0.65073069  0.46533485  0.40540085  1
  Ge  Ge11  1  0.15073069  0.53466515  0.09459915  1
  Ge  Ge12  1  0.15073069  0.03466515  0.40540085  1
  Ge  Ge13  1  0.65073069  0.96533485  0.09459915  1
  Ge  Ge14  1  0.34926931  0.53466515  0.59459915  1
  Ge  Ge15  1  0.84926931  0.46533485  0.90540085  1
  Ge  Ge16  1  0.85459754  0.67670439  0.97008892  1
  Ge  Ge17  1  0.35459754  0.32329561  0.52991108  1
  Ge  Ge18  1  0.64540246  0.17670439  0.02991108  1
  Ge  Ge19  1  0.14540246  0.82329561  0.47008892  1
  Ge  Ge20  1  0.14540246  0.32329561  0.02991108  1
  Ge  Ge21  1  0.64540246  0.67670439  0.47008892  1
  Ge  Ge22  1  0.35459754  0.82329561  0.97008892  1
  Ge  Ge23  1  0.85459754  0.17670439  0.52991108  1
  Pb  Pb24  1  0.87024480  0.84860996  0.81310961  1
  Pb  Pb25  1  0.37024480  0.15139004  0.68689039  1
  Pb  Pb26  1  0.62975520  0.34860996  0.18689039  1
  Pb  Pb27  1  0.12975520  0.65139004  0.31310961  1
  Pb  Pb28  1  0.12975520  0.15139004  0.18689039  1
  Pb  Pb29  1  0.62975520  0.84860996  0.31310961  1
  Pb  Pb30  1  0.37024480  0.65139004  0.81310961  1
  Pb  Pb31  1  0.87024480  0.34860996  0.68689039  1
  O  O32  1  0.64156359  0.90668958  0.66390140  1
  O  O33  1  0.14156359  0.09331042  0.83609860  1
  O  O34  1  0.85843641  0.40668958  0.33609860  1
  O  O35  1  0.35843641  0.59331042  0.16390140  1
  O  O36  1  0.35843641  0.09331042  0.33609860  1
  O  O37  1  0.85843641  0.90668958  0.16390140  1
  O  O38  1  0.14156359  0.59331042  0.66390140  1
  O  O39  1  0.64156359  0.40668958  0.83609860  1
  O  O40  1  0.63055124  0.53405240  0.65441298  1
  O  O41  1  0.13055124  0.46594760  0.84558702  1
  O  O42  1  0.86944876  0.03405240  0.34558702  1
  O  O43  1  0.36944876  0.96594760  0.15441298  1
  O  O44  1  0.36944876  0.46594760  0.34558702  1
  O  O45  1  0.86944876  0.53405240  0.15441298  1
  O  O46  1  0.13055124  0.96594760  0.65441298  1
  O  O47  1  0.63055124  0.03405240  0.84558702  1
  O  O48  1  0.57896430  0.74922193  0.91752417  1
  O  O49  1  0.07896430  0.25077807  0.58247583  1
  O  O50  1  0.92103570  0.24922193  0.08247583  1
  O  O51  1  0.42103570  0.75077807  0.41752417  1
  O  O52  1  0.42103570  0.25077807  0.08247583  1
  O  O53  1  0.92103570  0.74922193  0.41752417  1
  O  O54  1  0.07896430  0.75077807  0.91752417  1
  O  O55  1  0.57896430  0.24922193  0.58247583  1
  O  O56  1  0.78140236  0.70180600  0.56793628  1
  O  O57  1  0.28140236  0.29819400  0.93206372  1
  O  O58  1  0.71859764  0.20180600  0.43206372  1
  O  O59  1  0.21859764  0.79819400  0.06793628  1
  O  O60  1  0.21859764  0.29819400  0.43206372  1
  O  O61  1  0.71859764  0.70180600  0.06793628  1
  O  O62  1  0.28140236  0.79819400  0.56793628  1
  O  O63  1  0.78140236  0.20180600  0.93206372  1
  O  O64  1  0.71724037  0.57922966  0.91160467  1
  O  O65  1  0.21724037  0.42077034  0.58839533  1
  O  O66  1  0.78275963  0.07922966  0.08839533  1
  O  O67  1  0.28275963  0.92077034  0.41160467  1
  O  O68  1  0.28275963  0.42077034  0.08839533  1
  O  O69  1  0.78275963  0.57922966  0.41160467  1
  O  O70  1  0.21724037  0.92077034  0.91160467  1
  O  O71  1  0.71724037  0.07922966  0.58839533  1
  O  O72  1  0.61857076  0.90493955  0.00223473  1
  O  O73  1  0.11857076  0.09506045  0.49776527  1
  O  O74  1  0.88142924  0.40493955  0.99776527  1
  O  O75  1  0.38142924  0.59506045  0.50223473  1
  O  O76  1  0.38142924  0.09506045  0.99776527  1
  O  O77  1  0.88142924  0.90493955  0.50223473  1
  O  O78  1  0.11857076  0.59506045  0.00223473  1
  O  O79  1  0.61857076  0.40493955  0.49776527  1
  O  O80  1  0.76297806  0.69572490  0.74894659  1
  O  O81  1  0.26297806  0.30427510  0.75105341  1
  O  O82  1  0.73702194  0.19572490  0.25105341  1
  O  O83  1  0.23702194  0.80427510  0.24894659  1
  O  O84  1  0.23702194  0.30427510  0.25105341  1
  O  O85  1  0.73702194  0.69572490  0.24894659  1
  O  O86  1  0.26297806  0.80427510  0.74894659  1
  O  O87  1  0.76297806  0.19572490  0.75105341  1
