# generated using pymatgen
data_Na7Y3Zn(PO4)6
_symmetry_space_group_name_H-M   'P 1'
_cell_length_a   9.33353017
_cell_length_b   9.33014749
_cell_length_c   22.90550646
_cell_angle_alpha   89.66974660
_cell_angle_beta   90.06901379
_cell_angle_gamma   120.08196445
_symmetry_Int_Tables_number   1
_chemical_formula_structural   Na7Y3Zn(PO4)6
_chemical_formula_sum   'Na21 Y9 Zn3 P18 O72'
_cell_volume   1725.98750889
_cell_formula_units_Z   3
loop_
 _symmetry_equiv_pos_site_id
 _symmetry_equiv_pos_as_xyz
  1  'x, y, z'
loop_
 _atom_site_type_symbol
 _atom_site_label
 _atom_site_symmetry_multiplicity
 _atom_site_fract_x
 _atom_site_fract_y
 _atom_site_fract_z
 _atom_site_occupancy
  Na  Na0  1  0.63548208  0.01522970  0.24206844  1
  Na  Na1  1  0.38120950  0.36263763  0.24404529  1
  Na  Na2  1  0.98198011  0.62231861  0.24156783  1
  Na  Na3  1  0.64033819  0.62209146  0.73998627  1
  Na  Na4  1  0.97888936  0.35803374  0.74296474  1
  Na  Na5  1  0.38479526  0.02155351  0.74040556  1
  Na  Na6  1  0.02600458  0.69616276  0.58731078  1
  Na  Na7  1  0.66614134  0.97112714  0.58646813  1
  Na  Na8  1  0.30797180  0.97396061  0.08762976  1
  Na  Na9  1  0.66776143  0.69394579  0.08803020  1
  Na  Na10  1  0.69312453  0.02685509  0.92023860  1
  Na  Na11  1  0.33523370  0.30354053  0.91834096  1
  Na  Na12  1  0.96887414  0.28613008  0.40692478  1
  Na  Na13  1  0.31512254  0.02724257  0.40778196  1
  Na  Na14  1  0.71873628  0.68894402  0.40651886  1
  Na  Na15  1  0.01435090  0.01342326  0.49211188  1
  Na  Na16  1  0.99992815  0.99897726  0.00088269  1
  Na  Na17  1  0.68156773  0.34730637  0.82791164  1
  Na  Na18  1  0.66616258  0.33302411  0.32152579  1
  Na  Na19  1  0.31362860  0.64748140  0.16406966  1
  Na  Na20  1  0.33399145  0.64866638  0.66334715  1
  Y  Y21  1  0.00100081  0.99074946  0.84925464  1
  Y  Y22  1  0.00938141  0.00919387  0.64894874  1
  Y  Y23  1  0.00032777  0.01124954  0.15150799  1
  Y  Y24  1  0.68303606  0.34327929  0.98443115  1
  Y  Y25  1  0.66013012  0.33399554  0.48457508  1
  Y  Y26  1  0.31826423  0.65749287  0.01810743  1
  Y  Y27  1  0.33260848  0.65750176  0.51760008  1
  Y  Y28  1  0.33446140  0.66814916  0.31815024  1
  Y  Y29  1  0.32675572  0.66755667  0.81731409  1
  Zn  Zn30  1  0.00107271  0.00099922  0.34227302  1
  Zn  Zn31  1  0.65936931  0.33253300  0.67589016  1
  Zn  Zn32  1  0.67401375  0.33151512  0.17650463  1
  P  P33  1  0.30360259  0.00560969  0.25156464  1
  P  P34  1  0.70125322  0.69745202  0.25275937  1
  P  P35  1  0.99408131  0.30115659  0.25573360  1
  P  P36  1  0.31193418  0.30686517  0.75263876  1
  P  P37  1  0.99458587  0.68859138  0.74489599  1
  P  P38  1  0.69616893  0.00382400  0.74898848  1
  P  P39  1  0.96053264  0.33631092  0.58632167  1
  P  P40  1  0.36716638  0.02621123  0.58565841  1
  P  P41  1  0.66765832  0.63681429  0.58692003  1
  P  P42  1  0.96825457  0.63794325  0.09135854  1
  P  P43  1  0.65984825  0.02739244  0.08559577  1
  P  P44  1  0.37711764  0.33553032  0.08598439  1
  P  P45  1  0.63163304  0.66740624  0.91781893  1
  P  P46  1  0.02737075  0.35450796  0.91219738  1
  P  P47  1  0.33712369  0.97630370  0.91811688  1
  P  P48  1  0.64289038  0.97155046  0.41720179  1
  P  P49  1  0.32669916  0.35552779  0.41253356  1
  P  P50  1  0.03017259  0.67221684  0.41737362  1
  O  O51  1  0.21686828  0.02190235  0.30673973  1
  O  O52  1  0.80429773  0.78561318  0.30785656  1
  O  O53  1  0.97871760  0.20383440  0.31261795  1
  O  O54  1  0.23163627  0.21000612  0.81005913  1
  O  O55  1  0.97832712  0.78469602  0.79714137  1
  O  O56  1  0.80105136  0.01882217  0.80386885  1
  O  O57  1  0.78156090  0.98157933  0.69453402  1
  O  O58  1  0.19341928  0.21267843  0.70176437  1
  O  O59  1  0.01661630  0.78960946  0.68857427  1
  O  O60  1  0.78712630  0.80246301  0.19752418  1
  O  O61  1  0.01917973  0.21120312  0.20382567  1
  O  O62  1  0.19872372  0.98604993  0.19651739  1
  O  O63  1  0.87185749  0.35034528  0.64111384  1
  O  O64  1  0.46756690  0.11607373  0.64076875  1
  O  O65  1  0.65637793  0.53920227  0.64303204  1
  O  O66  1  0.88715405  0.54440036  0.14876897  1
  O  O67  1  0.65034356  0.11839794  0.14060316  1
  O  O68  1  0.48212050  0.35141276  0.14065829  1
  O  O69  1  0.46292264  0.32300580  0.02994771  1
  O  O70  1  0.86162316  0.54287958  0.03846284  1
  O  O71  1  0.67199475  0.12361269  0.02889374  1
  O  O72  1  0.45218991  0.12190115  0.52906262  1
  O  O73  1  0.67748470  0.54804010  0.53160887  1
  O  O74  1  0.86136127  0.32432719  0.53062337  1
  O  O75  1  0.53996307  0.68079128  0.97217141  1
  O  O76  1  0.14017523  0.45573079  0.96338551  1
  O  O77  1  0.32592097  0.87468401  0.97323117  1
  O  O78  1  0.55166673  0.86537901  0.47182123  1
  O  O79  1  0.30841499  0.45146121  0.46434993  1
  O  O80  1  0.13408220  0.68730377  0.47243328  1
  O  O81  1  0.11639747  0.64944284  0.36335828  1
  O  O82  1  0.53606226  0.88611644  0.36253582  1
  O  O83  1  0.35061109  0.45599729  0.35574687  1
  O  O84  1  0.10321550  0.44307683  0.85347208  1
  O  O85  1  0.34552615  0.88690622  0.86244073  1
  O  O86  1  0.52895819  0.65402552  0.86272199  1
  O  O87  1  0.01747794  0.83135432  0.41297199  1
  O  O88  1  0.81522352  0.98515370  0.41411979  1
  O  O89  1  0.16976111  0.18125323  0.41125362  1
  O  O90  1  0.01472681  0.18146307  0.91528262  1
  O  O91  1  0.18631219  0.00396060  0.91744489  1
  O  O92  1  0.80363677  0.82783143  0.91589957  1
  O  O93  1  0.97513492  0.17797905  0.58778616  1
  O  O94  1  0.18785645  -0.00402938  0.58627865  1
  O  O95  1  0.82721715  0.81127080  0.58652114  1
  O  O96  1  0.98274142  0.81180849  0.08940351  1
  O  O97  1  0.80779291  -0.00481197  0.08690362  1
  O  O98  1  0.20454174  0.17628057  0.08813887  1
  O  O99  1  0.68060576  0.16130535  0.74566774  1
  O  O100  1  0.48365389  0.32019580  0.74615135  1
  O  O101  1  0.83795396  0.51439931  0.74450248  1
  O  O102  1  0.68205145  0.52271143  0.25005052  1
  O  O103  1  0.83479260  0.31340751  0.24908809  1
  O  O104  1  0.47872959  0.16165702  0.24758017  1
  O  O105  1  0.64631015  0.50976709  0.92011695  1
  O  O106  1  0.85008471  0.32670861  0.91703836  1
  O  O107  1  0.49793669  0.14866072  0.91885200  1
  O  O108  1  0.66337464  0.14722244  0.41969460  1
  O  O109  1  0.48200030  0.33669112  0.41844213  1
  O  O110  1  0.85327071  0.51837825  0.42002396  1
  O  O111  1  0.36026621  0.49358431  0.08366928  1
  O  O112  1  0.14716416  0.66667322  0.08701862  1
  O  O113  1  0.49753359  0.85411416  0.08510380  1
  O  O114  1  0.35541758  0.85288278  0.58484653  1
  O  O115  1  0.51737157  0.66594088  0.58475678  1
  O  O116  1  0.13474132  0.49509206  0.58383890  1
  O  O117  1  0.32338050  0.84888450  0.25364306  1
  O  O118  1  0.52475581  0.67811138  0.25374496  1
  O  O119  1  0.14754194  0.47986478  0.25524110  1
  O  O120  1  0.33561469  0.48455111  0.75274772  1
  O  O121  1  0.15109066  0.67063299  0.75011474  1
  O  O122  1  0.51924273  0.84866289  0.75214276  1
