# generated using pymatgen
data_MgZn2Te2(MoO6)2
_symmetry_space_group_name_H-M   'P 1'
_cell_length_a   5.09127953
_cell_length_b   5.35158822
_cell_length_c   10.22294966
_cell_angle_alpha   91.20852463
_cell_angle_beta   87.95517419
_cell_angle_gamma   91.14581585
_symmetry_Int_Tables_number   1
_chemical_formula_structural   MgZn2Te2(MoO6)2
_chemical_formula_sum   'Mg1 Zn2 Te2 Mo2 O12'
_cell_volume   278.24798248
_cell_formula_units_Z   1
loop_
 _symmetry_equiv_pos_site_id
 _symmetry_equiv_pos_as_xyz
  1  'x, y, z'
loop_
 _atom_site_type_symbol
 _atom_site_label
 _atom_site_symmetry_multiplicity
 _atom_site_fract_x
 _atom_site_fract_y
 _atom_site_fract_z
 _atom_site_occupancy
  Mg  Mg0  1  0.98419900  0.98510700  0.99469000  1
  Zn  Zn1  1  0.49093000  0.49593200  0.51897000  1
  Zn  Zn2  1  0.00400500  0.99615300  0.47650700  1
  Te  Te3  1  0.99623500  0.50068000  0.28168600  1
  Te  Te4  1  0.48728400  0.00044700  0.71417000  1
  Mo  Mo5  1  0.97869100  0.48440500  0.76360000  1
  Mo  Mo6  1  0.47518100  0.03006300  0.22095700  1
  O  O7  1  0.23475300  0.31109400  0.38524600  1
  O  O8  1  0.79267000  0.66690200  0.41732600  1
  O  O9  1  0.70896700  0.67926800  0.69461300  1
  O  O10  1  0.27622300  0.82159200  0.58873400  1
  O  O11  1  0.70416700  0.84873800  0.11266800  1
  O  O12  1  0.86025600  0.23172900  0.87187900  1
  O  O13  1  0.26448600  0.31834900  0.67159100  1
  O  O14  1  0.73467700  0.17664700  0.59721900  1
  O  O15  1  0.24533700  0.81151000  0.31816100  1
  O  O16  1  0.75194300  0.19471800  0.31516500  1
  O  O17  1  0.12165300  0.72565200  0.87385800  1
  O  O18  1  0.25084200  0.15851400  0.10438700  1
