# generated using pymatgen
data_Na6Al4Si5Ge4S7O48
_symmetry_space_group_name_H-M   'P 1'
_cell_length_a   17.06811122
_cell_length_b   8.55074513
_cell_length_c   21.92771239
_cell_angle_alpha   90.12260203
_cell_angle_beta   90.06344499
_cell_angle_gamma   120.26575838
_symmetry_Int_Tables_number   1
_chemical_formula_structural   Na6Al4Si5Ge4S7O48
_chemical_formula_sum   'Na18 Al12 Si15 Ge12 S21 O144'
_cell_volume   2764.02353303
_cell_formula_units_Z   3
loop_
 _symmetry_equiv_pos_site_id
 _symmetry_equiv_pos_as_xyz
  1  'x, y, z'
loop_
 _atom_site_type_symbol
 _atom_site_label
 _atom_site_symmetry_multiplicity
 _atom_site_fract_x
 _atom_site_fract_y
 _atom_site_fract_z
 _atom_site_occupancy
  Na  Na0  1  0.00033609  0.63317219  0.25258040  1
  Na  Na1  1  0.49850083  0.63367606  0.25033910  1
  Na  Na2  1  0.99865590  0.36565275  0.74967366  1
  Na  Na3  1  0.50142401  0.36326591  0.75154015  1
  Na  Na4  1  0.66439463  0.30075740  0.91660352  1
  Na  Na5  1  0.16586279  0.02705361  0.42285184  1
  Na  Na6  1  0.99877654  0.99713082  0.50294562  1
  Na  Na7  1  0.50243793  0.99697648  0.50161200  1
  Na  Na8  1  0.00181607  0.00621986  0.99853580  1
  Na  Na9  1  0.49998526  0.00269788  0.00019957  1
  Na  Na10  1  0.33038176  0.32678721  0.83581760  1
  Na  Na11  1  0.83197028  0.33181225  0.82701741  1
  Na  Na12  1  0.33812677  0.34095886  0.33041123  1
  Na  Na13  1  0.82785711  0.33090065  0.33755520  1
  Na  Na14  1  0.17639202  0.66574608  0.16592449  1
  Na  Na15  1  0.66939106  0.65978226  0.16439085  1
  Na  Na16  1  0.17040773  0.68031519  0.66583222  1
  Na  Na17  1  0.67521205  0.67917345  0.66959528  1
  Al  Al18  1  0.99630408  0.98868647  0.35617373  1
  Al  Al19  1  0.50212852  0.01488850  0.85299224  1
  Al  Al20  1  0.32418770  0.33380401  0.67962201  1
  Al  Al21  1  0.82528896  0.31068146  0.69507260  1
  Al  Al22  1  0.33421187  0.35149121  0.18913632  1
  Al  Al23  1  0.82108808  0.31286391  0.17774486  1
  Al  Al24  1  0.82780265  0.31490925  0.98573585  1
  Al  Al25  1  0.33166193  0.34392695  0.49031832  1
  Al  Al26  1  0.17048430  0.66536428  0.31656266  1
  Al  Al27  1  0.66385791  0.64612761  0.31488805  1
  Al  Al28  1  0.16685585  0.68625693  0.81290005  1
  Al  Al29  1  0.66683284  0.65722374  0.80996799  1
  Si  Si30  1  0.35455092  0.71998811  0.25088735  1
  Si  Si31  1  0.49897443  0.29365737  0.24902778  1
  Si  Si32  1  0.64328159  0.28301133  0.75022660  1
  Si  Si33  1  0.00046675  0.70486575  0.74873463  1
  Si  Si34  1  0.85583968  0.99025667  0.75105257  1
  Si  Si35  1  0.18671194  0.04990807  0.58416441  1
  Si  Si36  1  0.69480623  0.04743174  0.58276592  1
  Si  Si37  1  0.33365712  0.62647985  0.58359609  1
  Si  Si38  1  0.83012247  0.04230147  0.08198565  1
  Si  Si39  1  0.19503225  0.34242057  0.08299418  1
  Si  Si40  1  0.68650137  0.32688020  0.08334418  1
  Si  Si41  1  0.52107898  0.38357889  0.91616162  1
  Si  Si42  1  0.16287660  0.95039501  0.91641374  1
  Si  Si43  1  0.66417506  0.37646755  0.41654750  1
  Si  Si44  1  0.02187052  0.65806573  0.41583379  1
  Ge  Ge45  1  0.49942357  0.01628807  0.34982871  1
  Ge  Ge46  1  0.99942821  0.98194838  0.84903719  1
  Ge  Ge47  1  0.00069365  0.98227831  0.64987712  1
  Ge  Ge48  1  0.50905172  0.99937675  0.64245569  1
  Ge  Ge49  1  0.00134709  0.01611344  0.13887620  1
  Ge  Ge50  1  0.50019291  0.01792494  0.14881950  1
  Ge  Ge51  1  0.32657012  0.31615344  0.97683207  1
  Ge  Ge52  1  0.82697536  0.33983647  0.47880611  1
  Ge  Ge53  1  0.16654035  0.66430946  0.01625833  1
  Ge  Ge54  1  0.66770908  0.65259257  0.02385349  1
  Ge  Ge55  1  0.16547309  0.68090957  0.52722088  1
  Ge  Ge56  1  0.66471465  0.66289509  0.51962548  1
  S  S57  1  0.14358416  0.00315475  0.25016089  1
  S  S58  1  0.64938970  0.00517444  0.25124284  1
  S  S59  1  0.85569841  0.71352499  0.24960815  1
  S  S60  1  0.99869211  0.28435003  0.25146683  1
  S  S61  1  0.14941997  0.29378936  0.75135044  1
  S  S62  1  0.49755725  0.71136956  0.75143230  1
  S  S63  1  0.35427644  0.99683245  0.74964454  1
  S  S64  1  0.47651307  0.33358860  0.58361091  1
  S  S65  1  0.97505402  0.33018074  0.58297284  1
  S  S66  1  0.83266337  0.62008907  0.58392214  1
  S  S67  1  0.47588018  0.62182406  0.08305048  1
  S  S68  1  0.97701643  0.61909939  0.08465203  1
  S  S69  1  0.33225053  0.04579580  0.08412092  1
  S  S70  1  0.31121256  0.66945500  0.91387447  1
  S  S71  1  0.81287717  0.66728497  0.91722877  1
  S  S72  1  0.01978602  0.37636850  0.91607411  1
  S  S73  1  0.66662370  0.94968736  0.91568537  1
  S  S74  1  0.31297154  0.95766903  0.41739531  1
  S  S75  1  0.81044668  0.95232931  0.41411381  1
  S  S76  1  0.16665274  0.37934540  0.41589306  1
  S  S77  1  0.52000343  0.66418151  0.41633018  1
  O  O78  1  0.10187496  0.03247919  0.30547741  1
  O  O79  1  0.60975271  0.03908051  0.30641881  1
  O  O80  1  0.42568231  0.80582066  0.31046940  1
  O  O81  1  0.91573158  0.79835309  0.30387257  1
  O  O82  1  0.47855062  0.16917873  0.30956804  1
  O  O83  1  0.98470114  0.16988467  0.30509584  1
  O  O84  1  0.10984967  0.18040894  0.80661459  1
  O  O85  1  0.59841150  0.16137594  0.81089547  1
  O  O86  1  0.48004509  0.79148764  0.80544650  1
  O  O87  1  0.97969422  0.78773486  0.80971628  1
  O  O88  1  0.41199085  0.03053502  0.80483185  1
  O  O89  1  0.92746849  0.04692018  0.81087527  1
  O  O90  1  0.39201685  0.96527177  0.69428132  1
  O  O91  1  0.90472025  0.96432167  0.68899123  1
  O  O92  1  0.09046210  0.22019399  0.69631432  1
  O  O93  1  0.57085965  0.19171150  0.69087972  1
  O  O94  1  0.02716764  0.83934131  0.69033198  1
  O  O95  1  0.51312712  0.81875794  0.69494468  1
  O  O96  1  0.40386287  0.84208051  0.18924448  1
  O  O97  1  0.89729532  0.82393460  0.19403045  1
  O  O98  1  0.01598673  0.20689741  0.19515046  1
  O  O99  1  0.52498120  0.21290629  0.19039527  1
  O  O100  1  0.08178602  0.95885598  0.19569745  1
  O  O101  1  0.59031897  0.96056486  0.19634365  1
  O  O102  1  0.43782351  0.36387411  0.63992431  1
  O  O103  1  0.93888690  0.36686680  0.63796042  1
  O  O104  1  0.25038640  0.13294300  0.64285334  1
  O  O105  1  0.75604309  0.13582139  0.64118946  1
  O  O106  1  0.31677811  0.50655329  0.64359021  1
  O  O107  1  0.81985080  0.51201275  0.63723142  1
  O  O108  1  0.43839163  0.51136192  0.13908948  1
  O  O109  1  0.93755562  0.51243089  0.14169078  1
  O  O110  1  0.31897082  0.12822002  0.13848791  1
  O  O111  1  0.81743388  0.12622713  0.14438135  1
  O  O112  1  0.25298700  0.36941242  0.14314642  1
  O  O113  1  0.74897722  0.37046208  0.14319038  1
  O  O114  1  0.23669532  0.30322522  0.02211707  1
  O  O115  1  0.73002588  0.30017614  0.02101992  1
  O  O116  1  0.41974518  0.54011388  0.02816129  1
  O  O117  1  0.92189678  0.54008365  0.02981379  1
  O  O118  1  0.35051281  0.15484740  0.02777025  1
  O  O119  1  0.85493094  0.16955476  0.02338484  1
  O  O120  1  0.22948645  0.15956197  0.52021117  1
  O  O121  1  0.73575924  0.16831002  0.52059828  1
  O  O122  1  0.35572527  0.54707997  0.52318919  1
  O  O123  1  0.85154533  0.54943665  0.52624372  1
  O  O124  1  0.42138018  0.30773246  0.52811904  1
  O  O125  1  0.92033056  0.30107704  0.52659992  1
  O  O126  1  0.27436213  0.70589209  0.97154205  1
  O  O127  1  0.77489488  0.70209833  0.97344543  1
  O  O128  1  0.07804581  0.45631684  0.97276999  1
  O  O129  1  0.59009260  0.47206766  0.97545527  1
  O  O130  1  0.14629841  0.82635596  0.97904345  1
  O  O131  1  0.65233869  0.84453906  0.97247843  1
  O  O132  1  0.27361863  0.84651136  0.47205854  1
  O  O133  1  0.77432994  0.84246709  0.47037793  1
  O  O134  1  0.14999050  0.45293389  0.47050381  1
  O  O135  1  0.64660728  0.46762189  0.47803659  1
  O  O136  1  0.09207874  0.70829826  0.47369193  1
  O  O137  1  0.57792597  0.69897309  0.47165574  1
  O  O138  1  0.06796625  0.63339685  0.35371388  1
  O  O139  1  0.56271629  0.64059576  0.36038392  1
  O  O140  1  0.25363554  0.87660136  0.36263432  1
  O  O141  1  0.75275080  0.86821876  0.35986569  1
  O  O142  1  0.18263965  0.49162565  0.36078350  1
  O  O143  1  0.68465730  0.50334483  0.35847191  1
  O  O144  1  0.06337650  0.48612968  0.86123953  1
  O  O145  1  0.56646888  0.50449443  0.85610392  1
  O  O146  1  0.18419553  0.86367864  0.85947683  1
  O  O147  1  0.68247955  0.87062530  0.86194757  1
  O  O148  1  0.25210417  0.63524357  0.86091006  1
  O  O149  1  0.75454109  0.63059657  0.86375689  1
  O  O150  1  0.01363190  0.84220683  0.40727006  1
  O  O151  1  0.51100439  0.82584301  0.41153198  1
  O  O152  1  0.40233204  0.97083200  0.41126758  1
  O  O153  1  0.90257049  0.97379167  0.40626289  1
  O  O154  1  0.08455073  0.19345258  0.40648225  1
  O  O155  1  0.57466065  0.16916921  0.40892421  1
  O  O156  1  0.01087867  0.19671154  0.91237708  1
  O  O157  1  0.51010818  0.18099073  0.91035968  1
  O  O158  1  0.07459288  0.98075538  0.90914778  1
  O  O159  1  0.58413794  0.96965273  0.91060747  1
  O  O160  1  0.40241286  0.83108537  0.90679661  1
  O  O161  1  0.90304979  0.83375306  0.91222230  1
  O  O162  1  0.48481242  0.17108643  0.58707298  1
  O  O163  1  0.98550881  0.16929272  0.58789727  1
  O  O164  1  0.08523932  0.03251551  0.59030110  1
  O  O165  1  0.59308238  0.02299756  0.58800910  1
  O  O166  1  0.42092640  0.83328436  0.59399548  1
  O  O167  1  0.91360385  0.80645087  0.58682350  1
  O  O168  1  0.48495949  0.80252910  0.08947660  1
  O  O169  1  0.98745133  0.80334249  0.09115499  1
  O  O170  1  0.41310390  0.02211451  0.08787027  1
  O  O171  1  0.91827373  0.01052629  0.09046928  1
  O  O172  1  0.09309744  0.15838717  0.09053295  1
  O  O173  1  0.58525223  0.13880898  0.09055749  1
  O  O174  1  0.34766631  0.16490641  0.74453355  1
  O  O175  1  0.85221305  0.17337781  0.74419130  1
  O  O176  1  0.23922130  0.30909547  0.74438737  1
  O  O177  1  0.74115277  0.30841882  0.74244354  1
  O  O178  1  0.41782354  0.52291997  0.74394879  1
  O  O179  1  0.91365298  0.50934263  0.73782874  1
  O  O180  1  0.34740983  0.52397494  0.24436790  1
  O  O181  1  0.84898903  0.53304513  0.24448926  1
  O  O182  1  0.40969784  0.31157610  0.23884565  1
  O  O183  1  0.91893274  0.30927493  0.24493984  1
  O  O184  1  0.23338350  0.16229719  0.24312148  1
  O  O185  1  0.73964039  0.17063339  0.24427219  1
  O  O186  1  0.31992908  0.50743661  0.92147207  1
  O  O187  1  0.82309862  0.50465728  0.92429308  1
  O  O188  1  0.42207636  0.36725014  0.92807203  1
  O  O189  1  0.93134310  0.36759470  0.92358375  1
  O  O190  1  0.25285335  0.15091650  0.92306850  1
  O  O191  1  0.74778002  0.13957736  0.92148128  1
  O  O192  1  0.32302360  0.14078769  0.42283995  1
  O  O193  1  0.82146884  0.13344080  0.42047122  1
  O  O194  1  0.24726282  0.35391494  0.42016102  1
  O  O195  1  0.75391699  0.35619821  0.42304540  1
  O  O196  1  0.43066240  0.49523330  0.42274456  1
  O  O197  1  0.92260850  0.47898458  0.42700035  1
  O  O198  1  0.17838875  0.51784579  0.07189799  1
  O  O199  1  0.67468303  0.50492167  0.07852126  1
  O  O200  1  0.06851696  0.63846545  0.07991540  1
  O  O201  1  0.56732714  0.64242379  0.07711979  1
  O  O202  1  0.24948195  0.86228613  0.07774257  1
  O  O203  1  0.73927663  0.84290607  0.07262225  1
  O  O204  1  0.17443938  0.84739985  0.57913586  1
  O  O205  1  0.67937586  0.83850644  0.57141402  1
  O  O206  1  0.24059602  0.63793143  0.57210559  1
  O  O207  1  0.74979553  0.63673913  0.57671679  1
  O  O208  1  0.06814157  0.49419657  0.57606313  1
  O  O209  1  0.56841235  0.50015152  0.57867665  1
  O  O210  1  0.15130322  0.83832878  0.25651346  1
  O  O211  1  0.65885959  0.84348131  0.25987802  1
  O  O212  1  0.25525991  0.69820956  0.26094918  1
  O  O213  1  0.76681362  0.69847856  0.25688319  1
  O  O214  1  0.08052832  0.46770048  0.25652287  1
  O  O215  1  0.58615785  0.49852811  0.25770444  1
  O  O216  1  0.15858534  0.47411952  0.76020861  1
  O  O217  1  0.64802131  0.47797530  0.75594085  1
  O  O218  1  0.08792809  0.67684752  0.75754279  1
  O  O219  1  0.57946448  0.69538358  0.75717337  1
  O  O220  1  0.26414821  0.83321517  0.75772071  1
  O  O221  1  0.75693953  0.81901578  0.76155544  1
