# generated using pymatgen
data_Na7Nb3Zn(SiO4)6
_symmetry_space_group_name_H-M   'P 1'
_cell_length_a   9.13772168
_cell_length_b   9.13772136
_cell_length_c   22.47513332
_cell_angle_alpha   90.00000000
_cell_angle_beta   90.00000000
_cell_angle_gamma   120.00000115
_symmetry_Int_Tables_number   1
_chemical_formula_structural   Na7Nb3Zn(SiO4)6
_chemical_formula_sum   'Na21 Nb9 Zn3 Si18 O72'
_cell_volume   1625.20720935
_cell_formula_units_Z   3
loop_
 _symmetry_equiv_pos_site_id
 _symmetry_equiv_pos_as_xyz
  1  'x, y, z'
loop_
 _atom_site_type_symbol
 _atom_site_label
 _atom_site_symmetry_multiplicity
 _atom_site_fract_x
 _atom_site_fract_y
 _atom_site_fract_z
 _atom_site_occupancy
  Na  Na0  1  0.64037539  0.02349954  0.24382078  1
  Na  Na1  1  0.38312415  0.35962461  0.24382078  1
  Na  Na2  1  0.97650046  0.61687585  0.24382078  1
  Na  Na3  1  0.63086721  0.61061522  0.74533214  1
  Na  Na4  1  0.97974801  0.36913279  0.74533214  1
  Na  Na5  1  0.38938478  0.02025199  0.74533214  1
  Na  Na6  1  0.30964189  0.33576148  0.58600428  1
  Na  Na7  1  0.02612059  0.69035811  0.58600428  1
  Na  Na8  1  0.66423852  0.97387941  0.58600428  1
  Na  Na9  1  0.31241286  0.97649114  0.08647628  1
  Na  Na10  1  0.66407928  0.68758714  0.08647628  1
  Na  Na11  1  0.02350886  0.33592072  0.08647628  1
  Na  Na12  1  0.96447694  0.27820475  0.40635406  1
  Na  Na13  1  0.31372681  0.03552306  0.40635406  1
  Na  Na14  1  0.72179525  0.68627319  0.40635406  1
  Na  Na15  1  0.00000000  0.00000000  0.49105797  1
  Na  Na16  1  0.00000000  0.00000000  0.99804315  1
  Na  Na17  1  0.66666700  0.33333300  0.83065654  1
  Na  Na18  1  0.66666700  0.33333300  0.32037812  1
  Na  Na19  1  0.33333300  0.66666700  0.16585390  1
  Na  Na20  1  0.33333300  0.66666700  0.66848852  1
  Nb  Nb21  1  0.00000000  0.00000000  0.85752902  1
  Nb  Nb22  1  0.00000000  -0.00000000  0.64666072  1
  Nb  Nb23  1  0.00000000  -0.00000000  0.14908924  1
  Nb  Nb24  1  0.66666700  0.33333300  0.97795032  1
  Nb  Nb25  1  0.66666700  0.33333300  0.47941040  1
  Nb  Nb26  1  0.33333300  0.66666700  0.01771346  1
  Nb  Nb27  1  0.33333300  0.66666700  0.51935334  1
  Nb  Nb28  1  0.33333300  0.66666700  0.30998326  1
  Nb  Nb29  1  0.33333300  0.66666700  0.81404843  1
  Zn  Zn30  1  0.00000000  -0.00000000  0.34811967  1
  Zn  Zn31  1  0.66666700  0.33333300  0.68470913  1
  Zn  Zn32  1  0.66666700  0.33333300  0.18130608  1
  Si  Si33  1  0.29266830  0.00161700  0.25399192  1
  Si  Si34  1  0.70894870  0.70733170  0.25399192  1
  Si  Si35  1  0.99838300  0.29105130  0.25399192  1
  Si  Si36  1  0.28904598  0.29109646  0.75148477  1
  Si  Si37  1  0.00205048  0.71095402  0.75148477  1
  Si  Si38  1  0.70890354  0.99794952  0.75148477  1
  Si  Si39  1  0.95771601  0.33451128  0.58605407  1
  Si  Si40  1  0.37679627  0.04228399  0.58605407  1
  Si  Si41  1  0.66548872  0.62320373  0.58605407  1
  Si  Si42  1  0.95837769  0.62429332  0.08470286  1
  Si  Si43  1  0.66591663  0.04162231  0.08470286  1
  Si  Si44  1  0.37570668  0.33408337  0.08470286  1
  Si  Si45  1  0.62574954  0.66428462  0.91621496  1
  Si  Si46  1  0.03853408  0.37425046  0.91621496  1
  Si  Si47  1  0.33571538  0.96146592  0.91621496  1
  Si  Si48  1  0.62270408  0.95970040  0.41640324  1
  Si  Si49  1  0.33699532  0.37729592  0.41640324  1
  Si  Si50  1  0.04029960  0.66300468  0.41640324  1
  O  O51  1  0.21168907  0.02933884  0.31319118  1
  O  O52  1  0.81764977  0.78831093  0.31319118  1
  O  O53  1  0.97066116  0.18235023  0.31319118  1
  O  O54  1  0.18365730  0.16878129  0.80700302  1
  O  O55  1  0.98512400  0.81634270  0.80700302  1
  O  O56  1  0.83121871  0.01487600  0.80700302  1
  O  O57  1  0.80174039  0.97044985  0.69063472  1
  O  O58  1  0.16870946  0.19825961  0.69063472  1
  O  O59  1  0.02955015  0.83129054  0.69063472  1
  O  O60  1  0.80475858  0.83283310  0.19395151  1
  O  O61  1  0.02807451  0.19524142  0.19395151  1
  O  O62  1  0.16716690  0.97192549  0.19395151  1
  O  O63  1  0.88898312  0.38089786  0.64444079  1
  O  O64  1  0.49191574  0.11101688  0.64444079  1
  O  O65  1  0.61910214  0.50808426  0.64444079  1
  O  O66  1  0.89339214  0.51215608  0.14395304  1
  O  O67  1  0.61876494  0.10660786  0.14395304  1
  O  O68  1  0.48784392  0.38123506  0.14395304  1
  O  O69  1  0.47232634  0.30257465  0.02792078  1
  O  O70  1  0.83024930  0.52767366  0.02792078  1
  O  O71  1  0.69742535  0.16975070  0.02792078  1
  O  O72  1  0.47046098  0.16630177  0.52743439  1
  O  O73  1  0.69584178  0.52953902  0.52743439  1
  O  O74  1  0.83369823  0.30415822  0.52743439  1
  O  O75  1  0.52827622  0.68657207  0.97411539  1
  O  O76  1  0.15829485  0.47172378  0.97411539  1
  O  O77  1  0.31342793  0.84170515  0.97411539  1
  O  O78  1  0.51894378  0.84386657  0.47540209  1
  O  O79  1  0.32492179  0.48105622  0.47540209  1
  O  O80  1  0.15613343  0.67507821  0.47540209  1
  O  O81  1  0.13455659  0.63312261  0.35875205  1
  O  O82  1  0.49856503  0.86544341  0.35875205  1
  O  O83  1  0.36687739  0.50143497  0.35875205  1
  O  O84  1  0.13758418  0.49517416  0.85734323  1
  O  O85  1  0.35758898  0.86241582  0.85734323  1
  O  O86  1  0.50482584  0.64241102  0.85734323  1
  O  O87  1  0.02250759  0.82833963  0.41810423  1
  O  O88  1  0.80583204  0.97749241  0.41810423  1
  O  O89  1  0.17166037  0.19416796  0.41810423  1
  O  O90  1  0.02323400  0.18860020  0.91113705  1
  O  O91  1  0.16536620  0.97676600  0.91113705  1
  O  O92  1  0.81139980  0.83463380  0.91113705  1
  O  O93  1  0.97307176  0.16069291  0.58814350  1
  O  O94  1  0.18762115  0.02692824  0.58814350  1
  O  O95  1  0.83930709  0.81237885  0.58814350  1
  O  O96  1  0.97579854  0.81425895  0.08856161  1
  O  O97  1  0.83846041  0.02420146  0.08856161  1
  O  O98  1  0.18574105  0.16153959  0.08856161  1
  O  O99  1  0.69085264  0.16384433  0.74927524  1
  O  O100  1  0.47299269  0.30914736  0.74927524  1
  O  O101  1  0.83615567  0.52700731  0.74927524  1
  O  O102  1  0.67888520  0.51963557  0.24587400  1
  O  O103  1  0.84075137  0.32111480  0.24587400  1
  O  O104  1  0.48036443  0.15924863  0.24587400  1
  O  O105  1  0.63979864  0.49411299  0.92249531  1
  O  O106  1  0.85431535  0.36020136  0.92249531  1
  O  O107  1  0.50588701  0.14568465  0.92249531  1
  O  O108  1  0.63078598  0.14460042  0.42271438  1
  O  O109  1  0.51381543  0.36921402  0.42271438  1
  O  O110  1  0.85539958  0.48618457  0.42271438  1
  O  O111  1  0.34319519  0.49655104  0.07426858  1
  O  O112  1  0.15335485  0.65680481  0.07426858  1
  O  O113  1  0.50344896  0.84664515  0.07426858  1
  O  O114  1  0.34213673  0.84725354  0.57635556  1
  O  O115  1  0.50511581  0.65786327  0.57635556  1
  O  O116  1  0.15274646  0.49488419  0.57635556  1
  O  O117  1  0.29587572  0.81887550  0.25484680  1
  O  O118  1  0.52299878  0.70412428  0.25484680  1
  O  O119  1  0.18112450  0.47700122  0.25484680  1
  O  O120  1  0.29717307  0.47691572  0.75379147  1
  O  O121  1  0.17974165  0.70282693  0.75379147  1
  O  O122  1  0.52308428  0.82025835  0.75379147  1
