# generated using pymatgen
data_Na3Hf2Zn2P3(SO8)3
_symmetry_space_group_name_H-M   'P 1'
_cell_length_a   8.86518833
_cell_length_b   8.85705454
_cell_length_c   22.85561381
_cell_angle_alpha   90.08088843
_cell_angle_beta   89.85448936
_cell_angle_gamma   119.89559860
_symmetry_Int_Tables_number   1
_chemical_formula_structural   Na3Hf2Zn2P3(SO8)3
_chemical_formula_sum   'Na9 Hf6 Zn6 P9 S9 O72'
_cell_volume   1555.80557881
_cell_formula_units_Z   3
loop_
 _symmetry_equiv_pos_site_id
 _symmetry_equiv_pos_as_xyz
  1  'x, y, z'
loop_
 _atom_site_type_symbol
 _atom_site_label
 _atom_site_symmetry_multiplicity
 _atom_site_fract_x
 _atom_site_fract_y
 _atom_site_fract_z
 _atom_site_occupancy
  Na  Na0  1  0.66252773  0.68978963  0.08074335  1
  Na  Na1  1  0.33261407  0.29726177  0.91736046  1
  Na  Na2  1  0.33194432  0.03485439  0.41742032  1
  Na  Na3  1  0.99431862  0.00015549  0.49747917  1
  Na  Na4  1  0.00313013  0.99716973  0.99703461  1
  Na  Na5  1  0.67799346  0.33458599  0.83468974  1
  Na  Na6  1  0.67720412  0.34209754  0.33425242  1
  Na  Na7  1  0.31808133  0.65970634  0.16288898  1
  Na  Na8  1  0.33438706  0.67305056  0.66218531  1
  Hf  Hf9  1  0.00601954  0.00014577  0.64919139  1
  Hf  Hf10  1  0.01126323  0.00495535  0.14975426  1
  Hf  Hf11  1  0.66051819  0.32568699  0.68672177  1
  Hf  Hf12  1  0.66879267  0.33938739  0.18668921  1
  Hf  Hf13  1  0.33245918  0.66321411  0.31149194  1
  Hf  Hf14  1  0.33287232  0.67002684  0.81117983  1
  Zn  Zn15  1  0.99435844  0.00015406  0.34384548  1
  Zn  Zn16  1  0.99362024  0.99426701  0.84352215  1
  Zn  Zn17  1  0.67209792  0.33944736  0.98718806  1
  Zn  Zn18  1  0.66459721  0.33217861  0.48639440  1
  Zn  Zn19  1  0.31518395  0.65756226  0.01977280  1
  Zn  Zn20  1  0.33492960  0.67485636  0.51930728  1
  P  P21  1  0.29397147  0.00227978  0.25357263  1
  P  P22  1  0.71152385  0.71163260  0.25089700  1
  P  P23  1  0.99716466  0.28878903  0.25194897  1
  P  P24  1  0.29044900  0.29002322  0.75292428  1
  P  P25  1  0.99633759  0.70721037  0.75148376  1
  P  P26  1  0.71265497  0.00097463  0.75127001  1
  P  P27  1  0.37434100  0.03773644  0.58003988  1
  P  P28  1  0.96110445  0.62511933  0.08186715  1
  P  P29  1  0.37420207  0.33362495  0.08002402  1
  S  S30  1  0.95962590  0.33451474  0.58204939  1
  S  S31  1  0.66560034  0.62472429  0.58221701  1
  S  S32  1  0.66641459  0.04143652  0.08232981  1
  S  S33  1  0.62862017  0.67057068  0.91814766  1
  S  S34  1  0.03793264  0.37231412  0.91717106  1
  S  S35  1  0.33400753  0.95970581  0.91825130  1
  S  S36  1  0.62901682  0.95854095  0.41767495  1
  S  S37  1  0.33306317  0.37521560  0.41868242  1
  S  S38  1  0.03786511  0.66423553  0.41804000  1
  O  O39  1  0.22155630  0.03367611  0.30971496  1
  O  O40  1  0.82037894  0.78672509  0.30495843  1
  O  O41  1  0.96634707  0.18352775  0.30684749  1
  O  O42  1  0.22047232  0.18717570  0.80925697  1
  O  O43  1  0.96414333  0.78125118  0.80644544  1
  O  O44  1  0.81848139  0.03562975  0.80627261  1
  O  O45  1  0.79590504  0.97160135  0.69596353  1
  O  O46  1  0.17500916  0.20305082  0.69842265  1
  O  O47  1  0.02798803  0.82247026  0.69637271  1
  O  O48  1  0.79055472  0.81962443  0.19399261  1
  O  O49  1  0.02747730  0.20518866  0.19662352  1
  O  O50  1  0.17722599  0.97204120  0.19895232  1
  O  O51  1  0.87337991  0.35697265  0.63509686  1
  O  O52  1  0.49058232  0.13583307  0.63412082  1
  O  O53  1  0.64674167  0.51779370  0.63520300  1
  O  O54  1  0.86897036  0.51142264  0.13680286  1
  O  O55  1  0.64456182  0.12577540  0.13540121  1
  O  O56  1  0.49306830  0.35723107  0.13379857  1
  O  O57  1  0.44638577  0.29940857  0.02358665  1
  O  O58  1  0.84432969  0.55140223  0.02811427  1
  O  O59  1  0.69713919  0.14566177  0.02968257  1
  O  O60  1  0.44753580  0.14501819  0.52382357  1
  O  O61  1  0.69912373  0.55128713  0.52959065  1
  O  O62  1  0.85431140  0.30461844  0.52945957  1
  O  O63  1  0.54749167  0.69126585  0.97208717  1
  O  O64  1  0.14949716  0.45272476  0.96900803  1
  O  O65  1  0.31235498  0.85402008  0.97032051  1
  O  O66  1  0.54605030  0.85319000  0.47020786  1
  O  O67  1  0.31100870  0.45958071  0.47080759  1
  O  O68  1  0.14934792  0.69376901  0.46971489  1
  O  O69  1  0.12708277  0.64308840  0.36448613  1
  O  O70  1  0.51297899  0.86995958  0.36498786  1
  O  O71  1  0.35314045  0.48324987  0.36499348  1
  O  O72  1  0.12792273  0.48357760  0.86406033  1
  O  O73  1  0.35310118  0.87073921  0.86454769  1
  O  O74  1  0.51130484  0.64565421  0.86620892  1
  O  O75  1  0.02633505  0.82549086  0.41135569  1
  O  O76  1  0.80210248  0.97772140  0.41063049  1
  O  O77  1  0.17882867  0.19809788  0.41272349  1
  O  O78  1  0.02696048  0.19976240  0.91060726  1
  O  O79  1  0.17895849  0.98192628  0.91239960  1
  O  O80  1  0.80160190  0.82456744  0.91098500  1
  O  O81  1  0.97499885  0.17390431  0.59040314  1
  O  O82  1  0.19122526  0.02187658  0.59053355  1
  O  O83  1  0.82327438  0.80243935  0.59042757  1
  O  O84  1  0.97115145  0.80695488  0.09160644  1
  O  O85  1  0.82373792  0.01865951  0.09010075  1
  O  O86  1  0.19044271  0.17212811  0.09040634  1
  O  O87  1  0.68623866  0.16038337  0.74110301  1
  O  O88  1  0.47453087  0.31505558  0.74142669  1
  O  O89  1  0.83890935  0.52365806  0.73997594  1
  O  O90  1  0.68459862  0.52533379  0.24193043  1
  O  O91  1  0.83824796  0.31364184  0.24154805  1
  O  O92  1  0.47615758  0.16020955  0.24152505  1
  O  O93  1  0.63513569  0.50503575  0.91934586  1
  O  O94  1  0.86559296  0.35781403  0.92126588  1
  O  O95  1  0.49293312  0.13550363  0.92011881  1
  O  O96  1  0.63638557  0.13119543  0.42032649  1
  O  O97  1  0.49249740  0.35808951  0.42036367  1
  O  O98  1  0.86527551  0.50621607  0.42210820  1
  O  O99  1  0.36547932  0.50369841  0.07796775  1
  O  O100  1  0.14333983  0.64836008  0.07878119  1
  O  O101  1  0.51341348  0.86384050  0.07871735  1
  O  O102  1  0.35541964  0.85577637  0.57850175  1
  O  O103  1  0.50830280  0.64070088  0.57869572  1
  O  O104  1  0.13480994  0.48868081  0.57853362  1
  O  O105  1  0.31177380  0.83614990  0.25805230  1
  O  O106  1  0.52603229  0.68981945  0.25737228  1
  O  O107  1  0.16250607  0.47397142  0.25711265  1
  O  O108  1  0.31117942  0.47498882  0.75779804  1
  O  O109  1  0.16239425  0.68859017  0.75693243  1
  O  O110  1  0.52680132  0.83731596  0.75734604  1
