# generated using pymatgen
data_Na2CaZn(SO4)3
_symmetry_space_group_name_H-M   'P 1'
_cell_length_a   9.07096038
_cell_length_b   9.02256911
_cell_length_c   23.15165868
_cell_angle_alpha   90.24173474
_cell_angle_beta   89.80754083
_cell_angle_gamma   119.97182886
_symmetry_Int_Tables_number   1
_chemical_formula_structural   Na2CaZn(SO4)3
_chemical_formula_sum   'Na12 Ca6 Zn6 S18 O72'
_cell_volume   1641.40263194
_cell_formula_units_Z   6
loop_
 _symmetry_equiv_pos_site_id
 _symmetry_equiv_pos_as_xyz
  1  'x, y, z'
loop_
 _atom_site_type_symbol
 _atom_site_label
 _atom_site_symmetry_multiplicity
 _atom_site_fract_x
 _atom_site_fract_y
 _atom_site_fract_z
 _atom_site_occupancy
  Na  Na0  1  0.36263768  0.36267609  0.25010526  1
  Na  Na1  1  0.64343815  0.64048346  0.74543802  1
  Na  Na2  1  0.02375245  0.69380471  0.58785250  1
  Na  Na3  1  0.30688242  0.97579194  0.08906341  1
  Na  Na4  1  0.68817540  0.02153893  0.91661223  1
  Na  Na5  1  0.97499857  0.30553038  0.41094633  1
  Na  Na6  1  0.99989950  0.99990891  0.49959113  1
  Na  Na7  1  0.99856219  0.00080002  0.00346078  1
  Na  Na8  1  0.66747662  0.33192780  0.83036914  1
  Na  Na9  1  0.66825192  0.33237807  0.32864400  1
  Na  Na10  1  0.33267031  0.66868727  0.17219057  1
  Na  Na11  1  0.33370763  0.66670901  0.66577160  1
  Ca  Ca12  1  0.01634520  0.00638370  0.84580766  1
  Ca  Ca13  1  0.67243793  0.34956408  0.98826325  1
  Ca  Ca14  1  0.65118798  0.32731303  0.48235011  1
  Ca  Ca15  1  0.32747778  0.65039477  0.02064023  1
  Ca  Ca16  1  0.34830765  0.67271833  0.51584362  1
  Ca  Ca17  1  0.31728270  0.65994611  0.81370707  1
  Zn  Zn18  1  0.99487542  0.98497849  0.34321772  1
  Zn  Zn19  1  0.00564994  0.01545423  0.65278850  1
  Zn  Zn20  1  0.98506324  0.99420630  0.15749541  1
  Zn  Zn21  1  0.66094995  0.31813895  0.67888050  1
  Zn  Zn22  1  0.68365208  0.34083728  0.18321845  1
  Zn  Zn23  1  0.33926430  0.68340018  0.31777887  1
  S  S24  1  0.29779217  0.00037027  0.24873199  1
  S  S25  1  0.69855301  0.69856934  0.25010071  1
  S  S26  1  0.00085191  0.29803151  0.25168169  1
  S  S27  1  0.31422557  0.30267871  0.74332918  1
  S  S28  1  0.98841630  0.69030338  0.74108777  1
  S  S29  1  0.70415423  0.00724738  0.74722479  1
  S  S30  1  0.96165191  0.32704488  0.58460231  1
  S  S31  1  0.35475185  0.03178711  0.58842861  1
  S  S32  1  0.67678054  0.64075186  0.59051347  1
  S  S33  1  0.96822059  0.64713939  0.09130286  1
  S  S34  1  0.67487059  0.03887196  0.08752978  1
  S  S35  1  0.35904629  0.32109907  0.09404887  1
  S  S36  1  0.63713142  0.66894626  0.91240744  1
  S  S37  1  0.02078216  0.35462623  0.91687683  1
  S  S38  1  0.33579130  0.97079955  0.92115957  1
  S  S39  1  0.64483718  0.96648637  0.40990619  1
  S  S40  1  0.32208483  0.36084127  0.40731678  1
  S  S41  1  0.03973105  0.67405801  0.41374745  1
  O  O42  1  0.20861055  0.02785446  0.29831021  1
  O  O43  1  0.79931882  0.77988181  0.30258798  1
  O  O44  1  0.97757614  0.20111083  0.30626847  1
  O  O45  1  0.23764515  0.21431063  0.79795401  1
  O  O46  1  0.96934469  0.77535766  0.79332247  1
  O  O47  1  0.78930802  0.02385403  0.80367547  1
  O  O48  1  0.80306535  0.98822232  0.69940467  1
  O  O49  1  0.20900444  0.21153537  0.69299975  1
  O  O50  1  0.00360301  0.79190917  0.68865843  1
  O  O51  1  0.77961305  0.79927151  0.19762698  1
  O  O52  1  0.02778607  0.20858547  0.20196480  1
  O  O53  1  0.20183887  0.97730303  0.19409084  1
  O  O54  1  0.86562178  0.34731293  0.63315920  1
  O  O55  1  0.45774948  0.11975353  0.63954024  1
  O  O56  1  0.66079691  0.54116023  0.64356786  1
  O  O57  1  0.87710122  0.54068546  0.14146169  1
  O  O58  1  0.65523742  0.13869332  0.13520913  1
  O  O59  1  0.46145035  0.33672371  0.14632421  1
  O  O60  1  0.44132883  0.30021322  0.04139862  1
  O  O61  1  0.88017370  0.57183929  0.03647571  1
  O  O62  1  0.69238463  0.12398639  0.03089799  1
  O  O63  1  0.43419127  0.12341785  0.53446176  1
  O  O64  1  0.69619923  0.55344565  0.53888224  1
  O  O65  1  0.87408465  0.30965379  0.52858661  1
  O  O66  1  0.54088025  0.67912168  0.96273574  1
  O  O67  1  0.11398448  0.44322988  0.96947359  1
  O  O68  1  0.32758404  0.88136663  0.97588949  1
  O  O69  1  0.56706331  0.87565449  0.46416354  1
  O  O70  1  0.30130681  0.44553922  0.45948871  1
  O  O71  1  0.12668978  0.69245563  0.47000347  1
  O  O72  1  0.13623715  0.65245389  0.36547942  1
  O  O73  1  0.54027184  0.87771806  0.35902887  1
  O  O74  1  0.33913849  0.46241694  0.35447227  1
  O  O75  1  0.10840638  0.44710204  0.86412126  1
  O  O76  1  0.34535534  0.87419349  0.87070842  1
  O  O77  1  0.54855098  0.66105273  0.85759594  1
  O  O78  1  0.01792589  0.82506346  0.40617974  1
  O  O79  1  0.81970018  0.98769725  0.40596242  1
  O  O80  1  0.16286609  0.18944996  0.40423873  1
  O  O81  1  0.99800296  0.17845281  0.91702553  1
  O  O82  1  0.18563461  0.99335992  0.91808910  1
  O  O83  1  0.80605307  0.82996631  0.91362322  1
  O  O84  1  0.98409573  0.17620210  0.59139744  1
  O  O85  1  0.17947513  0.00993777  0.59149438  1
  O  O86  1  0.83541464  0.81256864  0.59249441  1
  O  O87  1  0.98959320  0.82290829  0.09538701  1
  O  O88  1  0.82488255  0.01676193  0.09498690  1
  O  O89  1  0.18811856  0.16224439  0.09694693  1
  O  O90  1  0.68210460  0.15818757  0.74047577  1
  O  O91  1  0.48921143  0.32445396  0.74015302  1
  O  O92  1  0.83027905  0.51867075  0.73903524  1
  O  O93  1  0.67479037  0.52056290  0.24597888  1
  O  O94  1  0.84926638  0.31914180  0.24429198  1
  O  O95  1  0.46935955  0.16028884  0.24589475  1
  O  O96  1  0.65893644  0.51764567  0.91545082  1
  O  O97  1  0.84571405  0.33217398  0.91686268  1
  O  O98  1  0.49659545  0.14009857  0.92007781  1
  O  O99  1  0.66904408  0.14409064  0.41183167  1
  O  O100  1  0.47366397  0.34022562  0.41173534  1
  O  O101  1  0.87015849  0.51185397  0.41471482  1
  O  O102  1  0.33961418  0.47418564  0.09067194  1
  O  O103  1  0.14442822  0.67066476  0.09027798  1
  O  O104  1  0.51328251  0.86884615  0.08744677  1
  O  O105  1  0.33018841  0.85410263  0.58675101  1
  O  O106  1  0.52492540  0.66103285  0.58646346  1
  O  O107  1  0.13125648  0.48903372  0.58393217  1
  O  O108  1  0.31815970  0.84748870  0.25615266  1
  O  O109  1  0.52190197  0.67492067  0.25420266  1
  O  O110  1  0.16063960  0.47000570  0.25472967  1
  O  O111  1  0.33839418  0.48009978  0.74397231  1
  O  O112  1  0.14052357  0.67045461  0.74414217  1
  O  O113  1  0.53467697  0.84554681  0.74690590  1
