# generated using pymatgen
data_Na6Nb4Zn2Si6(SO12)3
_symmetry_space_group_name_H-M   'P 1'
_cell_length_a   9.00242678
_cell_length_b   9.00242647
_cell_length_c   22.65985591
_cell_angle_alpha   90.00000000
_cell_angle_beta   90.00000000
_cell_angle_gamma   120.00000114
_symmetry_Int_Tables_number   1
_chemical_formula_structural   Na6Nb4Zn2Si6(SO12)3
_chemical_formula_sum   'Na12 Nb8 Zn4 Si12 S6 O72'
_cell_volume   1590.40213953
_cell_formula_units_Z   2
loop_
 _symmetry_equiv_pos_site_id
 _symmetry_equiv_pos_as_xyz
  1  'x, y, z'
loop_
 _atom_site_type_symbol
 _atom_site_label
 _atom_site_symmetry_multiplicity
 _atom_site_fract_x
 _atom_site_fract_y
 _atom_site_fract_z
 _atom_site_occupancy
  Na  Na0  1  0.96695368  0.67858655  0.91567429  1
  Na  Na1  1  0.71163187  0.03304632  0.91567429  1
  Na  Na2  1  0.32141345  0.28836813  0.91567429  1
  Na  Na3  1  0.96695368  0.28836813  0.41567429  1
  Na  Na4  1  0.32141345  0.03304632  0.41567429  1
  Na  Na5  1  0.71163187  0.67858655  0.41567429  1
  Na  Na6  1  -0.00000000  0.00000000  0.49370563  1
  Na  Na7  1  -0.00000000  0.00000000  0.99370563  1
  Na  Na8  1  0.66666700  0.33333300  0.82610566  1
  Na  Na9  1  0.66666700  0.33333300  0.32610566  1
  Na  Na10  1  0.33333300  0.66666700  0.16305328  1
  Na  Na11  1  0.33333300  0.66666700  0.66305328  1
  Nb  Nb12  1  -0.00000000  -0.00000000  0.63971768  1
  Nb  Nb13  1  -0.00000000  -0.00000000  0.13971768  1
  Nb  Nb14  1  0.66666700  0.33333300  0.98274724  1
  Nb  Nb15  1  0.66666700  0.33333300  0.48274724  1
  Nb  Nb16  1  0.33333300  0.66666700  0.02290225  1
  Nb  Nb17  1  0.33333300  0.66666700  0.52290225  1
  Nb  Nb18  1  0.33333300  0.66666700  0.31462601  1
  Nb  Nb19  1  0.33333300  0.66666700  0.81462601  1
  Zn  Zn20  1  -0.00000000  -0.00000000  0.35360069  1
  Zn  Zn21  1  -0.00000000  -0.00000000  0.85360069  1
  Zn  Zn22  1  0.66666700  0.33333300  0.67277423  1
  Zn  Zn23  1  0.66666700  0.33333300  0.17277423  1
  Si  Si24  1  0.95630711  0.33882344  0.58669329  1
  Si  Si25  1  0.38251734  0.04369289  0.58669329  1
  Si  Si26  1  0.66117656  0.61748266  0.58669329  1
  Si  Si27  1  0.95630711  0.61748266  0.08669329  1
  Si  Si28  1  0.66117656  0.04369289  0.08669329  1
  Si  Si29  1  0.38251734  0.33882344  0.08669329  1
  Si  Si30  1  0.62342747  0.66542974  0.91692142  1
  Si  Si31  1  0.04200127  0.37657253  0.91692142  1
  Si  Si32  1  0.33457026  0.95799873  0.91692142  1
  Si  Si33  1  0.62342747  0.95799873  0.41692142  1
  Si  Si34  1  0.33457026  0.37657253  0.41692142  1
  Si  Si35  1  0.04200127  0.66542974  0.41692142  1
  S  S36  1  0.29125090  0.00032504  0.25165566  1
  S  S37  1  0.70907413  0.70874910  0.25165566  1
  S  S38  1  0.99967496  0.29092587  0.25165566  1
  S  S39  1  0.29125090  0.29092587  0.75165566  1
  S  S40  1  0.99967496  0.70874910  0.75165566  1
  S  S41  1  0.70907413  0.00032504  0.75165566  1
  O  O42  1  0.21020373  0.01359436  0.30642128  1
  O  O43  1  0.80339063  0.78979627  0.30642128  1
  O  O44  1  0.98640564  0.19660937  0.30642128  1
  O  O45  1  0.21020373  0.19660937  0.80642128  1
  O  O46  1  0.98640564  0.78979627  0.80642128  1
  O  O47  1  0.80339063  0.01359436  0.80642128  1
  O  O48  1  0.79872937  0.97853163  0.69914697  1
  O  O49  1  0.17980227  0.20127063  0.69914697  1
  O  O50  1  0.02146837  0.82019773  0.69914697  1
  O  O51  1  0.79872937  0.82019773  0.19914697  1
  O  O52  1  0.02146837  0.20127063  0.19914697  1
  O  O53  1  0.17980227  0.97853163  0.19914697  1
  O  O54  1  0.88538670  0.37436121  0.64495879  1
  O  O55  1  0.48897551  0.11461330  0.64495879  1
  O  O56  1  0.62563879  0.51102449  0.64495879  1
  O  O57  1  0.88538670  0.51102449  0.14495879  1
  O  O58  1  0.62563879  0.11461330  0.14495879  1
  O  O59  1  0.48897551  0.37436121  0.14495879  1
  O  O60  1  0.46516459  0.30166578  0.02543490  1
  O  O61  1  0.83650219  0.53483541  0.02543490  1
  O  O62  1  0.69833422  0.16349781  0.02543490  1
  O  O63  1  0.46516459  0.16349781  0.52543490  1
  O  O64  1  0.69833422  0.53483541  0.52543490  1
  O  O65  1  0.83650219  0.30166578  0.52543490  1
  O  O66  1  0.52631398  0.69518351  0.97158868  1
  O  O67  1  0.16886853  0.47368602  0.97158868  1
  O  O68  1  0.30481649  0.83113147  0.97158868  1
  O  O69  1  0.52631398  0.83113147  0.47158868  1
  O  O70  1  0.30481649  0.47368602  0.47158868  1
  O  O71  1  0.16886853  0.69518351  0.47158868  1
  O  O72  1  0.13826855  0.63157449  0.35865269  1
  O  O73  1  0.49330493  0.86173145  0.35865269  1
  O  O74  1  0.36842551  0.50669507  0.35865269  1
  O  O75  1  0.13826855  0.50669507  0.85865269  1
  O  O76  1  0.36842551  0.86173145  0.85865269  1
  O  O77  1  0.49330493  0.63157449  0.85865269  1
  O  O78  1  0.02109254  0.83160812  0.41130508  1
  O  O79  1  0.81051559  0.97890746  0.41130508  1
  O  O80  1  0.16839188  0.18948441  0.41130508  1
  O  O81  1  0.02109254  0.18948441  0.91130508  1
  O  O82  1  0.16839188  0.97890746  0.91130508  1
  O  O83  1  0.81051559  0.83160812  0.91130508  1
  O  O84  1  0.97567493  0.16232551  0.59352774  1
  O  O85  1  0.18665058  0.02432507  0.59352774  1
  O  O86  1  0.83767449  0.81334942  0.59352774  1
  O  O87  1  0.97567493  0.81334942  0.09352774  1
  O  O88  1  0.83767449  0.02432507  0.09352774  1
  O  O89  1  0.18665058  0.16232551  0.09352774  1
  O  O90  1  0.68487081  0.14820388  0.74685843  1
  O  O91  1  0.46333407  0.31512919  0.74685843  1
  O  O92  1  0.85179612  0.53666593  0.74685843  1
  O  O93  1  0.68487081  0.53666593  0.24685843  1
  O  O94  1  0.85179612  0.31512919  0.24685843  1
  O  O95  1  0.46333407  0.14820388  0.24685843  1
  O  O96  1  0.63144739  0.48733783  0.92109398  1
  O  O97  1  0.85589144  0.36855261  0.92109398  1
  O  O98  1  0.51266217  0.14410856  0.92109398  1
  O  O99  1  0.63144739  0.14410856  0.42109398  1
  O  O100  1  0.51266217  0.36855261  0.42109398  1
  O  O101  1  0.85589144  0.48733783  0.42109398  1
  O  O102  1  0.34708917  0.49601742  0.07321587  1
  O  O103  1  0.14892725  0.65291083  0.07321587  1
  O  O104  1  0.50398258  0.85107275  0.07321587  1
  O  O105  1  0.34708917  0.85107275  0.57321587  1
  O  O106  1  0.50398258  0.65291083  0.57321587  1
  O  O107  1  0.14892725  0.49601742  0.57321587  1
  O  O108  1  0.30087817  0.83471989  0.25377373  1
  O  O109  1  0.53384072  0.69912183  0.25377373  1
  O  O110  1  0.16528011  0.46615928  0.25377373  1
  O  O111  1  0.30087817  0.46615928  0.75377373  1
  O  O112  1  0.16528011  0.69912183  0.75377373  1
  O  O113  1  0.53384072  0.83471989  0.75377373  1
