# generated using pymatgen
data_Na8TaAl3Si4(PO12)2
_symmetry_space_group_name_H-M   'P 1'
_cell_length_a   8.85928476
_cell_length_b   8.87039714
_cell_length_c   21.59444829
_cell_angle_alpha   89.65914975
_cell_angle_beta   89.95282227
_cell_angle_gamma   119.90148531
_symmetry_Int_Tables_number   1
_chemical_formula_structural   Na8TaAl3Si4(PO12)2
_chemical_formula_sum   'Na24 Ta3 Al9 Si12 P6 O72'
_cell_volume   1471.06853008
_cell_formula_units_Z   3
loop_
 _symmetry_equiv_pos_site_id
 _symmetry_equiv_pos_as_xyz
  1  'x, y, z'
loop_
 _atom_site_type_symbol
 _atom_site_label
 _atom_site_symmetry_multiplicity
 _atom_site_fract_x
 _atom_site_fract_y
 _atom_site_fract_z
 _atom_site_occupancy
  Na  Na0  1  0.62921248  0.99725553  0.25526198  1
  Na  Na1  1  0.37020646  0.37178666  0.25310977  1
  Na  Na2  1  0.00284452  0.62919851  0.25295117  1
  Na  Na3  1  0.63618480  0.63242551  0.73929708  1
  Na  Na4  1  0.99324033  0.35847438  0.74211529  1
  Na  Na5  1  0.37204571  0.00991125  0.74636549  1
  Na  Na6  1  0.29655527  0.33734197  0.58441259  1
  Na  Na7  1  0.03653156  0.70109653  0.58187926  1
  Na  Na8  1  0.66896187  0.96055672  0.58143118  1
  Na  Na9  1  0.29296757  0.96142747  0.08211524  1
  Na  Na10  1  0.66401538  0.70096710  0.08493002  1
  Na  Na11  1  0.04107494  0.33996750  0.08526938  1
  Na  Na12  1  0.97144838  0.67488232  0.91292266  1
  Na  Na13  1  0.70665545  0.03147443  0.91033080  1
  Na  Na14  1  0.32270701  0.29059963  0.91070291  1
  Na  Na15  1  0.97363994  0.29735163  0.41485388  1
  Na  Na16  1  0.32637312  0.02777397  0.41471064  1
  Na  Na17  1  0.69942848  0.67456023  0.41505586  1
  Na  Na18  1  0.99731368  0.00009891  0.49944466  1
  Na  Na19  1  0.00303965  0.00008437  0.99973733  1
  Na  Na20  1  0.66337338  0.32818235  0.82664489  1
  Na  Na21  1  0.66537868  0.33165903  0.33049982  1
  Na  Na22  1  0.33055409  0.66355580  0.16679485  1
  Na  Na23  1  0.33516890  0.66427425  0.65920669  1
  Ta  Ta24  1  0.66374294  0.33589809  0.98059474  1
  Ta  Ta25  1  0.67163405  0.33718184  0.47813002  1
  Ta  Ta26  1  0.33430007  0.66490015  0.81047994  1
  Al  Al27  1  0.99940866  0.99959557  0.35539834  1
  Al  Al28  1  0.00201986  0.00627358  0.85410616  1
  Al  Al29  1  0.99339419  0.00253510  0.64548772  1
  Al  Al30  1  0.00366453  0.99985779  0.14675718  1
  Al  Al31  1  0.66423977  0.33211044  0.68585997  1
  Al  Al32  1  0.66912721  0.33797529  0.18479774  1
  Al  Al33  1  0.32728122  0.65988250  0.02128783  1
  Al  Al34  1  0.33227650  0.65834331  0.51727743  1
  Al  Al35  1  0.33568456  0.66825646  0.31778106  1
  Si  Si36  1  0.28551786  0.27839918  0.74827201  1
  Si  Si37  1  0.71902567  0.00658740  0.74864077  1
  Si  Si38  1  0.96260875  0.33544367  0.58739592  1
  Si  Si39  1  0.66782127  0.62897142  0.58723309  1
  Si  Si40  1  0.96328237  0.62953437  0.08869706  1
  Si  Si41  1  0.37051000  0.33481786  0.08924385  1
  Si  Si42  1  0.62508813  0.67500508  0.92039574  1
  Si  Si43  1  0.04605269  0.37286610  0.91978875  1
  Si  Si44  1  0.32696669  0.95055448  0.91991700  1
  Si  Si45  1  0.61835768  0.94646843  0.41497210  1
  Si  Si46  1  0.32644011  0.37793668  0.41417948  1
  Si  Si47  1  0.05613805  0.67386646  0.41474527  1
  P  P48  1  0.28961106  0.00062243  0.24920356  1
  P  P49  1  0.71471348  0.71385155  0.24939233  1
  P  P50  1  0.99688449  0.28400851  0.24879747  1
  P  P51  1  0.99668647  0.71846845  0.74973895  1
  P  P52  1  0.37455116  0.04150750  0.58667128  1
  P  P53  1  0.66745563  0.04339840  0.08875595  1
  O  O54  1  0.20307554  0.02886631  0.30664329  1
  O  O55  1  0.82723181  0.80063551  0.30700684  1
  O  O56  1  0.97185715  0.17133161  0.30690490  1
  O  O57  1  0.20096761  0.16697386  0.81156597  1
  O  O58  1  0.97652177  0.80267248  0.80914571  1
  O  O59  1  0.83171301  0.03142515  0.81108347  1
  O  O60  1  0.79657418  0.95994697  0.68871645  1
  O  O61  1  0.16278563  0.19343649  0.68868583  1
  O  O62  1  0.02944848  0.83120398  0.69171278  1
  O  O63  1  0.80341325  0.82762140  0.19118062  1
  O  O64  1  0.02017563  0.19481733  0.19094814  1
  O  O65  1  0.17643577  0.97530268  0.19103076  1
  O  O66  1  0.86410490  0.36584318  0.64539474  1
  O  O67  1  0.49139692  0.13134184  0.64308312  1
  O  O68  1  0.63403734  0.49978519  0.64566194  1
  O  O69  1  0.86850669  0.49732658  0.14627503  1
  O  O70  1  0.63939640  0.13503675  0.14410954  1
  O  O71  1  0.50132020  0.36564448  0.14627542  1
  O  O72  1  0.46120331  0.29643771  0.02704319  1
  O  O73  1  0.83474520  0.53332302  0.02685279  1
  O  O74  1  0.69699257  0.15899719  0.02908430  1
  O  O75  1  0.46284232  0.15760534  0.52750262  1
  O  O76  1  0.69394659  0.53061093  0.52529831  1
  O  O77  1  0.83548531  0.30274552  0.52561085  1
  O  O78  1  0.53316064  0.70363613  0.97983700  1
  O  O79  1  0.16612430  0.46525297  0.97899350  1
  O  O80  1  0.30252929  0.83126649  0.97974984  1
  O  O81  1  0.53147015  0.82849712  0.47636796  1
  O  O82  1  0.29353526  0.46036853  0.47596737  1
  O  O83  1  0.17190311  0.70487300  0.47646082  1
  O  O84  1  0.13336696  0.62840164  0.35355077  1
  O  O85  1  0.49769813  0.86855804  0.35356663  1
  O  O86  1  0.37196074  0.50240870  0.35305993  1
  O  O87  1  0.12875505  0.49837572  0.85750525  1
  O  O88  1  0.36472244  0.86544397  0.85770959  1
  O  O89  1  0.49876108  0.63269726  0.85841683  1
  O  O90  1  0.02310633  0.83875929  0.40747104  1
  O  O91  1  0.81526179  0.97629448  0.40796759  1
  O  O92  1  0.15995315  0.18215369  0.40701035  1
  O  O93  1  0.02231618  0.18141609  0.91276937  1
  O  O94  1  0.15868847  0.97425058  0.91248326  1
  O  O95  1  0.81852516  0.83757170  0.91091828  1
  O  O96  1  0.97822874  0.15977888  0.58782607  1
  O  O97  1  0.19405183  0.02502322  0.58964155  1
  O  O98  1  0.84824728  0.81601289  0.58853860  1
  O  O99  1  0.97349550  0.81851359  0.09128408  1
  O  O100  1  0.83241587  0.02745691  0.09201665  1
  O  O101  1  0.17804796  0.16131766  0.09190806  1
  O  O102  1  0.69035161  0.17521751  0.74377231  1
  O  O103  1  0.48440155  0.31061316  0.74447296  1
  O  O104  1  0.83778781  0.53324321  0.74705725  1
  O  O105  1  0.69577490  0.52809603  0.24620000  1
  O  O106  1  0.82884992  0.30173375  0.24568029  1
  O  O107  1  0.47637709  0.16539244  0.24475458  1
  O  O108  1  0.63781180  0.49411252  0.92215119  1
  O  O109  1  0.85111692  0.35505203  0.92291636  1
  O  O110  1  0.50582870  0.14432473  0.92227689  1
  O  O111  1  0.63969406  0.14411112  0.42087412  1
  O  O112  1  0.50172252  0.35483969  0.42064017  1
  O  O113  1  0.85663452  0.49703520  0.42039635  1
  O  O114  1  0.35962154  0.51151038  0.08083370  1
  O  O115  1  0.15446769  0.64859105  0.08070577  1
  O  O116  1  0.50366511  0.86386281  0.08299613  1
  O  O117  1  0.36057652  0.86262165  0.58084080  1
  O  O118  1  0.49479341  0.64718848  0.57891153  1
  O  O119  1  0.15113375  0.51157451  0.57902613  1
  O  O120  1  0.30835494  0.83432988  0.25243372  1
  O  O121  1  0.52892080  0.69380197  0.25192138  1
  O  O122  1  0.16180200  0.46905666  0.25103673  1
  O  O123  1  0.30477837  0.47784119  0.75227122  1
  O  O124  1  0.16423432  0.69748569  0.75307802  1
  O  O125  1  0.51739040  0.83108012  0.75287328  1
