# generated using pymatgen
data_Na30Ca4Nb20Si33(SO48)3
_symmetry_space_group_name_H-M   'P 1'
_cell_length_a   18.24612209
_cell_length_b   9.11787274
_cell_length_c   22.76095295
_cell_angle_alpha   89.93587343
_cell_angle_beta   90.20765013
_cell_angle_gamma   120.00805753
_symmetry_Int_Tables_number   1
_chemical_formula_structural   Na30Ca4Nb20Si33(SO48)3
_chemical_formula_sum   'Na30 Ca4 Nb20 Si33 S3 O144'
_cell_volume   3279.04152999
_cell_formula_units_Z   1
loop_
 _symmetry_equiv_pos_site_id
 _symmetry_equiv_pos_as_xyz
  1  'x, y, z'
loop_
 _atom_site_type_symbol
 _atom_site_label
 _atom_site_symmetry_multiplicity
 _atom_site_fract_x
 _atom_site_fract_y
 _atom_site_fract_z
 _atom_site_occupancy
  Na  Na0  1  0.31562778  0.98066922  0.25410232  1
  Na  Na1  1  0.18342419  0.38538215  0.25577489  1
  Na  Na2  1  0.68007020  0.38288350  0.25193138  1
  Na  Na3  1  0.50429786  0.63627426  0.25859133  1
  Na  Na4  1  0.31480073  0.64211560  0.75617741  1
  Na  Na5  1  0.00172214  0.38429301  0.75422742  1
  Na  Na6  1  0.18441288  0.98026787  0.75374104  1
  Na  Na7  1  0.64963662  0.33263178  0.58405619  1
  Na  Na8  1  0.64451076  0.96824143  0.08358719  1
  Na  Na9  1  0.33904135  0.71730828  0.08766444  1
  Na  Na10  1  0.51794350  0.31635972  0.08778485  1
  Na  Na11  1  0.98782081  0.65816957  0.91453752  1
  Na  Na12  1  0.34566764  0.02918700  0.91575146  1
  Na  Na13  1  0.66560656  0.29678801  0.91576292  1
  Na  Na14  1  0.48760849  0.31870124  0.41514506  1
  Na  Na15  1  0.98992078  0.32353001  0.41511543  1
  Na  Na16  1  0.34063784  0.65817620  0.41566792  1
  Na  Na17  1  0.84182949  0.65563234  0.41499276  1
  Na  Na18  1  0.00875682  0.00559067  0.50126915  1
  Na  Na19  1  0.50105819  0.98999874  0.50281448  1
  Na  Na20  1  0.00516888  0.01407885  0.00195409  1
  Na  Na21  1  0.49830328  0.99194554  0.00415996  1
  Na  Na22  1  0.33852038  0.34482377  0.83718865  1
  Na  Na23  1  0.83010565  0.32357056  0.83086885  1
  Na  Na24  1  0.32959137  0.32581754  0.33662795  1
  Na  Na25  1  0.83416807  0.32458909  0.33330786  1
  Na  Na26  1  0.15879198  0.65429088  0.16974553  1
  Na  Na27  1  0.67472386  0.66582782  0.17206897  1
  Na  Na28  1  0.16715818  0.67878600  0.66444085  1
  Na  Na29  1  0.66794713  0.67515770  0.66724111  1
  Ca  Ca30  1  0.49951907  0.00298568  0.14481440  1
  Ca  Ca31  1  0.16051428  0.66102311  0.31809231  1
  Ca  Ca32  1  0.67260915  0.67188344  0.31872080  1
  Ca  Ca33  1  0.16750736  0.67065224  0.81805895  1
  Nb  Nb34  1  0.99230921  0.99504797  0.35751033  1
  Nb  Nb35  1  0.49256124  0.99669791  0.35628108  1
  Nb  Nb36  1  0.99231703  0.99053549  0.85790217  1
  Nb  Nb37  1  0.49902198  0.99612711  0.85456069  1
  Nb  Nb38  1  0.99242104  0.98713266  0.64048495  1
  Nb  Nb39  1  0.49997690  0.99532717  0.64563363  1
  Nb  Nb40  1  0.99412921  0.99819632  0.14085405  1
  Nb  Nb41  1  0.34212828  0.33661330  0.68318093  1
  Nb  Nb42  1  0.82957316  0.33073499  0.68905357  1
  Nb  Nb43  1  0.33835721  0.33867344  0.18384553  1
  Nb  Nb44  1  0.84224658  0.34698672  0.18562160  1
  Nb  Nb45  1  0.32977644  0.33628204  0.97998792  1
  Nb  Nb46  1  0.83470446  0.32713158  0.97956079  1
  Nb  Nb47  1  0.33059056  0.32995857  0.48407273  1
  Nb  Nb48  1  0.83340905  0.33140179  0.48396635  1
  Nb  Nb49  1  0.16379273  0.66438714  0.01946453  1
  Nb  Nb50  1  0.67009621  0.66714128  0.02067653  1
  Nb  Nb51  1  0.16478094  0.66479704  0.52169473  1
  Nb  Nb52  1  0.66624490  0.67179988  0.51955329  1
  Nb  Nb53  1  0.66515840  0.66388011  0.81030999  1
  Si  Si54  1  0.35085166  0.69902853  0.24700310  1
  Si  Si55  1  0.85710038  0.70836642  0.24746753  1
  Si  Si56  1  0.99616374  0.28236353  0.24765066  1
  Si  Si57  1  0.49873682  0.29844091  0.24738029  1
  Si  Si58  1  0.64319221  0.28632893  0.74997053  1
  Si  Si59  1  0.99683597  0.71039434  0.74794829  1
  Si  Si60  1  0.50002589  0.71050277  0.74989999  1
  Si  Si61  1  0.35767612  0.00740912  0.74843974  1
  Si  Si62  1  0.85521148  0.99843070  0.74924166  1
  Si  Si63  1  0.48232808  0.33292373  0.58110446  1
  Si  Si64  1  0.97892282  0.33779357  0.58670943  1
  Si  Si65  1  0.18755972  0.04096214  0.58600498  1
  Si  Si66  1  0.68899119  0.04034393  0.58495133  1
  Si  Si67  1  0.33191123  0.62376642  0.58464352  1
  Si  Si68  1  0.83092385  0.61923314  0.58340344  1
  Si  Si69  1  0.48217493  0.62198733  0.08044185  1
  Si  Si70  1  0.97991251  0.62520076  0.08038209  1
  Si  Si71  1  0.32829599  0.03912407  0.08021052  1
  Si  Si72  1  0.83115591  0.04439467  0.08468106  1
  Si  Si73  1  0.18778915  0.33307493  0.08444530  1
  Si  Si74  1  0.69348729  0.34155246  0.08221202  1
  Si  Si75  1  0.31413070  0.66733061  0.91518617  1
  Si  Si76  1  0.80865456  0.66195176  0.91570586  1
  Si  Si77  1  0.01992194  0.37005589  0.91463029  1
  Si  Si78  1  0.52121970  0.38016227  0.91620414  1
  Si  Si79  1  0.16660772  0.96469154  0.91514070  1
  Si  Si80  1  0.66656769  0.95129869  0.91629845  1
  Si  Si81  1  0.30932458  0.96303571  0.41552796  1
  Si  Si82  1  0.81180395  0.96607627  0.41784200  1
  Si  Si83  1  0.16701641  0.36978558  0.41630558  1
  Si  Si84  1  0.66742906  0.36686804  0.41700308  1
  Si  Si85  1  0.01859821  0.66619043  0.41847732  1
  Si  Si86  1  0.51758124  0.66694882  0.41590168  1
  S  S87  1  0.14238520  0.00548458  0.24744919  1
  S  S88  1  0.64887994  0.00935650  0.24983546  1
  S  S89  1  0.14259720  0.27898707  0.74828054  1
  O  O90  1  0.10179383  0.02482074  0.30159410  1
  O  O91  1  0.60215060  0.02833691  0.30129236  1
  O  O92  1  0.41505405  0.80126641  0.30690259  1
  O  O93  1  0.91349414  0.80288877  0.30862206  1
  O  O94  1  0.48695599  0.16814256  0.30611797  1
  O  O95  1  0.98776335  0.16642489  0.30804327  1
  O  O96  1  0.10316895  0.17855780  0.80240037  1
  O  O97  1  0.59733045  0.16919151  0.80857549  1
  O  O98  1  0.48392954  0.80547654  0.80628343  1
  O  O99  1  0.98937619  0.80973320  0.80799330  1
  O  O100  1  0.41408535  0.02763957  0.80862482  1
  O  O101  1  0.91903054  0.02880366  0.80652729  1
  O  O102  1  0.41408946  0.99485875  0.69405500  1
  O  O103  1  0.90509263  0.98037607  0.69244529  1
  O  O104  1  0.09143751  0.19583761  0.69597235  1
  O  O105  1  0.58798446  0.19718660  0.69045830  1
  O  O106  1  0.00610096  0.83898520  0.69402349  1
  O  O107  1  0.51239740  0.82983342  0.69245247  1
  O  O108  1  0.39352286  0.79916509  0.18847037  1
  O  O109  1  0.91562629  0.82682965  0.19289780  1
  O  O110  1  0.00253696  0.16948201  0.19305950  1
  O  O111  1  0.51572833  0.22499519  0.18912179  1
  O  O112  1  0.09318628  0.99208743  0.19446998  1
  O  O113  1  0.60370227  0.98822597  0.19467993  1
  O  O114  1  0.43300844  0.35992073  0.63877569  1
  O  O115  1  0.93097041  0.36029685  0.64411403  1
  O  O116  1  0.24895129  0.14014823  0.64392156  1
  O  O117  1  0.74911462  0.13685984  0.64223251  1
  O  O118  1  0.32170676  0.50384009  0.64283349  1
  O  O119  1  0.81751399  0.49445622  0.63933085  1
  O  O120  1  0.43450306  0.50175251  0.14123988  1
  O  O121  1  0.93251368  0.50163355  0.13851138  1
  O  O122  1  0.31939324  0.13779702  0.14043215  1
  O  O123  1  0.81654428  0.13962524  0.14023867  1
  O  O124  1  0.24997296  0.36382829  0.14284409  1
  O  O125  1  0.75041901  0.36112765  0.14179720  1
  O  O126  1  0.23579237  0.30989345  0.02803710  1
  O  O127  1  0.74533800  0.32613465  0.02558696  1
  O  O128  1  0.41732594  0.51063285  0.02868696  1
  O  O129  1  0.92094311  0.53552525  0.02253816  1
  O  O130  1  0.33820476  0.16102457  0.02501514  1
  O  O131  1  0.84439040  0.16327030  0.02706778  1
  O  O132  1  0.23717369  0.16525478  0.53047346  1
  O  O133  1  0.73643064  0.16755223  0.52989616  1
  O  O134  1  0.34580009  0.53110968  0.52788269  1
  O  O135  1  0.84579695  0.53498740  0.52558968  1
  O  O136  1  0.42289207  0.31032733  0.52523820  1
  O  O137  1  0.92064704  0.30783164  0.52839221  1
  O  O138  1  0.26452024  0.69887544  0.97133346  1
  O  O139  1  0.76458941  0.69334930  0.97357941  1
  O  O140  1  0.08338306  0.47309416  0.97067211  1
  O  O141  1  0.58390979  0.47151315  0.97405276  1
  O  O142  1  0.14909571  0.82755596  0.96936125  1
  O  O143  1  0.65420185  0.83820465  0.97609528  1
  O  O144  1  0.26245072  0.82766019  0.46981321  1
  O  O145  1  0.76499391  0.83097917  0.47323380  1
  O  O146  1  0.14919787  0.46951618  0.47087458  1
  O  O147  1  0.64991529  0.46384335  0.47330300  1
  O  O148  1  0.08310786  0.69537808  0.47443367  1
  O  O149  1  0.58377888  0.69083777  0.47128294  1
  O  O150  1  0.04221257  0.59686549  0.36206991  1
  O  O151  1  0.54368918  0.61073966  0.35713249  1
  O  O152  1  0.26741541  0.91224693  0.35230379  1
  O  O153  1  0.76361444  0.90877397  0.35780008  1
  O  O154  1  0.19534268  0.47520772  0.35651739  1
  O  O155  1  0.69518154  0.47409904  0.35747552  1
  O  O156  1  0.04304103  0.47457691  0.85452681  1
  O  O157  1  0.57120698  0.50146635  0.86000967  1
  O  O158  1  0.19298236  0.91449747  0.85474010  1
  O  O159  1  0.67967221  0.85579560  0.86004522  1
  O  O160  1  0.26838639  0.62724180  0.85279692  1
  O  O161  1  0.74756402  0.63244826  0.85981350  1
  O  O162  1  0.00747756  0.83560643  0.41163311  1
  O  O163  1  0.50738508  0.83739011  0.41203658  1
  O  O164  1  0.40654574  0.97548138  0.41210593  1
  O  O165  1  0.90746557  0.97586306  0.41393296  1
  O  O166  1  0.07890118  0.18345284  0.41019675  1
  O  O167  1  0.57804842  0.18269704  0.41017360  1
  O  O168  1  0.01066446  0.18070781  0.91067445  1
  O  O169  1  0.51625233  0.19408715  0.90995532  1
  O  O170  1  0.07768393  0.97174314  0.91091014  1
  O  O171  1  0.58440671  0.97986160  0.90858748  1
  O  O172  1  0.40765207  0.84861816  0.91275780  1
  O  O173  1  0.90462109  0.82950174  0.90996991  1
  O  O174  1  0.49399981  0.16764137  0.58820700  1
  O  O175  1  0.98984317  0.16931858  0.59409622  1
  O  O176  1  0.09450896  0.02603270  0.59319663  1
  O  O177  1  0.59716618  0.03192377  0.58973553  1
  O  O178  1  0.41759438  0.81096141  0.59201789  1
  O  O179  1  0.91533946  0.80958414  0.58861216  1
  O  O180  1  0.49313645  0.80585754  0.07927974  1
  O  O181  1  0.99015085  0.81203589  0.08978569  1
  O  O182  1  0.41183491  0.02276894  0.07822777  1
  O  O183  1  0.91480538  0.02163583  0.08889962  1
  O  O184  1  0.09475279  0.16453923  0.09196964  1
  O  O185  1  0.60218766  0.17405598  0.07779696  1
  O  O186  1  0.34665381  0.17788250  0.74348296  1
  O  O187  1  0.85196122  0.17525960  0.74470827  1
  O  O188  1  0.22901075  0.29477975  0.74498962  1
  O  O189  1  0.73724688  0.30358497  0.74342884  1
  O  O190  1  0.41032308  0.52683785  0.74337995  1
  O  O191  1  0.91083737  0.52262526  0.74431137  1
  O  O192  1  0.34654234  0.50922584  0.24690218  1
  O  O193  1  0.85014121  0.51818641  0.24376836  1
  O  O194  1  0.40359118  0.28954614  0.24661659  1
  O  O195  1  0.90798782  0.29021924  0.24204273  1
  O  O196  1  0.22760787  0.16722508  0.24470995  1
  O  O197  1  0.73278399  0.17245304  0.24886272  1
  O  O198  1  0.33047779  0.51036140  0.93008837  1
  O  O199  1  0.82112094  0.49624452  0.92096255  1
  O  O200  1  0.42461438  0.34476963  0.92199323  1
  O  O201  1  0.92671287  0.35020215  0.92995110  1
  O  O202  1  0.24820227  0.15122395  0.92899199  1
  O  O203  1  0.74836855  0.14584904  0.92352179  1
  O  O204  1  0.33424613  0.15965732  0.42940607  1
  O  O205  1  0.83700435  0.16222211  0.43036858  1
  O  O206  1  0.24832478  0.34406919  0.43172262  1
  O  O207  1  0.74891790  0.34323904  0.43200629  1
  O  O208  1  0.42200692  0.50760891  0.43104994  1
  O  O209  1  0.92169713  0.50888059  0.43257258  1
  O  O210  1  0.18442268  0.50870415  0.07642457  1
  O  O211  1  0.68442410  0.51228654  0.07647578  1
  O  O212  1  0.07196597  0.63729403  0.07485667  1
  O  O213  1  0.57288497  0.62591159  0.07755955  1
  O  O214  1  0.24321099  0.85062615  0.07617875  1
  O  O215  1  0.74425592  0.86158878  0.07713862  1
  O  O216  1  0.18023038  0.85664273  0.57718182  1
  O  O217  1  0.67935719  0.85343448  0.57609849  1
  O  O218  1  0.24747447  0.64032841  0.57662544  1
  O  O219  1  0.74450441  0.63020273  0.57715772  1
  O  O220  1  0.07300564  0.50501348  0.57730550  1
  O  O221  1  0.57628745  0.50117951  0.57747861  1
  O  O222  1  0.15638326  0.86088334  0.24948898  1
  O  O223  1  0.65861909  0.86037958  0.25671862  1
  O  O224  1  0.25880253  0.67947801  0.25196421  1
  O  O225  1  0.76359460  0.67893505  0.24339237  1
  O  O226  1  0.08096009  0.46071734  0.24500008  1
  O  O227  1  0.57442981  0.49079449  0.25275675  1
  O  O228  1  0.15294335  0.45017338  0.75090315  1
  O  O229  1  0.65319062  0.47501085  0.75781527  1
  O  O230  1  0.07987604  0.69107708  0.74524579  1
  O  O231  1  0.58247197  0.68747021  0.75651647  1
  O  O232  1  0.26658057  0.83792604  0.74457568  1
  O  O233  1  0.76239682  0.83004970  0.75733731  1
