# generated using pymatgen
data_Na9Ta4Zn8P9(SO8)9
_symmetry_space_group_name_H-M   'P 1'
_cell_length_a   8.81819892
_cell_length_b   8.79972037
_cell_length_c   22.57647359
_cell_angle_alpha   90.38104584
_cell_angle_beta   89.86513927
_cell_angle_gamma   119.99342144
_symmetry_Int_Tables_number   1
_chemical_formula_structural   Na9Ta4Zn8P9(SO8)9
_chemical_formula_sum   'Na9 Ta4 Zn8 P9 S9 O72'
_cell_volume   1517.24044089
_cell_formula_units_Z   1
loop_
 _symmetry_equiv_pos_site_id
 _symmetry_equiv_pos_as_xyz
  1  'x, y, z'
loop_
 _atom_site_type_symbol
 _atom_site_label
 _atom_site_symmetry_multiplicity
 _atom_site_fract_x
 _atom_site_fract_y
 _atom_site_fract_z
 _atom_site_occupancy
  Na  Na0  1  0.65968842  0.96331555  0.58291246  1
  Na  Na1  1  0.29741142  0.95779033  0.08253722  1
  Na  Na2  1  0.03537078  0.34015020  0.08252264  1
  Na  Na3  1  0.01768012  0.00136827  0.49505987  1
  Na  Na4  1  0.98238146  0.98350151  0.99393404  1
  Na  Na5  1  0.66498447  0.33386548  0.82815050  1
  Na  Na6  1  0.66843306  0.33554611  0.32754430  1
  Na  Na7  1  0.34707518  0.67513733  0.16144097  1
  Na  Na8  1  0.31973711  0.66162104  0.66047899  1
  Ta  Ta9  1  0.67617245  0.33751377  0.97730569  1
  Ta  Ta10  1  0.65809358  0.32904144  0.47711779  1
  Ta  Ta11  1  0.33100747  0.66659471  0.31743777  1
  Ta  Ta12  1  0.33585071  0.66882409  0.81722361  1
  Zn  Zn13  1  0.00049942  0.99879550  0.35442654  1
  Zn  Zn14  1  0.99944108  0.99790270  0.85407950  1
  Zn  Zn15  1  0.02370341  0.00226385  0.64880776  1
  Zn  Zn16  1  0.97507752  0.97919227  0.14804985  1
  Zn  Zn17  1  0.65996923  0.32831824  0.68246171  1
  Zn  Zn18  1  0.67359251  0.33349271  0.18173512  1
  Zn  Zn19  1  0.33983906  0.67558490  0.01306483  1
  Zn  Zn20  1  0.32646997  0.67047023  0.51343183  1
  P  P21  1  0.37232084  0.03843248  0.58475168  1
  P  P22  1  0.96011019  0.62749053  0.08496590  1
  P  P23  1  0.66420090  0.03958069  0.08459456  1
  P  P24  1  0.62686870  0.66844946  0.91885760  1
  P  P25  1  0.04581004  0.37259606  0.91935776  1
  P  P26  1  0.33012218  0.96163561  0.91955917  1
  P  P27  1  0.62962969  0.95696995  0.41984568  1
  P  P28  1  0.32826154  0.37541462  0.41939898  1
  P  P29  1  0.03909583  0.66838797  0.41911597  1
  S  S30  1  0.29578509  0.00190128  0.25005244  1
  S  S31  1  0.70288736  0.70243475  0.25160600  1
  S  S32  1  0.00051374  0.29349908  0.25040524  1
  S  S33  1  0.29420128  0.29466663  0.75111152  1
  S  S34  1  0.99812252  0.70272884  0.75069048  1
  S  S35  1  0.70747681  0.00080102  0.74964830  1
  S  S36  1  0.95821718  0.33611451  0.58411996  1
  S  S37  1  0.66665572  0.62445404  0.58446882  1
  S  S38  1  0.37897705  0.33647441  0.08423170  1
  O  O39  1  0.20844113  0.02034471  0.30214502  1
  O  O40  1  0.80854230  0.78631944  0.30407683  1
  O  O41  1  0.98220619  0.18763348  0.30208211  1
  O  O42  1  0.21212188  0.19042053  0.80374378  1
  O  O43  1  0.97594625  0.78503009  0.80376981  1
  O  O44  1  0.81286819  0.01935890  0.80167149  1
  O  O45  1  0.77418584  0.96696758  0.69392089  1
  O  O46  1  0.18925862  0.22638292  0.69672432  1
  O  O47  1  0.03497066  0.80756050  0.69658969  1
  O  O48  1  0.76903202  0.80660983  0.19717356  1
  O  O49  1  0.03364926  0.22636005  0.19442640  1
  O  O50  1  0.19540369  0.96745020  0.19437344  1
  O  O51  1  0.87943376  0.36117064  0.63779517  1
  O  O52  1  0.48976246  0.12246767  0.63843086  1
  O  O53  1  0.64847298  0.52335565  0.63738237  1
  O  O54  1  0.87661657  0.51402894  0.13866580  1
  O  O55  1  0.62809270  0.12006633  0.13884296  1
  O  O56  1  0.48058723  0.35965499  0.13765892  1
  O  O57  1  0.46989113  0.31370618  0.03007178  1
  O  O58  1  0.83985911  0.52799007  0.02823276  1
  O  O59  1  0.68639445  0.16411853  0.02848944  1
  O  O60  1  0.47713394  0.16152524  0.52834140  1
  O  O61  1  0.68591346  0.53115851  0.52986102  1
  O  O62  1  0.84214332  0.31585254  0.53018333  1
  O  O63  1  0.54538327  0.69255605  0.97369900  1
  O  O64  1  0.14261544  0.45013232  0.97676583  1
  O  O65  1  0.30408621  0.86121874  0.97631033  1
  O  O66  1  0.55414528  0.85877172  0.47681055  1
  O  O67  1  0.30813739  0.45886258  0.47450550  1
  O  O68  1  0.14579639  0.69629404  0.47365658  1
  O  O69  1  0.13235275  0.63569152  0.36299009  1
  O  O70  1  0.50141811  0.86278744  0.36507403  1
  O  O71  1  0.36080659  0.49748522  0.36317824  1
  O  O72  1  0.14053410  0.49863945  0.86473155  1
  O  O73  1  0.36202682  0.86449495  0.86464347  1
  O  O74  1  0.50351752  0.63820405  0.86262874  1
  O  O75  1  0.01111374  0.82102261  0.40765560  1
  O  O76  1  0.81036712  0.98766881  0.40813943  1
  O  O77  1  0.17895925  0.19236291  0.40844854  1
  O  O78  1  0.01439058  0.19067255  0.90837700  1
  O  O79  1  0.17708466  0.98777238  0.90788973  1
  O  O80  1  0.80791424  0.82076696  0.90796641  1
  O  O81  1  0.95789502  0.16659189  0.58494207  1
  O  O82  1  0.19588727  0.03253402  0.58458006  1
  O  O83  1  0.82621594  0.80156294  0.58517461  1
  O  O84  1  0.98053593  0.81196665  0.08525265  1
  O  O85  1  0.84122163  0.04345036  0.08516775  1
  O  O86  1  0.20503082  0.17143902  0.08529332  1
  O  O87  1  0.67960020  0.15266518  0.74627717  1
  O  O88  1  0.47414198  0.32480819  0.74580675  1
  O  O89  1  0.84738317  0.52335147  0.74465369  1
  O  O90  1  0.67398033  0.52309776  0.24572977  1
  O  O91  1  0.84978661  0.32245479  0.24717669  1
  O  O92  1  0.47468237  0.15346708  0.24630727  1
  O  O93  1  0.63310180  0.49167196  0.92292291  1
  O  O94  1  0.86151957  0.36679614  0.92196469  1
  O  O95  1  0.50666650  0.14342427  0.92317472  1
  O  O96  1  0.63594191  0.14147615  0.42343693  1
  O  O97  1  0.50617419  0.36792459  0.42357451  1
  O  O98  1  0.85666825  0.49233450  0.42411717  1
  O  O99  1  0.35237793  0.48803775  0.07806902  1
  O  O100  1  0.14143196  0.64229336  0.07800276  1
  O  O101  1  0.50274999  0.85828075  0.07705433  1
  O  O102  1  0.36053001  0.85894925  0.57739978  1
  O  O103  1  0.51004653  0.64302407  0.57849611  1
  O  O104  1  0.13376330  0.48702836  0.57731414  1
  O  O105  1  0.31355563  0.83536447  0.25859864  1
  O  O106  1  0.52062865  0.68652429  0.25979081  1
  O  O107  1  0.16664481  0.47723661  0.25854059  1
  O  O108  1  0.31151038  0.47818405  0.75920484  1
  O  O109  1  0.16402284  0.68533890  0.75918955  1
  O  O110  1  0.52299378  0.83486016  0.75815720  1
