# generated using pymatgen
data_NaHfGe(PO4)3
_symmetry_space_group_name_H-M   'P 1'
_cell_length_a   8.61649668
_cell_length_b   8.61649641
_cell_length_c   22.32697078
_cell_angle_alpha   90.00000000
_cell_angle_beta   90.00000000
_cell_angle_gamma   120.00000102
_symmetry_Int_Tables_number   1
_chemical_formula_structural   NaHfGe(PO4)3
_chemical_formula_sum   'Na6 Hf6 Ge6 P18 O72'
_cell_volume   1435.56171590
_cell_formula_units_Z   6
loop_
 _symmetry_equiv_pos_site_id
 _symmetry_equiv_pos_as_xyz
  1  'x, y, z'
loop_
 _atom_site_type_symbol
 _atom_site_label
 _atom_site_symmetry_multiplicity
 _atom_site_fract_x
 _atom_site_fract_y
 _atom_site_fract_z
 _atom_site_occupancy
  Na  Na0  1  -0.00000000  -0.00000000  0.50422905  1
  Na  Na1  1  -0.00000000  -0.00000000  0.00220747  1
  Na  Na2  1  0.66666700  0.33333300  0.82943723  1
  Na  Na3  1  0.66666700  0.33333300  0.33859435  1
  Na  Na4  1  0.33333300  0.66666700  0.17073932  1
  Na  Na5  1  0.33333300  0.66666700  0.66132825  1
  Hf  Hf6  1  -0.00000000  -0.00000000  0.36209640  1
  Hf  Hf7  1  -0.00000000  -0.00000000  0.84915945  1
  Hf  Hf8  1  0.66666700  0.33333300  0.19300009  1
  Hf  Hf9  1  0.66666700  0.33333300  0.98191878  1
  Hf  Hf10  1  0.33333300  0.66666700  0.02364544  1
  Hf  Hf11  1  0.33333300  0.66666700  0.80538253  1
  Ge  Ge12  1  -0.00000000  -0.00000000  0.64183028  1
  Ge  Ge13  1  -0.00000000  -0.00000000  0.15192915  1
  Ge  Ge14  1  0.66666700  0.33333300  0.68006680  1
  Ge  Ge15  1  0.66666700  0.33333300  0.48185329  1
  Ge  Ge16  1  0.33333300  0.66666700  0.52245110  1
  Ge  Ge17  1  0.33333300  0.66666700  0.31675702  1
  P  P18  1  0.27745120  0.98204666  0.25328133  1
  P  P19  1  0.70459546  0.72254880  0.25328133  1
  P  P20  1  0.01795334  0.29540454  0.25328133  1
  P  P21  1  0.29490910  0.28196000  0.74005614  1
  P  P22  1  0.98705090  0.70509090  0.74005614  1
  P  P23  1  0.71804000  0.01294910  0.74005614  1
  P  P24  1  0.95384706  0.33291393  0.58130156  1
  P  P25  1  0.37906787  0.04615294  0.58130156  1
  P  P26  1  0.66708607  0.62093213  0.58130156  1
  P  P27  1  0.95693043  0.63896702  0.08812090  1
  P  P28  1  0.68203759  0.04306957  0.08812090  1
  P  P29  1  0.36103298  0.31796241  0.08812090  1
  P  P30  1  0.62318446  0.66540236  0.91481338  1
  P  P31  1  0.04221690  0.37681554  0.91481338  1
  P  P32  1  0.33459764  0.95778310  0.91481338  1
  P  P33  1  0.60321215  0.95307984  0.42121446  1
  P  P34  1  0.34986670  0.39678785  0.42121446  1
  P  P35  1  0.04692016  0.65013330  0.42121446  1
  O  O36  1  0.19558729  0.01321248  0.30928305  1
  O  O37  1  0.81762519  0.80441271  0.30928305  1
  O  O38  1  0.98678752  0.18237481  0.30928305  1
  O  O39  1  0.21259315  0.17375323  0.79778692  1
  O  O40  1  0.96116008  0.78740685  0.79778692  1
  O  O41  1  0.82624677  0.03883992  0.79778692  1
  O  O42  1  0.80263918  0.97504475  0.68503038  1
  O  O43  1  0.17240556  0.19736082  0.68503038  1
  O  O44  1  0.02495525  0.82759444  0.68503038  1
  O  O45  1  0.79147013  0.83611158  0.19594311  1
  O  O46  1  0.04464145  0.20852987  0.19594311  1
  O  O47  1  0.16388842  0.95535855  0.19594311  1
  O  O48  1  0.87246942  0.37247455  0.63700047  1
  O  O49  1  0.50000613  0.12753058  0.63700047  1
  O  O50  1  0.62752545  0.49999387  0.63700047  1
  O  O51  1  0.86870983  0.52000788  0.14272735  1
  O  O52  1  0.65129905  0.13129017  0.14272735  1
  O  O53  1  0.47999212  0.34870095  0.14272735  1
  O  O54  1  0.44933814  0.29706642  0.03065122  1
  O  O55  1  0.84772928  0.55066186  0.03065122  1
  O  O56  1  0.70293358  0.15227072  0.03065122  1
  O  O57  1  0.46038742  0.16762513  0.52550311  1
  O  O58  1  0.70723871  0.53961258  0.52550311  1
  O  O59  1  0.83237487  0.29276129  0.52550311  1
  O  O60  1  0.53450301  0.68369586  0.97203222  1
  O  O61  1  0.14919185  0.46549699  0.97203222  1
  O  O62  1  0.31630414  0.85080815  0.97203222  1
  O  O63  1  0.52593554  0.83709089  0.47776673  1
  O  O64  1  0.31115435  0.47406446  0.47776673  1
  O  O65  1  0.16290911  0.68884565  0.47776673  1
  O  O66  1  0.12808921  0.61900441  0.36332107  1
  O  O67  1  0.49091420  0.87191079  0.36332107  1
  O  O68  1  0.38099559  0.50908580  0.36332107  1
  O  O69  1  0.13272835  0.48441150  0.85779122  1
  O  O70  1  0.35168215  0.86727165  0.85779122  1
  O  O71  1  0.51558850  0.64831785  0.85779122  1
  O  O72  1  0.02235241  0.81548897  0.41554786  1
  O  O73  1  0.79313657  0.97764759  0.41554786  1
  O  O74  1  0.18451103  0.20686343  0.41554786  1
  O  O75  1  0.02340038  0.19039266  0.91001892  1
  O  O76  1  0.16699228  0.97659962  0.91001892  1
  O  O77  1  0.80960734  0.83300772  0.91001892  1
  O  O78  1  0.97521065  0.16393330  0.58752604  1
  O  O79  1  0.18872265  0.02478935  0.58752604  1
  O  O80  1  0.83606670  0.81127735  0.58752604  1
  O  O81  1  0.96513620  0.82052648  0.09476173  1
  O  O82  1  0.85539028  0.03486380  0.09476173  1
  O  O83  1  0.17947352  0.14460972  0.09476173  1
  O  O84  1  0.70565863  0.18554720  0.73432652  1
  O  O85  1  0.47988957  0.29434137  0.73432652  1
  O  O86  1  0.81445280  0.52011043  0.73432652  1
  O  O87  1  0.67832791  0.53218232  0.24773302  1
  O  O88  1  0.85385541  0.32167209  0.24773302  1
  O  O89  1  0.46781768  0.14614459  0.24773302  1
  O  O90  1  0.64065947  0.49707369  0.91964545  1
  O  O91  1  0.85641523  0.35934053  0.91964545  1
  O  O92  1  0.50292631  0.14358477  0.91964545  1
  O  O93  1  0.61793775  0.14026165  0.42683992  1
  O  O94  1  0.52232490  0.38206225  0.42683992  1
  O  O95  1  0.85973835  0.47767510  0.42683992  1
  O  O96  1  0.33302075  0.48043457  0.08231125  1
  O  O97  1  0.14741282  0.66697925  0.08231125  1
  O  O98  1  0.51956543  0.85258718  0.08231125  1
  O  O99  1  0.35816488  0.85569817  0.57566977  1
  O  O100  1  0.49753229  0.64183512  0.57566977  1
  O  O101  1  0.14430183  0.50246771  0.57566977  1
  O  O102  1  0.28815877  0.80823940  0.25971088  1
  O  O103  1  0.52007962  0.71184123  0.25971088  1
  O  O104  1  0.19176060  0.47992038  0.25971088  1
  O  O105  1  0.31923889  0.47111657  0.74674202  1
  O  O106  1  0.15187668  0.68076111  0.74674202  1
  O  O107  1  0.52888343  0.84812332  0.74674202  1
