# generated using pymatgen
data_InGa(SO4)3
_symmetry_space_group_name_H-M   'P 1'
_cell_length_a   8.66901931
_cell_length_b   8.66901905
_cell_length_c   22.65301893
_cell_angle_alpha   90.00000000
_cell_angle_beta   90.00000000
_cell_angle_gamma   120.00000105
_symmetry_Int_Tables_number   1
_chemical_formula_structural   InGa(SO4)3
_chemical_formula_sum   'In6 Ga6 S18 O72'
_cell_volume   1474.33658478
_cell_formula_units_Z   6
loop_
 _symmetry_equiv_pos_site_id
 _symmetry_equiv_pos_as_xyz
  1  'x, y, z'
loop_
 _atom_site_type_symbol
 _atom_site_label
 _atom_site_symmetry_multiplicity
 _atom_site_fract_x
 _atom_site_fract_y
 _atom_site_fract_z
 _atom_site_occupancy
  In  In0  1  -0.00000000  -0.00000000  0.85019236  1
  In  In1  1  0.66666700  0.33333300  0.98314064  1
  In  In2  1  0.33333300  0.66666700  0.02314218  1
  In  In3  1  0.33333300  0.66666700  0.52014302  1
  In  In4  1  0.33333300  0.66666700  0.31319098  1
  In  In5  1  0.33333300  0.66666700  0.81019182  1
  Ga  Ga6  1  -0.00000000  -0.00000000  0.35113595  1
  Ga  Ga7  1  -0.00000000  -0.00000000  0.64596099  1
  Ga  Ga8  1  -0.00000000  -0.00000000  0.14864996  1
  Ga  Ga9  1  0.66666700  0.33333300  0.68468304  1
  Ga  Ga10  1  0.66666700  0.33333300  0.18737201  1
  Ga  Ga11  1  0.66666700  0.33333300  0.48219705  1
  S  S12  1  0.28963157  0.00761016  0.24849791  1
  S  S13  1  0.71797858  0.71036843  0.24849791  1
  S  S14  1  0.99238984  0.28202142  0.24849791  1
  S  S15  1  0.29639359  0.28826939  0.74539110  1
  S  S16  1  0.99187580  0.70360641  0.74539110  1
  S  S17  1  0.71173061  0.00812420  0.74539110  1
  S  S18  1  0.94868842  0.32572284  0.58483509  1
  S  S19  1  0.37703543  0.05131158  0.58483509  1
  S  S20  1  0.67427716  0.62296457  0.58483509  1
  S  S21  1  0.95493639  0.62972659  0.08794190  1
  S  S22  1  0.67479120  0.04506361  0.08794190  1
  S  S23  1  0.37027341  0.32520880  0.08794190  1
  S  S24  1  0.62745524  0.66666700  0.91666700  1
  S  S25  1  0.03921076  0.37254476  0.91666700  1
  S  S26  1  0.33333300  0.96078924  0.91666700  1
  S  S27  1  0.63675457  0.97008857  0.41666700  1
  S  S28  1  0.33333300  0.36324543  0.41666700  1
  S  S29  1  0.02991143  0.66666700  0.41666700  1
  O  O30  1  0.21040508  0.03848646  0.30252226  1
  O  O31  1  0.82808138  0.78959492  0.30252226  1
  O  O32  1  0.96151354  0.17191862  0.30252226  1
  O  O33  1  0.22669105  0.18333872  0.80045823  1
  O  O34  1  0.95664767  0.77330895  0.80045823  1
  O  O35  1  0.81666128  0.04335233  0.80045823  1
  O  O36  1  0.79853599  0.97494142  0.69431935  1
  O  O37  1  0.17640542  0.20146401  0.69431935  1
  O  O38  1  0.02505858  0.82359458  0.69431935  1
  O  O39  1  0.79851309  0.82431811  0.19586271  1
  O  O40  1  0.02580503  0.20148691  0.19586271  1
  O  O41  1  0.17568189  0.97419497  0.19586271  1
  O  O42  1  0.86815391  0.35913803  0.63747029  1
  O  O43  1  0.49098511  0.13184609  0.63747029  1
  O  O44  1  0.64086197  0.50901489  0.63747029  1
  O  O45  1  0.86813101  0.50973842  0.13901365  1
  O  O46  1  0.64160842  0.13186899  0.13901365  1
  O  O47  1  0.49026158  0.35839158  0.13901365  1
  O  O48  1  0.43997595  0.28998067  0.03287477  1
  O  O49  1  0.85000572  0.56002405  0.03287477  1
  O  O50  1  0.71001933  0.14999428  0.03287477  1
  O  O51  1  0.45626192  0.16141438  0.53081074  1
  O  O52  1  0.70515346  0.54373808  0.53081074  1
  O  O53  1  0.83858562  0.29484654  0.53081074  1
  O  O54  1  0.54875669  0.69745586  0.97018691  1
  O  O55  1  0.14869817  0.45124331  0.97018691  1
  O  O56  1  0.30254414  0.85130183  0.97018691  1
  O  O57  1  0.56080466  0.85402183  0.46936870  1
  O  O58  1  0.29321617  0.43919534  0.46936870  1
  O  O59  1  0.14597817  0.70678383  0.46936870  1
  O  O60  1  0.10586134  0.62655017  0.36396530  1
  O  O61  1  0.52068783  0.89413866  0.36396530  1
  O  O62  1  0.37344982  0.47931217  0.36396530  1
  O  O63  1  0.11790931  0.48203217  0.86314709  1
  O  O64  1  0.36412186  0.88209069  0.86314709  1
  O  O65  1  0.51796783  0.63587814  0.86314709  1
  O  O66  1  0.01273255  0.82623858  0.40614458  1
  O  O67  1  0.81350603  0.98726745  0.40614458  1
  O  O68  1  0.17376142  0.18649397  0.40614458  1
  O  O69  1  0.02332952  0.19638076  0.91068125  1
  O  O70  1  0.17305124  0.97667048  0.91068125  1
  O  O71  1  0.80361924  0.82694876  0.91068125  1
  O  O72  1  0.96572774  0.16520610  0.59291240  1
  O  O73  1  0.19947836  0.03427226  0.59291240  1
  O  O74  1  0.83479390  0.80052164  0.59291240  1
  O  O75  1  0.97341791  0.80722963  0.09646920  1
  O  O76  1  0.83381172  0.02658209  0.09646920  1
  O  O77  1  0.19277037  0.16618828  0.09646920  1
  O  O78  1  0.69324909  0.16714472  0.73686380  1
  O  O79  1  0.47389663  0.30675091  0.73686380  1
  O  O80  1  0.83285528  0.52610337  0.73686380  1
  O  O81  1  0.70093926  0.53281136  0.24042060  1
  O  O82  1  0.83187310  0.29906074  0.24042060  1
  O  O83  1  0.46718864  0.16812690  0.24042060  1
  O  O84  1  0.64333748  0.50638424  0.92265175  1
  O  O85  1  0.86304776  0.35666252  0.92265175  1
  O  O86  1  0.49361576  0.13695224  0.92265175  1
  O  O87  1  0.65393445  0.14683903  0.42718842  1
  O  O88  1  0.49290558  0.34606555  0.42718842  1
  O  O89  1  0.85316097  0.50709442  0.42718842  1
  O  O90  1  0.35474270  0.48600684  0.08202626  1
  O  O91  1  0.13126315  0.64525730  0.08202626  1
  O  O92  1  0.51399316  0.86873685  0.08202626  1
  O  O93  1  0.35932564  0.87363093  0.57848370  1
  O  O94  1  0.51430429  0.64067436  0.57848370  1
  O  O95  1  0.12636907  0.48569571  0.57848370  1
  O  O96  1  0.30734036  0.84763829  0.25485030  1
  O  O97  1  0.54029693  0.69265964  0.25485030  1
  O  O98  1  0.15236171  0.45970307  0.25485030  1
  O  O99  1  0.31192330  0.46459715  0.75130774  1
  O  O100  1  0.15267284  0.68807670  0.75130774  1
  O  O101  1  0.53540285  0.84732716  0.75130774  1
