# generated using pymatgen
data_Na4Ca3TiP2(SO6)4
_symmetry_space_group_name_H-M   'P 1'
_cell_length_a   9.12829105
_cell_length_b   9.16513723
_cell_length_c   23.35560429
_cell_angle_alpha   90.30706721
_cell_angle_beta   89.96164221
_cell_angle_gamma   119.77948200
_symmetry_Int_Tables_number   1
_chemical_formula_structural   Na4Ca3TiP2(SO6)4
_chemical_formula_sum   'Na12 Ca9 Ti3 P6 S12 O72'
_cell_volume   1695.91299100
_cell_formula_units_Z   3
loop_
 _symmetry_equiv_pos_site_id
 _symmetry_equiv_pos_as_xyz
  1  'x, y, z'
loop_
 _atom_site_type_symbol
 _atom_site_label
 _atom_site_symmetry_multiplicity
 _atom_site_fract_x
 _atom_site_fract_y
 _atom_site_fract_z
 _atom_site_occupancy
  Na  Na0  1  0.63794114  0.00027888  0.25585513  1
  Na  Na1  1  0.36017723  0.36055976  0.24994283  1
  Na  Na2  1  0.31190946  0.34562506  0.59187854  1
  Na  Na3  1  0.66359120  0.95066696  0.57888792  1
  Na  Na4  1  0.98781148  0.68093137  0.91442012  1
  Na  Na5  1  0.31835870  0.29785943  0.91039750  1
  Na  Na6  1  0.97962108  0.97570598  0.49597057  1
  Na  Na7  1  0.98511573  0.00237769  0.99682461  1
  Na  Na8  1  0.65689467  0.31870506  0.82357343  1
  Na  Na9  1  0.68075507  0.33781035  0.34093724  1
  Na  Na10  1  0.31412349  0.66489022  0.15927913  1
  Na  Na11  1  0.32613730  0.66325565  0.67713897  1
  Ca  Ca12  1  0.99438798  0.99646664  0.35463506  1
  Ca  Ca13  1  0.99368493  0.00100029  0.84719461  1
  Ca  Ca14  1  0.00145529  0.99121034  0.65646302  1
  Ca  Ca15  1  0.99947606  0.99426874  0.14158536  1
  Ca  Ca16  1  0.66775607  0.34378168  0.68849703  1
  Ca  Ca17  1  0.67613374  0.34238015  0.18056973  1
  Ca  Ca18  1  0.33900457  0.67053367  0.01684343  1
  Ca  Ca19  1  0.33305632  0.66954028  0.51191344  1
  Ca  Ca20  1  0.33453126  0.68069175  0.32845789  1
  Ti  Ti21  1  0.66490165  0.32506862  0.97478521  1
  Ti  Ti22  1  0.66880067  0.33892734  0.48273457  1
  Ti  Ti23  1  0.33508024  0.65670109  0.82231274  1
  P  P24  1  0.30678921  0.32004065  0.75525576  1
  P  P25  1  0.66738889  0.62342044  0.57910940  1
  P  P26  1  0.62470227  0.65270455  0.91890143  1
  P  P27  1  0.03577565  0.37855143  0.91838810  1
  P  P28  1  0.34359924  0.96267808  0.91741350  1
  P  P29  1  0.64546315  0.99295207  0.42176753  1
  S  S30  1  0.30182742  0.00045325  0.24928003  1
  S  S31  1  0.69369911  0.69901522  0.25028749  1
  S  S32  1  0.00394653  0.29888125  0.24998871  1
  S  S33  1  0.01905871  0.69388169  0.75678570  1
  S  S34  1  0.67536534  0.98185704  0.75114306  1
  S  S35  1  0.95401266  0.33023050  0.58016221  1
  S  S36  1  0.38191680  0.05115210  0.58014450  1
  S  S37  1  0.95445951  0.62265957  0.07634043  1
  S  S38  1  0.66937198  0.04888963  0.07970411  1
  S  S39  1  0.37668206  0.33124392  0.07948012  1
  S  S40  1  0.34656424  0.35882405  0.41913475  1
  S  S41  1  0.01195657  0.65296750  0.42067343  1
  O  O42  1  0.21830712  0.01613598  0.30070163  1
  O  O43  1  0.79022730  0.78026957  0.30217368  1
  O  O44  1  0.98622504  0.19716684  0.30096266  1
  O  O45  1  0.21489860  0.21011689  0.80640167  1
  O  O46  1  0.99611380  0.77194511  0.80860970  1
  O  O47  1  0.78661888  0.00279121  0.79898958  1
  O  O48  1  0.74378120  0.95802655  0.69578843  1
  O  O49  1  0.20999693  0.25535319  0.69714703  1
  O  O50  1  0.04006711  0.79475442  0.70492317  1
  O  O51  1  0.77724456  0.79736704  0.19864356  1
  O  O52  1  0.02180570  0.21604725  0.19780383  1
  O  O53  1  0.20633313  0.98831155  0.19702309  1
  O  O54  1  0.87734591  0.34425216  0.63294708  1
  O  O55  1  0.47802731  0.12560333  0.63263536  1
  O  O56  1  0.64897802  0.52307397  0.63248761  1
  O  O57  1  0.87332974  0.53724600  0.12965495  1
  O  O58  1  0.66467178  0.12299875  0.13533295  1
  O  O59  1  0.45908310  0.33554499  0.13448474  1
  O  O60  1  0.48207600  0.32971315  0.02923528  1
  O  O61  1  0.85181915  0.52085572  0.02482355  1
  O  O62  1  0.67094949  0.16009173  0.03094794  1
  O  O63  1  0.47839355  0.15709964  0.52933646  1
  O  O64  1  0.67196799  0.51265154  0.52640986  1
  O  O65  1  0.84861228  0.32468752  0.52919277  1
  O  O66  1  0.55424060  0.68185979  0.97245933  1
  O  O67  1  0.13977289  0.45395712  0.97134011  1
  O  O68  1  0.30443931  0.85877782  0.97081760  1
  O  O69  1  0.55301864  0.88197815  0.47283799  1
  O  O70  1  0.32546268  0.44262648  0.46937461  1
  O  O71  1  0.11528811  0.67174946  0.47052788  1
  O  O72  1  0.08159106  0.62416079  0.36749896  1
  O  O73  1  0.54655120  0.92903527  0.36422532  1
  O  O74  1  0.36925209  0.45577890  0.36582672  1
  O  O75  1  0.12948321  0.50387620  0.86628528  1
  O  O76  1  0.37113268  0.87225085  0.86518307  1
  O  O77  1  0.49942603  0.62570233  0.86669283  1
  O  O78  1  0.98654434  0.79930818  0.41647853  1
  O  O79  1  0.82586701  0.02138179  0.41850622  1
  O  O80  1  0.20392190  0.18606434  0.41509938  1
  O  O81  1  0.00914321  0.20206564  0.90843883  1
  O  O82  1  0.19995674  0.00432128  0.90769268  1
  O  O83  1  0.80694583  0.78759679  0.90764467  1
  O  O84  1  0.95946321  0.16882967  0.57888390  1
  O  O85  1  0.21669591  0.04823496  0.58087069  1
  O  O86  1  0.82459837  0.80162486  0.57689506  1
  O  O87  1  0.96202432  0.78855141  0.07308886  1
  O  O88  1  0.82716955  0.04051894  0.07453911  1
  O  O89  1  0.20998638  0.17485966  0.07531933  1
  O  O90  1  0.65002710  0.12927413  0.74824082  1
  O  O91  1  0.48896424  0.35280881  0.75270538  1
  O  O92  1  0.87473714  0.52132557  0.75127582  1
  O  O93  1  0.66358076  0.52335429  0.24739111  1
  O  O94  1  0.84760066  0.31269241  0.24719011  1
  O  O95  1  0.47507958  0.15790589  0.24726427  1
  O  O96  1  0.62449522  0.47610149  0.92415378  1
  O  O97  1  0.85621521  0.37043762  0.92430674  1
  O  O98  1  0.51153186  0.14523082  0.92741818  1
  O  O99  1  0.66021377  0.17234869  0.43316410  1
  O  O100  1  0.50652894  0.34719751  0.42556401  1
  O  O101  1  0.83963038  0.49677744  0.42742546  1
  O  O102  1  0.35781874  0.48166314  0.07821313  1
  O  O103  1  0.12446275  0.64266352  0.07617507  1
  O  O104  1  0.51948854  0.88200046  0.07676249  1
  O  O105  1  0.35898980  0.88010610  0.57442323  1
  O  O106  1  0.50430651  0.63837766  0.57400658  1
  O  O107  1  0.12890594  0.47240819  0.57490681  1
  O  O108  1  0.33095346  0.85376268  0.25190429  1
  O  O109  1  0.52083093  0.68523798  0.25349531  1
  O  O110  1  0.15916835  0.46832587  0.25455591  1
  O  O111  1  0.31834496  0.49919062  0.76857304  1
  O  O112  1  0.17888532  0.68395384  0.76252602  1
  O  O113  1  0.50650620  0.82470057  0.76011644  1
