# generated using pymatgen
data_Na3NbSi3GeO12
_symmetry_space_group_name_H-M   'P 1'
_cell_length_a   15.53360522
_cell_length_b   8.88085244
_cell_length_c   8.92041858
_cell_angle_alpha   90.00000000
_cell_angle_beta   125.01204654
_cell_angle_gamma   90.00000000
_symmetry_Int_Tables_number   1
_chemical_formula_structural   Na3NbSi3GeO12
_chemical_formula_sum   'Na12 Nb4 Si12 Ge4 O48'
_cell_volume   1007.88903363
_cell_formula_units_Z   4
loop_
 _symmetry_equiv_pos_site_id
 _symmetry_equiv_pos_as_xyz
  1  'x, y, z'
loop_
 _atom_site_type_symbol
 _atom_site_label
 _atom_site_symmetry_multiplicity
 _atom_site_fract_x
 _atom_site_fract_y
 _atom_site_fract_z
 _atom_site_occupancy
  Na  Na0  1  0.24919078  0.72776274  0.99219396  1
  Na  Na1  1  0.74919078  0.77223726  0.49219396  1
  Na  Na2  1  0.74919078  0.22776274  0.99219396  1
  Na  Na3  1  0.24919078  0.27223726  0.49219396  1
  Na  Na4  1  0.49600643  0.11218108  0.74357903  1
  Na  Na5  1  0.49600643  0.88781892  0.24357903  1
  Na  Na6  1  0.99600643  0.61218108  0.74357903  1
  Na  Na7  1  0.99600643  0.38781892  0.24357903  1
  Na  Na8  1  0.19167760  0.94215072  0.28060863  1
  Na  Na9  1  0.19167760  0.05784928  0.78060863  1
  Na  Na10  1  0.69167760  0.44215072  0.28060863  1
  Na  Na11  1  0.69167760  0.55784928  0.78060863  1
  Nb  Nb12  1  0.89215875  0.75450393  0.92916339  1
  Nb  Nb13  1  0.89215875  0.24549607  0.42916339  1
  Nb  Nb14  1  0.39215875  0.25450393  0.92916339  1
  Nb  Nb15  1  0.39215875  0.74549607  0.42916339  1
  Si  Si16  1  0.00556863  0.96066340  0.75866885  1
  Si  Si17  1  0.00556863  0.03933660  0.25866885  1
  Si  Si18  1  0.50556863  0.46066340  0.75866885  1
  Si  Si19  1  0.50556863  0.53933660  0.25866885  1
  Si  Si20  1  0.35380875  0.87862668  0.75924918  1
  Si  Si21  1  0.64074635  0.89945252  0.74931358  1
  Si  Si22  1  0.64074635  0.10054748  0.24931358  1
  Si  Si23  1  0.35380875  0.12137332  0.25924918  1
  Si  Si24  1  0.85380875  0.37862668  0.75924918  1
  Si  Si25  1  0.14074635  0.39945252  0.74931358  1
  Si  Si26  1  0.14074635  0.60054748  0.24931358  1
  Si  Si27  1  0.85380875  0.62137332  0.25924918  1
  Ge  Ge28  1  0.10495702  0.74814046  0.56660558  1
  Ge  Ge29  1  0.10495702  0.25185954  0.06660558  1
  Ge  Ge30  1  0.60495702  0.24814046  0.56660558  1
  Ge  Ge31  1  0.60495702  0.75185954  0.06660558  1
  O  O32  1  0.14346706  0.58197075  0.73590575  1
  O  O33  1  0.84626310  0.56576937  0.76479265  1
  O  O34  1  0.84626310  0.43423063  0.26479265  1
  O  O35  1  0.14346706  0.41802925  0.23590575  1
  O  O36  1  0.64346706  0.08197075  0.73590575  1
  O  O37  1  0.34626310  0.06576937  0.76479265  1
  O  O38  1  0.34626310  0.93423063  0.26479265  1
  O  O39  1  0.64346706  0.91802925  0.23590575  1
  O  O40  1  0.43727044  0.56985599  0.57876032  1
  O  O41  1  0.57939562  0.56431589  0.94132613  1
  O  O42  1  0.57939562  0.43568411  0.44132613  1
  O  O43  1  0.43727044  0.43014401  0.07876032  1
  O  O44  1  0.93727044  0.06985599  0.57876032  1
  O  O45  1  0.07939562  0.06431589  0.94132613  1
  O  O46  1  0.07939562  0.93568411  0.44132613  1
  O  O47  1  0.93727044  0.93014401  0.07876032  1
  O  O48  1  0.25038874  0.81213701  0.74025268  1
  O  O49  1  0.73852048  0.81531382  0.76040781  1
  O  O50  1  0.73852048  0.18468618  0.26040781  1
  O  O51  1  0.25038874  0.18786299  0.24025268  1
  O  O52  1  0.75038874  0.31213701  0.74025268  1
  O  O53  1  0.23852048  0.31531382  0.76040781  1
  O  O54  1  0.23852048  0.68468618  0.26040781  1
  O  O55  1  0.75038874  0.68786299  0.24025268  1
  O  O56  1  0.35374033  0.85447018  0.57618500  1
  O  O57  1  0.63421732  0.86154129  0.92156362  1
  O  O58  1  0.63421732  0.13845871  0.42156362  1
  O  O59  1  0.35374033  0.14552982  0.07618500  1
  O  O60  1  0.85374033  0.35447018  0.57618500  1
  O  O61  1  0.13421732  0.36154129  0.92156362  1
  O  O62  1  0.13421732  0.63845871  0.42156362  1
  O  O63  1  0.85374033  0.64552982  0.07618500  1
  O  O64  1  0.46178588  0.81572594  0.94245137  1
  O  O65  1  0.53506759  0.83184652  0.56088628  1
  O  O66  1  0.53506759  0.16815348  0.06088628  1
  O  O67  1  0.46178588  0.18427406  0.44245137  1
  O  O68  1  0.96178588  0.31572594  0.94245137  1
  O  O69  1  0.03506759  0.33184652  0.56088628  1
  O  O70  1  0.03506759  0.66815348  0.06088628  1
  O  O71  1  0.96178588  0.68427406  0.44245137  1
  O  O72  1  0.08667570  0.85412488  0.74409187  1
  O  O73  1  0.91909341  0.85036559  0.75399430  1
  O  O74  1  0.91909341  0.14963441  0.25399430  1
  O  O75  1  0.08667570  0.14587512  0.24409187  1
  O  O76  1  0.58667570  0.35412488  0.74409187  1
  O  O77  1  0.41909341  0.35036559  0.75399430  1
  O  O78  1  0.41909341  0.64963441  0.25399430  1
  O  O79  1  0.58667570  0.64587512  0.24409187  1
