# generated using pymatgen
data_Na7HfZn3P5SO24
_symmetry_space_group_name_H-M   'P 1'
_cell_length_a   9.09235488
_cell_length_b   9.06594609
_cell_length_c   22.08267752
_cell_angle_alpha   89.25351451
_cell_angle_beta   90.43626066
_cell_angle_gamma   119.89554777
_symmetry_Int_Tables_number   1
_chemical_formula_structural   Na7HfZn3P5SO24
_chemical_formula_sum   'Na21 Hf3 Zn9 P15 S3 O72'
_cell_volume   1577.94112644
_cell_formula_units_Z   3
loop_
 _symmetry_equiv_pos_site_id
 _symmetry_equiv_pos_as_xyz
  1  'x, y, z'
loop_
 _atom_site_type_symbol
 _atom_site_label
 _atom_site_symmetry_multiplicity
 _atom_site_fract_x
 _atom_site_fract_y
 _atom_site_fract_z
 _atom_site_occupancy
  Na  Na0  1  0.62325529  0.99725424  0.25068470  1
  Na  Na1  1  0.36826635  0.36223723  0.25242658  1
  Na  Na2  1  0.00801041  0.63901724  0.24905458  1
  Na  Na3  1  0.64694284  0.63434607  0.74452111  1
  Na  Na4  1  0.99016970  0.35428731  0.74598109  1
  Na  Na5  1  0.29509166  0.33958506  0.58742175  1
  Na  Na6  1  0.03170873  0.70137426  0.58818810  1
  Na  Na7  1  0.67459638  0.95962082  0.58511125  1
  Na  Na8  1  0.29286139  0.95673615  0.08213061  1
  Na  Na9  1  0.66331219  0.70289866  0.07936808  1
  Na  Na10  1  0.04080724  0.33635301  0.07978139  1
  Na  Na11  1  0.97494676  0.68117091  0.90813602  1
  Na  Na12  1  0.32030649  0.29295599  0.90787336  1
  Na  Na13  1  0.32239004  0.02026873  0.40959455  1
  Na  Na14  1  0.69818694  0.67870941  0.41471291  1
  Na  Na15  1  0.99413685  0.01536420  0.49738870  1
  Na  Na16  1  0.98497210  -0.00000752  0.99414577  1
  Na  Na17  1  0.65026516  0.30206642  0.82399230  1
  Na  Na18  1  0.67116863  0.32472484  0.32937886  1
  Na  Na19  1  0.33249352  0.67213291  0.16343664  1
  Na  Na20  1  0.33413536  0.67131113  0.66315220  1
  Hf  Hf21  1  0.66749387  0.32814777  0.98080005  1
  Hf  Hf22  1  0.67749680  0.33747977  0.48044146  1
  Hf  Hf23  1  0.33558346  0.67578205  0.81521524  1
  Zn  Zn24  1  0.01021011  0.01039572  0.35201320  1
  Zn  Zn25  1  0.99669113  0.00241801  0.84524464  1
  Zn  Zn26  1  0.99559689  0.00281191  0.66095030  1
  Zn  Zn27  1  0.00893415  0.99782512  0.14749113  1
  Zn  Zn28  1  0.66967096  0.33715876  0.68465935  1
  Zn  Zn29  1  0.65590127  0.32194718  0.17466419  1
  Zn  Zn30  1  0.33739664  0.66787990  0.01292320  1
  Zn  Zn31  1  0.33042859  0.65453189  0.50858138  1
  Zn  Zn32  1  0.32855474  0.67241174  0.32803314  1
  P  P33  1  0.29819059  0.99857665  0.25001014  1
  P  P34  1  0.30015121  0.29872175  0.75110701  1
  P  P35  1  0.00136948  0.70479113  0.74993437  1
  P  P36  1  0.70282802  0.00193167  0.74784127  1
  P  P37  1  0.96718796  0.33576807  0.58724267  1
  P  P38  1  0.66470142  0.62958686  0.58423008  1
  P  P39  1  0.96024491  0.62672119  0.08649790  1
  P  P40  1  0.66759487  0.03278554  0.08800853  1
  P  P41  1  0.36962997  0.33552629  0.08513510  1
  P  P42  1  0.63250671  0.66979852  0.91964108  1
  P  P43  1  0.03772482  0.36963181  0.91946719  1
  P  P44  1  0.33149229  0.96247243  0.92069288  1
  P  P45  1  0.63295813  0.96443089  0.41649977  1
  P  P46  1  0.33277050  0.36709801  0.41668079  1
  P  P47  1  0.03679645  0.66963334  0.41595788  1
  S  S48  1  0.70311353  0.70332811  0.25008282  1
  S  S49  1  0.00008697  0.29533085  0.24844796  1
  S  S50  1  0.37425715  0.03988278  0.58334496  1
  O  O51  1  0.21303222  0.02208006  0.30690916  1
  O  O52  1  0.80257334  0.78816663  0.30547935  1
  O  O53  1  0.97695799  0.18430362  0.30168103  1
  O  O54  1  0.21585065  0.19763196  0.80927804  1
  O  O55  1  0.98125519  0.78992702  0.80644090  1
  O  O56  1  0.82139042  0.03060740  0.80133492  1
  O  O57  1  0.76748224  0.96108946  0.68869937  1
  O  O58  1  0.18988285  0.22313937  0.69322532  1
  O  O59  1  0.02394544  0.80648837  0.69052922  1
  O  O60  1  0.78547588  0.80562981  0.19452860  1
  O  O61  1  0.01618193  0.21807030  0.19155145  1
  O  O62  1  0.19100397  0.97469073  0.19187191  1
  O  O63  1  0.88720986  0.35777581  0.64479119  1
  O  O64  1  0.47977079  0.12572683  0.63589133  1
  O  O65  1  0.64166418  0.52172203  0.64154915  1
  O  O66  1  0.87524070  0.52056345  0.14431640  1
  O  O67  1  0.64327410  0.10796729  0.14685871  1
  O  O68  1  0.47264829  0.36043463  0.14389843  1
  O  O69  1  0.46995344  0.31773561  0.03026187  1
  O  O70  1  0.84777575  0.52967873  0.02971081  1
  O  O71  1  0.68559069  0.15583571  0.03377320  1
  O  O72  1  0.45994416  0.13948600  0.52605472  1
  O  O73  1  0.67571195  0.52842973  0.52781099  1
  O  O74  1  0.84554719  0.31640176  0.53244229  1
  O  O75  1  0.55234000  0.68594870  0.97810511  1
  O  O76  1  0.14008724  0.45108167  0.97727694  1
  O  O77  1  0.30992466  0.86263489  0.97959150  1
  O  O78  1  0.54755433  0.85502166  0.47359114  1
  O  O79  1  0.31680219  0.44684084  0.47558168  1
  O  O80  1  0.14661398  0.69379241  0.47238068  1
  O  O81  1  0.10847866  0.64141343  0.35714255  1
  O  O82  1  0.52279654  0.89168812  0.35877296  1
  O  O83  1  0.36482534  0.48061282  0.35963472  1
  O  O84  1  0.12976000  0.48843012  0.86360952  1
  O  O85  1  0.35048981  0.86543208  0.86631442  1
  O  O86  1  0.51402385  0.64351644  0.86402761  1
  O  O87  1  0.00926816  0.82515751  0.41284894  1
  O  O88  1  0.80964903  0.98195271  0.41093422  1
  O  O89  1  0.18314770  0.18363978  0.41251967  1
  O  O90  1  0.01920611  0.19364456  0.91239197  1
  O  O91  1  0.17568902  0.98537598  0.91373227  1
  O  O92  1  0.81447992  0.81729289  0.91210759  1
  O  O93  1  0.98196143  0.17288058  0.58650112  1
  O  O94  1  0.20546514  0.02900737  0.58381705  1
  O  O95  1  0.83107290  0.80372240  0.58252381  1
  O  O96  1  0.96926002  0.80262990  0.08471329  1
  O  O97  1  0.83270351  0.02272914  0.08708238  1
  O  O98  1  0.19394048  0.17019252  0.08433385  1
  O  O99  1  0.68077331  0.15863941  0.74273820  1
  O  O100  1  0.48303590  0.33192680  0.74655114  1
  O  O101  1  0.84408188  0.52295552  0.74844547  1
  O  O102  1  0.68919860  0.53179433  0.24863522  1
  O  O103  1  0.84847393  0.31904824  0.24741764  1
  O  O104  1  0.47939102  0.16205314  0.24716294  1
  O  O105  1  0.64013980  0.49786810  0.92123540  1
  O  O106  1  0.86088056  0.36309481  0.92165182  1
  O  O107  1  0.49390884  0.14427580  0.92186807  1
  O  O108  1  0.64716978  0.14493795  0.42302453  1
  O  O109  1  0.50002958  0.35059359  0.42051595  1
  O  O110  1  0.85217171  0.50935177  0.42234317  1
  O  O111  1  0.34942510  0.49449189  0.07889719  1
  O  O112  1  0.13899287  0.64686399  0.08202490  1
  O  O113  1  0.50913026  0.85553311  0.08100120  1
  O  O114  1  0.35290040  0.86642537  0.57971392  1
  O  O115  1  0.50603608  0.65170268  0.57915694  1
  O  O116  1  0.14327522  0.49804096  0.57951789  1
  O  O117  1  0.31691396  0.83560905  0.25420152  1
  O  O118  1  0.52919845  0.68167433  0.25214629  1
  O  O119  1  0.15717032  0.46563413  0.25285080  1
  O  O120  1  0.31536513  0.48272108  0.75607796  1
  O  O121  1  0.16159164  0.67988493  0.75528915  1
  O  O122  1  0.52428879  0.83611144  0.75745510  1
