# generated using pymatgen
data_AuClO
_symmetry_space_group_name_H-M   'P 1'
_cell_length_a   8.20221566
_cell_length_b   8.20221511
_cell_length_c   8.20221626
_cell_angle_alpha   113.37469073
_cell_angle_beta   113.37470019
_cell_angle_gamma   113.37469401
_symmetry_Int_Tables_number   1
_chemical_formula_structural   AuClO
_chemical_formula_sum   'Au6 Cl6 O6'
_cell_volume   350.25606762
_cell_formula_units_Z   6
loop_
 _symmetry_equiv_pos_site_id
 _symmetry_equiv_pos_as_xyz
  1  'x, y, z'
loop_
 _atom_site_type_symbol
 _atom_site_label
 _atom_site_symmetry_multiplicity
 _atom_site_fract_x
 _atom_site_fract_y
 _atom_site_fract_z
 _atom_site_occupancy
  Au  Au0  1  0.58446948  0.23260108  0.70381229  1
  Au  Au1  1  0.23260108  0.70381229  0.58446948  1
  Au  Au2  1  0.70381229  0.58446948  0.23260108  1
  Au  Au3  1  0.41553052  0.76739892  0.29618771  1
  Au  Au4  1  0.76739892  0.29618771  0.41553052  1
  Au  Au5  1  0.29618771  0.41553052  0.76739892  1
  Cl  Cl6  1  0.08537911  0.13113760  0.38082287  1
  Cl  Cl7  1  0.38082287  0.08537911  0.13113760  1
  Cl  Cl8  1  0.13113760  0.38082287  0.08537911  1
  Cl  Cl9  1  0.91462089  0.86886240  0.61917713  1
  Cl  Cl10  1  0.61917713  0.91462089  0.86886240  1
  Cl  Cl11  1  0.86886240  0.61917713  0.91462089  1
  O  O12  1  0.46849527  0.30886092  0.87129809  1
  O  O13  1  0.30886092  0.87129809  0.46849527  1
  O  O14  1  0.87129809  0.46849527  0.30886092  1
  O  O15  1  0.53150473  0.69113908  0.12870191  1
  O  O16  1  0.69113908  0.12870191  0.53150473  1
  O  O17  1  0.12870191  0.53150473  0.69113908  1
