# generated using pymatgen
data_Na4Sc3Nb(PO4)6
_symmetry_space_group_name_H-M   'P 1'
_cell_length_a   8.92931339
_cell_length_b   8.92215427
_cell_length_c   22.79033360
_cell_angle_alpha   89.94428095
_cell_angle_beta   90.08953641
_cell_angle_gamma   119.98695942
_symmetry_Int_Tables_number   1
_chemical_formula_structural   Na4Sc3Nb(PO4)6
_chemical_formula_sum   'Na12 Sc9 Nb3 P18 O72'
_cell_volume   1572.62661372
_cell_formula_units_Z   3
loop_
 _symmetry_equiv_pos_site_id
 _symmetry_equiv_pos_as_xyz
  1  'x, y, z'
loop_
 _atom_site_type_symbol
 _atom_site_label
 _atom_site_symmetry_multiplicity
 _atom_site_fract_x
 _atom_site_fract_y
 _atom_site_fract_z
 _atom_site_occupancy
  Na  Na0  1  0.63632042  0.99961666  0.25073105  1
  Na  Na1  1  0.36309777  0.36327117  0.25077808  1
  Na  Na2  1  0.99994971  0.63706590  0.25036439  1
  Na  Na3  1  0.29892247  0.33219828  0.58542199  1
  Na  Na4  1  0.03523198  0.69978445  0.58534579  1
  Na  Na5  1  0.66593989  0.70202493  0.08171287  1
  Na  Na6  1  0.99011092  0.99915338  0.49738102  1
  Na  Na7  1  0.00992996  0.00916337  0.99639628  1
  Na  Na8  1  0.66684481  0.33368345  0.82764495  1
  Na  Na9  1  0.66645718  0.33328017  0.33481003  1
  Na  Na10  1  0.32313434  0.66618089  0.16224941  1
  Na  Na11  1  0.34512759  0.67760650  0.66684298  1
  Sc  Sc12  1  0.00075736  0.00012311  0.35413091  1
  Sc  Sc13  1  0.99963396  0.99946602  0.85179685  1
  Sc  Sc14  1  0.99162654  0.99924125  0.65159066  1
  Sc  Sc15  1  0.00729101  0.00666598  0.14520023  1
  Sc  Sc16  1  0.66608325  0.33108770  0.68843807  1
  Sc  Sc17  1  0.66725317  0.33146982  0.18212308  1
  Sc  Sc18  1  0.32685776  0.66623583  0.01787921  1
  Sc  Sc19  1  0.33981454  0.67266783  0.51631409  1
  Sc  Sc20  1  0.33358000  0.66674307  0.32007224  1
  Nb  Nb21  1  0.66620193  0.33125037  0.97741200  1
  Nb  Nb22  1  0.66725505  0.33191523  0.47953769  1
  Nb  Nb23  1  0.33230614  0.66591394  0.81309627  1
  P  P24  1  0.29152161  0.99927116  0.25013383  1
  P  P25  1  0.70741752  0.70808084  0.24891677  1
  P  P26  1  0.00080997  0.29231365  0.25025009  1
  P  P27  1  0.29248797  0.29223011  0.75046914  1
  P  P28  1  0.99964167  0.70746594  0.75031545  1
  P  P29  1  0.70723961  -0.00004394  0.75203472  1
  P  P30  1  0.95682854  0.33225805  0.58352886  1
  P  P31  1  0.37682019  0.04182318  0.58402529  1
  P  P32  1  0.66617396  0.62275211  0.58374276  1
  P  P33  1  0.95882383  0.62375558  0.08343385  1
  P  P34  1  0.66603549  0.04035169  0.08308064  1
  P  P35  1  0.37561810  0.33322177  0.08255365  1
  P  P36  1  0.62363768  0.66790168  0.91872266  1
  P  P37  1  0.04409715  0.37602185  0.91756800  1
  P  P38  1  0.33178113  0.95563331  0.91728609  1
  P  P39  1  0.62979096  0.96209244  0.41638480  1
  P  P40  1  0.33272248  0.37081794  0.41801102  1
  P  P41  1  0.03815231  0.66726772  0.41779951  1
  O  O42  1  0.20960191  0.03275476  0.30396814  1
  O  O43  1  0.82526328  0.79418941  0.30206309  1
  O  O44  1  0.96792023  0.17704639  0.30409176  1
  O  O45  1  0.20201951  0.18080383  0.80354643  1
  O  O46  1  0.97831764  0.79762932  0.80341477  1
  O  O47  1  0.81663889  0.02260555  0.80580907  1
  O  O48  1  0.78176595  0.96341060  0.69589017  1
  O  O49  1  0.18620885  0.22148875  0.69272492  1
  O  O50  1  0.03442645  0.81366955  0.69258404  1
  O  O51  1  0.78589471  0.81746921  0.19265819  1
  O  O52  1  0.03308307  0.20991384  0.19572138  1
  O  O53  1  0.17672887  0.96709852  0.19557118  1
  O  O54  1  0.87305403  0.36506034  0.63628303  1
  O  O55  1  0.48754027  0.12840486  0.63757597  1
  O  O56  1  0.63545572  0.50733308  0.63690007  1
  O  O57  1  0.87734487  0.51998161  0.14038872  1
  O  O58  1  0.64241227  0.12084154  0.13978983  1
  O  O59  1  0.48413876  0.36183649  0.13907546  1
  O  O60  1  0.47709408  0.31475944  0.02908909  1
  O  O61  1  0.83605933  0.52327097  0.03008217  1
  O  O62  1  0.68437045  0.15996340  0.02962182  1
  O  O63  1  0.47257195  0.16042311  0.52893942  1
  O  O64  1  0.69004343  0.52759703  0.52853448  1
  O  O65  1  0.84094132  0.31209760  0.52815265  1
  O  O66  1  0.54266837  0.68858257  0.97484026  1
  O  O67  1  0.15153170  0.46130993  0.97188634  1
  O  O68  1  0.31058622  0.84905364  0.97177701  1
  O  O69  1  0.53836171  0.84964038  0.46968074  1
  O  O70  1  0.31268094  0.45822573  0.47296482  1
  O  O71  1  0.14526959  0.68708362  0.47287851  1
  O  O72  1  0.11442746  0.63424240  0.36145005  1
  O  O73  1  0.52263880  0.88975814  0.35934078  1
  O  O74  1  0.36635836  0.48044285  0.36156403  1
  O  O75  1  0.13192669  0.49416537  0.86288560  1
  O  O76  1  0.36116542  0.86747835  0.86272357  1
  O  O77  1  0.50360215  0.63907599  0.86471036  1
  O  O78  1  0.01287574  0.82375122  0.41220456  1
  O  O79  1  0.81118473  0.98723463  0.41168358  1
  O  O80  1  0.17607982  0.18945148  0.41232044  1
  O  O81  1  0.01714038  0.19478188  0.90983630  1
  O  O82  1  0.17802123  0.98347352  0.90980206  1
  O  O83  1  0.80493323  0.82193466  0.91044251  1
  O  O84  1  0.97799687  0.17148220  0.58619253  1
  O  O85  1  0.19745723  0.03127427  0.58568068  1
  O  O86  1  0.83527151  0.79868917  0.58624656  1
  O  O87  1  0.96173435  0.79853263  0.08531316  1
  O  O88  1  0.82975719  0.02322642  0.08507692  1
  O  O89  1  0.19844719  0.16890908  0.08486749  1
  O  O90  1  0.67965374  0.15538319  0.74548515  1
  O  O91  1  0.47604615  0.32084228  0.74519116  1
  O  O92  1  0.84457810  0.52391365  0.74488488  1
  O  O93  1  0.68531357  0.52324546  0.24421907  1
  O  O94  1  0.83832532  0.31405444  0.24433265  1
  O  O95  1  0.47566037  0.16177076  0.24411078  1
  O  O96  1  0.63701792  0.49706671  0.92451757  1
  O  O97  1  0.86082668  0.36320507  0.92452082  1
  O  O98  1  0.50241889  0.13910913  0.92408808  1
  O  O99  1  0.64490888  0.14530757  0.42542481  1
  O  O100  1  0.50076019  0.35489763  0.42588246  1
  O  O101  1  0.85414027  0.49913583  0.42542070  1
  O  O102  1  0.36701494  0.50037301  0.07609791  1
  O  O103  1  0.13734860  0.64285359  0.07723018  1
  O  O104  1  0.50716459  0.85826971  0.07690233  1
  O  O105  1  0.34898894  0.85807450  0.57666231  1
  O  O106  1  0.50213740  0.63631126  0.57556966  1
  O  O107  1  0.13805946  0.49612100  0.57560810  1
  O  O108  1  0.31210086  0.83625872  0.25630795  1
  O  O109  1  0.52403914  0.68740033  0.25593500  1
  O  O110  1  0.16331927  0.47628358  0.25638190  1
  O  O111  1  0.31025168  0.47792891  0.76017477  1
  O  O112  1  0.16777981  0.69033310  0.76002165  1
  O  O113  1  0.52180555  0.83198585  0.76065713  1
