# generated using pymatgen
data_Ga2NiP3H8NO14
_symmetry_space_group_name_H-M   'P 1'
_cell_length_a   8.32123986
_cell_length_b   8.32123986
_cell_length_c   8.90586766
_cell_angle_alpha   76.03648679
_cell_angle_beta   76.03648679
_cell_angle_gamma   74.63444777
_symmetry_Int_Tables_number   1
_chemical_formula_structural   Ga2NiP3H8NO14
_chemical_formula_sum   'Ga4 Ni2 P6 H16 N2 O28'
_cell_volume   566.59464691
_cell_formula_units_Z   2
loop_
 _symmetry_equiv_pos_site_id
 _symmetry_equiv_pos_as_xyz
  1  'x, y, z'
loop_
 _atom_site_type_symbol
 _atom_site_label
 _atom_site_symmetry_multiplicity
 _atom_site_fract_x
 _atom_site_fract_y
 _atom_site_fract_z
 _atom_site_occupancy
  Ga  Ga0  1  0.90293216  0.75523466  0.56896896  1
  Ga  Ga1  1  0.24476534  0.09706784  0.93103104  1
  Ga  Ga2  1  0.09706784  0.24476534  0.43103104  1
  Ga  Ga3  1  0.75523466  0.90293216  0.06896896  1
  Ni  Ni4  1  0.72341812  0.27658188  0.25000000  1
  Ni  Ni5  1  0.27658188  0.72341812  0.75000000  1
  P  P6  1  0.58436199  0.83616918  0.82204054  1
  P  P7  1  0.16383082  0.41563801  0.67795946  1
  P  P8  1  0.41563801  0.16383082  0.17795946  1
  P  P9  1  0.99814290  0.00185710  0.25000000  1
  P  P10  1  0.00185710  0.99814290  0.75000000  1
  P  P11  1  0.83616918  0.58436199  0.32204054  1
  H  H12  1  0.73147882  0.35749030  0.66264295  1
  H  H13  1  0.64250970  0.26852118  0.83735705  1
  H  H14  1  0.26852118  0.64250970  0.33735705  1
  H  H15  1  0.35749030  0.73147882  0.16264295  1
  H  H16  1  0.61274834  0.48220861  0.79262000  1
  H  H17  1  0.51779139  0.38725166  0.70738000  1
  H  H18  1  0.38725166  0.51779139  0.20738000  1
  H  H19  1  0.48220861  0.61274834  0.29262000  1
  H  H20  1  0.22549903  0.47811604  0.99260424  1
  H  H21  1  0.52188396  0.77450097  0.50739576  1
  H  H22  1  0.77450097  0.52188396  0.00739576  1
  H  H23  1  0.47811604  0.22549903  0.49260424  1
  H  H24  1  0.91833714  0.36693250  0.95688370  1
  H  H25  1  0.63306750  0.08166286  0.54311630  1
  H  H26  1  0.08166286  0.63306750  0.04311630  1
  H  H27  1  0.36693250  0.91833714  0.45688370  1
  N  N28  1  0.37297369  0.62702631  0.25000000  1
  N  N29  1  0.62702631  0.37297369  0.75000000  1
  O  O30  1  0.11442686  0.29751602  0.83764861  1
  O  O31  1  0.49807435  0.69913533  0.81619613  1
  O  O32  1  0.82677300  0.02650193  0.19994892  1
  O  O33  1  0.97349807  0.17322700  0.30005108  1
  O  O34  1  0.03335058  0.85250248  0.38505557  1
  O  O35  1  0.02650193  0.82677300  0.69994892  1
  O  O36  1  0.60203702  0.19491458  0.47895452  1
  O  O37  1  0.80508542  0.39796298  0.02104548  1
  O  O38  1  0.39796298  0.80508542  0.52104548  1
  O  O39  1  0.19491458  0.60203702  0.97895452  1
  O  O40  1  0.88557314  0.70248398  0.16235139  1
  O  O41  1  0.14749752  0.96664942  0.11494443  1
  O  O42  1  0.30086467  0.50192565  0.68380387  1
  O  O43  1  0.70248398  0.88557314  0.66235139  1
  O  O44  1  0.68747966  0.76647419  0.95469581  1
  O  O45  1  0.23352581  0.31252034  0.54530419  1
  O  O46  1  0.31252034  0.23352581  0.04530419  1
  O  O47  1  0.76647419  0.68747966  0.45469581  1
  O  O48  1  0.53438254  0.99255334  0.15451285  1
  O  O49  1  0.00744666  0.46561746  0.34548715  1
  O  O50  1  0.46561746  0.00744666  0.84548715  1
  O  O51  1  0.99255334  0.53438254  0.65451285  1
  O  O52  1  0.69913533  0.49807435  0.31619613  1
  O  O53  1  0.50192565  0.30086467  0.18380387  1
  O  O54  1  0.96664942  0.14749752  0.61494443  1
  O  O55  1  0.85250248  0.03335058  0.88505557  1
  O  O56  1  0.17322700  0.97349807  0.80005108  1
  O  O57  1  0.29751602  0.11442686  0.33764861  1
