# generated using pymatgen
data_Na3CaAlSi(SO6)2
_symmetry_space_group_name_H-M   'P 1'
_cell_length_a   9.17976090
_cell_length_b   9.18592813
_cell_length_c   22.35736730
_cell_angle_alpha   91.61883455
_cell_angle_beta   90.00000000
_cell_angle_gamma   119.97779349
_symmetry_Int_Tables_number   1
_chemical_formula_structural   Na3CaAlSi(SO6)2
_chemical_formula_sum   'Na18 Ca6 Al6 Si6 S12 O72'
_cell_volume   1632.19392610
_cell_formula_units_Z   6
loop_
 _symmetry_equiv_pos_site_id
 _symmetry_equiv_pos_as_xyz
  1  'x, y, z'
loop_
 _atom_site_type_symbol
 _atom_site_label
 _atom_site_symmetry_multiplicity
 _atom_site_fract_x
 _atom_site_fract_y
 _atom_site_fract_z
 _atom_site_occupancy
  Na  Na0  1  0.64160355  0.00536978  0.25354803  1
  Na  Na1  1  0.00318874  0.63570261  0.23798162  1
  Na  Na2  1  0.63251387  0.63570261  0.73798162  1
  Na  Na3  1  0.36376623  0.00536978  0.75354803  1
  Na  Na4  1  0.32577293  0.35104362  0.58679011  1
  Na  Na5  1  0.65940239  0.94873829  0.57760581  1
  Na  Na6  1  0.28933690  0.94873829  0.07760581  1
  Na  Na7  1  0.02527169  0.35104362  0.08679011  1
  Na  Na8  1  0.99641448  0.68625329  0.92537342  1
  Na  Na9  1  0.69365178  0.03468835  0.90776230  1
  Na  Na10  1  0.34103557  0.03468835  0.40776230  1
  Na  Na11  1  0.68983781  0.68625329  0.42537342  1
  Na  Na12  1  0.97654873  0.99499299  0.50074240  1
  Na  Na13  1  0.01844426  0.99499299  0.00074240  1
  Na  Na14  1  0.66494826  0.30465035  0.83470020  1
  Na  Na15  1  0.63970309  0.30465035  0.33470020  1
  Na  Na16  1  0.32313284  0.65799848  0.16702438  1
  Na  Na17  1  0.33486464  0.65799848  0.66702438  1
  Ca  Ca18  1  0.00707062  0.01671711  0.35034985  1
  Ca  Ca19  1  0.00964648  0.01671711  0.85034985  1
  Ca  Ca20  1  0.67331250  0.32899194  0.68375682  1
  Ca  Ca21  1  0.65568043  0.32899194  0.18375682  1
  Ca  Ca22  1  0.33565600  0.67034983  0.01653917  1
  Ca  Ca23  1  0.33469282  0.67034983  0.51653917  1
  Al  Al24  1  0.94620018  0.93880421  0.65493934  1
  Al  Al25  1  0.99260403  0.93880421  0.15493934  1
  Al  Al26  1  0.64714713  0.33907492  0.98579396  1
  Al  Al27  1  0.69192879  0.33907492  0.48579396  1
  Al  Al28  1  0.32788885  0.71192440  0.32152331  1
  Al  Al29  1  0.38403455  0.71192440  0.82152331  1
  Si  Si30  1  0.29703673  0.98630684  0.25430277  1
  Si  Si31  1  0.68927011  0.98630684  0.75430277  1
  Si  Si32  1  0.67787812  0.62527757  0.58345649  1
  Si  Si33  1  0.94740044  0.62527757  0.08345649  1
  Si  Si34  1  0.35184133  0.98466028  0.92281253  1
  Si  Si35  1  0.63281794  0.98466028  0.42281253  1
  S  S36  1  0.69759219  0.71326159  0.25032156  1
  S  S37  1  0.01719175  0.30622055  0.24643506  1
  S  S38  1  0.28902881  0.30622055  0.74643506  1
  S  S39  1  0.01566940  0.71326159  0.75032156  1
  S  S40  1  0.95871113  0.31914696  0.58134052  1
  S  S41  1  0.35376949  0.04160572  0.58282604  1
  S  S42  1  0.68783723  0.04160572  0.08282604  1
  S  S43  1  0.36043683  0.31914696  0.08134052  1
  S  S44  1  0.62399196  0.65026746  0.91361409  1
  S  S45  1  0.03328257  0.38268803  0.91534503  1
  S  S46  1  0.34940446  0.38268803  0.41534503  1
  S  S47  1  0.02627450  0.65026746  0.41361409  1
  O  O48  1  0.21996874  0.99920652  0.31658556  1
  O  O49  1  0.78840100  0.78687200  0.30673628  1
  O  O50  1  0.98268047  0.20019147  0.29818309  1
  O  O51  1  0.21751100  0.20019147  0.79818309  1
  O  O52  1  0.99847099  0.78687200  0.80673628  1
  O  O53  1  0.77923778  0.99920652  0.81658556  1
  O  O54  1  0.79170646  0.95674073  0.69610431  1
  O  O55  1  0.18946293  0.21776603  0.69091623  1
  O  O56  1  0.03144587  0.82918646  0.69927776  1
  O  O57  1  0.79774059  0.82918646  0.19927776  1
  O  O58  1  0.02830310  0.21776603  0.19091623  1
  O  O59  1  0.16503427  0.95674073  0.19610431  1
  O  O60  1  0.89049842  0.34251844  0.63695810  1
  O  O61  1  0.45446022  0.11105548  0.63857132  1
  O  O62  1  0.65269454  0.53157287  0.64501763  1
  O  O63  1  0.87887933  0.53157287  0.14501763  1
  O  O64  1  0.65659626  0.11105548  0.13857132  1
  O  O65  1  0.45202102  0.34251844  0.13695810  1
  O  O66  1  0.45654641  0.30347530  0.02868997  1
  O  O67  1  0.82121305  0.51508826  0.02426244  1
  O  O68  1  0.69967995  0.14848513  0.03121696  1
  O  O69  1  0.44880618  0.14848513  0.53121696  1
  O  O70  1  0.69387621  0.51508826  0.52426244  1
  O  O71  1  0.84692989  0.30347530  0.52868997  1
  O  O72  1  0.54712925  0.67443933  0.96655063  1
  O  O73  1  0.11494561  0.44799037  0.97412809  1
  O  O74  1  0.32550867  0.87842247  0.98133345  1
  O  O75  1  0.55291281  0.87842247  0.48133345  1
  O  O76  1  0.33304375  0.44799037  0.47412809  1
  O  O77  1  0.12730908  0.67443933  0.46655063  1
  O  O78  1  0.11698238  0.63682037  0.35819359  1
  O  O79  1  0.49644058  0.88195933  0.36289004  1
  O  O80  1  0.34967151  0.48944967  0.36619990  1
  O  O81  1  0.13977717  0.48944967  0.86619990  1
  O  O82  1  0.38551775  0.88195933  0.86289004  1
  O  O83  1  0.51983699  0.63682037  0.85819359  1
  O  O84  1  0.99892923  0.79554550  0.40943728  1
  O  O85  1  0.81250877  0.99449699  0.41467517  1
  O  O86  1  0.21261844  0.20557903  0.41128426  1
  O  O87  1  0.99296060  0.20557903  0.91128426  1
  O  O88  1  0.18198822  0.99449699  0.91467517  1
  O  O89  1  0.79661627  0.79554550  0.90943728  1
  O  O90  1  0.96200376  0.15833944  0.58094994  1
  O  O91  1  0.19270343  0.04482094  0.58707322  1
  O  O92  1  0.85036847  0.81898406  0.58838186  1
  O  O93  1  0.96861559  0.81898406  0.08838186  1
  O  O94  1  0.85211751  0.04482094  0.08707322  1
  O  O95  1  0.19633568  0.15833944  0.08094994  1
  O  O96  1  0.64575264  0.13575698  0.74850588  1
  O  O97  1  0.46513407  0.33669553  0.74307894  1
  O  O98  1  0.86716117  0.54707766  0.74211071  1
  O  O99  1  0.67991749  0.54707766  0.24211071  1
  O  O100  1  0.87156246  0.33669553  0.24307894  1
  O  O101  1  0.49000535  0.13575698  0.24850588  1
  O  O102  1  0.63267682  0.49253712  0.91519537  1
  O  O103  1  0.86905634  0.38299762  0.91319314  1
  O  O104  1  0.53351587  0.17020576  0.92999654  1
  O  O105  1  0.63669089  0.17020576  0.42999654  1
  O  O106  1  0.51394228  0.38299762  0.41319314  1
  O  O107  1  0.85986130  0.49253712  0.41519537  1
  O  O108  1  0.32976788  0.46092244  0.07509306  1
  O  O109  1  0.13893183  0.65448446  0.07899488  1
  O  O110  1  0.54703837  0.86755234  0.07643559  1
  O  O111  1  0.32051297  0.86755234  0.57643559  1
  O  O112  1  0.51555163  0.65448446  0.57899488  1
  O  O113  1  0.13115355  0.46092244  0.57509306  1
  O  O114  1  0.29991658  0.80173530  0.25516690  1
  O  O115  1  0.53363617  0.70803267  0.24962860  1
  O  O116  1  0.17472185  0.47296075  0.25409845  1
  O  O117  1  0.29823790  0.47296075  0.75409845  1
  O  O118  1  0.17439549  0.70803267  0.74962860  1
  O  O119  1  0.50181772  0.80173530  0.75516690  1
