# generated using pymatgen
data_CrCuH18N6Cl5
_symmetry_space_group_name_H-M   'P 1'
_cell_length_a   15.91082321
_cell_length_b   15.91082325
_cell_length_c   15.91082312
_cell_angle_alpha   60.00000028
_cell_angle_beta   60.00000019
_cell_angle_gamma   60.00000022
_symmetry_Int_Tables_number   1
_chemical_formula_structural   CrCuH18N6Cl5
_chemical_formula_sum   'Cr8 Cu8 H144 N48 Cl40'
_cell_volume   2848.15062758
_cell_formula_units_Z   8
loop_
 _symmetry_equiv_pos_site_id
 _symmetry_equiv_pos_as_xyz
  1  'x, y, z'
loop_
 _atom_site_type_symbol
 _atom_site_label
 _atom_site_symmetry_multiplicity
 _atom_site_fract_x
 _atom_site_fract_y
 _atom_site_fract_z
 _atom_site_occupancy
  H  H0  1  0.99923751  0.92674621  0.19036480  1
  H  H1  1  0.57325379  0.30963520  0.11634851  1
  H  H2  1  0.11634851  0.50076249  0.57325379  1
  H  H3  1  0.57325379  0.11634851  0.50076249  1
  H  H4  1  0.30963520  0.50076249  0.11634851  1
  H  H5  1  0.30963520  0.11634851  0.57325379  1
  H  H6  1  0.11634851  0.30963520  0.50076249  1
  H  H7  1  0.19036480  0.99923751  0.92674621  1
  H  H8  1  0.92674621  0.19036480  0.99923751  1
  H  H9  1  0.38365149  0.99923751  0.19036479  1
  H  H10  1  0.92674621  0.38365149  0.19036480  1
  H  H11  1  0.38365149  0.92674621  0.99923751  1
  H  H12  1  0.19036480  0.92674621  0.38365149  1
  H  H13  1  0.99923751  0.19036480  0.38365149  1
  H  H14  1  0.99923751  0.38365149  0.92674621  1
  H  H15  1  0.11634851  0.57325379  0.30963520  1
  H  H16  1  0.50076249  0.11634851  0.30963521  1
  H  H17  1  0.50076249  0.57325379  0.11634851  1
  H  H18  1  0.57325379  0.50076249  0.30963521  1
  H  H19  1  0.30963520  0.57325379  0.50076249  1
  H  H20  1  0.50076249  0.30963520  0.57325379  1
  H  H21  1  0.19036480  0.38365149  0.99923751  1
  H  H22  1  0.38365149  0.19036480  0.92674621  1
  H  H23  1  0.92674621  0.99923751  0.38365149  1
  H  H24  1  0.00076249  0.07325379  0.80963520  1
  H  H25  1  0.42674621  0.69036480  0.88365149  1
  H  H26  1  0.88365149  0.49923751  0.42674621  1
  H  H27  1  0.42674621  0.88365149  0.49923751  1
  H  H28  1  0.69036480  0.49923751  0.88365149  1
  H  H29  1  0.69036480  0.88365149  0.42674621  1
  H  H30  1  0.88365149  0.69036480  0.49923751  1
  H  H31  1  0.80963520  0.00076249  0.07325379  1
  H  H32  1  0.07325379  0.80963520  0.00076249  1
  H  H33  1  0.61634851  0.00076249  0.80963521  1
  H  H34  1  0.07325379  0.61634851  0.80963520  1
  H  H35  1  0.61634851  0.07325379  0.00076249  1
  H  H36  1  0.80963520  0.07325379  0.61634851  1
  H  H37  1  0.00076249  0.80963520  0.61634851  1
  H  H38  1  0.00076249  0.61634851  0.07325379  1
  H  H39  1  0.88365149  0.42674621  0.69036480  1
  H  H40  1  0.49923751  0.88365149  0.69036479  1
  H  H41  1  0.49923751  0.42674621  0.88365149  1
  H  H42  1  0.42674621  0.49923751  0.69036479  1
  H  H43  1  0.69036480  0.42674621  0.49923751  1
  H  H44  1  0.49923751  0.69036480  0.42674621  1
  H  H45  1  0.80963520  0.61634851  0.00076249  1
  H  H46  1  0.61634851  0.80963520  0.07325379  1
  H  H47  1  0.07325379  0.00076249  0.61634851  1
  H  H48  1  0.87919400  0.97579462  0.19380295  1
  H  H49  1  0.52420538  0.30619705  0.04879157  1
  H  H50  1  0.04879157  0.62080600  0.52420538  1
  H  H51  1  0.52420538  0.04879157  0.62080600  1
  H  H52  1  0.30619705  0.62080600  0.04879157  1
  H  H53  1  0.30619705  0.04879157  0.52420538  1
  H  H54  1  0.04879157  0.30619705  0.62080600  1
  H  H55  1  0.19380295  0.87919400  0.97579462  1
  H  H56  1  0.97579462  0.19380295  0.87919400  1
  H  H57  1  0.45120843  0.87919400  0.19380295  1
  H  H58  1  0.97579462  0.45120843  0.19380295  1
  H  H59  1  0.45120843  0.97579462  0.87919400  1
  H  H60  1  0.19380295  0.97579462  0.45120843  1
  H  H61  1  0.87919400  0.19380295  0.45120843  1
  H  H62  1  0.87919400  0.45120843  0.97579462  1
  H  H63  1  0.04879157  0.52420538  0.30619705  1
  H  H64  1  0.62080600  0.04879157  0.30619705  1
  H  H65  1  0.62080600  0.52420538  0.04879157  1
  H  H66  1  0.52420538  0.62080600  0.30619705  1
  H  H67  1  0.30619705  0.52420538  0.62080600  1
  H  H68  1  0.62080600  0.30619705  0.52420538  1
  H  H69  1  0.19380295  0.45120843  0.87919400  1
  H  H70  1  0.45120843  0.19380295  0.97579462  1
  H  H71  1  0.97579462  0.87919400  0.45120843  1
  H  H72  1  0.12080600  0.02420538  0.80619705  1
  H  H73  1  0.47579462  0.69380295  0.95120843  1
  H  H74  1  0.95120843  0.37919400  0.47579462  1
  H  H75  1  0.47579462  0.95120843  0.37919400  1
  H  H76  1  0.69380295  0.37919400  0.95120843  1
  H  H77  1  0.69380295  0.95120843  0.47579462  1
  H  H78  1  0.95120843  0.69380295  0.37919400  1
  H  H79  1  0.80619705  0.12080600  0.02420538  1
  H  H80  1  0.02420538  0.80619705  0.12080600  1
  H  H81  1  0.54879157  0.12080600  0.80619705  1
  H  H82  1  0.02420538  0.54879157  0.80619705  1
  H  H83  1  0.54879157  0.02420538  0.12080600  1
  H  H84  1  0.80619705  0.02420538  0.54879157  1
  H  H85  1  0.12080600  0.80619705  0.54879157  1
  H  H86  1  0.12080600  0.54879157  0.02420538  1
  H  H87  1  0.95120843  0.47579462  0.69380295  1
  H  H88  1  0.37919400  0.95120843  0.69380295  1
  H  H89  1  0.37919400  0.47579462  0.95120843  1
  H  H90  1  0.47579462  0.37919400  0.69380295  1
  H  H91  1  0.69380295  0.47579462  0.37919400  1
  H  H92  1  0.37919400  0.69380295  0.47579462  1
  H  H93  1  0.80619705  0.54879157  0.12080600  1
  H  H94  1  0.54879157  0.80619705  0.02420538  1
  H  H95  1  0.02420538  0.12080600  0.54879157  1
  H  H96  1  0.93897886  0.05320919  0.16351609  1
  H  H97  1  0.44679081  0.33648391  0.15570414  1
  H  H98  1  0.15570414  0.56102114  0.44679081  1
  H  H99  1  0.44679081  0.15570414  0.56102114  1
  H  H100  1  0.33648391  0.56102114  0.15570414  1
  H  H101  1  0.33648391  0.15570414  0.44679081  1
  H  H102  1  0.15570414  0.33648391  0.56102114  1
  H  H103  1  0.16351609  0.93897886  0.05320919  1
  H  H104  1  0.05320919  0.16351609  0.93897886  1
  H  H105  1  0.34429586  0.93897886  0.16351609  1
  H  H106  1  0.05320919  0.34429586  0.16351609  1
  H  H107  1  0.34429586  0.05320919  0.93897886  1
  H  H108  1  0.16351609  0.05320919  0.34429586  1
  H  H109  1  0.93897886  0.16351609  0.34429586  1
  H  H110  1  0.93897886  0.34429586  0.05320919  1
  H  H111  1  0.15570414  0.44679081  0.33648391  1
  H  H112  1  0.56102114  0.15570414  0.33648391  1
  H  H113  1  0.56102114  0.44679081  0.15570414  1
  H  H114  1  0.44679081  0.56102114  0.33648391  1
  H  H115  1  0.33648391  0.44679081  0.56102114  1
  H  H116  1  0.56102114  0.33648391  0.44679081  1
  H  H117  1  0.16351609  0.34429586  0.93897886  1
  H  H118  1  0.34429586  0.16351609  0.05320919  1
  H  H119  1  0.05320919  0.93897886  0.34429586  1
  H  H120  1  0.06102114  0.94679081  0.83648391  1
  H  H121  1  0.55320919  0.66351609  0.84429586  1
  H  H122  1  0.84429586  0.43897886  0.55320919  1
  H  H123  1  0.55320919  0.84429586  0.43897886  1
  H  H124  1  0.66351609  0.43897886  0.84429586  1
  H  H125  1  0.66351609  0.84429586  0.55320919  1
  H  H126  1  0.84429586  0.66351609  0.43897886  1
  H  H127  1  0.83648391  0.06102114  0.94679081  1
  H  H128  1  0.94679081  0.83648391  0.06102114  1
  H  H129  1  0.65570414  0.06102114  0.83648391  1
  H  H130  1  0.94679081  0.65570414  0.83648391  1
  H  H131  1  0.65570414  0.94679081  0.06102114  1
  H  H132  1  0.83648391  0.94679081  0.65570414  1
  H  H133  1  0.06102114  0.83648391  0.65570414  1
  H  H134  1  0.06102114  0.65570414  0.94679081  1
  H  H135  1  0.84429586  0.55320919  0.66351609  1
  H  H136  1  0.43897886  0.84429586  0.66351609  1
  H  H137  1  0.43897886  0.55320919  0.84429586  1
  H  H138  1  0.55320919  0.43897886  0.66351609  1
  H  H139  1  0.66351609  0.55320919  0.43897886  1
  H  H140  1  0.43897886  0.66351609  0.55320919  1
  H  H141  1  0.83648391  0.65570414  0.06102114  1
  H  H142  1  0.65570414  0.83648391  0.94679081  1
  H  H143  1  0.94679081  0.06102114  0.65570414  1
  N  N144  1  0.94848811  0.98910166  0.15382239  1
  N  N145  1  0.51089834  0.34617761  0.09141217  1
  N  N146  1  0.09141217  0.55151189  0.51089834  1
  N  N147  1  0.51089834  0.09141217  0.55151189  1
  N  N148  1  0.34617761  0.55151189  0.09141217  1
  N  N149  1  0.34617761  0.09141217  0.51089834  1
  N  N150  1  0.09141217  0.34617761  0.55151189  1
  N  N151  1  0.15382239  0.94848811  0.98910166  1
  N  N152  1  0.98910166  0.15382239  0.94848811  1
  N  N153  1  0.40858783  0.94848811  0.15382239  1
  N  N154  1  0.98910166  0.40858783  0.15382239  1
  N  N155  1  0.40858783  0.98910166  0.94848811  1
  N  N156  1  0.15382239  0.98910166  0.40858783  1
  N  N157  1  0.94848811  0.15382239  0.40858783  1
  N  N158  1  0.94848811  0.40858783  0.98910166  1
  N  N159  1  0.09141217  0.51089834  0.34617761  1
  N  N160  1  0.55151189  0.09141217  0.34617761  1
  N  N161  1  0.55151189  0.51089834  0.09141217  1
  N  N162  1  0.51089834  0.55151189  0.34617761  1
  N  N163  1  0.34617761  0.51089834  0.55151189  1
  N  N164  1  0.55151189  0.34617761  0.51089834  1
  N  N165  1  0.15382239  0.40858783  0.94848811  1
  N  N166  1  0.40858783  0.15382239  0.98910166  1
  N  N167  1  0.98910166  0.94848811  0.40858783  1
  N  N168  1  0.05151189  0.01089834  0.84617761  1
  N  N169  1  0.48910166  0.65382239  0.90858783  1
  N  N170  1  0.90858783  0.44848811  0.48910166  1
  N  N171  1  0.48910166  0.90858783  0.44848811  1
  N  N172  1  0.65382239  0.44848811  0.90858783  1
  N  N173  1  0.65382239  0.90858783  0.48910166  1
  N  N174  1  0.90858783  0.65382239  0.44848811  1
  N  N175  1  0.84617761  0.05151189  0.01089834  1
  N  N176  1  0.01089834  0.84617761  0.05151189  1
  N  N177  1  0.59141217  0.05151189  0.84617761  1
  N  N178  1  0.01089834  0.59141217  0.84617761  1
  N  N179  1  0.59141217  0.01089834  0.05151189  1
  N  N180  1  0.84617761  0.01089834  0.59141217  1
  N  N181  1  0.05151189  0.84617761  0.59141217  1
  N  N182  1  0.05151189  0.59141217  0.01089834  1
  N  N183  1  0.90858783  0.48910166  0.65382239  1
  N  N184  1  0.44848811  0.90858783  0.65382239  1
  N  N185  1  0.44848811  0.48910166  0.90858783  1
  N  N186  1  0.48910166  0.44848811  0.65382239  1
  N  N187  1  0.65382239  0.48910166  0.44848811  1
  N  N188  1  0.44848811  0.65382239  0.48910166  1
  N  N189  1  0.84617761  0.59141217  0.05151189  1
  N  N190  1  0.59141217  0.84617761  0.01089834  1
  N  N191  1  0.01089834  0.05151189  0.59141217  1
  Cl  Cl192  1  0.19106128  0.19106128  0.19106128  1
  Cl  Cl193  1  0.30893872  0.30893872  0.57318383  1
  Cl  Cl194  1  0.57318383  0.30893872  0.30893872  1
  Cl  Cl195  1  0.30893872  0.57318383  0.30893872  1
  Cl  Cl196  1  0.92681617  0.19106128  0.19106128  1
  Cl  Cl197  1  0.19106128  0.92681617  0.19106128  1
  Cl  Cl198  1  0.19106128  0.19106128  0.92681617  1
  Cl  Cl199  1  0.30893872  0.30893872  0.30893872  1
  Cl  Cl200  1  0.80893872  0.80893872  0.80893872  1
  Cl  Cl201  1  0.69106128  0.69106128  0.42681617  1
  Cl  Cl202  1  0.42681617  0.69106128  0.69106128  1
  Cl  Cl203  1  0.69106128  0.42681617  0.69106128  1
  Cl  Cl204  1  0.07318383  0.80893872  0.80893872  1
  Cl  Cl205  1  0.80893872  0.07318383  0.80893872  1
  Cl  Cl206  1  0.80893872  0.80893872  0.07318383  1
  Cl  Cl207  1  0.69106128  0.69106128  0.69106128  1
  Cl  Cl208  1  0.75000000  0.09638840  0.40361160  1
  Cl  Cl209  1  0.40361160  0.09638840  0.25000000  1
  Cl  Cl210  1  0.25000000  0.75000000  0.40361160  1
  Cl  Cl211  1  0.40361160  0.25000000  0.75000000  1
  Cl  Cl212  1  0.09638840  0.75000000  0.25000000  1
  Cl  Cl213  1  0.09638840  0.25000000  0.40361160  1
  Cl  Cl214  1  0.25000000  0.09638840  0.75000000  1
  Cl  Cl215  1  0.40361160  0.75000000  0.09638840  1
  Cl  Cl216  1  0.09638840  0.40361160  0.75000000  1
  Cl  Cl217  1  0.75000000  0.40361160  0.25000000  1
  Cl  Cl218  1  0.75000000  0.25000000  0.09638840  1
  Cl  Cl219  1  0.25000000  0.40361160  0.09638840  1
  Cl  Cl220  1  0.25000000  0.90361160  0.59638840  1
  Cl  Cl221  1  0.59638840  0.90361160  0.75000000  1
  Cl  Cl222  1  0.75000000  0.25000000  0.59638840  1
  Cl  Cl223  1  0.59638840  0.75000000  0.25000000  1
  Cl  Cl224  1  0.90361160  0.25000000  0.75000000  1
  Cl  Cl225  1  0.90361160  0.75000000  0.59638840  1
  Cl  Cl226  1  0.75000000  0.90361160  0.25000000  1
  Cl  Cl227  1  0.59638840  0.25000000  0.90361160  1
  Cl  Cl228  1  0.90361160  0.59638840  0.25000000  1
  Cl  Cl229  1  0.25000000  0.59638840  0.75000000  1
  Cl  Cl230  1  0.25000000  0.75000000  0.90361160  1
  Cl  Cl231  1  0.75000000  0.59638840  0.90361160  1
  Cr  Cr232  1  0.00000000  0.00000000  0.00000000  1
  Cr  Cr233  1  0.50000000  0.50000000  0.00000000  1
  Cr  Cr234  1  0.00000000  0.50000000  0.50000000  1
  Cr  Cr235  1  0.50000000  0.00000000  0.50000000  1
  Cr  Cr236  1  0.50000000  0.00000000  0.00000000  1
  Cr  Cr237  1  0.00000000  0.50000000  0.00000000  1
  Cr  Cr238  1  0.00000000  0.00000000  0.50000000  1
  Cr  Cr239  1  0.50000000  0.50000000  0.50000000  1
  Cu  Cu240  1  0.25000000  0.25000000  0.25000000  1
  Cu  Cu241  1  0.25000000  0.25000000  0.75000000  1
  Cu  Cu242  1  0.75000000  0.25000000  0.25000000  1
  Cu  Cu243  1  0.25000000  0.75000000  0.25000000  1
  Cu  Cu244  1  0.75000000  0.75000000  0.75000000  1
  Cu  Cu245  1  0.75000000  0.75000000  0.25000000  1
  Cu  Cu246  1  0.25000000  0.75000000  0.75000000  1
  Cu  Cu247  1  0.75000000  0.25000000  0.75000000  1
