# generated using pymatgen
data_Na6CaTi3Si2(PO6)4
_symmetry_space_group_name_H-M   'P 1'
_cell_length_a   9.00092921
_cell_length_b   9.02889135
_cell_length_c   22.08150048
_cell_angle_alpha   89.90090374
_cell_angle_beta   90.29523553
_cell_angle_gamma   120.20625990
_symmetry_Int_Tables_number   1
_chemical_formula_structural   Na6CaTi3Si2(PO6)4
_chemical_formula_sum   'Na18 Ca3 Ti9 Si6 P12 O72'
_cell_volume   1550.84574971
_cell_formula_units_Z   3
loop_
 _symmetry_equiv_pos_site_id
 _symmetry_equiv_pos_as_xyz
  1  'x, y, z'
loop_
 _atom_site_type_symbol
 _atom_site_label
 _atom_site_symmetry_multiplicity
 _atom_site_fract_x
 _atom_site_fract_y
 _atom_site_fract_z
 _atom_site_occupancy
  Na  Na0  1  0.00862826  0.00446949  0.50348228  1
  Na  Na1  1  0.99772569  0.00341880  0.00080231  1
  Na  Na2  1  0.64791582  0.29687846  0.83349014  1
  Na  Na3  1  0.64862105  0.33280505  0.32526517  1
  Na  Na4  1  0.32587195  0.66627770  0.16124974  1
  Na  Na5  1  0.32030146  0.66324647  0.66553786  1
  Na  Na6  1  0.65790761  0.01221532  0.24215021  1
  Na  Na7  1  0.98649124  0.62603465  0.24174047  1
  Na  Na8  1  0.62358745  0.61699898  0.74639699  1
  Na  Na9  1  0.99425854  0.37873048  0.74629724  1
  Na  Na10  1  0.66669352  0.98039687  0.58761458  1
  Na  Na11  1  0.65944918  0.68258068  0.08022367  1
  Na  Na12  1  0.02219566  0.34156821  0.08693441  1
  Na  Na13  1  0.96962907  0.66926913  0.91610710  1
  Na  Na14  1  0.33448922  0.30155555  0.91910890  1
  Na  Na15  1  0.96104830  0.28777211  0.41263517  1
  Na  Na16  1  0.33060359  0.03691488  0.41464710  1
  Na  Na17  1  0.71629613  0.68305060  0.41503255  1
  Ca  Ca18  1  0.00305840  0.00097993  0.35229922  1
  Ca  Ca19  1  0.65625540  0.32584181  0.68584210  1
  Ca  Ca20  1  0.66127569  0.32779617  0.17629918  1
  Ti  Ti21  1  0.99713204  0.00108213  0.85840203  1
  Ti  Ti22  1  0.00400221  0.99140843  0.64620460  1
  Ti  Ti23  1  0.01068493  0.00069527  0.14907064  1
  Ti  Ti24  1  0.67243589  0.33782426  0.97958256  1
  Ti  Ti25  1  0.66935430  0.33686356  0.48674472  1
  Ti  Ti26  1  0.32978117  0.67072990  0.01291846  1
  Ti  Ti27  1  0.33952384  0.66979011  0.52113130  1
  Ti  Ti28  1  0.33854640  0.66828279  0.31151923  1
  Ti  Ti29  1  0.33542006  0.67547620  0.81596447  1
  Si  Si30  1  0.66705352  0.63432201  0.58761564  1
  Si  Si31  1  0.97538737  0.63984641  0.08406350  1
  Si  Si32  1  0.62356095  0.66494436  0.91585858  1
  Si  Si33  1  0.03801619  0.37584744  0.91395714  1
  Si  Si34  1  0.34290096  0.96518397  0.91438293  1
  Si  Si35  1  0.61685153  0.96629434  0.41769750  1
  P  P36  1  0.29621860  0.99027694  0.25404422  1
  P  P37  1  0.69494208  0.70478203  0.25111494  1
  P  P38  1  0.01112461  0.30365290  0.25165293  1
  P  P39  1  0.27808584  0.28767200  0.75319132  1
  P  P40  1  0.01660491  0.72368196  0.75343033  1
  P  P41  1  0.71231520  0.98613875  0.75019571  1
  P  P42  1  0.97083965  0.33413629  0.58579073  1
  P  P43  1  0.36336903  0.03096232  0.58086822  1
  P  P44  1  0.66592808  0.02999105  0.08328459  1
  P  P45  1  0.36172694  0.33579443  0.07944614  1
  P  P46  1  0.35196711  0.39331808  0.41857119  1
  P  P47  1  0.04040454  0.64873291  0.41686098  1
  O  O48  1  0.22858757  0.00207178  0.31517361  1
  O  O49  1  0.78131956  0.77774268  0.31186529  1
  O  O50  1  0.99397883  0.21240917  0.31150480  1
  O  O51  1  0.18088942  0.19164829  0.81152584  1
  O  O52  1  0.01699333  0.82171082  0.81059174  1
  O  O53  1  0.82120345  0.98222941  0.80466207  1
  O  O54  1  0.80209553  0.97869018  0.69058833  1
  O  O55  1  0.16987149  0.18227025  0.69721860  1
  O  O56  1  0.01430144  0.82595793  0.69591931  1
  O  O57  1  0.80440313  0.82983159  0.19744113  1
  O  O58  1  0.01660779  0.19584023  0.19612944  1
  O  O59  1  0.17092032  0.98549813  0.20146736  1
  O  O60  1  0.90569587  0.36179084  0.64556153  1
  O  O61  1  0.48440483  0.09073777  0.63493036  1
  O  O62  1  0.63001291  0.53656702  0.65008630  1
  O  O63  1  0.91703182  0.53010241  0.14477590  1
  O  O64  1  0.63928131  0.08124902  0.14572855  1
  O  O65  1  0.47685763  0.38190912  0.13416358  1
  O  O66  1  0.44515713  0.30919989  0.02181987  1
  O  O67  1  0.83072169  0.53153859  0.02880691  1
  O  O68  1  0.68492247  0.16660249  0.03485587  1
  O  O69  1  0.45794009  0.14868964  0.52410444  1
  O  O70  1  0.68433260  0.51828189  0.53030035  1
  O  O71  1  0.83598802  0.30866187  0.53251113  1
  O  O72  1  0.52997464  0.68474521  0.97510370  1
  O  O73  1  0.16652536  0.47103122  0.97077747  1
  O  O74  1  0.30536563  0.82909464  0.96842976  1
  O  O75  1  0.50138247  0.84911222  0.47451908  1
  O  O76  1  0.34714240  0.49165425  0.47436975  1
  O  O77  1  0.14820260  0.64530845  0.46989393  1
  O  O78  1  0.12399025  0.63459116  0.35627941  1
  O  O79  1  0.49975793  0.86013570  0.35559790  1
  O  O80  1  0.35664903  0.49865226  0.36075862  1
  O  O81  1  0.12899121  0.50159305  0.85424961  1
  O  O82  1  0.36662438  0.86750834  0.85448863  1
  O  O83  1  0.49733990  0.63364903  0.85606182  1
  O  O84  1  0.02399182  0.80979456  0.42002867  1
  O  O85  1  0.80364144  0.98316464  0.42221552  1
  O  O86  1  0.19559151  0.21206123  0.41945572  1
  O  O87  1  0.01508371  0.18396160  0.90991532  1
  O  O88  1  0.17219404  0.98829968  0.91116140  1
  O  O89  1  0.82201581  0.82671177  0.91053468  1
  O  O90  1  0.97089358  0.16179841  0.58523581  1
  O  O91  1  0.19306081  0.03207240  0.58900512  1
  O  O92  1  0.84558888  0.82619970  0.58832203  1
  O  O93  1  0.97918707  0.82543121  0.09257903  1
  O  O94  1  0.83943032  0.02634890  0.08276915  1
  O  O95  1  0.18059183  0.17027520  0.08924830  1
  O  O96  1  0.70618634  0.15177467  0.75482187  1
  O  O97  1  0.45932614  0.31329096  0.75620207  1
  O  O98  1  0.85411940  0.54487511  0.75503816  1
  O  O99  1  0.67488326  0.52810102  0.24426694  1
  O  O100  1  0.85233733  0.32463821  0.24717091  1
  O  O101  1  0.47976850  0.13551980  0.24634704  1
  O  O102  1  0.64269478  0.49248879  0.92179813  1
  O  O103  1  0.85240004  0.36389203  0.92495579  1
  O  O104  1  0.50929567  0.15415400  0.92400679  1
  O  O105  1  0.63136285  0.15546035  0.42033122  1
  O  O106  1  0.52040386  0.38458117  0.41880570  1
  O  O107  1  0.85619548  0.48601950  0.42062907  1
  O  O108  1  0.32769413  0.48847672  0.07247405  1
  O  O109  1  0.16412122  0.66469237  0.06954274  1
  O  O110  1  0.51618070  0.84649456  0.07063950  1
  O  O111  1  0.31869517  0.84295818  0.56972851  1
  O  O112  1  0.51147167  0.67946789  0.57482881  1
  O  O113  1  0.15072417  0.48635415  0.57288578  1
  O  O114  1  0.28793005  0.81192888  0.24890475  1
  O  O115  1  0.51932555  0.70431133  0.24889733  1
  O  O116  1  0.17939758  0.48243308  0.25086702  1
  O  O117  1  0.28762054  0.46595043  0.74996798  1
  O  O118  1  0.17843794  0.70385212  0.74982329  1
  O  O119  1  0.53227757  0.82006070  0.75094686  1
