# generated using pymatgen
data_Na2YInP2SO12
_symmetry_space_group_name_H-M   'P 1'
_cell_length_a   9.13871688
_cell_length_b   9.12123869
_cell_length_c   23.49223705
_cell_angle_alpha   90.42786488
_cell_angle_beta   89.58965542
_cell_angle_gamma   119.83171389
_symmetry_Int_Tables_number   1
_chemical_formula_structural   Na2YInP2SO12
_chemical_formula_sum   'Na12 Y6 In6 P12 S6 O72'
_cell_volume   1698.68353371
_cell_formula_units_Z   6
loop_
 _symmetry_equiv_pos_site_id
 _symmetry_equiv_pos_as_xyz
  1  'x, y, z'
loop_
 _atom_site_type_symbol
 _atom_site_label
 _atom_site_symmetry_multiplicity
 _atom_site_fract_x
 _atom_site_fract_y
 _atom_site_fract_z
 _atom_site_occupancy
  Na  Na0  1  0.99356194  0.62735686  0.25141889  1
  Na  Na1  1  0.37111114  0.00442215  0.75452100  1
  Na  Na2  1  0.65731469  0.96187303  0.58452338  1
  Na  Na3  1  0.03727503  0.33933217  0.08476083  1
  Na  Na4  1  0.32771827  0.29458174  0.91912632  1
  Na  Na5  1  0.70607165  0.67300980  0.42030270  1
  Na  Na6  1  0.01665396  0.99124458  0.50109815  1
  Na  Na7  1  0.00476134  0.98203651  0.00040860  1
  Na  Na8  1  0.68425652  0.32681315  0.83586366  1
  Na  Na9  1  0.67573627  0.31592800  0.33356898  1
  Na  Na10  1  0.35114212  0.66030268  0.16463539  1
  Na  Na11  1  0.33995539  0.64985249  0.66729486  1
  Y  Y12  1  0.99627594  0.00666247  0.35117424  1
  Y  Y13  1  0.00122262  0.00017463  0.65090448  1
  Y  Y14  1  0.66101364  0.33952935  0.68432462  1
  Y  Y15  1  0.66054517  0.33800215  0.18125485  1
  Y  Y16  1  0.66722278  0.33067648  0.48325229  1
  Y  Y17  1  0.33660839  0.66530933  0.31416167  1
  In  In18  1  0.99673226  0.00828043  0.85081267  1
  In  In19  1  0.00149094  0.99862586  0.14789045  1
  In  In20  1  0.66857952  0.33334262  0.98349709  1
  In  In21  1  0.32466975  0.66933844  0.01446163  1
  In  In22  1  0.32984577  0.67519709  0.51616876  1
  In  In23  1  0.33363623  0.66525718  0.81911090  1
  P  P24  1  0.70890045  0.70931881  0.24860207  1
  P  P25  1  0.99947421  0.29673862  0.24543456  1
  P  P26  1  0.29410871  0.30013495  0.75417495  1
  P  P27  1  0.69714717  0.99476914  0.75180427  1
  P  P28  1  0.36699914  0.03031033  0.58406503  1
  P  P29  1  0.65983796  0.63515504  0.58015287  1
  P  P30  1  0.96451402  0.63297396  0.08227777  1
  P  P31  1  0.36433323  0.33418270  0.07890882  1
  P  P32  1  0.03603972  0.37217003  0.91761055  1
  P  P33  1  0.33316778  0.96517189  0.91532374  1
  P  P34  1  0.62739718  0.96021340  0.41864249  1
  P  P35  1  0.03688027  0.66760299  0.41608635  1
  S  S36  1  0.29388309  0.00016218  0.24884866  1
  S  S37  1  0.00329781  0.70615440  0.75377719  1
  S  S38  1  0.97002411  0.33876181  0.58326209  1
  S  S39  1  0.66498645  0.03250141  0.08151233  1
  S  S40  1  0.62939099  0.66799318  0.91755764  1
  S  S41  1  0.33272257  0.37356313  0.41911604  1
  O  O42  1  0.21524858  0.02116302  0.30048147  1
  O  O43  1  0.81183826  0.78600814  0.30392884  1
  O  O44  1  0.98641217  0.19362099  0.29810434  1
  O  O45  1  0.21950934  0.18960294  0.80851210  1
  O  O46  1  0.97843216  0.78564320  0.80496225  1
  O  O47  1  0.80580525  0.01435057  0.80393444  1
  O  O48  1  0.77391821  0.97232551  0.69590152  1
  O  O49  1  0.18671129  0.21166228  0.70170686  1
  O  O50  1  0.02738143  0.80888595  0.70245088  1
  O  O51  1  0.79931047  0.81704842  0.19632011  1
  O  O52  1  0.02156964  0.21753635  0.18949764  1
  O  O53  1  0.19092140  0.97576157  0.19756218  1
  O  O54  1  0.88971686  0.36085644  0.63461926  1
  O  O55  1  0.47473181  0.11128340  0.63846634  1
  O  O56  1  0.64521481  0.52815690  0.63226747  1
  O  O57  1  0.88856782  0.52533160  0.13673106  1
  O  O58  1  0.64039019  0.10976598  0.13300217  1
  O  O59  1  0.47036765  0.35388569  0.13125386  1
  O  O60  1  0.44262484  0.30734748  0.02360575  1
  O  O61  1  0.85330255  0.54418989  0.03021895  1
  O  O62  1  0.69406596  0.14036335  0.03091383  1
  O  O63  1  0.45910368  0.13827528  0.53216266  1
  O  O64  1  0.68419981  0.55785714  0.52486537  1
  O  O65  1  0.86512693  0.31336818  0.53264722  1
  O  O66  1  0.55168368  0.69442389  0.96895838  1
  O  O67  1  0.14529391  0.44522505  0.97226850  1
  O  O68  1  0.31192882  0.85783550  0.96786051  1
  O  O69  1  0.55192904  0.85515706  0.47394898  1
  O  O70  1  0.31076329  0.45322629  0.47074061  1
  O  O71  1  0.14015921  0.68153397  0.46912678  1
  O  O72  1  0.11611616  0.64786290  0.36039789  1
  O  O73  1  0.52102910  0.86762902  0.36660729  1
  O  O74  1  0.35391058  0.47429013  0.36781392  1
  O  O75  1  0.12194485  0.48177173  0.86528469  1
  O  O76  1  0.35997891  0.88962641  0.85948347  1
  O  O77  1  0.52411175  0.63791264  0.86632612  1
  O  O78  1  0.01639918  0.82750267  0.41456350  1
  O  O79  1  0.80342344  0.97189211  0.41468728  1
  O  O80  1  0.18622195  0.20254585  0.41474327  1
  O  O81  1  0.02477644  0.19494796  0.91234998  1
  O  O82  1  0.17317689  0.98696599  0.91127937  1
  O  O83  1  0.80079443  0.81609848  0.91153374  1
  O  O84  1  0.97914039  0.18028218  0.58753853  1
  O  O85  1  0.19012142  0.00990396  0.58796256  1
  O  O86  1  0.81382288  0.81795323  0.58578686  1
  O  O87  1  0.98536672  0.81189932  0.08739730  1
  O  O88  1  0.82353897  0.02247124  0.08608256  1
  O  O89  1  0.18099193  0.17804319  0.08483777  1
  O  O90  1  0.67542072  0.15413896  0.74816270  1
  O  O91  1  0.47002556  0.31191387  0.74796793  1
  O  O92  1  0.85643776  0.53537115  0.74794161  1
  O  O93  1  0.69791454  0.53290628  0.24452489  1
  O  O94  1  0.83977420  0.31699343  0.24376190  1
  O  O95  1  0.46449401  0.14737508  0.24432704  1
  O  O96  1  0.63945835  0.50887766  0.92243345  1
  O  O97  1  0.85759463  0.35179296  0.92329478  1
  O  O98  1  0.48932795  0.14895036  0.92121763  1
  O  O99  1  0.64800683  0.13768283  0.42102789  1
  O  O100  1  0.49105991  0.36430631  0.42199042  1
  O  O101  1  0.85413925  0.51280685  0.41953105  1
  O  O102  1  0.34378405  0.49483037  0.07506099  1
  O  O103  1  0.14065494  0.64308826  0.07704398  1
  O  O104  1  0.51621916  0.86149856  0.07533640  1
  O  O105  1  0.35770351  0.85434121  0.58033346  1
  O  O106  1  0.49771687  0.65235421  0.57796622  1
  O  O107  1  0.14030762  0.48705139  0.57784640  1
  O  O108  1  0.30358116  0.84168600  0.25248548  1
  O  O109  1  0.53110894  0.68701913  0.25176632  1
  O  O110  1  0.15398054  0.47930485  0.24940276  1
  O  O111  1  0.31287416  0.47776871  0.75888564  1
  O  O112  1  0.16235157  0.69750455  0.75746008  1
  O  O113  1  0.51436257  0.83821880  0.75684065  1
