# generated using pymatgen
data_Na8Mg3Si3Ge(SO8)3
_symmetry_space_group_name_H-M   'P 1'
_cell_length_a   9.05026212
_cell_length_b   9.07537614
_cell_length_c   21.99160372
_cell_angle_alpha   90.24237185
_cell_angle_beta   88.86432181
_cell_angle_gamma   120.40584545
_symmetry_Int_Tables_number   1
_chemical_formula_structural   Na8Mg3Si3Ge(SO8)3
_chemical_formula_sum   'Na24 Mg9 Si9 Ge3 S9 O72'
_cell_volume   1557.49812840
_cell_formula_units_Z   3
loop_
 _symmetry_equiv_pos_site_id
 _symmetry_equiv_pos_as_xyz
  1  'x, y, z'
loop_
 _atom_site_type_symbol
 _atom_site_label
 _atom_site_symmetry_multiplicity
 _atom_site_fract_x
 _atom_site_fract_y
 _atom_site_fract_z
 _atom_site_occupancy
  Na  Na0  1  0.63147514  0.99647908  0.25919079  1
  Na  Na1  1  0.36803522  0.36721807  0.24431953  1
  Na  Na2  1  0.99981025  0.62520694  0.25186236  1
  Na  Na3  1  0.63932931  0.64580641  0.73511938  1
  Na  Na4  1  0.98825218  0.34994567  0.75157420  1
  Na  Na5  1  0.38027297  0.00980942  0.74034864  1
  Na  Na6  1  0.31303580  0.33128634  0.58317625  1
  Na  Na7  1  0.04193349  0.71665028  0.57325793  1
  Na  Na8  1  0.65183006  0.94390349  0.58294131  1
  Na  Na9  1  0.28301225  0.95751071  0.07457056  1
  Na  Na10  1  0.66616484  0.68572053  0.08400306  1
  Na  Na11  1  0.05469695  0.34936578  0.07945456  1
  Na  Na12  1  0.98300254  0.67593889  0.92234678  1
  Na  Na13  1  0.70759099  0.04185244  0.90834658  1
  Na  Na14  1  0.31567686  0.28995001  0.92270764  1
  Na  Na15  1  0.96766552  0.30717725  0.41599327  1
  Na  Na16  1  0.32871887  0.00905988  0.42528355  1
  Na  Na17  1  0.70687917  0.68574909  0.42891506  1
  Na  Na18  1  0.99181366  0.98147478  0.50031728  1
  Na  Na19  1  0.01879403  0.00933423  0.99989446  1
  Na  Na20  1  0.66686326  0.31902502  0.83229525  1
  Na  Na21  1  0.67650470  0.33189965  0.34067005  1
  Na  Na22  1  0.31905654  0.65265595  0.15922765  1
  Na  Na23  1  0.35368160  0.68349811  0.65879721  1
  Mg  Mg24  1  0.99664274  0.99306245  0.35559124  1
  Mg  Mg25  1  0.99944741  0.00875719  0.85206867  1
  Mg  Mg26  1  0.98109614  0.98235088  0.64373717  1
  Mg  Mg27  1  0.00861729  0.99814911  0.14271588  1
  Mg  Mg28  1  0.65915028  0.32443006  0.68117997  1
  Mg  Mg29  1  0.66306346  0.33773194  0.17908559  1
  Mg  Mg30  1  0.32178615  0.66167526  0.01880473  1
  Mg  Mg31  1  0.34206416  0.68277356  0.51738128  1
  Mg  Mg32  1  0.33033920  0.68086933  0.33014492  1
  Si  Si33  1  0.69956639  0.99574593  0.75381845  1
  Si  Si34  1  0.37180689  0.04064651  0.58527118  1
  Si  Si35  1  0.66156943  0.61857271  0.58444232  1
  Si  Si36  1  0.95759213  0.62311360  0.08471696  1
  Si  Si37  1  0.37695906  0.33746757  0.08415466  1
  Si  Si38  1  0.04157971  0.37730422  0.91882950  1
  Si  Si39  1  0.33875317  0.97080036  0.92159443  1
  Si  Si40  1  0.63580838  0.97361942  0.41735991  1
  Si  Si41  1  0.02875121  0.65832351  0.41789072  1
  Ge  Ge42  1  0.66841429  0.33062812  0.98386492  1
  Ge  Ge43  1  0.66929299  0.33216712  0.48532847  1
  Ge  Ge44  1  0.33649989  0.69303105  0.82277575  1
  S  S45  1  0.29536540  0.00045144  0.24877020  1
  S  S46  1  0.70427495  0.70601816  0.25026239  1
  S  S47  1  0.00113753  0.29057276  0.24869975  1
  S  S48  1  0.29360919  0.29696506  0.75123141  1
  S  S49  1  0.00408289  0.70709893  0.75204083  1
  S  S50  1  0.95934752  0.33322812  0.58408678  1
  S  S51  1  0.66827437  0.04326658  0.08429792  1
  S  S52  1  0.62292582  0.66496897  0.91643028  1
  S  S53  1  0.33446401  0.37384460  0.41433382  1
  O  O54  1  0.21367954  0.02420137  0.30371636  1
  O  O55  1  0.80807931  0.79206894  0.30380081  1
  O  O56  1  0.98666230  0.19021774  0.30341108  1
  O  O57  1  0.21225301  0.19092127  0.80631867  1
  O  O58  1  0.98259149  0.78668746  0.80774687  1
  O  O59  1  0.80957149  0.01724497  0.81294925  1
  O  O60  1  0.77271480  0.95084284  0.69275251  1
  O  O61  1  0.19199222  0.21442449  0.69663258  1
  O  O62  1  0.03040466  0.81123181  0.69736553  1
  O  O63  1  0.78604928  0.80923777  0.19420789  1
  O  O64  1  0.01559664  0.20477144  0.19300299  1
  O  O65  1  0.19400233  0.98206666  0.19421831  1
  O  O66  1  0.88182703  0.36165666  0.63907805  1
  O  O67  1  0.48695832  0.11902039  0.64432020  1
  O  O68  1  0.64420892  0.51345103  0.64585075  1
  O  O69  1  0.87647869  0.50533534  0.14472575  1
  O  O70  1  0.63833919  0.12006764  0.13868167  1
  O  O71  1  0.48172604  0.35976280  0.14538480  1
  O  O72  1  0.47361599  0.29784438  0.02315699  1
  O  O73  1  0.82790068  0.52381066  0.02306766  1
  O  O74  1  0.70189782  0.15313400  0.02771683  1
  O  O75  1  0.47172933  0.17131950  0.52384697  1
  O  O76  1  0.69470839  0.52170280  0.52372538  1
  O  O77  1  0.85017597  0.30200135  0.52859651  1
  O  O78  1  0.54663792  0.69194473  0.97139223  1
  O  O79  1  0.16068781  0.45822124  0.97582083  1
  O  O80  1  0.31384674  0.85270593  0.97860954  1
  O  O81  1  0.55112105  0.84232013  0.47387761  1
  O  O82  1  0.30569230  0.44863370  0.46910650  1
  O  O83  1  0.14996304  0.68503014  0.47455638  1
  O  O84  1  0.09599409  0.61094366  0.35488823  1
  O  O85  1  0.51886666  0.90258862  0.35620090  1
  O  O86  1  0.35878073  0.48030409  0.35892028  1
  O  O87  1  0.13998326  0.51426551  0.85615119  1
  O  O88  1  0.38125685  0.88877735  0.85863048  1
  O  O89  1  0.51184032  0.63789942  0.86162731  1
  O  O90  1  0.01120777  0.82892213  0.41157633  1
  O  O91  1  0.83155867  0.01236739  0.40952961  1
  O  O92  1  0.18431505  0.19845703  0.40744723  1
  O  O93  1  0.00999497  0.18650467  0.91026052  1
  O  O94  1  0.17034239  0.98744228  0.91133443  1
  O  O95  1  0.79818732  0.81193486  0.90908460  1
  O  O96  1  0.97381900  0.17779746  0.58905562  1
  O  O97  1  0.18632220  0.03373961  0.58658441  1
  O  O98  1  0.83276286  0.80958311  0.58163945  1
  O  O99  1  0.96337526  0.80692259  0.08445851  1
  O  O100  1  0.82481521  0.02969121  0.08883714  1
  O  O101  1  0.18488280  0.16796979  0.08378689  1
  O  O102  1  0.67681544  0.16388028  0.74954931  1
  O  O103  1  0.47050271  0.32287932  0.74809852  1
  O  O104  1  0.85178669  0.53118340  0.74783926  1
  O  O105  1  0.68768750  0.53235679  0.24757245  1
  O  O106  1  0.84223772  0.30522938  0.24798827  1
  O  O107  1  0.47355690  0.15400866  0.24442726  1
  O  O108  1  0.63333986  0.50482026  0.91786517  1
  O  O109  1  0.84805425  0.36608824  0.92274655  1
  O  O110  1  0.52113079  0.16502738  0.92431543  1
  O  O111  1  0.64561548  0.16453364  0.42773496  1
  O  O112  1  0.49278132  0.36038730  0.41683960  1
  O  O113  1  0.83044488  0.48273715  0.42619711  1
  O  O114  1  0.37000357  0.51264098  0.07706789  1
  O  O115  1  0.15078298  0.65434270  0.07964536  1
  O  O116  1  0.51745385  0.87126906  0.07719097  1
  O  O117  1  0.34334547  0.84886500  0.57897359  1
  O  O118  1  0.48647496  0.62738443  0.57780222  1
  O  O119  1  0.13168266  0.48447269  0.57549317  1
  O  O120  1  0.31004495  0.84284637  0.25217700  1
  O  O121  1  0.52795866  0.68288627  0.25528747  1
  O  O122  1  0.15796380  0.46512955  0.24966794  1
  O  O123  1  0.30650763  0.46856350  0.75624168  1
  O  O124  1  0.16409698  0.69124022  0.75529245  1
  O  O125  1  0.49393499  0.80508493  0.76081228  1
