# generated using pymatgen
data_Na7Ti4Si5PO24
_symmetry_space_group_name_H-M   'P 1'
_cell_length_a   8.93719924
_cell_length_b   8.93814940
_cell_length_c   22.15566511
_cell_angle_alpha   89.97627584
_cell_angle_beta   89.91007129
_cell_angle_gamma   120.00969174
_symmetry_Int_Tables_number   1
_chemical_formula_structural   Na7Ti4Si5PO24
_chemical_formula_sum   'Na21 Ti12 Si15 P3 O72'
_cell_volume   1532.57275316
_cell_formula_units_Z   3
loop_
 _symmetry_equiv_pos_site_id
 _symmetry_equiv_pos_as_xyz
  1  'x, y, z'
loop_
 _atom_site_type_symbol
 _atom_site_label
 _atom_site_symmetry_multiplicity
 _atom_site_fract_x
 _atom_site_fract_y
 _atom_site_fract_z
 _atom_site_occupancy
  Na  Na0  1  0.63354669  0.00072032  0.24988288  1
  Na  Na1  1  0.36611027  0.36677787  0.24995660  1
  Na  Na2  1  0.00010689  0.63211828  0.25008289  1
  Na  Na3  1  0.63238654  0.63195006  0.75015213  1
  Na  Na4  1  0.99934130  0.36700601  0.75001322  1
  Na  Na5  1  0.36828854  0.00137136  0.75004543  1
  Na  Na6  1  0.29908986  0.33277380  0.58299306  1
  Na  Na7  1  0.03346385  0.70129785  0.58330932  1
  Na  Na8  1  0.66780374  0.96578007  0.58353367  1
  Na  Na9  1  0.29794499  0.96720294  0.08259606  1
  Na  Na10  1  0.03493721  0.33381876  0.08414569  1
  Na  Na11  1  0.96718626  0.66876458  0.91684364  1
  Na  Na12  1  0.33292982  0.29800834  0.91719597  1
  Na  Na13  1  0.33170418  0.03408621  0.41671448  1
  Na  Na14  1  0.70119013  0.66607114  0.41735647  1
  Na  Na15  1  0.99923996  0.00457237  0.49902638  1
  Na  Na16  1  0.98966624  0.99517712  0.99999195  1
  Na  Na17  1  0.66739780  0.32673621  0.83410969  1
  Na  Na18  1  0.67300230  0.33175513  0.33449460  1
  Na  Na19  1  0.33924079  0.66597221  0.16567302  1
  Na  Na20  1  0.33396755  0.66609535  0.66671118  1
  Ti  Ti21  1  0.99439874  0.00004993  0.35165319  1
  Ti  Ti22  1  0.00055274  0.00518710  0.85189545  1
  Ti  Ti23  1  0.99952253  0.99923071  0.64834212  1
  Ti  Ti24  1  0.00008194  0.99512040  0.14823336  1
  Ti  Ti25  1  0.66643232  0.33349903  0.68504947  1
  Ti  Ti26  1  0.66761881  0.34059944  0.18561562  1
  Ti  Ti27  1  0.66652599  0.32858313  0.98149282  1
  Ti  Ti28  1  0.67633536  0.33233146  0.48155789  1
  Ti  Ti29  1  0.32835763  0.65989504  0.01849798  1
  Ti  Ti30  1  0.33539383  0.67247385  0.51873978  1
  Ti  Ti31  1  0.32963940  0.67077335  0.31450687  1
  Ti  Ti32  1  0.32908879  0.67038863  0.81468803  1
  Si  Si33  1  0.29031280  0.00125117  0.25065594  1
  Si  Si34  1  0.70966234  0.71080635  0.25007100  1
  Si  Si35  1  0.00000227  0.28943620  0.24922497  1
  Si  Si36  1  0.29071662  0.29107668  0.74995603  1
  Si  Si37  1  0.99889435  0.71024672  0.75066475  1
  Si  Si38  1  0.70970492  0.99968224  0.75018391  1
  Si  Si39  1  0.95863978  0.33346308  0.58392455  1
  Si  Si40  1  0.37739053  0.04512533  0.58264057  1
  Si  Si41  1  0.66635288  0.62262135  0.58273407  1
  Si  Si42  1  0.95347470  0.62528581  0.08251192  1
  Si  Si43  1  0.37902455  0.33798769  0.08287897  1
  Si  Si44  1  0.03826281  0.37233357  0.91642928  1
  Si  Si45  1  0.33718688  0.95891030  0.91743982  1
  Si  Si46  1  0.62686260  0.96102489  0.41645455  1
  Si  Si47  1  0.04030724  0.66335591  0.41682450  1
  P  P48  1  0.66609438  0.04265497  0.08375739  1
  P  P49  1  0.62197243  0.66947804  0.91668633  1
  P  P50  1  0.33063023  0.37739569  0.41665474  1
  O  O51  1  0.20103246  0.03620974  0.30940855  1
  O  O52  1  0.83515580  0.79748828  0.30924892  1
  O  O53  1  0.96467225  0.15906096  0.30683213  1
  O  O54  1  0.20047423  0.16439239  0.80875718  1
  O  O55  1  0.96490508  0.80007543  0.80943426  1
  O  O56  1  0.84077363  0.03505837  0.80707652  1
  O  O57  1  0.79880123  0.96414936  0.69072967  1
  O  O58  1  0.16481903  0.20091382  0.69115380  1
  O  O59  1  0.03595001  0.83492046  0.69126467  1
  O  O60  1  0.80452352  0.84072497  0.19288380  1
  O  O61  1  0.03593287  0.20079897  0.19009747  1
  O  O62  1  0.16504956  0.96382257  0.19148017  1
  O  O63  1  0.86894252  0.37000860  0.64262326  1
  O  O64  1  0.50192456  0.13230508  0.64201477  1
  O  O65  1  0.63140299  0.49816198  0.64219650  1
  O  O66  1  0.86655858  0.49802807  0.14176239  1
  O  O67  1  0.63348499  0.12567518  0.14024139  1
  O  O68  1  0.49933820  0.36157432  0.14246318  1
  O  O69  1  0.46901261  0.29973197  0.02463235  1
  O  O70  1  0.83352488  0.52811753  0.02374197  1
  O  O71  1  0.69838398  0.16404997  0.02862933  1
  O  O72  1  0.46655197  0.16924875  0.52393903  1
  O  O73  1  0.70121002  0.53248405  0.52420008  1
  O  O74  1  0.82798471  0.29739268  0.52662194  1
  O  O75  1  0.53105740  0.69408664  0.97211259  1
  O  O76  1  0.16720274  0.46625559  0.97505552  1
  O  O77  1  0.30214931  0.83088578  0.97564908  1
  O  O78  1  0.53360529  0.83275909  0.47530055  1
  O  O79  1  0.30510803  0.46352854  0.47354037  1
  O  O80  1  0.16849319  0.69806279  0.47513868  1
  O  O81  1  0.13526523  0.63658354  0.35735720  1
  O  O82  1  0.49945556  0.86440000  0.35808972  1
  O  O83  1  0.36327151  0.49378393  0.36035494  1
  O  O84  1  0.13452016  0.50049661  0.85813741  1
  O  O85  1  0.36380186  0.86467759  0.85753075  1
  O  O86  1  0.50706981  0.63488969  0.85988834  1
  O  O87  1  0.02787327  0.84014048  0.41111140  1
  O  O88  1  0.81325072  0.97004668  0.41036533  1
  O  O89  1  0.17113081  0.19368909  0.41114647  1
  O  O90  1  0.02984961  0.18659729  0.91047084  1
  O  O91  1  0.16086857  0.97247284  0.91098720  1
  O  O92  1  0.80552641  0.82741151  0.91125316  1
  O  O93  1  0.97479351  0.16028811  0.58918613  1
  O  O94  1  0.18580889  0.02442145  0.58926341  1
  O  O95  1  0.83860663  0.81358860  0.58927546  1
  O  O96  1  0.98040980  0.81898616  0.08938035  1
  O  O97  1  0.83287071  0.03216389  0.08894226  1
  O  O98  1  0.18679799  0.16414744  0.08916984  1
  O  O99  1  0.69172963  0.17192761  0.74415291  1
  O  O100  1  0.48073486  0.30760039  0.74407097  1
  O  O101  1  0.82789548  0.51898477  0.74424405  1
  O  O102  1  0.69260152  0.51985424  0.24347992  1
  O  O103  1  0.82729940  0.30712371  0.24339103  1
  O  O104  1  0.48225062  0.17061950  0.24328576  1
  O  O105  1  0.63875109  0.50433201  0.92259388  1
  O  O106  1  0.85338466  0.36451978  0.92343560  1
  O  O107  1  0.50404062  0.15317978  0.92335855  1
  O  O108  1  0.63297071  0.14521056  0.42268666  1
  O  O109  1  0.49486536  0.36083671  0.42160925  1
  O  O110  1  0.84650279  0.49668756  0.42251610  1
  O  O111  1  0.35494287  0.50697674  0.07681596  1
  O  O112  1  0.14706135  0.64337954  0.07675410  1
  O  O113  1  0.50154671  0.86529791  0.07642884  1
  O  O114  1  0.35881970  0.85283271  0.57686502  1
  O  O115  1  0.49316631  0.64032242  0.57698364  1
  O  O116  1  0.14865721  0.50522569  0.57638475  1
  O  O117  1  0.30847932  0.82754298  0.25604790  1
  O  O118  1  0.51840334  0.68896600  0.25694904  1
  O  O119  1  0.17277997  0.47967684  0.25672593  1
  O  O120  1  0.31022229  0.48164617  0.75693356  1
  O  O121  1  0.17248978  0.69176319  0.75603864  1
  O  O122  1  0.51988941  0.82644538  0.75664639  1
