# generated using pymatgen
data_Na3ScSiSn(PO6)2
_symmetry_space_group_name_H-M   'P 1'
_cell_length_a   15.67927196
_cell_length_b   9.07212367
_cell_length_c   9.08177843
_cell_angle_alpha   90.00000000
_cell_angle_beta   125.16751776
_cell_angle_gamma   90.00000000
_symmetry_Int_Tables_number   1
_chemical_formula_structural   Na3ScSiSn(PO6)2
_chemical_formula_sum   'Na12 Sc4 Si4 Sn4 P8 O48'
_cell_volume   1056.03523559
_cell_formula_units_Z   4
loop_
 _symmetry_equiv_pos_site_id
 _symmetry_equiv_pos_as_xyz
  1  'x, y, z'
loop_
 _atom_site_type_symbol
 _atom_site_label
 _atom_site_symmetry_multiplicity
 _atom_site_fract_x
 _atom_site_fract_y
 _atom_site_fract_z
 _atom_site_occupancy
  Na  Na0  1  0.25209091  0.72489274  0.99808967  1
  Na  Na1  1  0.75209091  0.77510726  0.49808967  1
  Na  Na2  1  0.75209091  0.22489274  0.99808967  1
  Na  Na3  1  0.25209091  0.27510726  0.49808967  1
  Na  Na4  1  0.50675580  0.10595252  0.76308416  1
  Na  Na5  1  0.50675580  0.89404748  0.26308416  1
  Na  Na6  1  0.00675580  0.60595252  0.76308416  1
  Na  Na7  1  0.00675580  0.39404748  0.26308416  1
  Na  Na8  1  0.18378136  0.93086387  0.28930458  1
  Na  Na9  1  0.18378136  0.06913613  0.78930458  1
  Na  Na10  1  0.68378136  0.43086387  0.28930458  1
  Na  Na11  1  0.68378136  0.56913613  0.78930458  1
  Sc  Sc12  1  0.10580351  0.74423072  0.56412338  1
  Sc  Sc13  1  0.10580351  0.25576928  0.06412338  1
  Sc  Sc14  1  0.60580351  0.24423072  0.56412338  1
  Sc  Sc15  1  0.60580351  0.75576928  0.06412338  1
  Si  Si16  1  0.64844725  0.89324361  0.74721405  1
  Si  Si17  1  0.64844725  0.10675639  0.24721405  1
  Si  Si18  1  0.14844725  0.39324361  0.74721405  1
  Si  Si19  1  0.14844725  0.60675639  0.24721405  1
  Sn  Sn20  1  0.89843842  0.75671879  0.94480590  1
  Sn  Sn21  1  0.89843842  0.24328121  0.44480590  1
  Sn  Sn22  1  0.39843842  0.25671879  0.94480590  1
  Sn  Sn23  1  0.39843842  0.74328121  0.44480590  1
  P  P24  1  0.99717755  0.95463595  0.75465515  1
  P  P25  1  0.99717755  0.04536405  0.25465515  1
  P  P26  1  0.49717755  0.45463595  0.75465515  1
  P  P27  1  0.49717755  0.54536405  0.25465515  1
  P  P28  1  0.35342162  0.90175052  0.75679234  1
  P  P29  1  0.35342162  0.09824948  0.25679234  1
  P  P30  1  0.85342162  0.40175052  0.75679234  1
  P  P31  1  0.85342162  0.59824948  0.25679234  1
  O  O32  1  0.15166310  0.57200475  0.74452360  1
  O  O33  1  0.84969047  0.57525958  0.75715081  1
  O  O34  1  0.84969047  0.42474042  0.25715081  1
  O  O35  1  0.15166310  0.42799525  0.24452360  1
  O  O36  1  0.65166310  0.07200475  0.74452360  1
  O  O37  1  0.34969047  0.07525958  0.75715081  1
  O  O38  1  0.34969047  0.92474042  0.25715081  1
  O  O39  1  0.65166310  0.92799525  0.24452360  1
  O  O40  1  0.43013366  0.54976802  0.58108605  1
  O  O41  1  0.55921119  0.54946719  0.92451364  1
  O  O42  1  0.55921119  0.45053281  0.42451364  1
  O  O43  1  0.43013366  0.45023198  0.08108605  1
  O  O44  1  0.93013366  0.04976802  0.58108605  1
  O  O45  1  0.05921119  0.04946719  0.92451364  1
  O  O46  1  0.05921119  0.95053281  0.42451364  1
  O  O47  1  0.93013366  0.95023198  0.08108605  1
  O  O48  1  0.25691517  0.84616886  0.74559755  1
  O  O49  1  0.74579625  0.80934700  0.75895015  1
  O  O50  1  0.74579625  0.19065300  0.25895015  1
  O  O51  1  0.25691517  0.15383114  0.24559755  1
  O  O52  1  0.75691517  0.34616886  0.74559755  1
  O  O53  1  0.24579625  0.30934700  0.75895015  1
  O  O54  1  0.24579625  0.69065300  0.25895015  1
  O  O55  1  0.75691517  0.65383114  0.24559755  1
  O  O56  1  0.34913468  0.86896770  0.58191941  1
  O  O57  1  0.64067435  0.84008551  0.90884843  1
  O  O58  1  0.64067435  0.15991449  0.40884843  1
  O  O59  1  0.34913468  0.13103230  0.08191941  1
  O  O60  1  0.84913468  0.36896770  0.58191941  1
  O  O61  1  0.14067435  0.34008551  0.90884843  1
  O  O62  1  0.14067435  0.65991449  0.40884843  1
  O  O63  1  0.84913468  0.63103230  0.08191941  1
  O  O64  1  0.45314532  0.84341306  0.92551812  1
  O  O65  1  0.54380219  0.82562420  0.55727645  1
  O  O66  1  0.54380219  0.17437580  0.05727645  1
  O  O67  1  0.45314532  0.15658694  0.42551812  1
  O  O68  1  0.95314532  0.34341306  0.92551812  1
  O  O69  1  0.04380219  0.32562420  0.55727645  1
  O  O70  1  0.04380219  0.67437580  0.05727645  1
  O  O71  1  0.95314532  0.65658694  0.42551812  1
  O  O72  1  0.07594380  0.85897952  0.74563713  1
  O  O73  1  0.91797340  0.84732938  0.75090944  1
  O  O74  1  0.91797340  0.15267062  0.25090944  1
  O  O75  1  0.07594380  0.14102048  0.24563713  1
  O  O76  1  0.57594380  0.35897952  0.74563713  1
  O  O77  1  0.41797340  0.34732938  0.75090944  1
  O  O78  1  0.41797340  0.65267062  0.25090944  1
  O  O79  1  0.57594380  0.64102048  0.24563713  1
