# generated using pymatgen
data_Na3ZrTiSi2PO12
_symmetry_space_group_name_H-M   'P 1'
_cell_length_a   15.70059751
_cell_length_b   9.08334196
_cell_length_c   9.04476510
_cell_angle_alpha   89.98724374
_cell_angle_beta   125.00184299
_cell_angle_gamma   90.24312572
_symmetry_Int_Tables_number   1
_chemical_formula_structural   Na3ZrTiSi2PO12
_chemical_formula_sum   'Na12 Zr4 Ti4 Si8 P4 O48'
_cell_volume   1056.59458867
_cell_formula_units_Z   4
loop_
 _symmetry_equiv_pos_site_id
 _symmetry_equiv_pos_as_xyz
  1  'x, y, z'
loop_
 _atom_site_type_symbol
 _atom_site_label
 _atom_site_symmetry_multiplicity
 _atom_site_fract_x
 _atom_site_fract_y
 _atom_site_fract_z
 _atom_site_occupancy
  Na  Na0  1  0.24526251  0.77404294  0.99803809  1
  Na  Na1  1  0.73879474  0.72441603  0.48621077  1
  Na  Na2  1  0.73695043  0.27697262  0.98574004  1
  Na  Na3  1  0.24510584  0.22906605  0.49850278  1
  Na  Na4  1  0.50297481  0.11745848  0.75070566  1
  Na  Na5  1  0.50139515  0.87526098  0.25425480  1
  Na  Na6  1  0.00159660  0.61041123  0.74696109  1
  Na  Na7  1  0.00296052  0.40113883  0.25570434  1
  Na  Na8  1  0.80602622  0.93442410  0.21109093  1
  Na  Na9  1  0.80686267  0.06386013  0.71135398  1
  Na  Na10  1  0.31694477  0.43999322  0.23203838  1
  Na  Na11  1  0.30920646  0.56771761  0.70668860  1
  Zr  Zr12  1  0.89387280  0.74501814  0.93140066  1
  Zr  Zr13  1  0.89270236  0.25497580  0.43125949  1
  Zr  Zr14  1  0.10654066  0.25016249  0.06339359  1
  Zr  Zr15  1  0.39375053  0.24475639  0.93417624  1
  Ti  Ti16  1  0.10593095  0.74514532  0.56055745  1
  Ti  Ti17  1  0.60607751  0.24590157  0.55725949  1
  Ti  Ti18  1  0.39528300  0.75845723  0.43902930  1
  Ti  Ti19  1  0.60498047  0.75399742  0.05699122  1
  Si  Si20  1  0.35507349  0.89032809  0.75275210  1
  Si  Si21  1  0.64297899  0.89895314  0.74279730  1
  Si  Si22  1  0.64464396  0.09822927  0.24229252  1
  Si  Si23  1  0.35847916  0.10210696  0.26378894  1
  Si  Si24  1  0.84976485  0.39121765  0.75676689  1
  Si  Si25  1  0.14841332  0.40239322  0.74153974  1
  Si  Si26  1  0.15043046  0.60873690  0.24796051  1
  Si  Si27  1  0.85233891  0.60947989  0.25724660  1
  P  P28  1  0.00419152  0.95513326  0.74291617  1
  P  P29  1  0.00559724  0.03570426  0.25437132  1
  P  P30  1  0.50621509  0.46864265  0.74711890  1
  P  P31  1  0.50433744  0.53858962  0.25416992  1
  O  O32  1  0.15122523  0.58455258  0.73848429  1
  O  O33  1  0.84546113  0.57122211  0.74680907  1
  O  O34  1  0.84559274  0.42895188  0.24799839  1
  O  O35  1  0.15444203  0.42678420  0.25304649  1
  O  O36  1  0.64735429  0.08092595  0.73983272  1
  O  O37  1  0.35136592  0.07049637  0.74683637  1
  O  O38  1  0.35371460  0.92104879  0.26612548  1
  O  O39  1  0.64573135  0.91602095  0.23987198  1
  O  O40  1  0.43784204  0.56078047  0.57336812  1
  O  O41  1  0.56705156  0.57265470  0.91504736  1
  O  O42  1  0.56463699  0.42948090  0.41510563  1
  O  O43  1  0.43276255  0.44735266  0.07858665  1
  O  O44  1  0.93977326  0.04852323  0.57071207  1
  O  O45  1  0.06276509  0.05781008  0.91048484  1
  O  O46  1  0.06026883  0.92845579  0.41600433  1
  O  O47  1  0.94163339  0.94944903  0.07413241  1
  O  O48  1  0.25504553  0.81434946  0.73434081  1
  O  O49  1  0.74453042  0.84226299  0.75123023  1
  O  O50  1  0.74671433  0.15450359  0.25203247  1
  O  O51  1  0.26271741  0.18382467  0.25280222  1
  O  O52  1  0.75009059  0.31119813  0.73616995  1
  O  O53  1  0.24823267  0.34285120  0.74683144  1
  O  O54  1  0.25530139  0.66678649  0.26692022  1
  O  O55  1  0.75336361  0.68925040  0.23854023  1
  O  O56  1  0.36047226  0.83727243  0.58239757  1
  O  O57  1  0.64458698  0.85938244  0.92499966  1
  O  O58  1  0.64401477  0.14303514  0.42094410  1
  O  O59  1  0.35686676  0.14474247  0.08581770  1
  O  O60  1  0.85628685  0.33555511  0.59139372  1
  O  O61  1  0.15147532  0.36243382  0.92258099  1
  O  O62  1  0.14248887  0.65086961  0.41944952  1
  O  O63  1  0.85649350  0.65947520  0.08760285  1
  O  O64  1  0.46375346  0.82631199  0.93458077  1
  O  O65  1  0.53567411  0.83096067  0.56587644  1
  O  O66  1  0.54201490  0.16486420  0.06026969  1
  O  O67  1  0.46768594  0.16982784  0.44088549  1
  O  O68  1  0.95703889  0.33416694  0.94432857  1
  O  O69  1  0.04103741  0.33980963  0.56254224  1
  O  O70  1  0.04475569  0.66527391  0.06109943  1
  O  O71  1  0.96407636  0.66721166  0.44043895  1
  O  O72  1  0.08288208  0.85306533  0.74481566  1
  O  O73  1  0.92335418  0.85888019  0.74844664  1
  O  O74  1  0.92536083  0.13338866  0.25741273  1
  O  O75  1  0.08598830  0.13888008  0.25971199  1
  O  O76  1  0.58133264  0.36453733  0.74079679  1
  O  O77  1  0.42947086  0.37032019  0.76260873  1
  O  O78  1  0.42958216  0.63819971  0.27104323  1
  O  O79  1  0.58000647  0.63930735  0.24356500  1
