# generated using pymatgen
data_AgBH2OF4
_symmetry_space_group_name_H-M   'P 1'
_cell_length_a   7.38696225
_cell_length_b   8.12250769
_cell_length_c   12.96337757
_cell_angle_alpha   90.00000000
_cell_angle_beta   90.00000000
_cell_angle_gamma   90.00000000
_symmetry_Int_Tables_number   1
_chemical_formula_structural   AgBH2OF4
_chemical_formula_sum   'Ag8 B8 H16 O8 F32'
_cell_volume   777.81117997
_cell_formula_units_Z   8
loop_
 _symmetry_equiv_pos_site_id
 _symmetry_equiv_pos_as_xyz
  1  'x, y, z'
loop_
 _atom_site_type_symbol
 _atom_site_label
 _atom_site_symmetry_multiplicity
 _atom_site_fract_x
 _atom_site_fract_y
 _atom_site_fract_z
 _atom_site_occupancy
  Ag  Ag0  1  0.89589628  0.23921589  0.15727338  1
  Ag  Ag1  1  0.39589628  0.76078411  0.34272662  1
  Ag  Ag2  1  0.60410372  0.73921589  0.84272662  1
  Ag  Ag3  1  0.10410372  0.26078411  0.65727338  1
  Ag  Ag4  1  0.10410372  0.76078411  0.84272662  1
  Ag  Ag5  1  0.60410372  0.23921589  0.65727338  1
  Ag  Ag6  1  0.39589628  0.26078411  0.15727338  1
  Ag  Ag7  1  0.89589628  0.73921589  0.34272662  1
  B  B8  1  0.61074066  0.36360565  0.37321323  1
  B  B9  1  0.61074066  0.86360565  0.12678677  1
  B  B10  1  0.11074066  0.13639435  0.37321323  1
  B  B11  1  0.88925934  0.36360565  0.87321323  1
  B  B12  1  0.38925934  0.63639435  0.62678677  1
  B  B13  1  0.38925934  0.13639435  0.87321323  1
  B  B14  1  0.88925934  0.86360565  0.62678677  1
  B  B15  1  0.11074066  0.63639435  0.12678677  1
  H  H16  1  0.66780088  0.42169681  0.03192983  1
  H  H17  1  0.16780088  0.57830319  0.46807017  1
  H  H18  1  0.83219912  0.92169681  0.96807017  1
  H  H19  1  0.33219912  0.07830319  0.53192983  1
  H  H20  1  0.33219912  0.57830319  0.96807017  1
  H  H21  1  0.83219912  0.42169681  0.53192983  1
  H  H22  1  0.16780088  0.07830319  0.03192983  1
  H  H23  1  0.66780088  0.92169681  0.46807017  1
  H  H24  1  0.84004868  0.01693160  0.86285252  1
  H  H25  1  0.34004868  0.98306840  0.63714748  1
  H  H26  1  0.34004868  0.48306840  0.86285252  1
  H  H27  1  0.84004868  0.51693160  0.63714748  1
  H  H28  1  0.15995132  0.98306840  0.13714748  1
  H  H29  1  0.65995132  0.01693160  0.36285252  1
  H  H30  1  0.65995132  0.51693160  0.13714748  1
  H  H31  1  0.15995132  0.48306840  0.36285252  1
  O  O32  1  0.65369176  0.40736771  0.10632482  1
  O  O33  1  0.84630824  0.90736771  0.89367518  1
  O  O34  1  0.34630824  0.09263229  0.60632482  1
  O  O35  1  0.34630824  0.59263229  0.89367518  1
  O  O36  1  0.84630824  0.40736771  0.60632482  1
  O  O37  1  0.15369176  0.09263229  0.10632482  1
  O  O38  1  0.65369176  0.90736771  0.39367518  1
  O  O39  1  0.15369176  0.59263229  0.39367518  1
  F  F40  1  0.66497074  0.22260141  0.31574922  1
  F  F41  1  0.16497074  0.27739859  0.31574922  1
  F  F42  1  0.83502926  0.22260141  0.81574922  1
  F  F43  1  0.33502926  0.77739859  0.68425078  1
  F  F44  1  0.51469706  0.81501140  0.03990137  1
  F  F45  1  0.83502926  0.72260141  0.68425078  1
  F  F46  1  0.16497074  0.77739859  0.18425078  1
  F  F47  1  0.66497074  0.72260141  0.18425078  1
  F  F48  1  0.50468446  0.96287015  0.19184761  1
  F  F49  1  0.00468446  0.03712985  0.30815239  1
  F  F50  1  0.99531554  0.46287015  0.80815239  1
  F  F51  1  0.49531554  0.53712985  0.69184761  1
  F  F52  1  0.49531554  0.03712985  0.80815239  1
  F  F53  1  0.99531554  0.96287015  0.69184761  1
  F  F54  1  0.76749879  0.45196365  0.40279834  1
  F  F55  1  0.50468446  0.46287015  0.30815239  1
  F  F56  1  0.26749879  0.54803635  0.09720166  1
  F  F57  1  0.73250121  0.95196365  0.59720166  1
  F  F58  1  0.23250121  0.04803635  0.90279834  1
  F  F59  1  0.23250121  0.54803635  0.59720166  1
  F  F60  1  0.73250121  0.45196365  0.90279834  1
  F  F61  1  0.26749879  0.04803635  0.40279834  1
  F  F62  1  0.76749879  0.95196365  0.09720166  1
  F  F63  1  0.51469706  0.31501140  0.46009863  1
  F  F64  1  0.01469706  0.68498860  0.03990137  1
  F  F65  1  0.98530294  0.81501140  0.53990137  1
  F  F66  1  0.48530294  0.18498860  0.96009863  1
  F  F67  1  0.48530294  0.68498860  0.53990137  1
  F  F68  1  0.98530294  0.31501140  0.96009863  1
  F  F69  1  0.01469706  0.18498860  0.46009863  1
  F  F70  1  0.00468446  0.53712985  0.19184761  1
  F  F71  1  0.33502926  0.27739859  0.81574922  1
