# generated using pymatgen
data_Na10In4Si7Ge4S5O48
_symmetry_space_group_name_H-M   'P 1'
_cell_length_a   17.84258179
_cell_length_b   9.00913550
_cell_length_c   22.32291030
_cell_angle_alpha   89.87469581
_cell_angle_beta   85.66287465
_cell_angle_gamma   119.95136049
_symmetry_Int_Tables_number   1
_chemical_formula_structural   Na10In4Si7Ge4S5O48
_chemical_formula_sum   'Na30 In12 Si21 Ge12 S15 O144'
_cell_volume   3096.88308469
_cell_formula_units_Z   3
loop_
 _symmetry_equiv_pos_site_id
 _symmetry_equiv_pos_as_xyz
  1  'x, y, z'
loop_
 _atom_site_type_symbol
 _atom_site_label
 _atom_site_symmetry_multiplicity
 _atom_site_fract_x
 _atom_site_fract_y
 _atom_site_fract_z
 _atom_site_occupancy
  Na  Na0  1  0.17392969  0.34071141  0.23976669  1
  Na  Na1  1  0.67592119  0.34528227  0.24228846  1
  Na  Na2  1  0.98421321  0.64199566  0.25432601  1
  Na  Na3  1  0.48529301  0.64163509  0.25576252  1
  Na  Na4  1  0.48471997  0.32633645  0.76658957  1
  Na  Na5  1  0.17303565  0.00715907  0.74262770  1
  Na  Na6  1  0.67321820  0.00646550  0.74319823  1
  Na  Na7  1  0.65737292  0.34094304  0.58404583  1
  Na  Na8  1  0.00876792  0.67033248  0.58497858  1
  Na  Na9  1  0.82709091  0.97032693  0.59224666  1
  Na  Na10  1  0.48650061  0.67597853  0.92539569  1
  Na  Na11  1  0.99330630  0.67658976  0.91825947  1
  Na  Na12  1  0.83537094  -0.01126884  0.90761824  1
  Na  Na13  1  0.15612876  0.29607801  0.92102919  1
  Na  Na14  1  0.48699854  0.30057358  0.42045560  1
  Na  Na15  1  0.98105447  0.29366709  0.42036944  1
  Na  Na16  1  0.34075132  0.67110333  0.39909255  1
  Na  Na17  1  0.84335924  0.67708610  0.40093650  1
  Na  Na18  1  0.02643825  -0.00758402  0.49723612  1
  Na  Na19  1  0.52807493  0.96887668  0.49390071  1
  Na  Na20  1  0.00369753  0.01146281  -0.00156464  1
  Na  Na21  1  0.52735517  0.08859266  0.99491173  1
  Na  Na22  1  0.32659816  0.32488887  0.83085652  1
  Na  Na23  1  0.83761340  0.32758136  0.82750693  1
  Na  Na24  1  0.31589529  0.28015767  0.32623793  1
  Na  Na25  1  0.81801143  0.28064384  0.32896349  1
  Na  Na26  1  0.18125844  0.68398143  0.16417171  1
  Na  Na27  1  0.68379762  0.68479342  0.16625242  1
  Na  Na28  1  0.18290201  0.67489049  0.66663552  1
  Na  Na29  1  0.66544865  0.66129633  0.66720656  1
  In  In30  1  0.00339410  0.00746527  0.35113799  1
  In  In31  1  0.50280579  0.00630026  0.35078630  1
  In  In32  1  -0.00044886  0.99533672  0.84930721  1
  In  In33  1  0.49078655  -0.01066941  0.85584820  1
  In  In34  1  0.33429882  0.32507671  0.68700548  1
  In  In35  1  0.83710839  0.33125564  0.68706731  1
  In  In36  1  0.34022844  0.35462561  0.18342080  1
  In  In37  1  0.83877641  0.35106144  0.18368479  1
  In  In38  1  0.14998291  0.62952060  0.02061839  1
  In  In39  1  0.65317017  0.63574378  0.02383753  1
  In  In40  1  0.16388114  0.67745974  0.51931176  1
  In  In41  1  0.65702791  0.67040606  0.52208628  1
  Si  Si42  1  0.34933131  0.72881714  0.24831073  1
  Si  Si43  1  0.85011617  0.72843729  0.24886905  1
  Si  Si44  1  0.99684009  0.29635702  0.25047538  1
  Si  Si45  1  0.49724008  0.29461967  0.24994976  1
  Si  Si46  1  -0.00269015  0.69302796  0.75064905  1
  Si  Si47  1  0.49380031  0.69423940  0.75343640  1
  Si  Si48  1  0.34924514  0.97243687  0.74763559  1
  Si  Si49  1  0.84722459  0.97316675  0.75099451  1
  Si  Si50  1  0.18492684  0.04864367  0.58849138  1
  Si  Si51  1  0.68630576  0.04919822  0.58713950  1
  Si  Si52  1  0.83302204  0.62981724  0.57886244  1
  Si  Si53  1  0.18587337  0.32485632  0.08700112  1
  Si  Si54  1  0.68675080  0.32974581  0.08902811  1
  Si  Si55  1  0.01568167  0.37118443  0.91746562  1
  Si  Si56  1  0.51613739  0.37501882  0.92000331  1
  Si  Si57  1  0.16520860  0.94731585  0.91330779  1
  Si  Si58  1  0.66546681  0.95491113  0.91722379  1
  Si  Si59  1  0.16759382  0.37802682  0.41414098  1
  Si  Si60  1  0.66434594  0.37242066  0.41624190  1
  Si  Si61  1  0.01875908  0.65974401  0.41951623  1
  Si  Si62  1  0.51745976  0.66061098  0.41803261  1
  Ge  Ge63  1  0.98734558  0.94619063  0.64370408  1
  Ge  Ge64  1  0.48868490  0.94361338  0.64443146  1
  Ge  Ge65  1  0.99191882  0.03242564  0.14235008  1
  Ge  Ge66  1  0.49290627  0.02738723  0.14156849  1
  Ge  Ge67  1  0.31749662  0.27813692  0.97380840  1
  Ge  Ge68  1  0.81629450  0.30255281  0.97042764  1
  Ge  Ge69  1  0.31811170  0.33261288  0.47062306  1
  Ge  Ge70  1  0.81974785  0.36932865  0.47415329  1
  Ge  Ge71  1  0.15451313  0.61648737  0.30875458  1
  Ge  Ge72  1  0.65367993  0.62025622  0.30916237  1
  Ge  Ge73  1  0.15372186  0.68873505  0.80745750  1
  Ge  Ge74  1  0.65354937  0.69536373  0.81061003  1
  S  S75  1  0.15041224  0.99131891  0.24979217  1
  S  S76  1  0.65026328  0.98763991  0.24950882  1
  S  S77  1  0.14786341  0.31205837  0.75600699  1
  S  S78  1  0.64372236  0.29834073  0.74774335  1
  S  S79  1  0.47951215  0.30681678  0.58111083  1
  S  S80  1  0.98984447  0.31694590  0.58030798  1
  S  S81  1  0.34131171  0.63206860  0.57738350  1
  S  S82  1  0.49494081  0.68261861  0.08879158  1
  S  S83  1  0.99366773  0.67134307  0.08709061  1
  S  S84  1  0.34081801  0.05132011  0.07947884  1
  S  S85  1  0.84056885  0.05006450  0.07800838  1
  S  S86  1  0.30650417  0.64736544  0.92255708  1
  S  S87  1  0.81008789  0.64411336  0.92482484  1
  S  S88  1  0.31108856  0.97599991  0.42362092  1
  S  S89  1  0.80904914  0.96719949  0.42144166  1
  O  O90  1  0.12505573  0.04332680  0.30844485  1
  O  O91  1  0.62333823  0.03363829  0.30867869  1
  O  O92  1  0.41253731  0.80022169  0.30293956  1
  O  O93  1  0.91398295  0.80023905  0.30285183  1
  O  O94  1  0.48584479  0.19826089  0.31377457  1
  O  O95  1  0.98639760  0.19905299  0.31369682  1
  O  O96  1  0.11770052  0.23546681  0.81932850  1
  O  O97  1  0.60332203  0.19670742  0.80495536  1
  O  O98  1  0.48457179  0.77311974  0.81574767  1
  O  O99  1  0.99265268  0.77988481  0.81268559  1
  O  O100  1  0.41766154  0.02624732  0.79663252  1
  O  O101  1  0.89914150  -0.00771534  0.80855156  1
  O  O102  1  0.39826163  0.95218731  0.68058477  1
  O  O103  1  0.90014728  0.96397490  0.68454721  1
  O  O104  1  0.09656321  0.18585407  0.71348863  1
  O  O105  1  0.60241315  0.19840419  0.69523794  1
  O  O106  1  0.01050842  0.81188430  0.68835077  1
  O  O107  1  0.51129858  0.81719828  0.69190905  1
  O  O108  1  0.39949529  0.85107506  0.18520210  1
  O  O109  1  0.90140094  0.85315656  0.18525713  1
  O  O110  1  0.01447822  0.20627239  0.19094027  1
  O  O111  1  0.51377659  0.20078266  0.19111525  1
  O  O112  1  0.10039210  0.00044147  0.20231310  1
  O  O113  1  0.59947063  0.99473240  0.20225502  1
  O  O114  1  0.42950640  0.28356384  0.63972201  1
  O  O115  1  0.93819133  0.30949894  0.63609138  1
  O  O116  1  0.23395134  0.12895465  0.64724957  1
  O  O117  1  0.73972364  0.12159190  0.64511529  1
  O  O118  1  0.32855181  0.51760324  0.62837321  1
  O  O119  1  0.82406627  0.49396490  0.62854215  1
  O  O120  1  0.45242438  0.58839406  0.14798555  1
  O  O121  1  0.94925142  0.58062668  0.14635949  1
  O  O122  1  0.33304767  0.14452404  0.13059392  1
  O  O123  1  0.83361386  0.14776844  0.12809560  1
  O  O124  1  0.23688090  0.33731094  0.14493280  1
  O  O125  1  0.73389796  0.33725039  0.14842894  1
  O  O126  1  0.23953937  0.29958982  0.02299140  1
  O  O127  1  0.74384594  0.30591778  0.02751800  1
  O  O128  1  0.45369539  0.58206605  0.03788232  1
  O  O129  1  0.95421701  0.56748287  0.03612941  1
  O  O130  1  0.35084447  0.14511475  0.02017214  1
  O  O131  1  0.84600186  0.13123205  0.01794488  1
  O  O132  1  0.23939651  0.18233511  0.52562643  1
  O  O133  1  0.74045260  0.19395455  0.52613056  1
  O  O134  1  0.34853646  0.56239765  0.51765771  1
  O  O135  1  0.84601514  0.56560868  0.51047519  1
  O  O136  1  0.43942455  0.33306945  0.53023555  1
  O  O137  1  0.95360150  0.34370703  0.52698042  1
  O  O138  1  0.26790013  0.64079421  0.98389512  1
  O  O139  1  0.76887096  0.62990153  0.98540677  1
  O  O140  1  0.07561035  0.41785167  0.97293885  1
  O  O141  1  0.56597150  0.43260528  0.97968437  1
  O  O142  1  0.14361908  0.80617720  0.96520319  1
  O  O143  1  0.67302569  0.83623771  0.96706935  1
  O  O144  1  0.26984643  0.91660141  0.48501320  1
  O  O145  1  0.77181448  0.90413693  0.48398840  1
  O  O146  1  0.17523592  0.50597309  0.46596466  1
  O  O147  1  0.66023345  0.47137000  0.47520117  1
  O  O148  1  0.06571526  0.69556846  0.48104508  1
  O  O149  1  0.57102901  0.70376867  0.47549570  1
  O  O150  1  0.07092441  0.61969185  0.36015239  1
  O  O151  1  0.56538254  0.62088305  0.35633459  1
  O  O152  1  0.26025116  0.87258455  0.37641741  1
  O  O153  1  0.75631271  0.85207595  0.37669876  1
  O  O154  1  0.18522530  0.47940937  0.34708626  1
  O  O155  1  0.67927055  0.48323192  0.35215510  1
  O  O156  1  0.06722386  0.51902062  0.85950022  1
  O  O157  1  0.56803565  0.51617274  0.85888860  1
  O  O158  1  0.17745774  0.88453848  0.84547698  1
  O  O159  1  0.68024502  0.88842969  0.84948755  1
  O  O160  1  0.25804858  0.66351690  0.87572942  1
  O  O161  1  0.76255424  0.65352998  0.87646734  1
  O  O162  1  0.99593844  0.80922432  0.40792985  1
  O  O163  1  0.48935279  0.80326577  0.40776742  1
  O  O164  1  0.39725057  0.98543559  0.42230576  1
  O  O165  1  0.89675414  0.97802617  0.41954263  1
  O  O166  1  0.07921478  0.19422911  0.41785018  1
  O  O167  1  0.57925823  0.18373033  0.41625192  1
  O  O168  1  -0.01429281  0.17136003  0.90772101  1
  O  O169  1  0.49063376  0.18045083  0.90885876  1
  O  O170  1  0.08655968  0.99282585  0.91507300  1
  O  O171  1  0.57928790  0.97107573  0.92104825  1
  O  O172  1  0.39756815  0.79187671  0.92245577  1
  O  O173  1  0.89973126  0.80055424  0.92382602  1
  O  O174  1  0.49165747  0.15688522  0.57228546  1
  O  O175  1  0.98911428  0.15247483  0.57559676  1
  O  O176  1  0.08805795  0.03931652  0.59328241  1
  O  O177  1  0.58861810  0.03986161  0.59234825  1
  O  O178  1  0.43086377  0.79528720  0.57900361  1
  O  O179  1  0.92648901  0.81303156  0.58299904  1
  O  O180  1  0.48932835  0.84255829  0.08634495  1
  O  O181  1  0.98879147  0.83142624  0.08314297  1
  O  O182  1  0.42735381  0.05638610  0.07859899  1
  O  O183  1  0.92912590  0.05904944  0.07853200  1
  O  O184  1  0.08943946  0.14184381  0.09066051  1
  O  O185  1  0.58978130  0.14933261  0.09010844  1
  O  O186  1  0.32607069  0.12834879  0.74659219  1
  O  O187  1  0.82287247  0.12432303  0.74715901  1
  O  O188  1  0.24148504  0.35511398  0.75002092  1
  O  O189  1  0.73627235  0.34356449  0.74751324  1
  O  O190  1  0.42062664  0.49551762  0.74675242  1
  O  O191  1  0.91926202  0.50120986  0.74706137  1
  O  O192  1  0.32586797  0.52787026  0.24489077  1
  O  O193  1  0.82666943  0.52844997  0.24492167  1
  O  O194  1  0.42158241  0.34320162  0.24493994  1
  O  O195  1  0.92081496  0.34350609  0.24554325  1
  O  O196  1  0.24545062  0.11486496  0.24066036  1
  O  O197  1  0.74510423  0.11382476  0.24074989  1
  O  O198  1  0.30834875  0.48141718  0.91374071  1
  O  O199  1  0.82256197  0.48867754  0.91680037  1
  O  O200  1  0.42179405  0.38639315  0.93028756  1
  O  O201  1  0.92455987  0.38476028  0.93139586  1
  O  O202  1  0.25734488  0.13635965  0.91847400  1
  O  O203  1  0.75883388  0.14676202  0.91632072  1
  O  O204  1  0.32651543  0.15802989  0.41565553  1
  O  O205  1  0.82237228  0.14283950  0.41263535  1
  O  O206  1  0.25819234  0.36353026  0.41446069  1
  O  O207  1  0.75796374  0.36888001  0.41303617  1
  O  O208  1  0.42248562  0.46909960  0.42722942  1
  O  O209  1  0.92301799  0.46820539  0.42478276  1
  O  O210  1  0.17023159  0.48752557  0.08675779  1
  O  O211  1  0.67251550  0.49432211  0.08884070  1
  O  O212  1  0.08586281  0.71095023  0.09017737  1
  O  O213  1  0.58796270  0.72626996  0.08954067  1
  O  O214  1  0.26828656  0.87619091  0.08088773  1
  O  O215  1  0.77125912  0.87051845  0.08379190  1
  O  O216  1  0.16260181  0.84793065  0.58548601  1
  O  O217  1  0.67092414  0.85682186  0.58403747  1
  O  O218  1  0.27292252  0.67889622  0.58062910  1
  O  O219  1  0.75062107  0.66098818  0.58262379  1
  O  O220  1  0.07933096  0.46779108  0.58681616  1
  O  O221  1  0.56708104  0.46356844  0.58901816  1
  O  O222  1  0.13418795  0.81217345  0.25412012  1
  O  O223  1  0.63631120  0.80962936  0.25257919  1
  O  O224  1  0.25608107  0.73314246  0.25940760  1
  O  O225  1  0.75628046  0.73025071  0.26029909  1
  O  O226  1  0.09277518  0.48348621  0.24938595  1
  O  O227  1  0.59305038  0.48178870  0.24966077  1
  O  O228  1  0.14174154  0.46924311  0.75013831  1
  O  O229  1  0.63480775  0.45398598  0.74648021  1
  O  O230  1  0.09487974  0.70510155  0.74684900  1
  O  O231  1  0.59006243  0.70004591  0.75146100  1
  O  O232  1  0.25751477  0.78428872  0.75822389  1
  O  O233  1  0.75175052  0.78179435  0.75803396  1
