# generated using pymatgen
data_Na6Nb2In2Si5SO24
_symmetry_space_group_name_H-M   'P 1'
_cell_length_a   9.19020156
_cell_length_b   9.14537468
_cell_length_c   22.48609005
_cell_angle_alpha   89.93511881
_cell_angle_beta   90.05501965
_cell_angle_gamma   120.10871317
_symmetry_Int_Tables_number   1
_chemical_formula_structural   Na6Nb2In2Si5SO24
_chemical_formula_sum   'Na18 Nb6 In6 Si15 S3 O72'
_cell_volume   1634.91054784
_cell_formula_units_Z   3
loop_
 _symmetry_equiv_pos_site_id
 _symmetry_equiv_pos_as_xyz
  1  'x, y, z'
loop_
 _atom_site_type_symbol
 _atom_site_label
 _atom_site_symmetry_multiplicity
 _atom_site_fract_x
 _atom_site_fract_y
 _atom_site_fract_z
 _atom_site_occupancy
  Na  Na0  1  0.64987305  0.01968863  0.24725462  1
  Na  Na1  1  0.36189552  0.34477224  0.25440005  1
  Na  Na2  1  0.98926447  0.63098339  0.24814267  1
  Na  Na3  1  0.99007384  0.35268021  0.74837695  1
  Na  Na4  1  0.29558261  0.34231141  0.57916648  1
  Na  Na5  1  0.66061558  0.95536944  0.57802677  1
  Na  Na6  1  0.67266160  0.69654090  0.07057432  1
  Na  Na7  1  0.02180166  0.33867535  0.07835300  1
  Na  Na8  1  0.95450976  0.66352654  0.91001643  1
  Na  Na9  1  0.71746820  0.03929393  0.91730009  1
  Na  Na10  1  0.32615304  0.30071653  0.91017520  1
  Na  Na11  1  0.70168717  0.67395147  0.41710612  1
  Na  Na12  1  0.01342646  0.01907244  0.49495889  1
  Na  Na13  1  0.99186566  0.99431432  0.99645651  1
  Na  Na14  1  0.66171846  0.34223803  0.83022781  1
  Na  Na15  1  0.66207410  0.31545353  0.33164832  1
  Na  Na16  1  0.33064367  0.69983660  0.16137029  1
  Na  Na17  1  0.32836414  0.67946079  0.66168093  1
  Nb  Nb18  1  0.99453931  0.99128088  0.64687644  1
  Nb  Nb19  1  0.99404895  0.99446434  0.15055703  1
  Nb  Nb20  1  0.66549417  0.33470154  0.68704926  1
  Nb  Nb21  1  0.65443274  0.32062841  0.47974911  1
  Nb  Nb22  1  0.34578086  0.67081875  0.31416593  1
  Nb  Nb23  1  0.33580370  0.65286267  0.80673091  1
  In  In24  1  0.00414916  0.01175697  0.35277272  1
  In  In25  1  0.99120305  0.99745937  0.84573205  1
  In  In26  1  0.67239307  0.33055225  0.18321186  1
  In  In27  1  0.68687661  0.34591058  0.98178918  1
  In  In28  1  0.33571839  0.67400923  0.01782231  1
  In  In29  1  0.33214240  0.66397807  0.52183780  1
  Si  Si30  1  0.29343216  0.99951242  0.25279140  1
  Si  Si31  1  0.70630568  0.70387435  0.25410203  1
  Si  Si32  1  0.00208737  0.29743019  0.25019854  1
  Si  Si33  1  0.29486214  0.28437768  0.75050117  1
  Si  Si34  1  0.00102933  0.70435258  0.75260971  1
  Si  Si35  1  0.70072454  0.99846851  0.74987039  1
  Si  Si36  1  0.95462338  0.33259506  0.58474883  1
  Si  Si37  1  0.36929826  0.04159010  0.58465591  1
  Si  Si38  1  0.67505483  0.62551992  0.58106968  1
  Si  Si39  1  0.97001119  0.64118145  0.08346093  1
  Si  Si40  1  0.66728735  0.03301655  0.08390717  1
  Si  Si41  1  0.62656495  0.66476252  0.91770455  1
  Si  Si42  1  0.04168046  0.37148256  0.91698573  1
  Si  Si43  1  0.63042079  0.96356620  0.42078749  1
  Si  Si44  1  0.33473496  0.36841802  0.42099510  1
  S  S45  1  0.36274392  0.32303982  0.08294594  1
  S  S46  1  0.33476630  0.95984930  0.91445755  1
  S  S47  1  0.03728393  0.65815768  0.41608459  1
  O  O48  1  0.21671690  0.04310443  0.30901148  1
  O  O49  1  0.82135591  0.77243473  0.31243757  1
  O  O50  1  0.94453235  0.16318020  0.30322896  1
  O  O51  1  0.22391538  0.18884229  0.81266221  1
  O  O52  1  0.97391668  0.77468713  0.81449312  1
  O  O53  1  0.81298944  0.04623633  0.80956922  1
  O  O54  1  0.80288523  0.97527392  0.69296090  1
  O  O55  1  0.16425163  0.19318771  0.69447753  1
  O  O56  1  0.01919412  0.83187882  0.69641223  1
  O  O57  1  0.80449062  0.83576608  0.19663366  1
  O  O58  1  0.03493146  0.20862466  0.18986054  1
  O  O59  1  0.16486387  0.97489713  0.19534248  1
  O  O60  1  0.85934732  0.34186923  0.64476122  1
  O  O61  1  0.49617946  0.15109464  0.63877570  1
  O  O62  1  0.66475749  0.50438469  0.63658179  1
  O  O63  1  0.87901004  0.53175091  0.14225381  1
  O  O64  1  0.64753819  0.11355110  0.14490127  1
  O  O65  1  0.45830474  0.33568107  0.13726038  1
  O  O66  1  0.44448325  0.30993828  0.02819445  1
  O  O67  1  0.85038766  0.57298585  0.02399504  1
  O  O68  1  0.70078908  0.14927020  0.02410126  1
  O  O69  1  0.46591522  0.16606858  0.52499206  1
  O  O70  1  0.69288304  0.53508491  0.51990997  1
  O  O71  1  0.82541541  0.30946525  0.52840430  1
  O  O72  1  0.54964466  0.69485501  0.97799192  1
  O  O73  1  0.14441378  0.45573207  0.97779027  1
  O  O74  1  0.31493981  0.86766600  0.97045647  1
  O  O75  1  0.54356303  0.85963677  0.48031300  1
  O  O76  1  0.32110629  0.45315816  0.48151488  1
  O  O77  1  0.13316770  0.67104869  0.46958962  1
  O  O78  1  0.12563526  0.65066312  0.36089730  1
  O  O79  1  0.50273266  0.86005784  0.36197995  1
  O  O80  1  0.35378899  0.50109798  0.36331780  1
  O  O81  1  0.14944781  0.49325769  0.85876418  1
  O  O82  1  0.34607827  0.86753444  0.86262124  1
  O  O83  1  0.50148419  0.65390925  0.86102430  1
  O  O84  1  0.00977783  0.80375449  0.41485465  1
  O  O85  1  0.80752144  0.96674228  0.41535085  1
  O  O86  1  0.17734930  0.18123094  0.41568256  1
  O  O87  1  0.02385974  0.18429912  0.91456038  1
  O  O88  1  0.18637549  0.98324924  0.91240198  1
  O  O89  1  0.81613640  0.82785571  0.91323513  1
  O  O90  1  0.96343489  0.15512937  0.58807857  1
  O  O91  1  0.19101180  0.04064596  0.59024839  1
  O  O92  1  0.84296494  0.81546636  0.58835596  1
  O  O93  1  0.98625009  0.83071835  0.09117790  1
  O  O94  1  0.84748189  0.02485380  0.08902361  1
  O  O95  1  0.19087709  0.17143322  0.08484644  1
  O  O96  1  0.67812404  0.16376015  0.74089599  1
  O  O97  1  0.48649856  0.32390375  0.74120935  1
  O  O98  1  0.84109620  0.51154598  0.74351968  1
  O  O99  1  0.65617617  0.51112179  0.24175773  1
  O  O100  1  0.85082226  0.33910618  0.24591010  1
  O  O101  1  0.48363706  0.15516347  0.24487256  1
  O  O102  1  0.62338890  0.48315070  0.91648739  1
  O  O103  1  0.85807097  0.36141382  0.91307754  1
  O  O104  1  0.49164517  0.12862092  0.91554760  1
  O  O105  1  0.64608417  0.15263246  0.42137938  1
  O  O106  1  0.52022566  0.37371937  0.41847164  1
  O  O107  1  0.86895958  0.49930523  0.41607004  1
  O  O108  1  0.34599070  0.47649121  0.08247810  1
  O  O109  1  0.14987046  0.64842563  0.08001721  1
  O  O110  1  0.51512349  0.83713712  0.08182327  1
  O  O111  1  0.35985573  0.86255238  0.58216802  1
  O  O112  1  0.50944083  0.64453778  0.58505183  1
  O  O113  1  0.14296019  0.49114838  0.58278292  1
  O  O114  1  0.29554208  0.81872997  0.25731391  1
  O  O115  1  0.52607564  0.70747604  0.25820968  1
  O  O116  1  0.18127556  0.47898184  0.25914068  1
  O  O117  1  0.30590401  0.47428020  0.75396861  1
  O  O118  1  0.17000126  0.68271690  0.75523929  1
  O  O119  1  0.51526050  0.82762103  0.75590218  1
