# generated using pymatgen
data_Na3Ta8Zn4P15(SO24)3
_symmetry_space_group_name_H-M   'P 1'
_cell_length_a   8.74830707
_cell_length_b   8.74213218
_cell_length_c   22.62861968
_cell_angle_alpha   89.82200473
_cell_angle_beta   90.21021262
_cell_angle_gamma   119.79800354
_symmetry_Int_Tables_number   1
_chemical_formula_structural   Na3Ta8Zn4P15(SO24)3
_chemical_formula_sum   'Na3 Ta8 Zn4 P15 S3 O72'
_cell_volume   1501.78262419
_cell_formula_units_Z   1
loop_
 _symmetry_equiv_pos_site_id
 _symmetry_equiv_pos_as_xyz
  1  'x, y, z'
loop_
 _atom_site_type_symbol
 _atom_site_label
 _atom_site_symmetry_multiplicity
 _atom_site_fract_x
 _atom_site_fract_y
 _atom_site_fract_z
 _atom_site_occupancy
  Na  Na0  1  0.99955793  0.99475392  0.99004480  1
  Na  Na1  1  0.66138086  0.33287734  0.84313943  1
  Na  Na2  1  0.66006404  0.33487732  0.34080940  1
  Ta  Ta3  1  0.00421446  0.00532637  0.35712806  1
  Ta  Ta4  1  0.00204032  0.00107719  0.64637016  1
  Ta  Ta5  1  0.00013381  0.99826017  0.14619102  1
  Ta  Ta6  1  0.66446625  0.33192941  0.68616922  1
  Ta  Ta7  1  0.66625589  0.33464887  0.18755917  1
  Ta  Ta8  1  0.33914163  0.67397900  0.02337490  1
  Ta  Ta9  1  0.33091889  0.65878170  0.52305693  1
  Ta  Ta10  1  0.34054332  0.67267504  0.81004706  1
  Zn  Zn11  1  0.99855080  0.99003461  0.85331556  1
  Zn  Zn12  1  0.65658473  0.33181921  0.97981421  1
  Zn  Zn13  1  0.65818510  0.33377557  0.48482695  1
  Zn  Zn14  1  0.33591267  0.65957206  0.30660023  1
  P  P15  1  0.28912340  0.99937514  0.25150681  1
  P  P16  1  0.71421315  0.71344086  0.25138547  1
  P  P17  1  0.99811486  0.28720276  0.25042578  1
  P  P18  1  0.28634940  0.28416843  0.75287026  1
  P  P19  1  0.99621280  0.70983362  0.75192894  1
  P  P20  1  0.71895375  0.00486496  0.75238787  1
  P  P21  1  0.94877745  0.32953354  0.58077600  1
  P  P22  1  0.37760464  0.04478808  0.58107040  1
  P  P23  1  0.67159232  0.62357291  0.58139173  1
  P  P24  1  0.95066751  0.61821593  0.08082024  1
  P  P25  1  0.67083703  0.05208028  0.08128758  1
  P  P26  1  0.37755333  0.33075964  0.08154395  1
  P  P27  1  0.62567767  0.66744694  0.91700584  1
  P  P28  1  0.33396336  0.95910731  0.91636013  1
  P  P29  1  0.34240484  0.38349897  0.41394492  1
  S  S30  1  0.04741385  0.38084797  0.91661210  1
  S  S31  1  0.61941520  0.95592156  0.41499497  1
  S  S32  1  0.04396415  0.66322478  0.41484228  1
  O  O33  1  0.19964913  0.03572022  0.30604449  1
  O  O34  1  0.83706368  0.80050930  0.30604202  1
  O  O35  1  0.96328230  0.16372742  0.30568437  1
  O  O36  1  0.21795862  0.17278529  0.80680415  1
  O  O37  1  0.95080320  0.77520024  0.80595715  1
  O  O38  1  0.82823097  0.04590696  0.80675887  1
  O  O39  1  0.80313544  0.97492311  0.69649649  1
  O  O40  1  0.17200492  0.19872664  0.69654781  1
  O  O41  1  0.02722577  0.82738592  0.69633653  1
  O  O42  1  0.81264868  0.82474793  0.19598493  1
  O  O43  1  0.01358283  0.18813155  0.19603931  1
  O  O44  1  0.17577164  0.98345424  0.19627307  1
  O  O45  1  0.86485394  0.36361632  0.63613169  1
  O  O46  1  0.49727031  0.13025836  0.63651253  1
  O  O47  1  0.63395617  0.50249746  0.63644241  1
  O  O48  1  0.86371868  0.50309019  0.13772545  1
  O  O49  1  0.64025099  0.13713604  0.13768790  1
  O  O50  1  0.49527930  0.36156043  0.13792993  1
  O  O51  1  0.44399154  0.28515395  0.02790870  1
  O  O52  1  0.83862060  0.54897536  0.02710623  1
  O  O53  1  0.71150216  0.16218548  0.02718317  1
  O  O54  1  0.44502606  0.15509021  0.52695016  1
  O  O55  1  0.71241635  0.55597531  0.52704326  1
  O  O56  1  0.84125514  0.29294675  0.52613415  1
  O  O57  1  0.51889367  0.67770909  0.97231341  1
  O  O58  1  0.15579317  0.47446076  0.97073208  1
  O  O59  1  0.31851514  0.84053393  0.97224028  1
  O  O60  1  0.53622479  0.84420626  0.46957939  1
  O  O61  1  0.31108800  0.47191145  0.47118815  1
  O  O62  1  0.15638036  0.69384987  0.46971326  1
  O  O63  1  0.12722058  0.64311285  0.36283511  1
  O  O64  1  0.51370088  0.87667411  0.36286016  1
  O  O65  1  0.36364488  0.49373495  0.36066524  1
  O  O66  1  0.14110072  0.48897215  0.86258113  1
  O  O67  1  0.34400193  0.85228873  0.86107864  1
  O  O68  1  0.50740907  0.65226806  0.86111314  1
  O  O69  1  0.03275792  0.83187860  0.40973128  1
  O  O70  1  0.79703026  0.96229921  0.40927178  1
  O  O71  1  0.16408324  0.19786069  0.40761524  1
  O  O72  1  0.03971000  0.21082551  0.91455751  1
  O  O73  1  0.16497401  0.96617902  0.91523288  1
  O  O74  1  0.79718394  0.83974863  0.91567175  1
  O  O75  1  0.98208155  0.17567908  0.59652750  1
  O  O76  1  0.19256550  0.01578976  0.59733916  1
  O  O77  1  0.82486708  0.80849534  0.59743968  1
  O  O78  1  0.98334163  0.80819059  0.09453761  1
  O  O79  1  0.82633668  0.01720234  0.09473335  1
  O  O80  1  0.18966726  0.17401995  0.09549997  1
  O  O81  1  0.68547170  0.16165475  0.73827949  1
  O  O82  1  0.47554263  0.31488564  0.73818823  1
  O  O83  1  0.83830451  0.52187245  0.73711423  1
  O  O84  1  0.70396996  0.52958402  0.24254560  1
  O  O85  1  0.82355044  0.29436042  0.24231807  1
  O  O86  1  0.47008636  0.17338486  0.24253913  1
  O  O87  1  0.63276881  0.49832857  0.91803202  1
  O  O88  1  0.87772071  0.37298231  0.91867070  1
  O  O89  1  0.50625301  0.13051970  0.91764809  1
  O  O90  1  0.65375884  0.13549484  0.42295056  1
  O  O91  1  0.49416590  0.34912323  0.42229814  1
  O  O92  1  0.86744984  0.51444552  0.42273902  1
  O  O93  1  0.35689299  0.49633461  0.07466944  1
  O  O94  1  0.13684793  0.63835200  0.07427334  1
  O  O95  1  0.50431915  0.86473558  0.07524450  1
  O  O96  1  0.35705770  0.85819301  0.57206552  1
  O  O97  1  0.50378776  0.64403732  0.57319727  1
  O  O98  1  0.13699155  0.49740037  0.57295205  1
  O  O99  1  0.30680045  0.84061906  0.25895141  1
  O  O100  1  0.53822900  0.69801383  0.25541092  1
  O  O101  1  0.15489785  0.46428455  0.25594407  1
  O  O102  1  0.30745080  0.47116776  0.75924196  1
  O  O103  1  0.16146461  0.68803286  0.75876035  1
  O  O104  1  0.53069140  0.83899165  0.75824706  1
