# generated using pymatgen
data_Na2Sc2Al2SiS5O24
_symmetry_space_group_name_H-M   'P 1'
_cell_length_a   8.61502126
_cell_length_b   8.60583892
_cell_length_c   22.55359944
_cell_angle_alpha   89.68588380
_cell_angle_beta   90.27015201
_cell_angle_gamma   119.76383278
_symmetry_Int_Tables_number   1
_chemical_formula_structural   Na2Sc2Al2SiS5O24
_chemical_formula_sum   'Na6 Sc6 Al6 Si3 S15 O72'
_cell_volume   1451.49987300
_cell_formula_units_Z   3
loop_
 _symmetry_equiv_pos_site_id
 _symmetry_equiv_pos_as_xyz
  1  'x, y, z'
loop_
 _atom_site_type_symbol
 _atom_site_label
 _atom_site_symmetry_multiplicity
 _atom_site_fract_x
 _atom_site_fract_y
 _atom_site_fract_z
 _atom_site_occupancy
  Na  Na0  1  0.99179862  0.98977329  0.50298894  1
  Na  Na1  1  0.99967099  0.00010152  0.99956105  1
  Na  Na2  1  0.66979516  0.32437614  0.82975969  1
  Na  Na3  1  0.65209015  0.32003859  0.33079713  1
  Na  Na4  1  0.33043634  0.67657508  0.17163080  1
  Na  Na5  1  0.35770678  0.67607125  0.66616992  1
  Sc  Sc6  1  0.01480903  0.00329676  0.34808019  1
  Sc  Sc7  1  0.97830432  0.98718623  0.64628340  1
  Sc  Sc8  1  0.66450862  0.33149879  0.68770104  1
  Sc  Sc9  1  0.66766264  0.34285775  0.48056025  1
  Sc  Sc10  1  0.34401820  0.66839622  0.52257516  1
  Sc  Sc11  1  0.34446947  0.67412732  0.81306951  1
  Al  Al12  1  0.99806337  0.00317497  0.84530025  1
  Al  Al13  1  0.00475292  0.99470370  0.15524286  1
  Al  Al14  1  0.65919893  0.32656749  0.18645926  1
  Al  Al15  1  0.66751671  0.33248140  0.98409171  1
  Al  Al16  1  0.33257078  0.66520850  0.01688444  1
  Al  Al17  1  0.33253984  0.68067487  0.31344165  1
  Si  Si18  1  0.30011943  0.99923645  0.24616436  1
  Si  Si19  1  0.71353500  0.00647523  0.75446554  1
  Si  Si20  1  0.66947356  0.62723392  0.58413472  1
  S  S21  1  0.70732220  0.70443969  0.24584948  1
  S  S22  1  0.99837383  0.29291166  0.24559206  1
  S  S23  1  0.28411966  0.28247748  0.75363891  1
  S  S24  1  0.99930917  0.71419568  0.75456730  1
  S  S25  1  0.96037915  0.33508167  0.58237877  1
  S  S26  1  0.37230835  0.04241914  0.58276580  1
  S  S27  1  0.95234725  0.61847679  0.08273023  1
  S  S28  1  0.66668664  0.04419734  0.08275162  1
  S  S29  1  0.37987847  0.33650464  0.08205339  1
  S  S30  1  0.62784781  0.66191559  0.92243423  1
  S  S31  1  0.03756215  0.37361827  0.92197504  1
  S  S32  1  0.33529394  0.96389494  0.92149601  1
  S  S33  1  0.62202810  0.95478263  0.41242613  1
  S  S34  1  0.33244986  0.38486900  0.41131382  1
  S  S35  1  0.04577653  0.66279087  0.41326184  1
  O  O36  1  0.21581812  0.04006348  0.30469726  1
  O  O37  1  0.81495944  0.77947882  0.29959075  1
  O  O38  1  0.95554554  0.18145864  0.29929778  1
  O  O39  1  0.20068198  0.17295369  0.80882250  1
  O  O40  1  0.98541831  0.80586227  0.80920576  1
  O  O41  1  0.82850525  0.02432465  0.81450001  1
  O  O42  1  0.79439147  0.97340020  0.69488512  1
  O  O43  1  0.18535906  0.20250459  0.69972523  1
  O  O44  1  0.03220261  0.81912742  0.70059367  1
  O  O45  1  0.78900509  0.82649991  0.19323517  1
  O  O46  1  0.02501373  0.20263902  0.19298070  1
  O  O47  1  0.16678869  0.96330442  0.18943436  1
  O  O48  1  0.87503019  0.35240278  0.63633824  1
  O  O49  1  0.48231857  0.11884216  0.63648089  1
  O  O50  1  0.64293234  0.51099625  0.64331135  1
  O  O51  1  0.87083820  0.50525737  0.13571274  1
  O  O52  1  0.63562453  0.12684529  0.13521789  1
  O  O53  1  0.49394301  0.36952937  0.13500809  1
  O  O54  1  0.46367879  0.30505282  0.02914902  1
  O  O55  1  0.84006471  0.53325066  0.02918797  1
  O  O56  1  0.69659584  0.15767459  0.02906034  1
  O  O57  1  0.45940908  0.14401637  0.52825665  1
  O  O58  1  0.68736453  0.53354190  0.52351982  1
  O  O59  1  0.85137740  0.30577979  0.52838719  1
  O  O60  1  0.53638177  0.69256685  0.97402546  1
  O  O61  1  0.15623071  0.46626931  0.97452127  1
  O  O62  1  0.30516044  0.84399967  0.97408904  1
  O  O63  1  0.54238049  0.85421151  0.46711607  1
  O  O64  1  0.31460513  0.46464874  0.46603985  1
  O  O65  1  0.14634448  0.68508304  0.46762660  1
  O  O66  1  0.13822997  0.64697850  0.35980523  1
  O  O67  1  0.51143603  0.86158112  0.35923367  1
  O  O68  1  0.34965768  0.49525492  0.35772580  1
  O  O69  1  0.10962720  0.48164099  0.86819258  1
  O  O70  1  0.37104685  0.89042950  0.86806794  1
  O  O71  1  0.51951407  0.62670749  0.86845060  1
  O  O72  1  0.02091725  0.82124063  0.40837088  1
  O  O73  1  0.80089273  0.97285668  0.40706435  1
  O  O74  1  0.16844961  0.20649732  0.40810923  1
  O  O75  1  0.02481147  0.19596105  0.91704437  1
  O  O76  1  0.17340627  0.98201771  0.91393903  1
  O  O77  1  0.80776760  0.82069795  0.91655608  1
  O  O78  1  0.99233163  0.18320935  0.58599466  1
  O  O79  1  0.20022684  0.03515378  0.58746595  1
  O  O80  1  0.84720544  0.82154153  0.58318274  1
  O  O81  1  0.96748971  0.79831410  0.08885602  1
  O  O82  1  0.82809792  0.02389829  0.09084740  1
  O  O83  1  0.19823429  0.17776499  0.08924840  1
  O  O84  1  0.69175694  0.18152379  0.75091469  1
  O  O85  1  0.46519033  0.30608646  0.75246713  1
  O  O86  1  0.83411599  0.54047477  0.75210153  1
  O  O87  1  0.69654626  0.52938855  0.23456306  1
  O  O88  1  0.84502036  0.32260028  0.23441517  1
  O  O89  1  0.49609441  0.17624498  0.23575298  1
  O  O90  1  0.64436491  0.49837166  0.93272588  1
  O  O91  1  0.85544406  0.35191946  0.93223408  1
  O  O92  1  0.49602994  0.14394520  0.93208640  1
  O  O93  1  0.63611039  0.13237248  0.41458774  1
  O  O94  1  0.49178578  0.36249710  0.41297626  1
  O  O95  1  0.86853722  0.49836162  0.41416743  1
  O  O96  1  0.36196932  0.50084197  0.07274322  1
  O  O97  1  0.13550902  0.63985562  0.07418119  1
  O  O98  1  0.50379446  0.86297976  0.07369130  1
  O  O99  1  0.34524157  0.85966013  0.57798455  1
  O  O100  1  0.49215633  0.64837224  0.58010130  1
  O  O101  1  0.13304431  0.50186610  0.57744153  1
  O  O102  1  0.31725566  0.81998959  0.25764849  1
  O  O103  1  0.52542062  0.67879978  0.25387506  1
  O  O104  1  0.16387159  0.46742679  0.25388692  1
  O  O105  1  0.29493227  0.45854940  0.76040704  1
  O  O106  1  0.15373893  0.68547167  0.76141871  1
  O  O107  1  0.51403327  0.82643827  0.75886007  1
