# generated using pymatgen
data_Na8CaSi5Sn3SO24
_symmetry_space_group_name_H-M   'P 1'
_cell_length_a   9.28235301
_cell_length_b   9.28615654
_cell_length_c   22.53691921
_cell_angle_alpha   90.90236695
_cell_angle_beta   89.63712383
_cell_angle_gamma   120.08404269
_symmetry_Int_Tables_number   1
_chemical_formula_structural   Na8CaSi5Sn3SO24
_chemical_formula_sum   'Na24 Ca3 Si15 Sn9 S3 O72'
_cell_volume   1680.72351561
_cell_formula_units_Z   3
loop_
 _symmetry_equiv_pos_site_id
 _symmetry_equiv_pos_as_xyz
  1  'x, y, z'
loop_
 _atom_site_type_symbol
 _atom_site_label
 _atom_site_symmetry_multiplicity
 _atom_site_fract_x
 _atom_site_fract_y
 _atom_site_fract_z
 _atom_site_occupancy
  Na  Na0  1  0.65120862  0.02514148  0.24523118  1
  Na  Na1  1  0.35860947  0.36305063  0.23785468  1
  Na  Na2  1  0.99468348  0.61814694  0.24165895  1
  Na  Na3  1  0.62943594  0.61314966  0.74847564  1
  Na  Na4  1  0.98518933  0.36589710  0.75683960  1
  Na  Na5  1  0.38742098  0.01259050  0.74844849  1
  Na  Na6  1  0.32102669  0.33602838  0.59298831  1
  Na  Na7  1  0.02837984  0.70367029  0.58278269  1
  Na  Na8  1  0.65533881  0.96589223  0.59668355  1
  Na  Na9  1  0.31297130  0.97384195  0.07416082  1
  Na  Na10  1  0.66183022  0.69023945  0.07301798  1
  Na  Na11  1  0.02927781  0.34622647  0.07597256  1
  Na  Na12  1  0.96363904  0.66507542  0.91267809  1
  Na  Na13  1  0.69985353  0.03581349  0.91235572  1
  Na  Na14  1  0.33635193  0.29878670  0.91315950  1
  Na  Na15  1  0.96345493  0.28157705  0.41096060  1
  Na  Na16  1  0.31708724  0.03071163  0.42301622  1
  Na  Na17  1  0.71362215  0.68297615  0.42339627  1
  Na  Na18  1  0.00085680  0.99479956  0.49693361  1
  Na  Na19  1  0.00079728  0.00199195  0.99543855  1
  Na  Na20  1  0.66564216  0.33294576  0.82702610  1
  Na  Na21  1  0.68714985  0.33257789  0.33643595  1
  Na  Na22  1  0.32711362  0.66036349  0.15595515  1
  Na  Na23  1  0.34624533  0.67793127  0.67388718  1
  Ca  Ca24  1  0.00133370  0.00250164  0.35480656  1
  Ca  Ca25  1  0.65959285  0.33139937  0.68578689  1
  Ca  Ca26  1  0.67111769  0.33413940  0.17412109  1
  Si  Si27  1  0.00680934  0.30831857  0.25397993  1
  Si  Si28  1  0.28250132  0.29182242  0.75254850  1
  Si  Si29  1  0.01108767  0.70753597  0.75317357  1
  Si  Si30  1  0.70742328  0.99166979  0.75285487  1
  Si  Si31  1  0.36207515  0.02819388  0.58289514  1
  Si  Si32  1  0.66596283  0.63876938  0.58363754  1
  Si  Si33  1  0.97315400  0.64049699  0.08548363  1
  Si  Si34  1  0.66206932  0.02928417  0.08394222  1
  Si  Si35  1  0.36757352  0.33980744  0.08364433  1
  Si  Si36  1  0.62832219  0.66375575  0.91613926  1
  Si  Si37  1  0.03729842  0.37221593  0.91633491  1
  Si  Si38  1  0.33620864  0.96361090  0.91684433  1
  Si  Si39  1  0.61915349  0.96322589  0.41674181  1
  Si  Si40  1  0.34209925  0.37761932  0.41869264  1
  Si  Si41  1  0.03026475  0.65188114  0.41989447  1
  Sn  Sn42  1  0.99921324  0.99765350  0.85401389  1
  Sn  Sn43  1  0.00137538  0.98556154  0.65312898  1
  Sn  Sn44  1  0.00433821  0.01828626  0.14267139  1
  Sn  Sn45  1  0.66987160  0.33676302  0.98269211  1
  Sn  Sn46  1  0.65582459  0.33436292  0.48106375  1
  Sn  Sn47  1  0.33308469  0.66786034  0.01376430  1
  Sn  Sn48  1  0.33860206  0.67302225  0.51632815  1
  Sn  Sn49  1  0.32315454  0.65442320  0.32191263  1
  Sn  Sn50  1  0.33578661  0.66582802  0.81512853  1
  S  S51  1  0.29643868  0.99154734  0.24989310  1
  S  S52  1  0.69517922  0.70532686  0.24988463  1
  S  S53  1  0.96602961  0.33231500  0.58028863  1
  O  O54  1  0.21367311  0.99775024  0.30461100  1
  O  O55  1  0.79166524  0.78204063  0.30403356  1
  O  O56  1  0.98937585  0.20543443  0.31216184  1
  O  O57  1  0.19465205  0.17981601  0.81126603  1
  O  O58  1  0.98068876  0.79709620  0.81123590  1
  O  O59  1  0.81828925  0.01629203  0.81227046  1
  O  O60  1  0.79381835  0.96734566  0.69078404  1
  O  O61  1  0.17021257  0.20624294  0.69060925  1
  O  O62  1  0.03995435  0.81404725  0.69092343  1
  O  O63  1  0.78350376  0.80442976  0.19571361  1
  O  O64  1  0.03769945  0.21635822  0.19261774  1
  O  O65  1  0.19292426  0.97414281  0.19589874  1
  O  O66  1  0.89072860  0.35602922  0.63393861  1
  O  O67  1  0.48175979  0.09610435  0.63937755  1
  O  O68  1  0.62729244  0.52724111  0.64115360  1
  O  O69  1  0.91378597  0.53874179  0.14598491  1
  O  O70  1  0.62443163  0.08704206  0.14675154  1
  O  O71  1  0.46237183  0.37331047  0.14596614  1
  O  O72  1  0.46416147  0.30498115  0.02850510  1
  O  O73  1  0.84121390  0.55071408  0.02950162  1
  O  O74  1  0.70211967  0.16251344  0.02968846  1
  O  O75  1  0.44912751  0.15027971  0.52367811  1
  O  O76  1  0.70707795  0.55277512  0.52454288  1
  O  O77  1  0.86297449  0.31288596  0.52622184  1
  O  O78  1  0.54566436  0.69876515  0.97501632  1
  O  O79  1  0.15322112  0.45384735  0.97550803  1
  O  O80  1  0.29876654  0.84642573  0.97505306  1
  O  O81  1  0.53350298  0.85074962  0.47488571  1
  O  O82  1  0.30984710  0.46719488  0.47610107  1
  O  O83  1  0.14728642  0.67738281  0.47702856  1
  O  O84  1  0.11029452  0.62306385  0.35715917  1
  O  O85  1  0.49953850  0.87644452  0.35591930  1
  O  O86  1  0.37698716  0.49156335  0.35796983  1
  O  O87  1  0.12060279  0.49321641  0.85899530  1
  O  O88  1  0.37590985  0.87956963  0.85910441  1
  O  O89  1  0.50758012  0.62461760  0.85813557  1
  O  O90  1  0.00574367  0.81184528  0.41863772  1
  O  O91  1  0.80188984  0.98417321  0.41532761  1
  O  O92  1  0.18699508  0.19016779  0.41860786  1
  O  O93  1  0.01529572  0.18422616  0.91374755  1
  O  O94  1  0.16975039  0.98540494  0.91382503  1
  O  O95  1  0.81577807  0.83163691  0.91401056  1
  O  O96  1  0.98121714  0.18004642  0.58144580  1
  O  O97  1  0.17922348  0.02291813  0.58692955  1
  O  O98  1  0.83618706  0.82825257  0.58622500  1
  O  O99  1  0.98928227  0.82834463  0.09112827  1
  O  O100  1  0.83212911  0.01019619  0.08534091  1
  O  O101  1  0.18176685  0.16481212  0.08327406  1
  O  O102  1  0.68607390  0.15346161  0.75094439  1
  O  O103  1  0.46639485  0.31420961  0.75147865  1
  O  O104  1  0.85135307  0.52276985  0.75058472  1
  O  O105  1  0.66537969  0.53366959  0.24576060  1
  O  O106  1  0.84456476  0.33076856  0.24924803  1
  O  O107  1  0.46186808  0.14409116  0.24739627  1
  O  O108  1  0.64707408  0.49647541  0.92190683  1
  O  O109  1  0.85181376  0.35587102  0.92255042  1
  O  O110  1  0.50486411  0.14948266  0.92321379  1
  O  O111  1  0.62954900  0.14642960  0.42101488  1
  O  O112  1  0.51847576  0.37462207  0.42026431  1
  O  O113  1  0.85132321  0.47472914  0.42325810  1
  O  O114  1  0.33907440  0.49909277  0.07402941  1
  O  O115  1  0.15976785  0.66619905  0.07406517  1
  O  O116  1  0.50103389  0.84233577  0.07330217  1
  O  O117  1  0.32124725  0.83236824  0.57602531  1
  O  O118  1  0.49874585  0.66123659  0.57702402  1
  O  O119  1  0.13697144  0.48252421  0.57662208  1
  O  O120  1  0.31334051  0.83792196  0.24868220  1
  O  O121  1  0.53105534  0.70372896  0.25104915  1
  O  O122  1  0.18797886  0.49615028  0.25259685  1
  O  O123  1  0.28952267  0.47385281  0.75423584  1
  O  O124  1  0.18809011  0.70586514  0.75582468  1
  O  O125  1  0.52634298  0.81504040  0.75446074  1
