# generated using pymatgen
data_Na4CaHf3Si3(SO8)3
_symmetry_space_group_name_H-M   'P 1'
_cell_length_a   9.10998824
_cell_length_b   9.10398695
_cell_length_c   23.22866408
_cell_angle_alpha   89.54848458
_cell_angle_beta   90.32421905
_cell_angle_gamma   119.93166499
_symmetry_Int_Tables_number   1
_chemical_formula_structural   Na4CaHf3Si3(SO8)3
_chemical_formula_sum   'Na12 Ca3 Hf9 Si9 S9 O72'
_cell_volume   1669.50836526
_cell_formula_units_Z   3
loop_
 _symmetry_equiv_pos_site_id
 _symmetry_equiv_pos_as_xyz
  1  'x, y, z'
loop_
 _atom_site_type_symbol
 _atom_site_label
 _atom_site_symmetry_multiplicity
 _atom_site_fract_x
 _atom_site_fract_y
 _atom_site_fract_z
 _atom_site_occupancy
  Na  Na0  1  0.63364631  0.00428903  0.23916174  1
  Na  Na1  1  0.37601480  0.34960926  0.25241777  1
  Na  Na2  1  0.98808260  0.64824878  0.24752269  1
  Na  Na3  1  0.99017026  0.35021099  0.75809775  1
  Na  Na4  1  0.38534705  0.01640575  0.75852019  1
  Na  Na5  1  0.69891343  0.67758166  0.40364505  1
  Na  Na6  1  0.00555299  0.02189716  0.49061210  1
  Na  Na7  1  0.00382392  0.01546135  0.00108553  1
  Na  Na8  1  0.65481359  0.32285933  0.83538231  1
  Na  Na9  1  0.63971044  0.31472828  0.32361460  1
  Na  Na10  1  0.35689312  0.69541276  0.16199911  1
  Na  Na11  1  0.35749432  0.66444888  0.67389773  1
  Ca  Ca12  1  0.00888541  0.00922196  0.35496229  1
  Ca  Ca13  1  0.66054774  0.33354076  0.68620613  1
  Ca  Ca14  1  0.65735266  0.32042071  0.17596514  1
  Hf  Hf15  1  0.00801610  0.02064437  0.85785142  1
  Hf  Hf16  1  0.99355620  0.00869020  0.65094663  1
  Hf  Hf17  1  0.98920732  0.98750737  0.14871726  1
  Hf  Hf18  1  0.66616971  0.30947968  0.97941593  1
  Hf  Hf19  1  0.65636058  0.32157981  0.47716751  1
  Hf  Hf20  1  0.32969849  0.67359876  0.01601225  1
  Hf  Hf21  1  0.34041783  0.66485253  0.51627127  1
  Hf  Hf22  1  0.35295306  0.68014951  0.31436972  1
  Hf  Hf23  1  0.33962110  0.66743605  0.81765486  1
  Si  Si24  1  0.29304176  0.99708449  0.25036976  1
  Si  Si25  1  0.70402189  0.70126767  0.25400461  1
  Si  Si26  1  0.28900645  0.29563572  0.75156439  1
  Si  Si27  1  0.70452669  0.99052397  0.75210573  1
  Si  Si28  1  0.66920301  0.02369485  0.08475383  1
  Si  Si29  1  0.04086124  0.38180155  0.91661063  1
  Si  Si30  1  0.33026204  0.95882029  0.91439687  1
  Si  Si31  1  0.62580311  0.96071059  0.41848860  1
  Si  Si32  1  0.33319297  0.37458196  0.41825090  1
  S  S33  1  0.00623106  0.29757943  0.24884053  1
  S  S34  1  0.00586195  0.71896700  0.75096531  1
  S  S35  1  0.96431217  0.33458302  0.58344452  1
  S  S36  1  0.36418530  0.03230812  0.58275342  1
  S  S37  1  0.67106464  0.63531848  0.58139921  1
  S  S38  1  0.96482434  0.63199865  0.08163899  1
  S  S39  1  0.36559524  0.33342445  0.08093436  1
  S  S40  1  0.62437301  0.66451230  0.91811920  1
  S  S41  1  0.04008537  0.65627389  0.41996218  1
  O  O42  1  0.21736255  0.04107109  0.30472720  1
  O  O43  1  0.80312906  0.77417088  0.31330482  1
  O  O44  1  0.96947779  0.19404608  0.30071819  1
  O  O45  1  0.18918852  0.17187488  0.80585963  1
  O  O46  1  0.98464687  0.79805170  0.80194568  1
  O  O47  1  0.82473982  0.00550653  0.80568468  1
  O  O48  1  0.79726977  0.96933603  0.69279521  1
  O  O49  1  0.16564420  0.19661307  0.69402934  1
  O  O50  1  0.02544390  0.82316376  0.69747724  1
  O  O51  1  0.80306625  0.83363411  0.19854299  1
  O  O52  1  0.03271972  0.21397929  0.19784751  1
  O  O53  1  0.17097287  0.97156474  0.19304851  1
  O  O54  1  0.89667920  0.35778158  0.63731406  1
  O  O55  1  0.46144387  0.09934372  0.63611790  1
  O  O56  1  0.64391140  0.53589156  0.63358031  1
  O  O57  1  0.90228542  0.54257317  0.13686735  1
  O  O58  1  0.63656565  0.08425628  0.14537690  1
  O  O59  1  0.45680974  0.36436081  0.13620679  1
  O  O60  1  0.46250350  0.31640277  0.03277169  1
  O  O61  1  0.85172543  0.54195782  0.03303553  1
  O  O62  1  0.68764541  0.15652953  0.03104979  1
  O  O63  1  0.45959961  0.14772922  0.53301493  1
  O  O64  1  0.68887811  0.54867908  0.53007078  1
  O  O65  1  0.85232450  0.31506698  0.53376267  1
  O  O66  1  0.54289464  0.69121197  0.96817747  1
  O  O67  1  0.16501189  0.47388896  0.97043145  1
  O  O68  1  0.31498722  0.84136705  0.96931777  1
  O  O69  1  0.50972105  0.84559240  0.47245972  1
  O  O70  1  0.32632647  0.48387305  0.47305845  1
  O  O71  1  0.14452963  0.67039275  0.47115194  1
  O  O72  1  0.11335529  0.63245121  0.36686192  1
  O  O73  1  0.51365934  0.87705953  0.35929829  1
  O  O74  1  0.36315711  0.49252839  0.36024060  1
  O  O75  1  0.12883987  0.48947473  0.85653184  1
  O  O76  1  0.36122134  0.87365303  0.85598019  1
  O  O77  1  0.51800923  0.63993084  0.86504694  1
  O  O78  1  0.01657537  0.80344373  0.41873931  1
  O  O79  1  0.79974476  0.96036547  0.42178621  1
  O  O80  1  0.17803174  0.18960409  0.42219757  1
  O  O81  1  0.01415924  0.18964881  0.91156656  1
  O  O82  1  0.15672983  0.96764943  0.90912888  1
  O  O83  1  0.79307070  0.81542534  0.91042298  1
  O  O84  1  0.97941940  0.17669233  0.58627224  1
  O  O85  1  0.19500357  0.01967018  0.58601541  1
  O  O86  1  0.82605162  0.80617521  0.58563936  1
  O  O87  1  0.98362319  0.80474398  0.08522812  1
  O  O88  1  0.84659758  0.01592568  0.08633818  1
  O  O89  1  0.19713366  0.17655772  0.08498401  1
  O  O90  1  0.69686882  0.16480503  0.74850362  1
  O  O91  1  0.46922289  0.30526379  0.74835874  1
  O  O92  1  0.86390710  0.54538590  0.74472118  1
  O  O93  1  0.67921121  0.51468244  0.24420493  1
  O  O94  1  0.86508145  0.33138610  0.24007613  1
  O  O95  1  0.48757094  0.14961605  0.24516247  1
  O  O96  1  0.63891097  0.51160822  0.92490953  1
  O  O97  1  0.85390501  0.36591221  0.92437734  1
  O  O98  1  0.49618676  0.14975891  0.92319266  1
  O  O99  1  0.64406025  0.14978502  0.42645071  1
  O  O100  1  0.52064732  0.38066816  0.42719411  1
  O  O101  1  0.86794498  0.50097359  0.42824073  1
  O  O102  1  0.34187609  0.48185796  0.07100545  1
  O  O103  1  0.13713708  0.65227630  0.07313248  1
  O  O104  1  0.50570877  0.83529416  0.07165944  1
  O  O105  1  0.33999799  0.86005277  0.57364391  1
  O  O106  1  0.51899831  0.65912786  0.57503945  1
  O  O107  1  0.13661266  0.48362451  0.57494143  1
  O  O108  1  0.28850348  0.81069264  0.25655492  1
  O  O109  1  0.51449531  0.69053157  0.25436962  1
  O  O110  1  0.16634177  0.46473095  0.25505597  1
  O  O111  1  0.29070074  0.47717890  0.75519379  1
  O  O112  1  0.16720154  0.71109736  0.75356629  1
  O  O113  1  0.51125345  0.82738466  0.75498701  1
