# generated using pymatgen
data_Na6Nb3In5Si6(SO8)6
_symmetry_space_group_name_H-M   'P 1'
_cell_length_a   18.03743967
_cell_length_b   9.01730137
_cell_length_c   23.09193256
_cell_angle_alpha   90.07266800
_cell_angle_beta   90.04742547
_cell_angle_gamma   119.89157421
_symmetry_Int_Tables_number   1
_chemical_formula_structural   Na6Nb3In5Si6(SO8)6
_chemical_formula_sum   'Na18 Nb9 In15 Si18 S18 O144'
_cell_volume   3256.22858552
_cell_formula_units_Z   3
loop_
 _symmetry_equiv_pos_site_id
 _symmetry_equiv_pos_as_xyz
  1  'x, y, z'
loop_
 _atom_site_type_symbol
 _atom_site_label
 _atom_site_symmetry_multiplicity
 _atom_site_fract_x
 _atom_site_fract_y
 _atom_site_fract_z
 _atom_site_occupancy
  Na  Na0  1  0.48311235  0.68251331  0.91034010  1
  Na  Na1  1  0.16288506  0.31481890  0.91106838  1
  Na  Na2  1  0.48619733  0.29293121  0.41413626  1
  Na  Na3  1  0.97670277  0.28771132  0.40657935  1
  Na  Na4  1  0.16303903  0.02363719  0.41078607  1
  Na  Na5  1  0.66483692  0.03229420  0.41807851  1
  Na  Na6  1  0.98153889  0.96504505  0.49112446  1
  Na  Na7  1  0.49266960  0.98595152  0.49121837  1
  Na  Na8  1  0.99325036  0.00000061  0.99740871  1
  Na  Na9  1  0.49973432  0.99662452  0.98853553  1
  Na  Na10  1  0.33295563  0.32697089  0.82039306  1
  Na  Na11  1  0.83118940  0.34287107  0.82858928  1
  Na  Na12  1  0.33743007  0.33051221  0.32941046  1
  Na  Na13  1  0.83945102  0.34066674  0.33387825  1
  Na  Na14  1  0.15194448  0.65680774  0.16271249  1
  Na  Na15  1  0.66765642  0.65045755  0.16632484  1
  Na  Na16  1  0.16933174  0.67185161  0.67246434  1
  Na  Na17  1  0.66313847  0.65809319  0.66309537  1
  Nb  Nb18  1  0.00458073  0.99767265  0.65205814  1
  Nb  Nb19  1  0.50084158  0.00530696  0.65650031  1
  Nb  Nb20  1  0.00328759  0.99621000  0.15002238  1
  Nb  Nb21  1  0.50813135  0.02317261  0.14681296  1
  Nb  Nb22  1  0.83459557  0.33847111  0.97834859  1
  Nb  Nb23  1  0.15979466  0.67428934  0.30986146  1
  Nb  Nb24  1  0.66400253  0.65548680  0.31837632  1
  Nb  Nb25  1  0.16457503  0.64959345  0.80915589  1
  Nb  Nb26  1  0.66422227  0.67295565  0.80947879  1
  In  In27  1  0.99589125  0.99376460  0.34919746  1
  In  In28  1  0.49370790  0.99856933  0.35191718  1
  In  In29  1  0.00110126  0.99921014  0.84904519  1
  In  In30  1  0.49921739  0.99512016  0.85075288  1
  In  In31  1  0.33518212  0.33403774  0.68779326  1
  In  In32  1  0.83338238  0.34207250  0.68589612  1
  In  In33  1  0.33486079  0.32830810  0.18843359  1
  In  In34  1  0.84157587  0.34612312  0.18113533  1
  In  In35  1  0.33221991  0.33534040  0.98075412  1
  In  In36  1  0.33734562  0.33615083  0.47874915  1
  In  In37  1  0.83426871  0.33897625  0.47605303  1
  In  In38  1  0.16019336  0.65511761  0.01418075  1
  In  In39  1  0.66838902  0.66578048  0.01976441  1
  In  In40  1  0.16878046  0.67327471  0.51704590  1
  In  In41  1  0.66698273  0.66965076  0.51189900  1
  Si  Si42  1  0.14806486  0.00750116  0.25355885  1
  Si  Si43  1  0.99677263  0.29145744  0.25238660  1
  Si  Si44  1  0.50497167  0.30681469  0.25249473  1
  Si  Si45  1  0.14783747  0.29260498  0.75286726  1
  Si  Si46  1  0.64844581  0.29353694  0.75501579  1
  Si  Si47  1  0.99940817  0.70107162  0.75486000  1
  Si  Si48  1  0.49954850  0.70774354  0.75293782  1
  Si  Si49  1  0.35183893  0.99747482  0.75489474  1
  Si  Si50  1  0.98442639  0.63397927  0.08245387  1
  Si  Si51  1  0.69252768  0.34229849  0.08411890  1
  Si  Si52  1  0.31233878  0.67224172  0.92000761  1
  Si  Si53  1  0.01774079  0.36606554  0.91556585  1
  Si  Si54  1  0.66752903  0.95832084  0.92001737  1
  Si  Si55  1  0.31000802  0.95355465  0.41834243  1
  Si  Si56  1  0.81515908  0.95630389  0.41757238  1
  Si  Si57  1  0.66606135  0.36996032  0.41916208  1
  Si  Si58  1  0.02084475  0.67153743  0.41868446  1
  Si  Si59  1  0.51851192  0.66734480  0.41754540  1
  S  S60  1  0.64600015  0.99780858  0.24876564  1
  S  S61  1  0.35417315  0.71276990  0.24726311  1
  S  S62  1  0.85023507  0.70665413  0.24830875  1
  S  S63  1  0.85256263  0.99497241  0.74834486  1
  S  S64  1  0.48355069  0.33041163  0.58365530  1
  S  S65  1  0.98201063  0.32949572  0.58364636  1
  S  S66  1  0.18320489  0.03832157  0.58378011  1
  S  S67  1  0.68411230  0.03687361  0.58442662  1
  S  S68  1  0.33401230  0.63095921  0.58347405  1
  S  S69  1  0.83419479  0.63679900  0.58411711  1
  S  S70  1  0.47973654  0.63165813  0.08512887  1
  S  S71  1  0.33587883  0.03955912  0.08365969  1
  S  S72  1  0.83560605  0.04362302  0.08291844  1
  S  S73  1  0.18520578  0.32892839  0.08574072  1
  S  S74  1  0.81253130  0.66431256  0.91578279  1
  S  S75  1  0.52250651  0.37956677  0.91649055  1
  S  S76  1  0.16791613  0.96084690  0.91651878  1
  S  S77  1  0.16796536  0.37973411  0.41675269  1
  O  O78  1  0.10814028  0.02393123  0.31310909  1
  O  O79  1  0.60681055  0.01645600  0.30186277  1
  O  O80  1  0.40428681  0.78127509  0.30061599  1
  O  O81  1  0.89949203  0.77834355  0.30167951  1
  O  O82  1  0.49076674  0.19632053  0.30940692  1
  O  O83  1  0.98720860  0.19434636  0.31251222  1
  O  O84  1  0.11084500  0.19449636  0.81253463  1
  O  O85  1  0.60726099  0.18662388  0.81155507  1
  O  O86  1  0.48810305  0.77162988  0.81456295  1
  O  O87  1  0.97625007  0.78154848  0.80844102  1
  O  O88  1  0.40965041  0.03508949  0.81052054  1
  O  O89  1  0.90026028  0.02333628  0.80186529  1
  O  O90  1  0.40383481  0.96963205  0.69646045  1
  O  O91  1  0.89669806  0.97045923  0.69686306  1
  O  O92  1  0.08002444  0.18346255  0.69648208  1
  O  O93  1  0.58318383  0.20117904  0.69643321  1
  O  O94  1  0.00890534  0.83135056  0.69592681  1
  O  O95  1  0.51679965  0.84055696  0.69737597  1
  O  O96  1  0.40032758  0.82424161  0.19616854  1
  O  O97  1  0.89774995  0.81382231  0.19612682  1
  O  O98  1  0.00594275  0.17828553  0.19631762  1
  O  O99  1  0.51348244  0.19367835  0.19469423  1
  O  O100  1  0.08227731  0.97311324  0.19623823  1
  O  O101  1  0.58773940  0.97933794  0.19678645  1
  O  O102  1  0.43748266  0.34814411  0.63296460  1
  O  O103  1  0.93903335  0.35181338  0.63457750  1
  O  O104  1  0.23618892  0.12980184  0.63330021  1
  O  O105  1  0.73933620  0.12622312  0.63494394  1
  O  O106  1  0.32460204  0.52562114  0.63446867  1
  O  O107  1  0.82500159  0.53451693  0.63607701  1
  O  O108  1  0.43436187  0.51997183  0.13418883  1
  O  O109  1  0.94834572  0.52856935  0.14087951  1
  O  O110  1  0.32614543  0.12441568  0.13493717  1
  O  O111  1  0.82128125  0.11430543  0.13620292  1
  O  O112  1  0.23995649  0.34498592  0.13504155  1
  O  O113  1  0.74116033  0.35581753  0.14297168  1
  O  O114  1  0.21830967  0.29815205  0.03042446  1
  O  O115  1  0.73797767  0.31141817  0.02653451  1
  O  O116  1  0.43238695  0.56119735  0.02949095  1
  O  O117  1  0.91874112  0.52541093  0.02657313  1
  O  O118  1  0.35350149  0.14604433  0.03045220  1
  O  O119  1  0.84626417  0.15095701  0.03097468  1
  O  O120  1  0.21667156  0.13155937  0.52858444  1
  O  O121  1  0.72165793  0.13325585  0.52974402  1
  O  O122  1  0.34402675  0.55219849  0.52913167  1
  O  O123  1  0.85013854  0.56526761  0.53131965  1
  O  O124  1  0.43606578  0.30652659  0.52806630  1
  O  O125  1  0.93356047  0.30667308  0.52931665  1
  O  O126  1  0.27068787  0.69254228  0.97877235  1
  O  O127  1  0.77469502  0.68366631  0.96965509  1
  O  O128  1  0.07854964  0.43289990  0.97188512  1
  O  O129  1  0.57022647  0.45552856  0.97020338  1
  O  O130  1  0.15954602  0.87053039  0.97112940  1
  O  O131  1  0.64775477  0.83031981  0.97394726  1
  O  O132  1  0.27593110  0.85050773  0.47808582  1
  O  O133  1  0.77871000  0.85082469  0.47660359  1
  O  O134  1  0.15472707  0.45115567  0.47111241  1
  O  O135  1  0.64180378  0.44317194  0.47518984  1
  O  O136  1  0.07866816  0.70584392  0.47584642  1
  O  O137  1  0.57451200  0.71030850  0.47598813  1
  O  O138  1  0.07109876  0.64627370  0.35938697  1
  O  O139  1  0.57067892  0.63620103  0.36102520  1
  O  O140  1  0.24738402  0.84498148  0.36116483  1
  O  O141  1  0.75182673  0.85199951  0.35987488  1
  O  O142  1  0.17691780  0.48415995  0.36516228  1
  O  O143  1  0.67699515  0.49574839  0.36112971  1
  O  O144  1  0.06670666  0.49202291  0.85878698  1
  O  O145  1  0.56893040  0.49133585  0.86458662  1
  O  O146  1  0.17501965  0.87398654  0.86482406  1
  O  O147  1  0.67962510  0.85319068  0.86175488  1
  O  O148  1  0.24645637  0.64124347  0.86328855  1
  O  O149  1  0.75978428  0.64492375  0.86382686  1
  O  O150  1  0.01507020  0.84329555  0.41178038  1
  O  O151  1  0.51465393  0.83796297  0.40525616  1
  O  O152  1  0.40796587  0.99875212  0.41303979  1
  O  O153  1  0.91302091  0.99671702  0.41264443  1
  O  O154  1  0.09138571  0.20543363  0.41281321  1
  O  O155  1  0.58440431  0.18103095  0.41031683  1
  O  O156  1  0.00359205  0.17295000  0.90888536  1
  O  O157  1  0.50988454  0.20792249  0.91179291  1
  O  O158  1  0.09289537  0.98941961  0.91429251  1
  O  O159  1  0.58504755  0.98023275  0.91403927  1
  O  O160  1  0.40917738  0.82918139  0.91592570  1
  O  O161  1  0.89943547  0.81316732  0.91183575  1
  O  O162  1  0.49106619  0.17115127  0.59041770  1
  O  O163  1  0.98832628  0.16877500  0.59155172  1
  O  O164  1  0.09393187  0.02155985  0.59121130  1
  O  O165  1  0.59764017  0.02308302  0.59137049  1
  O  O166  1  0.41222722  0.80574361  0.58900471  1
  O  O167  1  0.91307212  0.81438625  0.59191677  1
  O  O168  1  0.48642649  0.80405287  0.09318871  1
  O  O169  1  0.98552613  0.82331566  0.09020071  1
  O  O170  1  0.41624183  0.02307968  0.09200707  1
  O  O171  1  0.91542999  0.03059401  0.08713350  1
  O  O172  1  0.09746294  0.17017768  0.09312973  1
  O  O173  1  0.59330702  0.15908742  0.09310187  1
  O  O174  1  0.33576709  0.15215492  0.74069540  1
  O  O175  1  0.83829941  0.13955018  0.73844886  1
  O  O176  1  0.24028380  0.32162081  0.74047490  1
  O  O177  1  0.74101408  0.31514300  0.74302278  1
  O  O178  1  0.42530544  0.51832561  0.74068433  1
  O  O179  1  0.92295113  0.50991672  0.74279081  1
  O  O180  1  0.34179415  0.53938066  0.23971603  1
  O  O181  1  0.83554918  0.53171502  0.24304666  1
  O  O182  1  0.42531302  0.33675043  0.24333772  1
  O  O183  1  0.91497506  0.31787049  0.24507262  1
  O  O184  1  0.24030794  0.17180668  0.24431520  1
  O  O185  1  0.73041233  0.14933309  0.24096069  1
  O  O186  1  0.31574616  0.48774874  0.91983161  1
  O  O187  1  0.81758752  0.50108112  0.91901046  1
  O  O188  1  0.43882640  0.37966197  0.91786211  1
  O  O189  1  0.92511769  0.36034737  0.92548540  1
  O  O190  1  0.24769211  0.13736590  0.91866217  1
  O  O191  1  0.75705758  0.14461404  0.92711936  1
  O  O192  1  0.30656391  0.13482190  0.41845209  1
  O  O193  1  0.81487713  0.13879448  0.41706460  1
  O  O194  1  0.24557652  0.36098366  0.42018143  1
  O  O195  1  0.75245335  0.35802928  0.41786014  1
  O  O196  1  0.42883307  0.48436788  0.41706236  1
  O  O197  1  0.93319227  0.48859533  0.41818157  1
  O  O198  1  0.17448751  0.48017825  0.08402505  1
  O  O199  1  0.67078813  0.49561455  0.07719713  1
  O  O200  1  0.08229021  0.67542919  0.07495185  1
  O  O201  1  0.56681827  0.65435643  0.08326193  1
  O  O202  1  0.26207289  0.86777589  0.07932274  1
  O  O203  1  0.76106577  0.86826092  0.07710973  1
  O  O204  1  0.16950441  0.86204766  0.58346647  1
  O  O205  1  0.67315647  0.86169246  0.58305476  1
  O  O206  1  0.25531130  0.64790894  0.58137456  1
  O  O207  1  0.75794350  0.65754107  0.58146323  1
  O  O208  1  0.07050642  0.47923850  0.58090761  1
  O  O209  1  0.57051660  0.48381982  0.58239760  1
  O  O210  1  0.15344472  0.82712477  0.25486780  1
  O  O211  1  0.64998582  0.83692486  0.24898960  1
  O  O212  1  0.26927537  0.70255375  0.25154477  1
  O  O213  1  0.76756826  0.70690525  0.24986132  1
  O  O214  1  0.08997220  0.47880031  0.25655520  1
  O  O215  1  0.59580139  0.49158887  0.25355636  1
  O  O216  1  0.14675529  0.47507925  0.75284164  1
  O  O217  1  0.65731816  0.48773422  0.76142765  1
  O  O218  1  0.09179978  0.70894691  0.75831973  1
  O  O219  1  0.59285368  0.70121119  0.75660644  1
  O  O220  1  0.25962472  0.81564630  0.75922864  1
  O  O221  1  0.76739630  0.83101969  0.75190120  1
