# generated using pymatgen
data_Na6Ca4Si3Sn4(S3O16)3
_symmetry_space_group_name_H-M   'P 1'
_cell_length_a   18.17310589
_cell_length_b   9.06451620
_cell_length_c   23.29785775
_cell_angle_alpha   89.97413756
_cell_angle_beta   89.71942339
_cell_angle_gamma   120.02728005
_symmetry_Int_Tables_number   1
_chemical_formula_structural   Na6Ca4Si3Sn4(S3O16)3
_chemical_formula_sum   'Na18 Ca12 Si9 Sn12 S27 O144'
_cell_volume   3322.71667301
_cell_formula_units_Z   3
loop_
 _symmetry_equiv_pos_site_id
 _symmetry_equiv_pos_as_xyz
  1  'x, y, z'
loop_
 _atom_site_type_symbol
 _atom_site_label
 _atom_site_symmetry_multiplicity
 _atom_site_fract_x
 _atom_site_fract_y
 _atom_site_fract_z
 _atom_site_occupancy
  Na  Na0  1  0.99878100  0.63015907  0.24912429  1
  Na  Na1  1  0.50095524  0.61399216  0.23850067  1
  Na  Na2  1  0.00425910  0.37643010  0.73694019  1
  Na  Na3  1  0.49880540  0.37133999  0.74785998  1
  Na  Na4  1  0.67504410  0.33049492  0.91025010  1
  Na  Na5  1  0.17238817  0.02249962  0.41756585  1
  Na  Na6  1  0.99125791  0.00956732  0.50324412  1
  Na  Na7  1  0.50697410  0.01330461  0.50155194  1
  Na  Na8  1  0.00717396  0.00207034  0.99574844  1
  Na  Na9  1  0.48993577  0.96768084  0.99903475  1
  Na  Na10  1  0.29510575  0.29092895  0.83560062  1
  Na  Na11  1  0.84189730  0.37059339  0.83835694  1
  Na  Na12  1  0.33399804  0.30624529  0.34328838  1
  Na  Na13  1  0.81462693  0.32585157  0.34657960  1
  Na  Na14  1  0.17808566  0.64589738  0.15861234  1
  Na  Na15  1  0.66368912  0.65968265  0.15755845  1
  Na  Na16  1  0.16206993  0.63904090  0.66910059  1
  Na  Na17  1  0.68217682  0.71921791  0.66272969  1
  Ca  Ca18  1  0.99506967  0.00311966  0.35493047  1
  Ca  Ca19  1  0.49429570  0.98589198  0.85332588  1
  Ca  Ca20  1  0.31714736  0.32697830  0.68495189  1
  Ca  Ca21  1  0.83026952  0.31536564  0.67741939  1
  Ca  Ca22  1  0.32883879  0.34525503  0.17558745  1
  Ca  Ca23  1  0.82647984  0.32138925  0.18024195  1
  Ca  Ca24  1  0.84002091  0.34133951  0.98575294  1
  Ca  Ca25  1  0.33898990  0.33803555  0.48813325  1
  Ca  Ca26  1  0.16981220  0.66570913  0.31609071  1
  Ca  Ca27  1  0.67637605  0.65809789  0.31684483  1
  Ca  Ca28  1  0.17419779  0.68471261  0.81382708  1
  Ca  Ca29  1  0.67109609  0.67628788  0.81531294  1
  Si  Si30  1  0.14259425  0.28936121  0.75336390  1
  Si  Si31  1  0.98588374  0.33689377  0.58272513  1
  Si  Si32  1  0.67897539  0.01672567  0.58315925  1
  Si  Si33  1  0.48782608  0.63183496  0.08395328  1
  Si  Si34  1  0.18018665  0.34496275  0.08342085  1
  Si  Si35  1  0.81622921  0.67058991  0.91611003  1
  Si  Si36  1  0.17303560  0.96999297  0.92063100  1
  Si  Si37  1  0.31321340  0.96207125  0.41659367  1
  Si  Si38  1  0.67432571  0.37460956  0.41954574  1
  Sn  Sn39  1  0.50242272  0.01698392  0.36149365  1
  Sn  Sn40  1  0.00801768  0.99332035  0.85851125  1
  Sn  Sn41  1  0.00231443  0.01830643  0.64694614  1
  Sn  Sn42  1  0.50637618  0.99591689  0.64627496  1
  Sn  Sn43  1  0.00692225  0.01705942  0.14552709  1
  Sn  Sn44  1  0.49716150  0.98922847  0.14333262  1
  Sn  Sn45  1  0.32683751  0.33498458  0.98882608  1
  Sn  Sn46  1  0.82641432  0.32103079  0.49167891  1
  Sn  Sn47  1  0.16252871  0.66171321  0.01322584  1
  Sn  Sn48  1  0.67105283  0.67881619  0.01366708  1
  Sn  Sn49  1  0.17026120  0.66445728  0.51677800  1
  Sn  Sn50  1  0.66321909  0.65890837  0.51609336  1
  S  S51  1  0.14531573  0.99789510  0.24899791  1
  S  S52  1  0.63827590  0.99887481  0.25150490  1
  S  S53  1  0.36271672  0.72238193  0.25196225  1
  S  S54  1  0.85692564  0.71623092  0.24290499  1
  S  S55  1  0.99869057  0.29735953  0.24629053  1
  S  S56  1  0.49881378  0.28025657  0.24787330  1
  S  S57  1  0.64532280  0.29339501  0.74921028  1
  S  S58  1  0.99588965  0.71190951  0.74785449  1
  S  S59  1  0.50093729  0.70174757  0.74580595  1
  S  S60  1  0.35878234  -0.00013192  0.74235364  1
  S  S61  1  0.85856389  -0.00062928  0.75019425  1
  S  S62  1  0.49016338  0.33324780  0.58824590  1
  S  S63  1  0.17400602  0.01617911  0.58027007  1
  S  S64  1  0.33445081  0.65103158  0.58385299  1
  S  S65  1  0.83452229  0.63917770  0.58276432  1
  S  S66  1  0.99057750  0.64762398  0.08897744  1
  S  S67  1  0.33393557  0.03014688  0.08344502  1
  S  S68  1  0.83304941  0.01660982  0.08538021  1
  S  S69  1  0.67553612  0.33241321  0.08259587  1
  S  S70  1  0.31542120  0.66100910  0.92168314  1
  S  S71  1  0.01925478  0.36484711  0.91477167  1
  S  S72  1  0.51559006  0.37245173  0.91943053  1
  S  S73  1  0.66534610  0.97018159  0.91957961  1
  S  S74  1  0.81366024  0.96994976  0.42092300  1
  S  S75  1  0.16671008  0.36373894  0.41904984  1
  S  S76  1  0.01480126  0.65722582  0.41808682  1
  S  S77  1  0.52005910  0.67203174  0.41188225  1
  O  O78  1  0.10539157  0.00942334  0.30302094  1
  O  O79  1  0.59503847  0.01408401  0.30376578  1
  O  O80  1  0.41702583  0.81790626  0.30170147  1
  O  O81  1  0.90522638  0.79756786  0.29520442  1
  O  O82  1  0.49471066  0.18471992  0.30119586  1
  O  O83  1  0.99424724  0.20146173  0.29773249  1
  O  O84  1  0.08984798  0.17505012  0.81000816  1
  O  O85  1  0.60594323  0.20224612  0.80356768  1
  O  O86  1  0.49604788  0.78866549  0.79726825  1
  O  O87  1  0.98669647  0.79042160  0.80191929  1
  O  O88  1  0.40774784  0.01483690  0.79434602  1
  O  O89  1  0.90804621  0.00112036  0.80042603  1
  O  O90  1  0.40409078  0.98209070  0.68977888  1
  O  O91  1  0.89516048  0.97798670  0.69413545  1
  O  O92  1  0.08735695  0.19948894  0.69339034  1
  O  O93  1  0.58852249  0.19553930  0.69864192  1
  O  O94  1  0.99857629  0.81072087  0.69538035  1
  O  O95  1  0.50634078  0.80120062  0.69220351  1
  O  O96  1  0.40090309  0.81882204  0.19625216  1
  O  O97  1  0.90373386  0.82043775  0.19038029  1
  O  O98  1  0.00261068  0.20801444  0.19260170  1
  O  O99  1  0.50625414  0.19199312  0.19518818  1
  O  O100  1  0.08822773  0.98103662  0.19834222  1
  O  O101  1  0.58807610  0.98345740  0.19788538  1
  O  O102  1  0.45273546  0.35576982  0.64108272  1
  O  O103  1  0.95701910  0.37201803  0.64373034  1
  O  O104  1  0.22618041  0.10101709  0.63033015  1
  O  O105  1  0.72997441  0.07987658  0.64147267  1
  O  O106  1  0.32562085  0.55196856  0.63554815  1
  O  O107  1  0.81882012  0.53611267  0.63396476  1
  O  O108  1  0.46062349  0.54601209  0.14653175  1
  O  O109  1  0.95326417  0.55205202  0.14295066  1
  O  O110  1  0.32207046  0.10237514  0.13605394  1
  O  O111  1  0.82241840  0.09467425  0.13774559  1
  O  O112  1  0.22972391  0.38438285  0.14270154  1
  O  O113  1  0.72539448  0.35023432  0.13419009  1
  O  O114  1  0.22453466  0.30477121  0.02941865  1
  O  O115  1  0.71080629  0.30157327  0.03036970  1
  O  O116  1  0.42020638  0.52773124  0.03215258  1
  O  O117  1  0.93779748  0.56319936  0.03923335  1
  O  O118  1  0.34898715  0.13789312  0.03198979  1
  O  O119  1  0.84505826  0.11806230  0.03394096  1
  O  O120  1  0.20907184  0.11501588  0.52679480  1
  O  O121  1  0.72093763  0.14211527  0.52747291  1
  O  O122  1  0.34641602  0.57676044  0.53138607  1
  O  O123  1  0.84852435  0.56085701  0.53022200  1
  O  O124  1  0.43988742  0.31330424  0.53701297  1
  O  O125  1  0.92129320  0.31154836  0.52860251  1
  O  O126  1  0.26988099  0.67090250  0.97422450  1
  O  O127  1  0.77325232  0.70257737  0.97681489  1
  O  O128  1  0.07026660  0.44881084  0.96855127  1
  O  O129  1  0.57757144  0.46678164  0.96730600  1
  O  O130  1  0.15671045  0.84959237  0.97935099  1
  O  O131  1  0.65487417  0.86636128  0.97285431  1
  O  O132  1  0.26825378  0.84328432  0.47534158  1
  O  O133  1  0.76711083  0.86438546  0.47203639  1
  O  O134  1  0.15744905  0.44941463  0.47116268  1
  O  O135  1  0.65409968  0.46390875  0.47502651  1
  O  O136  1  0.07625529  0.68343274  0.46500941  1
  O  O137  1  0.57289284  0.69241697  0.46356641  1
  O  O138  1  0.04556976  0.63213221  0.36180857  1
  O  O139  1  0.55909588  0.65605410  0.35835083  1
  O  O140  1  0.25256082  0.88173359  0.36210116  1
  O  O141  1  0.76837678  0.89586979  0.36720779  1
  O  O142  1  0.16831867  0.45235836  0.36611634  1
  O  O143  1  0.69112650  0.47161018  0.35968048  1
  O  O144  1  0.06082218  0.46417469  0.86327676  1
  O  O145  1  0.54728477  0.46171166  0.86403342  1
  O  O146  1  0.19036174  0.89985152  0.86290606  1
  O  O147  1  0.66702304  0.88123431  0.86780433  1
  O  O148  1  0.26990716  0.64593854  0.86887989  1
  O  O149  1  0.74847197  0.61923466  0.86526055  1
  O  O150  1  0.01136881  0.81813507  0.41716174  1
  O  O151  1  0.51507336  0.83346411  0.41060276  1
  O  O152  1  0.40737986  0.97126235  0.41286178  1
  O  O153  1  0.89861607  0.98534836  0.42136476  1
  O  O154  1  0.09212309  0.18651720  0.42004025  1
  O  O155  1  0.58811454  0.18010266  0.41601752  1
  O  O156  1  0.01185831  0.19359132  0.91512159  1
  O  O157  1  0.51138850  0.20431338  0.91832207  1
  O  O158  1  0.08684872  0.98885646  0.91854184  1
  O  O159  1  0.59102400  0.99775571  0.92042969  1
  O  O160  1  0.40058726  0.81524630  0.92280398  1
  O  O161  1  0.90984723  0.84767248  0.90998123  1
  O  O162  1  0.49903825  0.17599549  0.59145038  1
  O  O163  1  0.99272786  0.15859384  0.58333395  1
  O  O164  1  0.08495715  0.98704163  0.58693348  1
  O  O165  1  0.58147834  0.99379324  0.58578828  1
  O  O166  1  0.40964636  0.82928776  0.58863113  1
  O  O167  1  0.91282519  0.81212057  0.58771737  1
  O  O168  1  0.49707929  0.82816947  0.08534898  1
  O  O169  1  0.99822075  0.82162499  0.09204294  1
  O  O170  1  0.41434075  0.01554787  0.08723969  1
  O  O171  1  0.90860420  0.99096427  0.09052290  1
  O  O172  1  0.08267452  0.17158656  0.08608707  1
  O  O173  1  0.58620221  0.18057571  0.08948145  1
  O  O174  1  0.35737655  0.16086353  0.73731484  1
  O  O175  1  0.85942596  0.16391665  0.74961692  1
  O  O176  1  0.23371145  0.30005039  0.75363548  1
  O  O177  1  0.72990056  0.31496467  0.74310751  1
  O  O178  1  0.42581030  0.52991006  0.74264789  1
  O  O179  1  0.92088603  0.53785364  0.74640616  1
  O  O180  1  0.36126976  0.55805960  0.25040847  1
  O  O181  1  0.85167704  0.54756050  0.23907957  1
  O  O182  1  0.42180597  0.29497254  0.24639999  1
  O  O183  1  0.92243850  0.31745446  0.24407697  1
  O  O184  1  0.22989971  0.14665248  0.24276369  1
  O  O185  1  0.72309363  0.15055179  0.24837465  1
  O  O186  1  0.32559033  0.50678343  0.92570555  1
  O  O187  1  0.82613975  0.50355072  0.92464813  1
  O  O188  1  0.43171981  0.35473897  0.93122005  1
  O  O189  1  0.93411966  0.34470214  0.92063457  1
  O  O190  1  0.25995436  0.15976307  0.93053733  1
  O  O191  1  0.74321160  0.13792003  0.92314772  1
  O  O192  1  0.32533087  0.15060544  0.42434262  1
  O  O193  1  0.82355158  0.14390273  0.42534470  1
  O  O194  1  0.24436455  0.35009249  0.42228176  1
  O  O195  1  0.75931615  0.35687998  0.43100926  1
  O  O196  1  0.43416215  0.52555309  0.41848428  1
  O  O197  1  0.92960254  0.50766575  0.42849234  1
  O  O198  1  0.16377525  0.50763157  0.07163896  1
  O  O199  1  0.66697930  0.48726846  0.07764952  1
  O  O200  1  0.07773168  0.67221092  0.08272510  1
  O  O201  1  0.58491702  0.66423372  0.07029242  1
  O  O202  1  0.26146484  0.85412586  0.07580947  1
  O  O203  1  0.75524425  0.84288182  0.08120561  1
  O  O204  1  0.16647348  0.84403671  0.57605065  1
  O  O205  1  0.66335116  0.82129074  0.57116975  1
  O  O206  1  0.25603150  0.66714978  0.58042525  1
  O  O207  1  0.76001969  0.66577754  0.57404271  1
  O  O208  1  0.08301977  0.49892370  0.56905956  1
  O  O209  1  0.57838774  0.48429924  0.58185086  1
  O  O210  1  0.14589708  0.83461553  0.24665177  1
  O  O211  1  0.64195348  0.83978589  0.25329561  1
  O  O212  1  0.27781473  0.70091397  0.25409394  1
  O  O213  1  0.77246985  0.70010031  0.24191241  1
  O  O214  1  0.07507892  0.46976276  0.24499910  1
  O  O215  1  0.57527555  0.45267909  0.24820620  1
  O  O216  1  0.14442714  0.47027568  0.75178226  1
  O  O217  1  0.64540342  0.45733584  0.74701944  1
  O  O218  1  0.07441127  0.70168524  0.74831534  1
  O  O219  1  0.57812608  0.68519434  0.74506870  1
  O  O220  1  0.27402474  0.85048404  0.74199660  1
  O  O221  1  0.77101198  0.85464343  0.75084421  1
