# generated using pymatgen
data_Na6Sc2Ga2Si3(SO8)3
_symmetry_space_group_name_H-M   'P 1'
_cell_length_a   9.07355758
_cell_length_b   8.94396828
_cell_length_c   22.30044169
_cell_angle_alpha   90.91503654
_cell_angle_beta   89.67970719
_cell_angle_gamma   119.89174184
_symmetry_Int_Tables_number   1
_chemical_formula_structural   Na6Sc2Ga2Si3(SO8)3
_chemical_formula_sum   'Na18 Sc6 Ga6 Si9 S9 O72'
_cell_volume   1568.80032164
_cell_formula_units_Z   3
loop_
 _symmetry_equiv_pos_site_id
 _symmetry_equiv_pos_as_xyz
  1  'x, y, z'
loop_
 _atom_site_type_symbol
 _atom_site_label
 _atom_site_symmetry_multiplicity
 _atom_site_fract_x
 _atom_site_fract_y
 _atom_site_fract_z
 _atom_site_occupancy
  Na  Na0  1  0.63392998  0.00157339  0.26121064  1
  Na  Na1  1  0.35571119  0.36012339  0.25547942  1
  Na  Na2  1  0.64133965  0.64488918  0.73682505  1
  Na  Na3  1  0.98771531  0.36429428  0.74499225  1
  Na  Na4  1  0.02681504  0.68925329  0.59072343  1
  Na  Na5  1  0.67612114  0.96492843  0.58184635  1
  Na  Na6  1  0.31258968  0.97063502  0.09680257  1
  Na  Na7  1  0.02362455  0.32636075  0.08277779  1
  Na  Na8  1  0.97187939  0.65600350  0.89911582  1
  Na  Na9  1  0.70987706  0.04188438  0.90961422  1
  Na  Na10  1  0.95818310  0.29229888  0.42119145  1
  Na  Na11  1  0.34370685  0.03416493  0.41457562  1
  Na  Na12  1  0.97746423  0.99217756  0.50386690  1
  Na  Na13  1  0.99092921  0.01196732  0.99980448  1
  Na  Na14  1  0.66166885  0.32407909  0.82117123  1
  Na  Na15  1  0.67838106  0.34381606  0.33780027  1
  Na  Na16  1  0.33074298  0.67429906  0.17484834  1
  Na  Na17  1  0.33243094  0.66447466  0.66376179  1
  Sc  Sc18  1  0.99524963  0.01460709  0.84499452  1
  Sc  Sc19  1  0.99947871  0.01040712  0.15369948  1
  Sc  Sc20  1  0.67799224  0.32827117  0.98194842  1
  Sc  Sc21  1  0.33670011  0.66106995  0.01915740  1
  Sc  Sc22  1  0.35293859  0.66236331  0.52238790  1
  Sc  Sc23  1  0.31649712  0.66786374  0.80711605  1
  Ga  Ga24  1  0.99066018  0.01005849  0.34640755  1
  Ga  Ga25  1  0.96755477  0.97904777  0.64703772  1
  Ga  Ga26  1  0.69398715  0.34944121  0.68253235  1
  Ga  Ga27  1  0.66170950  0.30387306  0.19448071  1
  Ga  Ga28  1  0.67956818  0.31260393  0.49244397  1
  Ga  Ga29  1  0.31970233  0.68816714  0.31494454  1
  Si  Si30  1  0.28710952  0.00025724  0.25099839  1
  Si  Si31  1  0.00722329  0.31325903  0.25216779  1
  Si  Si32  1  0.99756741  0.71311056  0.74682995  1
  Si  Si33  1  0.69556675  0.00463476  0.74696918  1
  Si  Si34  1  0.97035251  0.32715076  0.58481965  1
  Si  Si35  1  0.66691707  0.60851082  0.58397326  1
  Si  Si36  1  0.66476333  0.03116992  0.08487736  1
  Si  Si37  1  0.03979683  0.36849621  0.91838800  1
  Si  Si38  1  0.63282215  0.96150088  0.41552424  1
  S  S39  1  0.70824743  0.70090160  0.24988759  1
  S  S40  1  0.29412250  0.28741230  0.74777808  1
  S  S41  1  0.37626281  0.04868561  0.58207141  1
  S  S42  1  0.95665903  0.62826658  0.08452464  1
  S  S43  1  0.38033461  0.33619836  0.08627731  1
  S  S44  1  0.62779670  0.66376700  0.91593799  1
  S  S45  1  0.33113750  0.96286883  0.91923749  1
  S  S46  1  0.33445575  0.37082696  0.41257722  1
  S  S47  1  0.03821701  0.67001454  0.41604673  1
  O  O48  1  0.18709465  0.02565854  0.30851561  1
  O  O49  1  0.81162380  0.77821796  0.30486777  1
  O  O50  1  0.95911411  0.17764114  0.30749047  1
  O  O51  1  0.21374769  0.19208330  0.80393044  1
  O  O52  1  0.97969951  0.80106614  0.80990336  1
  O  O53  1  0.81710617  0.04884218  0.80787321  1
  O  O54  1  0.78233641  0.96275616  0.68966746  1
  O  O55  1  0.18485999  0.20660512  0.69550042  1
  O  O56  1  0.02262093  0.83214046  0.68894211  1
  O  O57  1  0.79018066  0.81322854  0.19752635  1
  O  O58  1  0.04561545  0.23233846  0.19093568  1
  O  O59  1  0.18490490  0.97745295  0.18859096  1
  O  O60  1  0.88486884  0.36958754  0.64259866  1
  O  O61  1  0.49005423  0.13493401  0.63325137  1
  O  O62  1  0.63980215  0.50312824  0.64592538  1
  O  O63  1  0.86489945  0.51899775  0.13574694  1
  O  O64  1  0.62875169  0.12400722  0.14353694  1
  O  O65  1  0.47485758  0.35377558  0.14209644  1
  O  O66  1  0.47087481  0.32503994  0.03255405  1
  O  O67  1  0.86497947  0.55156323  0.02698446  1
  O  O68  1  0.69177614  0.14727020  0.02455951  1
  O  O69  1  0.45120807  0.13946585  0.52390266  1
  O  O70  1  0.69240745  0.50671134  0.52633745  1
  O  O71  1  0.84775448  0.27615316  0.52388488  1
  O  O72  1  0.54305708  0.68972974  0.96945798  1
  O  O73  1  0.14176951  0.45935292  0.98117740  1
  O  O74  1  0.31501187  0.86258448  0.97443346  1
  O  O75  1  0.54372020  0.85325796  0.47529316  1
  O  O76  1  0.30858170  0.45730405  0.46562875  1
  O  O77  1  0.14213040  0.69367990  0.46995759  1
  O  O78  1  0.11806238  0.63482109  0.36212071  1
  O  O79  1  0.50667735  0.87336929  0.35602990  1
  O  O80  1  0.35127158  0.46917168  0.35754406  1
  O  O81  1  0.13381196  0.49194938  0.86145898  1
  O  O82  1  0.36138620  0.87940389  0.86662423  1
  O  O83  1  0.53316178  0.64944437  0.86080654  1
  O  O84  1  0.03000179  0.83077626  0.40861018  1
  O  O85  1  0.82677155  0.98815823  0.40690387  1
  O  O86  1  0.17414178  0.19477381  0.41103321  1
  O  O87  1  0.00869198  0.17243584  0.91618547  1
  O  O88  1  0.17353128  0.97126117  0.91418427  1
  O  O89  1  0.80252892  0.81958861  0.91498938  1
  O  O90  1  0.98425295  0.15242908  0.59274446  1
  O  O91  1  0.20538787  0.02790176  0.58629150  1
  O  O92  1  0.84299731  0.80181486  0.58468693  1
  O  O93  1  0.98599818  0.80619964  0.08759795  1
  O  O94  1  0.84035771  0.02322009  0.08946747  1
  O  O95  1  0.20886428  0.17427684  0.08561666  1
  O  O96  1  0.67864637  0.17655237  0.73859970  1
  O  O97  1  0.46550079  0.30921184  0.74504062  1
  O  O98  1  0.82070889  0.52285488  0.74635751  1
  O  O99  1  0.68352389  0.52501884  0.24151025  1
  O  O100  1  0.83407958  0.32773997  0.24580020  1
  O  O101  1  0.47885322  0.18133053  0.24978834  1
  O  O102  1  0.64700273  0.50984256  0.92231471  1
  O  O103  1  0.84656742  0.35196213  0.91914572  1
  O  O104  1  0.48279253  0.13849155  0.92377194  1
  O  O105  1  0.64918097  0.15948946  0.42221942  1
  O  O106  1  0.48203242  0.34556124  0.41825883  1
  O  O107  1  0.86695365  0.51408478  0.41938191  1
  O  O108  1  0.34961870  0.48490617  0.08333069  1
  O  O109  1  0.12949462  0.64092529  0.08260993  1
  O  O110  1  0.48844095  0.84451624  0.08022320  1
  O  O111  1  0.35672236  0.87052585  0.57817202  1
  O  O112  1  0.51073516  0.65293617  0.58129994  1
  O  O113  1  0.14853831  0.50717475  0.57503073  1
  O  O114  1  0.32772961  0.84126597  0.25503663  1
  O  O115  1  0.53639943  0.68417445  0.25469461  1
  O  O116  1  0.18671182  0.49543400  0.26244616  1
  O  O117  1  0.31427592  0.46596197  0.75379953  1
  O  O118  1  0.15605351  0.67214904  0.74826711  1
  O  O119  1  0.51632997  0.82559089  0.75648912  1
