# generated using pymatgen
data_Na3MgTi3P5SO24
_symmetry_space_group_name_H-M   'P 1'
_cell_length_a   8.69309330
_cell_length_b   8.67201101
_cell_length_c   22.19052601
_cell_angle_alpha   89.94552006
_cell_angle_beta   90.25898625
_cell_angle_gamma   119.95678880
_symmetry_Int_Tables_number   1
_chemical_formula_structural   Na3MgTi3P5SO24
_chemical_formula_sum   'Na9 Mg3 Ti9 P15 S3 O72'
_cell_volume   1449.36042190
_cell_formula_units_Z   3
loop_
 _symmetry_equiv_pos_site_id
 _symmetry_equiv_pos_as_xyz
  1  'x, y, z'
loop_
 _atom_site_type_symbol
 _atom_site_label
 _atom_site_symmetry_multiplicity
 _atom_site_fract_x
 _atom_site_fract_y
 _atom_site_fract_z
 _atom_site_occupancy
  Na  Na0  1  0.99331872  0.36796116  0.74572223  1
  Na  Na1  1  0.31482698  0.97578762  0.08513233  1
  Na  Na2  1  0.32725936  0.03645222  0.41205450  1
  Na  Na3  1  0.98316500  0.99967538  0.49699153  1
  Na  Na4  1  0.98577444  0.00184188  0.99799470  1
  Na  Na5  1  0.65100402  0.33289014  0.83098544  1
  Na  Na6  1  0.67175587  0.33810403  0.32686516  1
  Na  Na7  1  0.33436386  0.65344189  0.16749770  1
  Na  Na8  1  0.34698343  0.67460638  0.66487369  1
  Mg  Mg9  1  0.99629292  0.00069160  0.35502344  1
  Mg  Mg10  1  0.66252047  0.33785833  0.68785358  1
  Mg  Mg11  1  0.66373537  0.33021898  0.18434844  1
  Ti  Ti12  1  0.00317128  0.00010043  0.85485276  1
  Ti  Ti13  1  0.99127407  0.99616803  0.64675665  1
  Ti  Ti14  1  0.00279603  0.99752754  0.14652118  1
  Ti  Ti15  1  0.67064373  0.33419711  0.98022690  1
  Ti  Ti16  1  0.68190199  0.34596185  0.48027895  1
  Ti  Ti17  1  0.33446276  0.66162743  0.01848587  1
  Ti  Ti18  1  0.33495435  0.65908878  0.51986152  1
  Ti  Ti19  1  0.33188758  0.67261162  0.31408696  1
  Ti  Ti20  1  0.33848246  0.67144342  0.81321570  1
  P  P21  1  0.29364538  0.00145841  0.25344774  1
  P  P22  1  0.28672828  0.28552744  0.75103387  1
  P  P23  1  0.00318324  0.71617336  0.75109784  1
  P  P24  1  0.70915667  0.99439760  0.75108124  1
  P  P25  1  0.96041339  0.33497552  0.58610782  1
  P  P26  1  0.66759559  0.62440806  0.58459927  1
  P  P27  1  0.95647058  0.61993133  0.08435907  1
  P  P28  1  0.66964208  0.04253859  0.08314373  1
  P  P29  1  0.37880785  0.33677514  0.08397579  1
  P  P30  1  0.62199408  0.66556587  0.91643530  1
  P  P31  1  0.04304955  0.37862570  0.91483487  1
  P  P32  1  0.33543248  0.95711849  0.91762065  1
  P  P33  1  0.62151305  0.95566235  0.41861135  1
  P  P34  1  0.33774682  0.38109341  0.41622030  1
  P  P35  1  0.04453150  0.66251787  0.41750224  1
  S  S36  1  0.70942096  0.71067033  0.25092518  1
  S  S37  1  0.00191754  0.29075443  0.25070949  1
  S  S38  1  0.37467117  0.04176216  0.58247720  1
  O  O39  1  0.20568827  0.01633396  0.31021082  1
  O  O40  1  0.81016027  0.79624125  0.30495606  1
  O  O41  1  0.98208987  0.18907312  0.30489140  1
  O  O42  1  0.18956080  0.17451065  0.80782808  1
  O  O43  1  0.98666649  0.81223689  0.80731496  1
  O  O44  1  0.82832301  0.01881993  0.80635468  1
  O  O45  1  0.79781153  0.96842163  0.69341965  1
  O  O46  1  0.16400681  0.19680942  0.69504152  1
  O  O47  1  0.02514202  0.82977496  0.69421345  1
  O  O48  1  0.79738626  0.82181128  0.19556451  1
  O  O49  1  0.02050088  0.19884757  0.19574831  1
  O  O50  1  0.17375278  0.97822756  0.19511355  1
  O  O51  1  0.88696427  0.36349242  0.64407805  1
  O  O52  1  0.48339490  0.12348800  0.63578145  1
  O  O53  1  0.63177284  0.51449432  0.64045130  1
  O  O54  1  0.88133217  0.51182311  0.14020202  1
  O  O55  1  0.62056059  0.11363991  0.13729180  1
  O  O56  1  0.48577975  0.37092830  0.14055270  1
  O  O57  1  0.46515238  0.29861353  0.02847864  1
  O  O58  1  0.83822051  0.53209298  0.02749636  1
  O  O59  1  0.69796687  0.16173591  0.02647053  1
  O  O60  1  0.45579428  0.14579353  0.52632714  1
  O  O61  1  0.69163472  0.52966590  0.52776133  1
  O  O62  1  0.83739952  0.31102157  0.53040228  1
  O  O63  1  0.53084648  0.69158082  0.97190617  1
  O  O64  1  0.16265691  0.47422985  0.96984171  1
  O  O65  1  0.30987110  0.84784235  0.97521752  1
  O  O66  1  0.52431843  0.84085645  0.47363834  1
  O  O67  1  0.31875991  0.47514732  0.47272675  1
  O  O68  1  0.16283326  0.68596629  0.47233813  1
  O  O69  1  0.13339453  0.63649272  0.36001230  1
  O  O70  1  0.49862072  0.86768703  0.36147456  1
  O  O71  1  0.36311320  0.49827372  0.36002007  1
  O  O72  1  0.12742549  0.48785595  0.85689130  1
  O  O73  1  0.35804352  0.86024205  0.86231461  1
  O  O74  1  0.50457924  0.63994163  0.86018574  1
  O  O75  1  0.02681283  0.82738921  0.41352892  1
  O  O76  1  0.80245093  0.97428993  0.41314109  1
  O  O77  1  0.17545726  0.19614980  0.41363331  1
  O  O78  1  0.02505154  0.19277741  0.91124448  1
  O  O79  1  0.16801674  0.97478258  0.91075190  1
  O  O80  1  0.80617636  0.83284280  0.91068521  1
  O  O81  1  0.97760015  0.16457459  0.58804048  1
  O  O82  1  0.19559507  0.02473803  0.58698824  1
  O  O83  1  0.83894873  0.81065144  0.58780143  1
  O  O84  1  0.97999064  0.81255185  0.08944842  1
  O  O85  1  0.83623907  0.02367842  0.09022100  1
  O  O86  1  0.19043214  0.16380427  0.08942693  1
  O  O87  1  0.69441650  0.16079103  0.74617050  1
  O  O88  1  0.46632540  0.30050347  0.74760545  1
  O  O89  1  0.84276455  0.52995695  0.74888479  1
  O  O90  1  0.68912983  0.53390667  0.24471628  1
  O  O91  1  0.85028303  0.31844817  0.24400245  1
  O  O92  1  0.47864989  0.15915112  0.24609104  1
  O  O93  1  0.63695043  0.49712104  0.92328740  1
  O  O94  1  0.85926875  0.36227675  0.92262047  1
  O  O95  1  0.50295817  0.14188578  0.92214502  1
  O  O96  1  0.62783240  0.13768306  0.42453326  1
  O  O97  1  0.50676687  0.36340965  0.42303105  1
  O  O98  1  0.86181331  0.48972312  0.42263414  1
  O  O99  1  0.34691367  0.49472644  0.07257308  1
  O  O100  1  0.14940152  0.65639763  0.07384362  1
  O  O101  1  0.50551992  0.85385051  0.07156786  1
  O  O102  1  0.35023857  0.85958845  0.57669183  1
  O  O103  1  0.50829302  0.65546353  0.57385416  1
  O  O104  1  0.14721733  0.49803901  0.57472986  1
  O  O105  1  0.30104551  0.82190404  0.25532409  1
  O  O106  1  0.52981981  0.69745702  0.25293245  1
  O  O107  1  0.17157983  0.46785398  0.25279604  1
  O  O108  1  0.29510186  0.46959039  0.75638741  1
  O  O109  1  0.17514330  0.70184473  0.75594102  1
  O  O110  1  0.52647559  0.82327137  0.75639534  1
