# generated using pymatgen
data_Na9Nb7Zn5Si9(SO8)9
_symmetry_space_group_name_H-M   'P 1'
_cell_length_a   8.94238503
_cell_length_b   8.94441046
_cell_length_c   22.68220327
_cell_angle_alpha   89.73394934
_cell_angle_beta   89.72141007
_cell_angle_gamma   120.05982611
_symmetry_Int_Tables_number   1
_chemical_formula_structural   Na9Nb7Zn5Si9(SO8)9
_chemical_formula_sum   'Na9 Nb7 Zn5 Si9 S9 O72'
_cell_volume   1570.14285004
_cell_formula_units_Z   1
loop_
 _symmetry_equiv_pos_site_id
 _symmetry_equiv_pos_as_xyz
  1  'x, y, z'
loop_
 _atom_site_type_symbol
 _atom_site_label
 _atom_site_symmetry_multiplicity
 _atom_site_fract_x
 _atom_site_fract_y
 _atom_site_fract_z
 _atom_site_occupancy
  Na  Na0  1  0.98061709  0.35620855  0.74686552  1
  Na  Na1  1  0.64862268  0.96665293  0.58031949  1
  Na  Na2  1  0.32573988  0.02791251  0.40684073  1
  Na  Na3  1  0.99033497  0.00311307  0.49197344  1
  Na  Na4  1  0.98677868  0.99828282  0.99038499  1
  Na  Na5  1  0.65468702  0.32324084  0.82704339  1
  Na  Na6  1  0.66864389  0.33397614  0.32089194  1
  Na  Na7  1  0.32985093  0.68046802  0.16306805  1
  Na  Na8  1  0.31438009  0.66701850  0.65537943  1
  Nb  Nb9  1  0.99438019  0.00095410  0.64430752  1
  Nb  Nb10  1  -0.00010984  0.99175595  0.14372541  1
  Nb  Nb11  1  0.69351020  0.34554344  0.97803793  1
  Nb  Nb12  1  0.66263728  0.31462846  0.48218037  1
  Nb  Nb13  1  0.33413912  0.66382354  0.02093931  1
  Nb  Nb14  1  0.33968617  0.68306583  0.31085102  1
  Nb  Nb15  1  0.34549291  0.66638295  0.81332570  1
  Zn  Zn16  1  0.99451740  0.00382801  0.34830913  1
  Zn  Zn17  1  0.96800746  0.99964330  0.85908376  1
  Zn  Zn18  1  0.67110240  0.31108015  0.68101197  1
  Zn  Zn19  1  0.66356948  0.30767128  0.18265930  1
  Zn  Zn20  1  0.33194734  0.67229793  0.51944601  1
  Si  Si21  1  0.29487526  0.01968271  0.25517505  1
  Si  Si22  1  0.70541538  0.00506065  0.75153461  1
  Si  Si23  1  0.97348716  0.34744256  0.58747527  1
  Si  Si24  1  0.36719422  0.03418607  0.58622142  1
  Si  Si25  1  0.95372860  0.61325729  0.08866034  1
  Si  Si26  1  0.66394677  0.04274257  0.08595720  1
  Si  Si27  1  0.62815298  0.65912490  0.91870074  1
  Si  Si28  1  0.05153414  0.37326676  0.91456831  1
  Si  Si29  1  0.63799299  0.95461249  0.42005767  1
  S  S30  1  0.70793634  0.70846362  0.25105366  1
  S  S31  1  0.00460097  0.29589809  0.25180346  1
  S  S32  1  0.29030603  0.28818235  0.75113272  1
  S  S33  1  0.00245478  0.71546905  0.75276283  1
  S  S34  1  0.67121571  0.61849425  0.58576803  1
  S  S35  1  0.37664393  0.33209771  0.08434038  1
  S  S36  1  0.33676944  0.95629534  0.91650522  1
  S  S37  1  0.34047521  0.38230626  0.41810318  1
  S  S38  1  0.03799258  0.66058094  0.41669918  1
  O  O39  1  0.20299041  0.01747422  0.31605071  1
  O  O40  1  0.80365808  0.79020596  0.30372721  1
  O  O41  1  0.98332695  0.19652710  0.30513106  1
  O  O42  1  0.21565591  0.18809833  0.80415542  1
  O  O43  1  0.99729717  0.80384554  0.80536655  1
  O  O44  1  0.83577201  0.04063965  0.80371885  1
  O  O45  1  0.79836626  0.97294570  0.69059708  1
  O  O46  1  0.17377834  0.20160033  0.69772330  1
  O  O47  1  0.02394081  0.82227323  0.69746973  1
  O  O48  1  0.78700703  0.82110100  0.19648858  1
  O  O49  1  0.02541434  0.21144283  0.19770450  1
  O  O50  1  0.16153985  0.98499494  0.19784134  1
  O  O51  1  0.89988300  0.37432266  0.64804150  1
  O  O52  1  0.49188003  0.13008911  0.63879822  1
  O  O53  1  0.65723206  0.52202984  0.63891410  1
  O  O54  1  0.86482161  0.50248938  0.14501724  1
  O  O55  1  0.60850897  0.09715530  0.14396893  1
  O  O56  1  0.47289789  0.36205012  0.13793424  1
  O  O57  1  0.45437963  0.30717119  0.03065792  1
  O  O58  1  0.83809102  0.53298419  0.02659971  1
  O  O59  1  0.69217486  0.16773629  0.02703969  1
  O  O60  1  0.46068861  0.16046220  0.52340018  1
  O  O61  1  0.69300107  0.53710611  0.53067412  1
  O  O62  1  0.82649458  0.30510684  0.53122345  1
  O  O63  1  0.51734736  0.67674161  0.97329861  1
  O  O64  1  0.16256566  0.49205939  0.97070495  1
  O  O65  1  0.32029346  0.85399982  0.97104968  1
  O  O66  1  0.54681261  0.85362276  0.47927338  1
  O  O67  1  0.32234475  0.46349469  0.47068412  1
  O  O68  1  0.14260047  0.68180636  0.46818721  1
  O  O69  1  0.12343576  0.63639530  0.36158919  1
  O  O70  1  0.49674572  0.85410073  0.36253147  1
  O  O71  1  0.35203694  0.48259400  0.36299716  1
  O  O72  1  0.13455130  0.49415161  0.85447445  1
  O  O73  1  0.36309046  0.86789889  0.86352211  1
  O  O74  1  0.50382178  0.64302957  0.85988113  1
  O  O75  1  0.02016737  0.81417692  0.41062133  1
  O  O76  1  0.82776477  0.98827795  0.40843519  1
  O  O77  1  0.19685947  0.20185817  0.41476884  1
  O  O78  1  0.04387676  0.19334319  0.91621774  1
  O  O79  1  0.18348370  0.96947784  0.91058061  1
  O  O80  1  0.81717345  0.81918604  0.91603017  1
  O  O81  1  0.96047980  0.15061546  0.59028330  1
  O  O82  1  0.17791437  0.02344766  0.59176510  1
  O  O83  1  0.83792393  0.79778850  0.58718691  1
  O  O84  1  0.97712935  0.81291639  0.09365755  1
  O  O85  1  0.84391862  0.03088821  0.09363179  1
  O  O86  1  0.19596918  0.17436689  0.08913747  1
  O  O87  1  0.68046805  0.17127609  0.74811036  1
  O  O88  1  0.46789944  0.33153755  0.74099953  1
  O  O89  1  0.84907880  0.54239069  0.74793152  1
  O  O90  1  0.67957326  0.53590413  0.24357746  1
  O  O91  1  0.86289234  0.33145397  0.24703104  1
  O  O92  1  0.48608247  0.17733805  0.24707384  1
  O  O93  1  0.61829744  0.47114283  0.92429906  1
  O  O94  1  0.85791256  0.36000689  0.92179868  1
  O  O95  1  0.49717896  0.12676302  0.92028234  1
  O  O96  1  0.63608939  0.14668309  0.42244026  1
  O  O97  1  0.50786704  0.37418194  0.41925414  1
  O  O98  1  0.86284262  0.50153267  0.42001150  1
  O  O99  1  0.34426264  0.48204199  0.07659702  1
  O  O100  1  0.15054411  0.65066663  0.07557202  1
  O  O101  1  0.50705191  0.84549668  0.07030041  1
  O  O102  1  0.35190324  0.85065355  0.57726870  1
  O  O103  1  0.52844320  0.65304755  0.58052982  1
  O  O104  1  0.16407295  0.49107711  0.57231677  1
  O  O105  1  0.30398258  0.82790831  0.25957905  1
  O  O106  1  0.52828223  0.69545990  0.25508334  1
  O  O107  1  0.17425112  0.47027066  0.25593423  1
  O  O108  1  0.28719788  0.46093627  0.75312888  1
  O  O109  1  0.16185575  0.69361275  0.75265896  1
  O  O110  1  0.51160472  0.82311575  0.75630434  1
