# generated using pymatgen
data_MgMn6O7F5
_symmetry_space_group_name_H-M   'P 1'
_cell_length_a   5.34684148
_cell_length_b   7.73793575
_cell_length_c   5.74091274
_cell_angle_alpha   97.92018045
_cell_angle_beta   84.89293754
_cell_angle_gamma   89.68732341
_symmetry_Int_Tables_number   1
_chemical_formula_structural   MgMn6O7F5
_chemical_formula_sum   'Mg1 Mn6 O7 F5'
_cell_volume   234.28426298
_cell_formula_units_Z   1
loop_
 _symmetry_equiv_pos_site_id
 _symmetry_equiv_pos_as_xyz
  1  'x, y, z'
loop_
 _atom_site_type_symbol
 _atom_site_label
 _atom_site_symmetry_multiplicity
 _atom_site_fract_x
 _atom_site_fract_y
 _atom_site_fract_z
 _atom_site_occupancy
  Mg  Mg0  1  0.49882954  0.49096481  0.48393323  1
  Mn  Mn1  1  0.50060492  0.98651844  0.48815581  1
  Mn  Mn2  1  0.53286749  0.67502271  0.09820338  1
  Mn  Mn3  1  0.46350450  0.32970705  0.89071534  1
  Mn  Mn4  1  -0.02756854  0.71414784  0.60652378  1
  Mn  Mn5  1  0.01126599  0.19779430  0.52357504  1
  Mn  Mn6  1  0.98996398  0.99262622  0.00493021  1
  O  O7  1  0.81563744  0.78490822  0.91228207  1
  O  O8  1  0.79223516  0.06178878  0.30405471  1
  O  O9  1  0.63858699  0.74788182  0.42476704  1
  O  O10  1  0.62504654  0.44512990  0.14133041  1
  O  O11  1  0.37191673  0.55909820  0.83198262  1
  O  O12  1  0.37804286  0.24132379  0.57012264  1
  O  O13  1  0.16129167  0.93634701  0.66373510  1
  F  F14  1  0.84075223  0.45344627  0.60321985  1
  F  F15  1  0.72682061  0.13399144  0.81044300  1
  F  F16  1  0.32314082  0.89592974  0.15316529  1
  F  F17  1  0.19542086  0.59191839  0.35397596  1
  F  F18  1  0.17552721  0.21145508  0.07536252  1
