# generated using pymatgen
data_Na3Ca2Zr2P3(SO8)3
_symmetry_space_group_name_H-M   'P 1'
_cell_length_a   9.12657788
_cell_length_b   9.08652854
_cell_length_c   23.62741867
_cell_angle_alpha   90.03252148
_cell_angle_beta   89.92349126
_cell_angle_gamma   119.94909712
_symmetry_Int_Tables_number   1
_chemical_formula_structural   Na3Ca2Zr2P3(SO8)3
_chemical_formula_sum   'Na9 Ca6 Zr6 P9 S9 O72'
_cell_volume   1697.75497818
_cell_formula_units_Z   3
loop_
 _symmetry_equiv_pos_site_id
 _symmetry_equiv_pos_as_xyz
  1  'x, y, z'
loop_
 _atom_site_type_symbol
 _atom_site_label
 _atom_site_symmetry_multiplicity
 _atom_site_fract_x
 _atom_site_fract_y
 _atom_site_fract_z
 _atom_site_occupancy
  Na  Na0  1  0.66343147  0.68467911  0.08378646  1
  Na  Na1  1  0.33159421  0.29499910  0.91611387  1
  Na  Na2  1  0.33062233  0.03600899  0.41611914  1
  Na  Na3  1  0.99144374  0.00214298  0.50057333  1
  Na  Na4  1  0.00753142  0.99445273  0.00066574  1
  Na  Na5  1  0.68601075  0.33511587  0.83271658  1
  Na  Na6  1  0.68441591  0.34855159  0.33188504  1
  Na  Na7  1  0.30748086  0.65349813  0.16297978  1
  Na  Na8  1  0.33500510  0.67981956  0.66259172  1
  Ca  Ca9  1  0.99352188  0.00096506  0.34535984  1
  Ca  Ca10  1  0.99109389  0.99037560  0.84472817  1
  Ca  Ca11  1  0.67482762  0.33679460  0.98439927  1
  Ca  Ca12  1  0.66841228  0.33564921  0.48435229  1
  Ca  Ca13  1  0.31908098  0.66511139  0.02245803  1
  Ca  Ca14  1  0.33360871  0.66834636  0.52329048  1
  Zr  Zr15  1  0.00761017  0.00061484  0.65433536  1
  Zr  Zr16  1  0.01365313  0.00721247  0.15474020  1
  Zr  Zr17  1  0.65802739  0.32514170  0.68530866  1
  Zr  Zr18  1  0.66586640  0.33670367  0.18537353  1
  Zr  Zr19  1  0.33319260  0.66224475  0.30870873  1
  Zr  Zr20  1  0.33314197  0.67124737  0.80852311  1
  P  P21  1  0.30357467  0.00241611  0.25372361  1
  P  P22  1  0.70267912  0.70320743  0.24862865  1
  P  P23  1  0.99606148  0.29846483  0.25046831  1
  P  P24  1  0.29987525  0.29908252  0.75316376  1
  P  P25  1  0.99533864  0.69548402  0.74977108  1
  P  P26  1  0.70423079  0.00077179  0.74967145  1
  P  P27  1  0.36381196  0.03758369  0.58290397  1
  P  P28  1  0.96006387  0.63604919  0.08672448  1
  P  P29  1  0.36781914  0.32691575  0.08252028  1
  S  S30  1  0.95968424  0.32478225  0.58670159  1
  S  S31  1  0.67582640  0.63605264  0.58685681  1
  S  S32  1  0.67640849  0.03785780  0.08648440  1
  S  S33  1  0.62164232  0.66628561  0.91656445  1
  S  S34  1  0.04278914  0.37502567  0.91340509  1
  S  S35  1  0.33517945  0.96320589  0.91429595  1
  S  S36  1  0.62208739  0.95660875  0.41497833  1
  S  S37  1  0.33459464  0.37365584  0.41526402  1
  S  S38  1  0.04357549  0.66599873  0.41453220  1
  O  O39  1  0.24300178  0.03518468  0.30944729  1
  O  O40  1  0.80617854  0.77031460  0.30165911  1
  O  O41  1  0.96313098  0.20095274  0.30471115  1
  O  O42  1  0.24111835  0.20581788  0.80901767  1
  O  O43  1  0.95894811  0.75844307  0.80388114  1
  O  O44  1  0.80218499  0.03856886  0.80404595  1
  O  O45  1  0.79440023  0.97275743  0.69824842  1
  O  O46  1  0.17704485  0.20252557  0.70303250  1
  O  O47  1  0.02618687  0.81764081  0.69878751  1
  O  O48  1  0.78658466  0.81473751  0.19491763  1
  O  O49  1  0.02482719  0.20739327  0.19906575  1
  O  O50  1  0.17931924  0.97565405  0.20369775  1
  O  O51  1  0.86324107  0.33827184  0.63567180  1
  O  O52  1  0.48542369  0.15282269  0.63142582  1
  O  O53  1  0.66747207  0.52914442  0.63619981  1
  O  O54  1  0.85622278  0.51956325  0.13714726  1
  O  O55  1  0.66174094  0.12968087  0.13625308  1
  O  O56  1  0.48880562  0.33504764  0.13103658  1
  O  O57  1  0.42783338  0.29870135  0.02487016  1
  O  O58  1  0.85644016  0.56765095  0.03226418  1
  O  O59  1  0.69685703  0.13093374  0.03383681  1
  O  O60  1  0.42729577  0.12566889  0.52533714  1
  O  O61  1  0.69937458  0.56658118  0.53389007  1
  O  O62  1  0.86861929  0.30426325  0.53362970  1
  O  O63  1  0.54223655  0.67444221  0.96998625  1
  O  O64  1  0.13743137  0.45783367  0.96494001  1
  O  O65  1  0.32795123  0.87096233  0.96563626  1
  O  O66  1  0.53886373  0.86396121  0.46681161  1
  O  O67  1  0.32684084  0.45898147  0.46656990  1
  O  O68  1  0.13896427  0.67748861  0.46583184  1
  O  O69  1  0.13972167  0.65860795  0.36311062  1
  O  O70  1  0.51740724  0.85823335  0.36402283  1
  O  O71  1  0.33846186  0.47411756  0.36357714  1
  O  O72  1  0.13963699  0.48020967  0.86236003  1
  O  O73  1  0.33720342  0.86500542  0.86273848  1
  O  O74  1  0.51345225  0.66123573  0.86686676  1
  O  O75  1  0.03484699  0.82525405  0.41125370  1
  O  O76  1  0.79351089  0.98090943  0.41161913  1
  O  O77  1  0.18415307  0.19970103  0.41307414  1
  O  O78  1  0.03449888  0.20759411  0.91005738  1
  O  O79  1  0.18443183  0.98592256  0.91240877  1
  O  O80  1  0.79276110  0.81378125  0.91244651  1
  O  O81  1  0.97429064  0.16834981  0.59484155  1
  O  O82  1  0.18743223  0.02445774  0.59542699  1
  O  O83  1  0.82850110  0.80932773  0.59447559  1
  O  O84  1  0.96995009  0.81304744  0.09665586  1
  O  O85  1  0.82931429  0.01732619  0.09332226  1
  O  O86  1  0.18808931  0.17224584  0.09523655  1
  O  O87  1  0.67047080  0.14950613  0.73656929  1
  O  O88  1  0.47870111  0.32825187  0.73810596  1
  O  O89  1  0.84804319  0.51565671  0.73556588  1
  O  O90  1  0.66783292  0.51888620  0.23780164  1
  O  O91  1  0.84694107  0.32876165  0.23747268  1
  O  O92  1  0.48101274  0.15109939  0.23828297  1
  O  O93  1  0.62353756  0.50255783  0.91337174  1
  O  O94  1  0.87308750  0.35761242  0.91277557  1
  O  O95  1  0.49037162  0.13428013  0.91187924  1
  O  O96  1  0.62502256  0.12300898  0.41331007  1
  O  O97  1  0.48985110  0.35772915  0.41314063  1
  O  O98  1  0.87352618  0.51362412  0.41402568  1
  O  O99  1  0.36618664  0.49593338  0.08580607  1
  O  O100  1  0.13632693  0.65740780  0.08736580  1
  O  O101  1  0.52687874  0.86404490  0.08545246  1
  O  O102  1  0.34620762  0.86162147  0.58773472  1
  O  O103  1  0.52168347  0.64967637  0.58720158  1
  O  O104  1  0.13017722  0.47553516  0.58688557  1
  O  O105  1  0.31610517  0.83665608  0.25645183  1
  O  O106  1  0.52219372  0.68429536  0.25529991  1
  O  O107  1  0.16066484  0.47809704  0.25469113  1
  O  O108  1  0.31703012  0.47954173  0.75645861  1
  O  O109  1  0.16116488  0.68335380  0.75477782  1
  O  O110  1  0.52329597  0.83838888  0.75522793  1
