# generated using pymatgen
data_Ba3MgCr2O8
_symmetry_space_group_name_H-M   'P 1'
_cell_length_a   8.28114015
_cell_length_b   8.28138203
_cell_length_c   8.28218619
_cell_angle_alpha   41.62744935
_cell_angle_beta   41.63291099
_cell_angle_gamma   41.63965121
_symmetry_Int_Tables_number   1
_chemical_formula_structural   Ba3MgCr2O8
_chemical_formula_sum   'Ba3 Mg1 Cr2 O8'
_cell_volume   226.60584944
_cell_formula_units_Z   1
loop_
 _symmetry_equiv_pos_site_id
 _symmetry_equiv_pos_as_xyz
  1  'x, y, z'
loop_
 _atom_site_type_symbol
 _atom_site_label
 _atom_site_symmetry_multiplicity
 _atom_site_fract_x
 _atom_site_fract_y
 _atom_site_fract_z
 _atom_site_occupancy
  Ba  Ba0  1  0.79474000  0.79593600  0.79558600  1
  Ba  Ba1  1  0.20388900  0.20517900  0.20466700  1
  Ba  Ba2  1  0.99606800  0.01043400  0.99347800  1
  Mg  Mg3  1  0.49958700  0.50077800  0.49963600  1
  Cr  Cr4  1  0.60636700  0.60742400  0.60679600  1
  Cr  Cr5  1  0.39297500  0.39325900  0.39315400  1
  O  O6  1  0.68751100  0.67153100  0.68974100  1
  O  O7  1  0.32095900  0.30578300  0.32448100  1
  O  O8  1  0.28313500  0.28288900  0.74290700  1
  O  O9  1  0.28239900  0.74315300  0.28243400  1
  O  O10  1  0.74252100  0.28313200  0.28345700  1
  O  O11  1  0.71615100  0.25763000  0.71685700  1
  O  O12  1  0.71713900  0.71738000  0.25722200  1
  O  O13  1  0.25655800  0.71715900  0.71791800  1
