# generated using pymatgen
data_NaNb3InSiP5O24
_symmetry_space_group_name_H-M   'P 1'
_cell_length_a   8.84259163
_cell_length_b   8.84261808
_cell_length_c   22.89733614
_cell_angle_alpha   89.80582003
_cell_angle_beta   90.09271368
_cell_angle_gamma   120.04216960
_symmetry_Int_Tables_number   1
_chemical_formula_structural   NaNb3InSiP5O24
_chemical_formula_sum   'Na3 Nb9 In3 Si3 P15 O72'
_cell_volume   1549.84701529
_cell_formula_units_Z   3
loop_
 _symmetry_equiv_pos_site_id
 _symmetry_equiv_pos_as_xyz
  1  'x, y, z'
loop_
 _atom_site_type_symbol
 _atom_site_label
 _atom_site_symmetry_multiplicity
 _atom_site_fract_x
 _atom_site_fract_y
 _atom_site_fract_z
 _atom_site_occupancy
  Na  Na0  1  0.00145926  0.00044785  0.99388987  1
  Na  Na1  1  0.66304815  0.33154397  0.83896255  1
  Na  Na2  1  0.66643535  0.33310449  0.33786093  1
  Nb  Nb3  1  0.99404054  0.99774205  0.35907393  1
  Nb  Nb4  1  0.00349713  0.00473216  0.64668589  1
  Nb  Nb5  1  0.99721526  0.00132136  0.14704667  1
  Nb  Nb6  1  0.66469359  0.33363922  0.68652020  1
  Nb  Nb7  1  0.66842372  0.33549132  0.18806945  1
  Nb  Nb8  1  0.33364502  0.66658665  0.02262894  1
  Nb  Nb9  1  0.33302686  0.66567869  0.52391482  1
  Nb  Nb10  1  0.33258836  0.66527896  0.30761392  1
  Nb  Nb11  1  0.33326107  0.66529835  0.80868625  1
  In  In12  1  0.00301182  0.00056163  0.85479451  1
  In  In13  1  0.66673442  0.33387121  0.97806390  1
  In  In14  1  0.66653124  0.33449094  0.47967290  1
  Si  Si15  1  0.71727153  0.71359664  0.25175632  1
  Si  Si16  1  0.99550792  0.28170582  0.25130199  1
  Si  Si17  1  0.28894122  0.28609384  0.75213855  1
  P  P18  1  0.28418822  0.00369805  0.25143848  1
  P  P19  1  0.99665606  0.71049307  0.75061101  1
  P  P20  1  0.71383512  0.00316803  0.75036044  1
  P  P21  1  0.95343744  0.33052209  0.58217227  1
  P  P22  1  0.37630776  0.04448510  0.58234654  1
  P  P23  1  0.67011651  0.62463303  0.58226201  1
  P  P24  1  0.95549629  0.62421986  0.08249843  1
  P  P25  1  0.66813309  0.04558749  0.08259130  1
  P  P26  1  0.37684355  0.33055489  0.08235311  1
  P  P27  1  0.61932322  0.66799726  0.91630537  1
  P  P28  1  0.04762012  0.38151237  0.91666081  1
  P  P29  1  0.33273064  0.95171441  0.91646574  1
  P  P30  1  0.61483638  0.95133833  0.41596951  1
  P  P31  1  0.33483077  0.38370976  0.41567596  1
  P  P32  1  0.04997434  0.66621116  0.41577240  1
  O  O33  1  0.20290269  0.03660944  0.30558657  1
  O  O34  1  0.84108648  0.80252970  0.30868149  1
  O  O35  1  0.96618294  0.15916161  0.30814695  1
  O  O36  1  0.22473175  0.16973191  0.80913389  1
  O  O37  1  0.94672836  0.77076736  0.80519406  1
  O  O38  1  0.82256470  0.04651366  0.80523745  1
  O  O39  1  0.80004674  0.97220151  0.69647538  1
  O  O40  1  0.16626705  0.19222761  0.69438894  1
  O  O41  1  0.02400173  0.82708019  0.69673955  1
  O  O42  1  0.80863155  0.83254315  0.19413745  1
  O  O43  1  0.02932001  0.19517244  0.19369380  1
  O  O44  1  0.17261530  0.97276463  0.19633840  1
  O  O45  1  0.86901175  0.36472047  0.63552446  1
  O  O46  1  0.49713646  0.13203795  0.63567407  1
  O  O47  1  0.63551227  0.50187590  0.63544642  1
  O  O48  1  0.86397578  0.50561766  0.13729067  1
  O  O49  1  0.64149907  0.13430536  0.13708677  1
  O  O50  1  0.49337540  0.35764522  0.13705054  1
  O  O51  1  0.44627207  0.29003602  0.02809064  1
  O  O52  1  0.84362888  0.55561924  0.02849404  1
  O  O53  1  0.71122549  0.15642564  0.02819619  1
  O  O54  1  0.44320585  0.15402842  0.52772054  1
  O  O55  1  0.71026682  0.55671604  0.52758102  1
  O  O56  1  0.84613960  0.29140226  0.52721920  1
  O  O57  1  0.52045538  0.67770997  0.97221028  1
  O  O58  1  0.15795058  0.48116256  0.97234119  1
  O  O59  1  0.32498526  0.84217190  0.97257892  1
  O  O60  1  0.52800845  0.83974725  0.47153680  1
  O  O61  1  0.31088790  0.47119009  0.47111560  1
  O  O62  1  0.16086262  0.68788964  0.47145618  1
  O  O63  1  0.14400552  0.64836347  0.36178313  1
  O  O64  1  0.50406038  0.85843964  0.36180652  1
  O  O65  1  0.35328895  0.49751608  0.36156054  1
  O  O66  1  0.14614807  0.49137787  0.86151898  1
  O  O67  1  0.34394163  0.85479629  0.86159268  1
  O  O68  1  0.50949712  0.65686585  0.86118701  1
  O  O69  1  0.04220852  0.83718831  0.40816238  1
  O  O70  1  0.79580819  0.96064215  0.40897175  1
  O  O71  1  0.16682615  0.20325387  0.40757899  1
  O  O72  1  0.03780215  0.20487074  0.91745807  1
  O  O73  1  0.16300779  0.95642926  0.91838539  1
  O  O74  1  0.79559944  0.83637470  0.91606705  1
  O  O75  1  0.98074128  0.17439989  0.59582997  1
  O  O76  1  0.19194606  0.01259900  0.59684230  1
  O  O77  1  0.82172882  0.80663474  0.59755886  1
  O  O78  1  0.98698071  0.81037268  0.09459688  1
  O  O79  1  0.82652368  0.01643566  0.09361390  1
  O  O80  1  0.19139613  0.17249838  0.09384067  1
  O  O81  1  0.68708844  0.16134537  0.73662535  1
  O  O82  1  0.48582587  0.31879877  0.73631844  1
  O  O83  1  0.84314534  0.52285579  0.73646144  1
  O  O84  1  0.69002994  0.51857655  0.24080024  1
  O  O85  1  0.82303895  0.30090217  0.24067753  1
  O  O86  1  0.46828682  0.16441844  0.24131392  1
  O  O87  1  0.62725895  0.49944297  0.91724776  1
  O  O88  1  0.87154664  0.37492815  0.91736587  1
  O  O89  1  0.50084733  0.12905817  0.91772605  1
  O  O90  1  0.63807623  0.13313770  0.41848698  1
  O  O91  1  0.49642261  0.36516979  0.41803995  1
  O  O92  1  0.86853346  0.50624745  0.41828906  1
  O  O93  1  0.35827825  0.49507548  0.07505292  1
  O  O94  1  0.13695551  0.63940835  0.07537733  1
  O  O95  1  0.50470702  0.86191742  0.07533690  1
  O  O96  1  0.35885535  0.86090614  0.57354440  1
  O  O97  1  0.50261451  0.64050873  0.57329990  1
  O  O98  1  0.13926007  0.49492740  0.57322015  1
  O  O99  1  0.30520954  0.84207488  0.26087243  1
  O  O100  1  0.52729623  0.69655066  0.26181116  1
  O  O101  1  0.16337873  0.47555789  0.26168135  1
  O  O102  1  0.31087115  0.48077713  0.75953003  1
  O  O103  1  0.16238766  0.69460641  0.75849294  1
  O  O104  1  0.52876789  0.84178075  0.75820637  1
