# generated using pymatgen
data_Na10Ta4In4Si9(SO16)3
_symmetry_space_group_name_H-M   'P 1'
_cell_length_a   18.22587186
_cell_length_b   9.07302343
_cell_length_c   22.76336624
_cell_angle_alpha   90.03910225
_cell_angle_beta   89.80110675
_cell_angle_gamma   119.79426473
_symmetry_Int_Tables_number   1
_chemical_formula_structural   Na10Ta4In4Si9(SO16)3
_chemical_formula_sum   'Na30 Ta12 In12 Si27 S9 O144'
_cell_volume   3266.63906389
_cell_formula_units_Z   3
loop_
 _symmetry_equiv_pos_site_id
 _symmetry_equiv_pos_as_xyz
  1  'x, y, z'
loop_
 _atom_site_type_symbol
 _atom_site_label
 _atom_site_symmetry_multiplicity
 _atom_site_fract_x
 _atom_site_fract_y
 _atom_site_fract_z
 _atom_site_occupancy
  Na  Na0  1  0.18497750  0.36217653  0.24417938  1
  Na  Na1  1  0.68495800  0.36286946  0.24370518  1
  Na  Na2  1  0.18542157  0.00801070  0.74353732  1
  Na  Na3  1  0.68424305  0.00590983  0.74343393  1
  Na  Na4  1  0.65248240  0.34467457  0.58063677  1
  Na  Na5  1  0.02136520  0.70190426  0.57646875  1
  Na  Na6  1  0.51904673  0.68707945  0.58080176  1
  Na  Na7  1  0.32598878  0.97126761  0.58560286  1
  Na  Na8  1  0.15324727  0.96212251  0.08058233  1
  Na  Na9  1  0.65323198  0.96195691  0.08036659  1
  Na  Na10  1  0.32637405  0.68467079  0.08431568  1
  Na  Na11  1  0.82650551  0.68513991  0.08423048  1
  Na  Na12  1  0.02063084  0.35210976  0.08069298  1
  Na  Na13  1  0.52058761  0.35222377  0.08058678  1
  Na  Na14  1  0.48960713  0.67635556  0.91391724  1
  Na  Na15  1  0.98955663  0.67630835  0.91484810  1
  Na  Na16  1  0.35181957  0.66631290  0.41058456  1
  Na  Na17  1  0.85209551  0.67391353  0.40995224  1
  Na  Na18  1  0.01378862  0.02127501  0.49355590  1
  Na  Na19  1  0.51162660  0.01057909  0.49276329  1
  Na  Na20  1  0.00817099  0.02241848  0.99192532  1
  Na  Na21  1  0.50838384  0.02259141  0.99169905  1
  Na  Na22  1  0.34198558  0.33171576  0.82770950  1
  Na  Na23  1  0.84097933  0.32971534  0.82919284  1
  Na  Na24  1  0.34485514  0.33999288  0.32928586  1
  Na  Na25  1  0.84616166  0.33884727  0.32670388  1
  Na  Na26  1  0.16656203  0.67311409  0.16237396  1
  Na  Na27  1  0.66669445  0.67307436  0.16189883  1
  Na  Na28  1  0.17430081  0.66016508  0.66331776  1
  Na  Na29  1  0.67183323  0.67126724  0.65948790  1
  Ta  Ta30  1  0.99535502  0.98559459  0.64687010  1
  Ta  Ta31  1  0.49339772  0.98494342  0.64388438  1
  Ta  Ta32  1  0.99486363  0.00094207  0.14553536  1
  Ta  Ta33  1  0.49457406  0.00081003  0.14537981  1
  Ta  Ta34  1  0.33386204  0.32330624  0.98022728  1
  Ta  Ta35  1  0.83374338  0.32321935  0.98031681  1
  Ta  Ta36  1  0.33378514  0.33858536  0.48148167  1
  Ta  Ta37  1  0.82959981  0.34088268  0.47785377  1
  Ta  Ta38  1  0.16114885  0.64644740  0.31290547  1
  Ta  Ta39  1  0.66071033  0.64901503  0.31236680  1
  Ta  Ta40  1  0.16316681  0.67701771  0.81286008  1
  Ta  Ta41  1  0.66223537  0.67693562  0.81224047  1
  In  In42  1  0.00188744  0.99942807  0.35224275  1
  In  In43  1  0.50097314  0.99818255  0.35187054  1
  In  In44  1  0.99871020  0.00673222  0.85138059  1
  In  In45  1  0.49892276  0.00705505  0.85123001  1
  In  In46  1  0.33856636  0.33714580  0.68433321  1
  In  In47  1  0.83571781  0.33352944  0.68599112  1
  In  In48  1  0.33932594  0.34192454  0.18487471  1
  In  In49  1  0.83938184  0.34219480  0.18459527  1
  In  In50  1  0.16388296  0.66398855  0.01607261  1
  In  In51  1  0.66391591  0.66385975  0.01591139  1
  In  In52  1  0.16542501  0.66433067  0.51622664  1
  In  In53  1  0.66461867  0.66824407  0.51837460  1
  Si  Si54  1  0.35183648  0.70768078  0.25303631  1
  Si  Si55  1  0.85223929  0.70819451  0.25333913  1
  Si  Si56  1  0.99586294  0.28675617  0.25149320  1
  Si  Si57  1  0.49573937  0.28657472  0.25159931  1
  Si  Si58  1  0.99637231  0.70283712  0.75305254  1
  Si  Si59  1  0.49504184  0.70378381  0.75269296  1
  Si  Si60  1  0.35264969  0.99776069  0.75121955  1
  Si  Si61  1  0.85272300  0.99746157  0.75148823  1
  Si  Si62  1  0.47947483  0.33072657  0.58273163  1
  Si  Si63  1  0.18604008  0.04564131  0.58486793  1
  Si  Si64  1  0.68866916  0.04297119  0.58605587  1
  Si  Si65  1  0.32825349  0.61834415  0.58478404  1
  Si  Si66  1  0.83286370  0.62592336  0.58417806  1
  Si  Si67  1  0.47952036  0.62803890  0.08166438  1
  Si  Si68  1  0.97956900  0.62827684  0.08162950  1
  Si  Si69  1  0.33184186  0.04133598  0.08477194  1
  Si  Si70  1  0.83190967  0.04118558  0.08481423  1
  Si  Si71  1  0.18811009  0.33026499  0.08522245  1
  Si  Si72  1  0.68808256  0.33031897  0.08528542  1
  Si  Si73  1  0.01938252  0.37011645  0.91813226  1
  Si  Si74  1  0.51956517  0.37025100  0.91811167  1
  Si  Si75  1  0.16776113  0.96816060  0.91793035  1
  Si  Si76  1  0.66774586  0.96793836  0.91791649  1
  Si  Si77  1  0.16580197  0.36553868  0.41847776  1
  Si  Si78  1  0.66323738  0.36838903  0.41834221  1
  Si  Si79  1  0.02004542  0.66531025  0.41915003  1
  Si  Si80  1  0.51911218  0.66534826  0.41861238  1
  S  S81  1  0.14493550  0.99278302  0.24892414  1
  S  S82  1  0.64494179  0.99301069  0.24908453  1
  S  S83  1  0.14398318  0.29462757  0.74916760  1
  S  S84  1  0.64481739  0.29711386  0.74943762  1
  S  S85  1  0.97755399  0.32572025  0.58271169  1
  S  S86  1  0.31038155  0.65961215  0.91654918  1
  S  S87  1  0.81066820  0.65987533  0.91651521  1
  S  S88  1  0.31052090  0.96237500  0.41589756  1
  S  S89  1  0.80983256  0.96088309  0.41660967  1
  O  O90  1  0.10727841  0.02160332  0.30121843  1
  O  O91  1  0.60751348  0.02181238  0.30138842  1
  O  O92  1  0.40489727  0.78413098  0.31170634  1
  O  O93  1  0.90510667  0.78454724  0.31224151  1
  O  O94  1  0.49323896  0.18431038  0.30818566  1
  O  O95  1  0.99209180  0.18278947  0.30797483  1
  O  O96  1  0.10848535  0.19110288  0.80215211  1
  O  O97  1  0.60801599  0.19107264  0.80153495  1
  O  O98  1  0.49273803  0.79390534  0.81240394  1
  O  O99  1  0.99019417  0.78993465  0.81211148  1
  O  O100  1  0.40955580  0.03047738  0.80711314  1
  O  O101  1  0.90928979  0.03136505  0.80773465  1
  O  O102  1  0.40214106  0.97468862  0.69111315  1
  O  O103  1  0.90577233  0.97813551  0.69289325  1
  O  O104  1  0.08899421  0.20981461  0.69654557  1
  O  O105  1  0.59277729  0.21717232  0.69549230  1
  O  O106  1  0.01549249  0.83509074  0.69445766  1
  O  O107  1  0.51518485  0.83527433  0.69430824  1
  O  O108  1  0.40443482  0.83263886  0.19400780  1
  O  O109  1  0.90462702  0.83254716  0.19428900  1
  O  O110  1  0.01603014  0.19928262  0.19194230  1
  O  O111  1  0.51622286  0.19926845  0.19212106  1
  O  O112  1  0.09176478  0.96921506  0.19502739  1
  O  O113  1  0.59203500  0.96887020  0.19519880  1
  O  O114  1  0.44267110  0.37586267  0.63894459  1
  O  O115  1  0.94197961  0.35671507  0.63588863  1
  O  O116  1  0.24073658  0.11289652  0.64401956  1
  O  O117  1  0.73848488  0.12070558  0.64598899  1
  O  O118  1  0.31351679  0.50969206  0.64195454  1
  O  O119  1  0.81866854  0.50723831  0.63906854  1
  O  O120  1  0.44201376  0.50643861  0.13715887  1
  O  O121  1  0.94208629  0.50666401  0.13713726  1
  O  O122  1  0.30807488  0.11610543  0.13992431  1
  O  O123  1  0.80799661  0.11607943  0.13991600  1
  O  O124  1  0.24076599  0.36585656  0.14504846  1
  O  O125  1  0.74068665  0.36590562  0.14519456  1
  O  O126  1  0.23888825  0.30001857  0.02894204  1
  O  O127  1  0.73892887  0.30010068  0.02905885  1
  O  O128  1  0.41650950  0.53934602  0.02320954  1
  O  O129  1  0.91663121  0.53934846  0.02317034  1
  O  O130  1  0.35262384  0.17104867  0.02659505  1
  O  O131  1  0.85264600  0.17108423  0.02665511  1
  O  O132  1  0.23801061  0.16970860  0.52753046  1
  O  O133  1  0.74166443  0.17596365  0.52919300  1
  O  O134  1  0.34868316  0.53316484  0.52549606  1
  O  O135  1  0.85229151  0.53546503  0.52450256  1
  O  O136  1  0.41428597  0.29651840  0.52584501  1
  O  O137  1  0.92442151  0.30231718  0.53006854  1
  O  O138  1  0.27533508  0.68371993  0.97185668  1
  O  O139  1  0.77564405  0.68376948  0.97194046  1
  O  O140  1  0.06902290  0.44585477  0.97888422  1
  O  O141  1  0.56900441  0.44524532  0.97901168  1
  O  O142  1  0.15274046  0.85649989  0.97611680  1
  O  O143  1  0.65318064  0.85695531  0.97625651  1
  O  O144  1  0.27552332  0.86605862  0.47128975  1
  O  O145  1  0.77350118  0.85791838  0.46948477  1
  O  O146  1  0.15624726  0.45981307  0.47442138  1
  O  O147  1  0.65934965  0.45765817  0.47730253  1
  O  O148  1  0.06991219  0.69478263  0.47989900  1
  O  O149  1  0.57166946  0.69880410  0.47799802  1
  O  O150  1  0.07467341  0.64691126  0.36243514  1
  O  O151  1  0.57447796  0.64784079  0.36136420  1
  O  O152  1  0.25578037  0.87063836  0.36472575  1
  O  O153  1  0.75684547  0.87942278  0.36369123  1
  O  O154  1  0.18180670  0.49618302  0.35856373  1
  O  O155  1  0.68227616  0.49981156  0.35983023  1
  O  O156  1  0.07401825  0.50575842  0.86214043  1
  O  O157  1  0.57419123  0.50609715  0.86231054  1
  O  O158  1  0.18075601  0.86557123  0.85910843  1
  O  O159  1  0.68084298  0.86606015  0.85910251  1
  O  O160  1  0.25658123  0.64359957  0.86519186  1
  O  O161  1  0.75706818  0.64365576  0.86515853  1
  O  O162  1  0.99692674  0.81540401  0.41298928  1
  O  O163  1  0.49756476  0.81812687  0.41247996  1
  O  O164  1  0.39480842  0.97844377  0.41117047  1
  O  O165  1  0.89501808  0.97988406  0.41133670  1
  O  O166  1  0.08594020  0.17975584  0.41197645  1
  O  O167  1  0.58603449  0.18074060  0.41194772  1
  O  O168  1  0.00384411  0.18128403  0.91285660  1
  O  O169  1  0.50384444  0.18131614  0.91265597  1
  O  O170  1  0.08167235  0.97559181  0.91053673  1
  O  O171  1  0.58186082  0.97650436  0.91115458  1
  O  O172  1  0.39734438  0.80496352  0.91215883  1
  O  O173  1  0.89765375  0.80497305  0.91229803  1
  O  O174  1  0.48438136  0.15216056  0.59008317  1
  O  O175  1  0.98629877  0.17072961  0.58855256  1
  O  O176  1  0.09070997  0.03043388  0.59197083  1
  O  O177  1  0.59464402  0.03835977  0.59102978  1
  O  O178  1  0.42177862  0.80706342  0.59042198  1
  O  O179  1  0.92392498  0.81223501  0.59114951  1
  O  O180  1  0.48481842  0.81665106  0.09092224  1
  O  O181  1  0.98470091  0.81662153  0.09083955  1
  O  O182  1  0.42247604  0.03597423  0.09146535  1
  O  O183  1  0.92245167  0.03571693  0.09155911  1
  O  O184  1  0.09393991  0.15224099  0.09138608  1
  O  O185  1  0.59401083  0.15229174  0.09147002  1
  O  O186  1  0.32824693  0.14618969  0.74620883  1
  O  O187  1  0.82966473  0.14790028  0.74565807  1
  O  O188  1  0.22812406  0.31206752  0.74251021  1
  O  O189  1  0.72986476  0.31563802  0.74431312  1
  O  O190  1  0.41560642  0.51767314  0.74839162  1
  O  O191  1  0.91870133  0.51578019  0.74535984  1
  O  O192  1  0.32927307  0.51172768  0.24697825  1
  O  O193  1  0.82946851  0.51179894  0.24743975  1
  O  O194  1  0.41626340  0.31400558  0.24739876  1
  O  O195  1  0.91638075  0.31428057  0.24703102  1
  O  O196  1  0.22894589  0.14492367  0.24322047  1
  O  O197  1  0.72928246  0.14502796  0.24344911  1
  O  O198  1  0.31661383  0.50075341  0.91934535  1
  O  O199  1  0.81705700  0.50091561  0.91945405  1
  O  O200  1  0.42802811  0.37539858  0.92243242  1
  O  O201  1  0.92795367  0.37557287  0.92222660  1
  O  O202  1  0.25543391  0.15467312  0.92318825  1
  O  O203  1  0.75555906  0.15488573  0.92316921  1
  O  O204  1  0.31690065  0.13223145  0.41935883  1
  O  O205  1  0.81825513  0.13350464  0.42303093  1
  O  O206  1  0.25726701  0.36440008  0.42268726  1
  O  O207  1  0.75662985  0.36525362  0.42283753  1
  O  O208  1  0.42492478  0.48598146  0.42315396  1
  O  O209  1  0.92562762  0.48261247  0.42462844  1
  O  O210  1  0.17473171  0.49292898  0.07733540  1
  O  O211  1  0.67480391  0.49306064  0.07741419  1
  O  O212  1  0.07591987  0.66367787  0.07857410  1
  O  O213  1  0.57590929  0.66352940  0.07856816  1
  O  O214  1  0.25757804  0.84833915  0.07537422  1
  O  O215  1  0.75756057  0.84823273  0.07543398  1
  O  O216  1  0.16987610  0.85145452  0.57781806  1
  O  O217  1  0.66851189  0.85037462  0.57954304  1
  O  O218  1  0.25731397  0.67414190  0.57701890  1
  O  O219  1  0.75289069  0.65029383  0.57647264  1
  O  O220  1  0.06281243  0.47845983  0.57771113  1
  O  O221  1  0.57493380  0.48720573  0.57815760  1
  O  O222  1  0.15232891  0.83659612  0.25448563  1
  O  O223  1  0.65262075  0.83679377  0.25468615  1
  O  O224  1  0.25731588  0.70083263  0.25833382  1
  O  O225  1  0.75764006  0.70098381  0.25868088  1
  O  O226  1  0.08808521  0.47890622  0.25700149  1
  O  O227  1  0.58847032  0.47919454  0.25714065  1
  O  O228  1  0.15096397  0.46566057  0.75518389  1
  O  O229  1  0.65268485  0.46850932  0.75623097  1
  O  O230  1  0.08930120  0.69936185  0.75676411  1
  O  O231  1  0.58842212  0.69820510  0.75718301  1
  O  O232  1  0.25784371  0.81469240  0.75828482  1
  O  O233  1  0.75807193  0.81666708  0.75808108  1
