# generated using pymatgen
data_MgFe4(NiO4)2
_symmetry_space_group_name_H-M   'P 1'
_cell_length_a   5.81243865
_cell_length_b   5.84571188
_cell_length_c   6.22277565
_cell_angle_alpha   61.98497997
_cell_angle_beta   63.04433279
_cell_angle_gamma   59.81044900
_symmetry_Int_Tables_number   1
_chemical_formula_structural   MgFe4(NiO4)2
_chemical_formula_sum   'Mg1 Fe4 Ni2 O8'
_cell_volume   154.67594350
_cell_formula_units_Z   1
loop_
 _symmetry_equiv_pos_site_id
 _symmetry_equiv_pos_as_xyz
  1  'x, y, z'
loop_
 _atom_site_type_symbol
 _atom_site_label
 _atom_site_symmetry_multiplicity
 _atom_site_fract_x
 _atom_site_fract_y
 _atom_site_fract_z
 _atom_site_occupancy
  Mg  Mg0  1  0.12500000  0.12500000  0.62500000  1
  Fe  Fe1  1  0.96655900  0.97391800  0.08560500  1
  Fe  Fe2  1  0.28344100  0.27608200  0.16439500  1
  Fe  Fe3  1  0.62500000  0.12500000  0.62500000  1
  Fe  Fe4  1  0.62500000  0.62500000  0.62500000  1
  Ni  Ni5  1  0.12500000  0.62500000  0.62500000  1
  Ni  Ni6  1  0.62500000  0.62500000  0.12500000  1
  O  O7  1  0.38091400  0.36532000  0.39004900  1
  O  O8  1  0.41721600  0.38995500  0.80287300  1
  O  O9  1  0.38091400  0.86371700  0.39004900  1
  O  O10  1  0.86157800  0.37051200  0.39739800  1
  O  O11  1  0.38842200  0.87948800  0.85260200  1
  O  O12  1  0.86908600  0.38628300  0.85995100  1
  O  O13  1  0.83278400  0.86004500  0.44712700  1
  O  O14  1  0.86908600  0.88468000  0.85995100  1
