# generated using pymatgen
data_Na2ZnGeP2SO12
_symmetry_space_group_name_H-M   'P 1'
_cell_length_a   8.72190616
_cell_length_b   8.68654370
_cell_length_c   21.92884732
_cell_angle_alpha   90.61121928
_cell_angle_beta   90.00000000
_cell_angle_gamma   120.13475747
_symmetry_Int_Tables_number   1
_chemical_formula_structural   Na2ZnGeP2SO12
_chemical_formula_sum   'Na12 Zn6 Ge6 P12 S6 O72'
_cell_volume   1436.74759856
_cell_formula_units_Z   6
loop_
 _symmetry_equiv_pos_site_id
 _symmetry_equiv_pos_as_xyz
  1  'x, y, z'
loop_
 _atom_site_type_symbol
 _atom_site_label
 _atom_site_symmetry_multiplicity
 _atom_site_fract_x
 _atom_site_fract_y
 _atom_site_fract_z
 _atom_site_occupancy
  Na  Na0  1  0.99221382  0.63220965  0.24552441  1
  Na  Na1  1  0.63999583  0.63220965  0.74552441  1
  Na  Na2  1  0.65888082  0.96554265  0.57885741  1
  Na  Na3  1  0.30666283  0.96554265  0.07885741  1
  Na  Na4  1  0.32554682  0.29887665  0.91219141  1
  Na  Na5  1  0.97332883  0.29887665  0.41219141  1
  Na  Na6  1  0.00358000  0.98187373  0.49619212  1
  Na  Na7  1  0.97829373  0.98187373  0.99619212  1
  Na  Na8  1  0.67024700  0.31520673  0.82952512  1
  Na  Na9  1  0.64496073  0.31520673  0.32952512  1
  Na  Na10  1  0.33691300  0.64854073  0.16285912  1
  Na  Na11  1  0.31162673  0.64854073  0.66285912  1
  Zn  Zn12  1  0.99942009  0.99637728  0.35131630  1
  Zn  Zn13  1  0.99695719  0.99637728  0.85131630  1
  Zn  Zn14  1  0.66608709  0.32971028  0.68464930  1
  Zn  Zn15  1  0.66362419  0.32971028  0.18464930  1
  Zn  Zn16  1  0.33275309  0.66304428  0.01798330  1
  Zn  Zn17  1  0.33029019  0.66304428  0.51798330  1
  Ge  Ge18  1  0.99293129  0.00812448  0.64934145  1
  Ge  Ge19  1  0.01519319  0.00812448  0.14934145  1
  Ge  Ge20  1  0.65959829  0.34145748  0.98267445  1
  Ge  Ge21  1  0.68186019  0.34145748  0.48267445  1
  Ge  Ge22  1  0.32626429  0.67479148  0.31600845  1
  Ge  Ge23  1  0.34852619  0.67479148  0.81600845  1
  P  P24  1  0.29571139  0.00084536  0.25200127  1
  P  P25  1  0.00742074  0.29345310  0.25326842  1
  P  P26  1  0.28603237  0.29345310  0.75326842  1
  P  P27  1  0.70513398  0.00084536  0.75200127  1
  P  P28  1  0.96237839  0.33417836  0.58533427  1
  P  P29  1  0.67408774  0.62678610  0.58660142  1
  P  P30  1  0.95269937  0.62678610  0.08660142  1
  P  P31  1  0.37180098  0.33417836  0.08533427  1
  P  P32  1  0.62904439  0.66751236  0.91866827  1
  P  P33  1  0.34075374  0.96012010  0.91993542  1
  P  P34  1  0.61936537  0.96012010  0.41993542  1
  P  P35  1  0.03846698  0.66751236  0.41866827  1
  S  S36  1  0.70072396  0.71334201  0.25013635  1
  S  S37  1  0.01261805  0.71334201  0.75013635  1
  S  S38  1  0.36739096  0.04667501  0.58346935  1
  S  S39  1  0.67928505  0.04667501  0.08346935  1
  S  S40  1  0.03405696  0.38000901  0.91680335  1
  S  S41  1  0.34595105  0.38000901  0.41680335  1
  O  O42  1  0.20544128  0.02118826  0.30690681  1
  O  O43  1  0.80853538  0.79104266  0.30476356  1
  O  O44  1  0.98157558  0.19201482  0.31137036  1
  O  O45  1  0.21043923  0.19201482  0.81137036  1
  O  O46  1  0.98250727  0.79104266  0.80476356  1
  O  O47  1  0.81574698  0.02118826  0.80690681  1
  O  O48  1  0.78088970  0.95316193  0.69140746  1
  O  O49  1  0.16353088  0.20336944  0.69456600  1
  O  O50  1  0.04070584  0.82489965  0.69386198  1
  O  O51  1  0.78419381  0.82489965  0.19386198  1
  O  O52  1  0.03983856  0.20336944  0.19456600  1
  O  O53  1  0.17227223  0.95316193  0.19140746  1
  O  O54  1  0.87210828  0.35452126  0.64023981  1
  O  O55  1  0.47520238  0.12437566  0.63809656  1
  O  O56  1  0.64824258  0.52534782  0.64470336  1
  O  O57  1  0.87710623  0.52534782  0.14470336  1
  O  O58  1  0.64917427  0.12437566  0.13809656  1
  O  O59  1  0.48241398  0.35452126  0.14023981  1
  O  O60  1  0.44755670  0.28649493  0.02474046  1
  O  O61  1  0.83019788  0.53670244  0.02789900  1
  O  O62  1  0.70737284  0.15823265  0.02719498  1
  O  O63  1  0.45086081  0.15823265  0.52719498  1
  O  O64  1  0.70650556  0.53670244  0.52789900  1
  O  O65  1  0.83893923  0.28649493  0.52474046  1
  O  O66  1  0.53877428  0.68785526  0.97357381  1
  O  O67  1  0.14186838  0.45770966  0.97143056  1
  O  O68  1  0.31490858  0.85868182  0.97803736  1
  O  O69  1  0.54377223  0.85868182  0.47803736  1
  O  O70  1  0.31584027  0.45770966  0.47143056  1
  O  O71  1  0.14907998  0.68785526  0.47357381  1
  O  O72  1  0.11422270  0.61982893  0.35807446  1
  O  O73  1  0.49686388  0.87003644  0.36123300  1
  O  O74  1  0.37403884  0.49156665  0.36052898  1
  O  O75  1  0.11752681  0.49156665  0.86052898  1
  O  O76  1  0.37317156  0.87003644  0.86123300  1
  O  O77  1  0.50560523  0.61982893  0.85807446  1
  O  O78  1  0.00931391  0.82285584  0.41059851  1
  O  O79  1  0.80798751  0.99514567  0.41138421  1
  O  O80  1  0.18807120  0.20170579  0.41035548  1
  O  O81  1  0.01363459  0.20170579  0.91035548  1
  O  O82  1  0.18715816  0.99514567  0.91138421  1
  O  O83  1  0.81354193  0.82285584  0.91059851  1
  O  O84  1  0.96768158  0.15133610  0.58909170  1
  O  O85  1  0.18873073  0.03244221  0.58787744  1
  O  O86  1  0.85196772  0.81931202  0.59003616  1
  O  O87  1  0.96734430  0.81931202  0.09003616  1
  O  O88  1  0.84371148  0.03244221  0.08787744  1
  O  O89  1  0.18365452  0.15133610  0.08909170  1
  O  O90  1  0.67598091  0.15618884  0.74393151  1
  O  O91  1  0.47465451  0.32847867  0.74471721  1
  O  O92  1  0.85473820  0.53503879  0.74368848  1
  O  O93  1  0.68030159  0.53503879  0.24368848  1
  O  O94  1  0.85382516  0.32847867  0.24471721  1
  O  O95  1  0.48020893  0.15618884  0.24393151  1
  O  O96  1  0.63434858  0.48466910  0.92242470  1
  O  O97  1  0.85539773  0.36577521  0.92121044  1
  O  O98  1  0.51863472  0.15264502  0.92336916  1
  O  O99  1  0.63401130  0.15264502  0.42336916  1
  O  O100  1  0.51037848  0.36577521  0.42121044  1
  O  O101  1  0.85032152  0.48466910  0.42242470  1
  O  O102  1  0.34264691  0.48952284  0.07726551  1
  O  O103  1  0.14132051  0.66181267  0.07805121  1
  O  O104  1  0.52140420  0.86837279  0.07702248  1
  O  O105  1  0.34696759  0.86837279  0.57702248  1
  O  O106  1  0.52049116  0.66181267  0.57805121  1
  O  O107  1  0.14687493  0.48952284  0.57726551  1
  O  O108  1  0.30101458  0.81800310  0.25575870  1
  O  O109  1  0.52206373  0.69910921  0.25454444  1
  O  O110  1  0.18530072  0.48597902  0.25670316  1
  O  O111  1  0.30067730  0.48597902  0.75670316  1
  O  O112  1  0.17704448  0.69910921  0.75454444  1
  O  O113  1  0.51698752  0.81800310  0.75575870  1
