# generated using pymatgen
data_Na9Mg2Nb10Si9(PO8)9
_symmetry_space_group_name_H-M   'P 1'
_cell_length_a   8.90470805
_cell_length_b   8.89750182
_cell_length_c   22.73459084
_cell_angle_alpha   90.01018454
_cell_angle_beta   89.98767067
_cell_angle_gamma   119.90049483
_symmetry_Int_Tables_number   1
_chemical_formula_structural   Na9Mg2Nb10Si9(PO8)9
_chemical_formula_sum   'Na9 Mg2 Nb10 Si9 P9 O72'
_cell_volume   1561.49327806
_cell_formula_units_Z   1
loop_
 _symmetry_equiv_pos_site_id
 _symmetry_equiv_pos_as_xyz
  1  'x, y, z'
loop_
 _atom_site_type_symbol
 _atom_site_label
 _atom_site_symmetry_multiplicity
 _atom_site_fract_x
 _atom_site_fract_y
 _atom_site_fract_z
 _atom_site_occupancy
  Na  Na0  1  0.63266065  0.00676788  0.24688698  1
  Na  Na1  1  0.37568509  0.36515466  0.24604176  1
  Na  Na2  1  0.99301221  0.36670383  0.74641633  1
  Na  Na3  1  0.00024539  0.99937768  0.49876807  1
  Na  Na4  1  0.99972054  0.99912295  0.99935037  1
  Na  Na5  1  0.65452865  0.33216214  0.82766837  1
  Na  Na6  1  0.67883783  0.34439296  0.32867272  1
  Na  Na7  1  0.32459259  0.66513789  0.16495091  1
  Na  Na8  1  0.34260811  0.67425778  0.66580589  1
  Mg  Mg9  1  0.65858243  0.33268158  0.68604937  1
  Mg  Mg10  1  0.67526149  0.34102752  0.18571586  1
  Nb  Nb11  1  0.99263476  0.99735562  0.35637144  1
  Nb  Nb12  1  0.00644319  0.00363248  0.85619150  1
  Nb  Nb13  1  0.00261643  0.00253185  0.64546030  1
  Nb  Nb14  1  0.99732559  0.00070554  0.14557884  1
  Nb  Nb15  1  0.66737221  0.33457122  0.97771683  1
  Nb  Nb16  1  0.66615696  0.33430913  0.47803102  1
  Nb  Nb17  1  0.33315652  0.66598559  0.01983981  1
  Nb  Nb18  1  0.33315823  0.66611056  0.52016990  1
  Nb  Nb19  1  0.32967822  0.66324493  0.31364754  1
  Nb  Nb20  1  0.33795764  0.66757971  0.81284535  1
  Si  Si21  1  0.71125136  0.70500557  0.25023125  1
  Si  Si22  1  0.99672802  0.29180102  0.24992937  1
  Si  Si23  1  0.29873895  0.29095414  0.74997930  1
  Si  Si24  1  0.62314349  0.66831181  0.91689746  1
  Si  Si25  1  0.04560166  0.37983445  0.91624268  1
  Si  Si26  1  0.33458328  0.95430124  0.91678351  1
  Si  Si27  1  0.61957059  0.95485706  0.41680761  1
  Si  Si28  1  0.33232921  0.37658241  0.41695810  1
  Si  Si29  1  0.04490131  0.66756800  0.41739818  1
  P  P30  1  0.28474920  0.99753049  0.24988678  1
  P  P31  1  0.99875712  0.71142440  0.75010423  1
  P  P32  1  0.71175987  -0.00057108  0.74979443  1
  P  P33  1  0.95417803  0.33454347  0.58581977  1
  P  P34  1  0.38099037  0.04574609  0.58509783  1
  P  P35  1  0.66613156  0.62051738  0.58507690  1
  P  P36  1  0.95535013  0.62102347  0.08453668  1
  P  P37  1  0.66474699  0.04482939  0.08525520  1
  P  P38  1  0.37886991  0.33337404  0.08523110  1
  O  O39  1  0.19811327  0.02537069  0.30429456  1
  O  O40  1  0.83316541  0.80779725  0.30698548  1
  O  O41  1  0.97828357  0.16761120  0.30639929  1
  O  O42  1  0.18724578  0.16835980  0.80649940  1
  O  O43  1  0.97697105  0.80278832  0.80472825  1
  O  O44  1  0.82624294  0.02101079  0.80414005  1
  O  O45  1  0.79952206  0.96950601  0.69443305  1
  O  O46  1  0.16189845  0.19275778  0.69332930  1
  O  O47  1  0.02471560  0.82825981  0.69508069  1
  O  O48  1  0.80706382  0.83776416  0.19330451  1
  O  O49  1  0.03627223  0.19780665  0.19257423  1
  O  O50  1  0.16969497  0.96900441  0.19448364  1
  O  O51  1  0.88057822  0.36196129  0.64179303  1
  O  O52  1  0.48825722  0.12259973  0.63896271  1
  O  O53  1  0.63635833  0.51297298  0.63889556  1
  O  O54  1  0.87888555  0.51347622  0.13872569  1
  O  O55  1  0.63639332  0.11840688  0.14124216  1
  O  O56  1  0.48062864  0.36116503  0.14122433  1
  O  O57  1  0.46943761  0.30949139  0.03015580  1
  O  O58  1  0.84222207  0.53490364  0.02863476  1
  O  O59  1  0.69183382  0.15974134  0.03020900  1
  O  O60  1  0.46357190  0.15846813  0.52888820  1
  O  O61  1  0.69308764  0.53485996  0.52882283  1
  O  O62  1  0.83952455  0.30753962  0.53062655  1
  O  O63  1  0.52943774  0.69655436  0.97399914  1
  O  O64  1  0.16834862  0.47141921  0.97332178  1
  O  O65  1  0.30426531  0.83289971  0.97419307  1
  O  O66  1  0.52653800  0.83191895  0.47360420  1
  O  O67  1  0.30407581  0.47156789  0.47361076  1
  O  O68  1  0.16644655  0.69466345  0.47439705  1
  O  O69  1  0.13603150  0.63478084  0.35958385  1
  O  O70  1  0.50345680  0.86948731  0.35741049  1
  O  O71  1  0.36623070  0.49755952  0.35794768  1
  O  O72  1  0.13202400  0.49807596  0.85730150  1
  O  O73  1  0.36505390  0.86346790  0.85902933  1
  O  O74  1  0.49818049  0.63401549  0.85924843  1
  O  O75  1  0.02691924  0.83840035  0.40971596  1
  O  O76  1  0.81097815  0.97524383  0.41056382  1
  O  O77  1  0.16412684  0.18681856  0.40908782  1
  O  O78  1  0.02257490  0.18746651  0.90879325  1
  O  O79  1  0.16306332  0.97356108  0.90925370  1
  O  O80  1  0.81225788  0.83695518  0.90810838  1
  O  O81  1  0.97375080  0.16716931  0.58984736  1
  O  O82  1  0.19303493  0.02360129  0.59068178  1
  O  O83  1  0.83093267  0.80690410  0.58980537  1
  O  O84  1  0.97692679  0.80733322  0.08922499  1
  O  O85  1  0.83177581  0.02543132  0.08920751  1
  O  O86  1  0.19382668  0.16769525  0.08851910  1
  O  O87  1  0.70264555  0.16439152  0.74412862  1
  O  O88  1  0.48286454  0.30929408  0.74695940  1
  O  O89  1  0.84599909  0.52928032  0.74472403  1
  O  O90  1  0.67557634  0.51266766  0.24619712  1
  O  O91  1  0.82214669  0.29674920  0.24557947  1
  O  O92  1  0.46412538  0.15668237  0.24364441  1
  O  O93  1  0.63983603  0.49539825  0.92620606  1
  O  O94  1  0.85471654  0.35928166  0.92626476  1
  O  O95  1  0.50402244  0.14524211  0.92651142  1
  O  O96  1  0.64087845  0.14600480  0.42651469  1
  O  O97  1  0.50555873  0.36053823  0.42613578  1
  O  O98  1  0.85532891  0.49546321  0.42644352  1
  O  O99  1  0.35332976  0.49377846  0.07569469  1
  O  O100  1  0.14113708  0.64627512  0.07501319  1
  O  O101  1  0.50606835  0.85902832  0.07564460  1
  O  O102  1  0.35257323  0.85895084  0.57529316  1
  O  O103  1  0.50636089  0.64705050  0.57527515  1
  O  O104  1  0.14024785  0.49264774  0.57592527  1
  O  O105  1  0.30390508  0.83332383  0.25529493  1
  O  O106  1  0.52347044  0.70312090  0.25573089  1
  O  O107  1  0.17908751  0.47836902  0.25539185  1
  O  O108  1  0.29626826  0.47687294  0.75555860  1
  O  O109  1  0.16834601  0.69935134  0.75522441  1
  O  O110  1  0.53066560  0.83377705  0.75554499  1
