# generated using pymatgen
data_Na7Y2Si3Ge2(PO8)3
_symmetry_space_group_name_H-M   'P 1'
_cell_length_a   9.05636511
_cell_length_b   9.06165914
_cell_length_c   22.28139548
_cell_angle_alpha   89.86469420
_cell_angle_beta   89.41873210
_cell_angle_gamma   119.75861089
_symmetry_Int_Tables_number   1
_chemical_formula_structural   Na7Y2Si3Ge2(PO8)3
_chemical_formula_sum   'Na21 Y6 Si9 Ge6 P9 O72'
_cell_volume   1587.25898096
_cell_formula_units_Z   3
loop_
 _symmetry_equiv_pos_site_id
 _symmetry_equiv_pos_as_xyz
  1  'x, y, z'
loop_
 _atom_site_type_symbol
 _atom_site_label
 _atom_site_symmetry_multiplicity
 _atom_site_fract_x
 _atom_site_fract_y
 _atom_site_fract_z
 _atom_site_occupancy
  Na  Na0  1  0.62361583  0.00215049  0.25480343  1
  Na  Na1  1  0.37438509  0.37717713  0.24776176  1
  Na  Na2  1  0.00063554  0.61333647  0.25076940  1
  Na  Na3  1  0.63432996  0.63476415  0.74519967  1
  Na  Na4  1  0.99233002  0.36618293  0.74530719  1
  Na  Na5  1  0.37799413  0.00335636  0.74215258  1
  Na  Na6  1  0.02776157  0.69297587  0.58248331  1
  Na  Na7  1  0.66363337  0.96815211  0.58085523  1
  Na  Na8  1  0.66848167  0.68565936  0.08231649  1
  Na  Na9  1  0.02230380  0.33797885  0.08765291  1
  Na  Na10  1  0.95853839  0.66350058  0.92366121  1
  Na  Na11  1  0.70050174  0.03212110  0.91969563  1
  Na  Na12  1  0.34143171  0.30255422  0.92138209  1
  Na  Na13  1  0.97065093  0.30509198  0.41671309  1
  Na  Na14  1  0.33408679  0.03074001  0.41960657  1
  Na  Na15  1  0.99947710  0.00003024  0.49959253  1
  Na  Na16  1  0.01182733  0.99581110  0.00666852  1
  Na  Na17  1  0.66669092  0.33336016  0.83285127  1
  Na  Na18  1  0.67640131  0.34752041  0.34153806  1
  Na  Na19  1  0.32315488  0.66842411  0.16272513  1
  Na  Na20  1  0.33425341  0.65600721  0.65718519  1
  Y  Y21  1  0.99542753  0.99785063  0.85440179  1
  Y  Y22  1  0.67018279  0.33370116  0.67158964  1
  Y  Y23  1  0.67145778  0.33417432  0.18265242  1
  Y  Y24  1  0.66396592  0.33763237  0.99274089  1
  Y  Y25  1  0.32743898  0.66057121  0.32104256  1
  Y  Y26  1  0.33964205  0.67050379  0.81076320  1
  Si  Si27  1  0.99821268  0.27264903  0.25297649  1
  Si  Si28  1  0.71411796  0.00384495  0.74360905  1
  Si  Si29  1  0.98018213  0.33919743  0.57909420  1
  Si  Si30  1  0.36266256  0.02936974  0.58060760  1
  Si  Si31  1  0.98969195  0.65704099  0.08477145  1
  Si  Si32  1  0.34937074  0.33310544  0.08411857  1
  Si  Si33  1  0.62274094  0.66281189  0.91997082  1
  Si  Si34  1  0.63068265  0.96770895  0.41816108  1
  Si  Si35  1  0.02094411  0.66319287  0.41833636  1
  Ge  Ge36  1  0.98140909  0.98666496  0.35661821  1
  Ge  Ge37  1  0.01032553  0.01586110  0.64268764  1
  Ge  Ge38  1  0.01006785  0.00561757  0.14831485  1
  Ge  Ge39  1  0.66732006  0.32749657  0.48568575  1
  Ge  Ge40  1  0.33338656  0.66554657  0.02076315  1
  Ge  Ge41  1  0.32929372  0.67382692  0.51265410  1
  P  P42  1  0.27236937  0.99951839  0.25301326  1
  P  P43  1  0.72567760  0.72450582  0.25073246  1
  P  P44  1  0.28889244  0.28787110  0.74501667  1
  P  P45  1  0.99843120  0.71231402  0.74342663  1
  P  P46  1  0.65964930  0.63193102  0.57967102  1
  P  P47  1  0.66538816  0.01501704  0.08507285  1
  P  P48  1  0.04466629  0.37891576  0.92089275  1
  P  P49  1  0.33757769  0.95571036  0.92033514  1
  P  P50  1  0.34103337  0.37073425  0.41941311  1
  O  O51  1  0.18789511  0.01729968  0.31162493  1
  O  O52  1  0.83216562  0.80612220  0.30776776  1
  O  O53  1  0.98137981  0.16161455  0.31467670  1
  O  O54  1  0.21907880  0.19554422  0.80540036  1
  O  O55  1  0.98648833  0.78981730  0.80342908  1
  O  O56  1  0.80935028  0.02386307  0.80708939  1
  O  O57  1  0.82137811  0.98327147  0.68516068  1
  O  O58  1  0.17447562  0.18599857  0.69170737  1
  O  O59  1  0.01742913  0.82654406  0.68805665  1
  O  O60  1  0.81240057  0.82714427  0.19306748  1
  O  O61  1  0.00930138  0.17578499  0.19237948  1
  O  O62  1  0.16573477  0.97852594  0.19660492  1
  O  O63  1  0.92451678  0.39362910  0.64089441  1
  O  O64  1  0.47112438  0.08823360  0.64143718  1
  O  O65  1  0.63049790  0.54718043  0.64176712  1
  O  O66  1  0.91145335  0.52363301  0.14156763  1
  O  O67  1  0.63547851  0.09685798  0.14072784  1
  O  O68  1  0.47969375  0.38035065  0.14006146  1
  O  O69  1  0.42053884  0.29662949  0.02286150  1
  O  O70  1  0.86275846  0.58096765  0.02774561  1
  O  O71  1  0.70529109  0.12910918  0.02928637  1
  O  O72  1  0.46701097  0.16320296  0.52505153  1
  O  O73  1  0.69442801  0.52436490  0.53268959  1
  O  O74  1  0.83042030  0.29272207  0.52788563  1
  O  O75  1  0.51333969  0.67913355  0.97761833  1
  O  O76  1  0.15289293  0.47796327  0.97570195  1
  O  O77  1  0.31861753  0.83421011  0.97241450  1
  O  O78  1  0.52775976  0.83775176  0.47423889  1
  O  O79  1  0.30519062  0.47497136  0.46702419  1
  O  O80  1  0.16609307  0.71020665  0.47096791  1
  O  O81  1  0.08146329  0.60901447  0.35722439  1
  O  O82  1  0.52163782  0.90484155  0.35717136  1
  O  O83  1  0.37176261  0.45913161  0.35757172  1
  O  O84  1  0.11645399  0.47337674  0.86124241  1
  O  O85  1  0.35054310  0.88462508  0.85913655  1
  O  O86  1  0.52693805  0.64315806  0.85692279  1
  O  O87  1  0.01801921  0.84597987  0.41027687  1
  O  O88  1  0.82541347  0.99120314  0.41326695  1
  O  O89  1  0.17627357  0.19084438  0.41831843  1
  O  O90  1  0.03963706  0.20594461  0.92257585  1
  O  O91  1  0.17723702  0.97462104  0.92316002  1
  O  O92  1  0.80856766  0.83520557  0.92487799  1
  O  O93  1  0.98559769  0.15873910  0.58598819  1
  O  O94  1  0.16618252  0.00190469  0.58808301  1
  O  O95  1  0.82647675  0.81043788  0.58001535  1
  O  O96  1  0.99499206  0.83848997  0.09658738  1
  O  O97  1  0.82502568  0.99426335  0.09245591  1
  O  O98  1  0.15674550  0.16910404  0.09388167  1
  O  O99  1  0.69388976  0.17339597  0.74242486  1
  O  O100  1  0.46969643  0.31423182  0.74022296  1
  O  O101  1  0.83540416  0.53697525  0.74216965  1
  O  O102  1  0.70526338  0.54463532  0.24921891  1
  O  O103  1  0.82741345  0.29175149  0.25337456  1
  O  O104  1  0.44998552  0.16061357  0.24949989  1
  O  O105  1  0.64611111  0.49527385  0.92084676  1
  O  O106  1  0.86263845  0.34975652  0.92515277  1
  O  O107  1  0.49977780  0.13011992  0.92419211  1
  O  O108  1  0.65224057  0.16020881  0.42841172  1
  O  O109  1  0.49773399  0.34725752  0.42992044  1
  O  O110  1  0.83624574  0.49124154  0.43319062  1
  O  O111  1  0.33018037  0.50572648  0.07682588  1
  O  O112  1  0.17546606  0.67097862  0.07300223  1
  O  O113  1  0.50765760  0.83603206  0.07786886  1
  O  O114  1  0.34236245  0.83784365  0.56985031  1
  O  O115  1  0.50448434  0.65627827  0.56848647  1
  O  O116  1  0.16387012  0.51039429  0.56404980  1
  O  O117  1  0.29365350  0.83994954  0.25326407  1
  O  O118  1  0.54803284  0.70947368  0.25302152  1
  O  O119  1  0.16982394  0.46112429  0.25057269  1
  O  O120  1  0.29304493  0.45980822  0.74324194  1
  O  O121  1  0.15760558  0.69197601  0.74213112  1
  O  O122  1  0.52820592  0.83160607  0.74000860  1
