# generated using pymatgen
data_Na4SnTe4
_symmetry_space_group_name_H-M   'P 1'
_cell_length_a   8.65481270
_cell_length_b   8.81887442
_cell_length_c   15.33822482
_cell_angle_alpha   90.00000000
_cell_angle_beta   90.00000000
_cell_angle_gamma   90.00000000
_symmetry_Int_Tables_number   1
_chemical_formula_structural   Na4SnTe4
_chemical_formula_sum   'Na16 Sn4 Te16'
_cell_volume   1170.70084323
_cell_formula_units_Z   4
loop_
 _symmetry_equiv_pos_site_id
 _symmetry_equiv_pos_as_xyz
  1  'x, y, z'
loop_
 _atom_site_type_symbol
 _atom_site_label
 _atom_site_symmetry_multiplicity
 _atom_site_fract_x
 _atom_site_fract_y
 _atom_site_fract_z
 _atom_site_occupancy
  Na  Na0  1  0.98685991  0.95531213  0.58811927  1
  Na  Na1  1  0.48685991  0.54468787  0.41188073  1
  Na  Na2  1  0.01314009  0.45531213  0.91188073  1
  Na  Na3  1  0.51314009  0.04468787  0.08811927  1
  Na  Na4  1  0.62557459  0.76330599  0.63433949  1
  Na  Na5  1  0.12557459  0.73669401  0.36566051  1
  Na  Na6  1  0.37442541  0.26330599  0.86566051  1
  Na  Na7  1  0.87442541  0.23669401  0.13433949  1
  Na  Na8  1  0.66761311  0.62946321  0.13226243  1
  Na  Na9  1  0.16761311  0.87053679  0.86773757  1
  Na  Na10  1  0.33238689  0.12946321  0.36773757  1
  Na  Na11  1  0.83238689  0.37053679  0.63226243  1
  Na  Na12  1  0.88196122  0.35957816  0.37175995  1
  Na  Na13  1  0.38196122  0.14042184  0.62824005  1
  Na  Na14  1  0.11803878  0.85957816  0.12824005  1
  Na  Na15  1  0.61803878  0.64042184  0.87175995  1
  Sn  Sn16  1  0.77814078  0.06620264  0.87366657  1
  Sn  Sn17  1  0.27814078  0.43379736  0.12633343  1
  Sn  Sn18  1  0.22185922  0.56620264  0.62633343  1
  Sn  Sn19  1  0.72185922  0.93379736  0.37366657  1
  Te  Te20  1  0.81409658  0.68356883  0.46909013  1
  Te  Te21  1  0.31409658  0.81643117  0.53090987  1
  Te  Te22  1  0.18590342  0.18356883  0.03090987  1
  Te  Te23  1  0.68590342  0.31643117  0.96909013  1
  Te  Te24  1  0.48557367  0.84644058  0.26341301  1
  Te  Te25  1  0.98557367  0.65355942  0.73658699  1
  Te  Te26  1  0.51442633  0.34644058  0.23658699  1
  Te  Te27  1  0.01442633  0.15355942  0.76341301  1
  Te  Te28  1  0.64563799  0.16541312  0.48800884  1
  Te  Te29  1  0.14563799  0.33458688  0.51199116  1
  Te  Te30  1  0.35436201  0.66541312  0.01199116  1
  Te  Te31  1  0.85436201  0.83458688  0.98800884  1
  Te  Te32  1  0.98389063  0.04200453  0.29025047  1
  Te  Te33  1  0.48389063  0.45799547  0.70974953  1
  Te  Te34  1  0.01610937  0.54200453  0.20974953  1
  Te  Te35  1  0.51610937  0.95799547  0.79025047  1
