# generated using pymatgen
data_MgFe12(OF)12
_symmetry_space_group_name_H-M   'P 1'
_cell_length_a   9.85391155
_cell_length_b   14.52425566
_cell_length_c   3.10251900
_cell_angle_alpha   90.00000000
_cell_angle_beta   90.00000000
_cell_angle_gamma   92.33384377
_symmetry_Int_Tables_number   1
_chemical_formula_structural   MgFe12(OF)12
_chemical_formula_sum   'Mg1 Fe12 O12 F12'
_cell_volume   443.66646591
_cell_formula_units_Z   1
loop_
 _symmetry_equiv_pos_site_id
 _symmetry_equiv_pos_as_xyz
  1  'x, y, z'
loop_
 _atom_site_type_symbol
 _atom_site_label
 _atom_site_symmetry_multiplicity
 _atom_site_fract_x
 _atom_site_fract_y
 _atom_site_fract_z
 _atom_site_occupancy
  Mg  Mg0  1  0.49691600  0.17873900  0.00000000  1
  Fe  Fe1  1  0.01778100  0.99121800  0.00000000  1
  Fe  Fe2  1  0.00769900  0.34048000  0.00000000  1
  Fe  Fe3  1  0.01477300  0.67383500  0.00000000  1
  Fe  Fe4  1  0.19411700  0.17141600  0.50000000  1
  Fe  Fe5  1  0.23194800  0.49400200  0.50000000  1
  Fe  Fe6  1  0.26527700  0.85906100  0.50000000  1
  Fe  Fe7  1  0.48086300  0.39033500  0.00000000  1
  Fe  Fe8  1  0.54290700  0.97127400  0.00000000  1
  Fe  Fe9  1  0.51618000  0.66108100  0.00000000  1
  Fe  Fe10  1  0.77432500  0.13005500  0.50000000  1
  Fe  Fe11  1  0.73306400  0.50515300  0.50000000  1
  Fe  Fe12  1  0.74371000  0.81829600  0.50000000  1
  O  O13  1  0.07521400  0.27319400  0.50000000  1
  O  O14  1  0.10638500  0.92926500  0.50000000  1
  O  O15  1  0.14634500  0.10072700  0.00000000  1
  O  O16  1  0.12772700  0.44809500  0.00000000  1
  O  O17  1  0.36633500  0.91096700  0.00000000  1
  O  O18  1  0.36963500  0.40928500  0.50000000  1
  O  O19  1  0.62477400  0.92481300  0.50000000  1
  O  O20  1  0.59030600  0.59695200  0.50000000  1
  O  O21  1  0.65113500  0.09247300  0.00000000  1
  O  O22  1  0.66921700  0.43809100  0.00000000  1
  O  O23  1  0.66214700  0.75910800  0.00000000  1
  O  O24  1  0.91116100  0.04770000  0.50000000  1
  F  F25  1  0.11212700  0.61071700  0.50000000  1
  F  F26  1  0.18300800  0.77511700  0.00000000  1
  F  F27  1  0.31949000  0.23520200  0.00000000  1
  F  F28  1  0.33586300  0.57561800  0.00000000  1
  F  F29  1  0.41602400  0.09842600  0.50000000  1
  F  F30  1  0.41679400  0.73220100  0.50000000  1
  F  F31  1  0.57116800  0.25058300  0.50000000  1
  F  F32  1  0.83934900  0.21779400  0.00000000  1
  F  F33  1  0.85734000  0.88438700  0.00000000  1
  F  F34  1  0.85185400  0.57038300  0.00000000  1
  F  F35  1  0.89396100  0.39632600  0.50000000  1
  F  F36  1  0.91165200  0.73669900  0.50000000  1
