# generated using pymatgen
data_Na3LaSn3(PO4)6
_symmetry_space_group_name_H-M   'P 1'
_cell_length_a   9.00900557
_cell_length_b   9.03115443
_cell_length_c   23.02681513
_cell_angle_alpha   89.78149186
_cell_angle_beta   90.18914410
_cell_angle_gamma   120.19395527
_symmetry_Int_Tables_number   1
_chemical_formula_structural   Na3LaSn3(PO4)6
_chemical_formula_sum   'Na9 La3 Sn9 P18 O72'
_cell_volume   1619.30552882
_cell_formula_units_Z   3
loop_
 _symmetry_equiv_pos_site_id
 _symmetry_equiv_pos_as_xyz
  1  'x, y, z'
loop_
 _atom_site_type_symbol
 _atom_site_label
 _atom_site_symmetry_multiplicity
 _atom_site_fract_x
 _atom_site_fract_y
 _atom_site_fract_z
 _atom_site_occupancy
  Na  Na0  1  0.35821144  0.35162115  0.24628519  1
  Na  Na1  1  0.63386913  0.62776611  0.75008281  1
  Na  Na2  1  0.97030059  0.29602523  0.41608517  1
  Na  Na3  1  0.00022107  0.98832676  0.50386495  1
  Na  Na4  1  0.00006152  0.00031557  0.00286161  1
  Na  Na5  1  0.66735628  0.32037850  0.83699349  1
  Na  Na6  1  0.66716440  0.33336025  0.32931896  1
  Na  Na7  1  0.33243378  0.67971807  0.16322022  1
  Na  Na8  1  0.31853833  0.66719730  0.66491185  1
  La  La9  1  0.99495536  0.98221636  0.35588143  1
  La  La10  1  0.66761974  0.32260064  0.68488321  1
  La  La11  1  0.67861183  0.33372223  0.17439089  1
  Sn  Sn12  1  0.00411161  0.00336410  0.85727736  1
  Sn  Sn13  1  0.00282297  0.00332307  0.64794829  1
  Sn  Sn14  1  0.99693854  0.99696337  0.14667015  1
  Sn  Sn15  1  0.66634251  0.33371122  0.98295566  1
  Sn  Sn16  1  0.66088627  0.33403821  0.48473244  1
  Sn  Sn17  1  0.33356722  0.66490405  0.01269423  1
  Sn  Sn18  1  0.33936364  0.66956874  0.52021477  1
  Sn  Sn19  1  0.33606192  0.67495187  0.31495598  1
  Sn  Sn20  1  0.32787221  0.66729578  0.81723068  1
  P  P21  1  0.29167766  0.98865640  0.24768231  1
  P  P22  1  0.69045653  0.70430543  0.24746345  1
  P  P23  1  0.01122307  0.30383738  0.25341137  1
  P  P24  1  0.27884406  0.29486800  0.75393118  1
  P  P25  1  0.01431469  0.72618820  0.75362293  1
  P  P26  1  0.71001276  0.98749168  0.75524921  1
  P  P27  1  0.97285482  0.33036133  0.57961610  1
  P  P28  1  0.35749800  0.02715333  0.58095663  1
  P  P29  1  0.67051676  0.63959051  0.58421349  1
  P  P30  1  0.97815082  0.64556338  0.07785541  1
  P  P31  1  0.66679928  0.02343882  0.07843726  1
  P  P32  1  0.35787993  0.33265837  0.08100438  1
  P  P33  1  0.62687339  0.66284702  0.91506130  1
  P  P34  1  0.03564788  0.37283667  0.91631391  1
  P  P35  1  0.33759046  0.96299562  0.91620150  1
  P  P36  1  0.61278744  0.96703547  0.42042833  1
  P  P37  1  0.35113057  0.39129942  0.41847652  1
  P  P38  1  0.03886222  0.64986376  0.42202506  1
  O  O39  1  0.21658480  0.01788038  0.30265189  1
  O  O40  1  0.78817650  0.77671451  0.30362537  1
  O  O41  1  0.99649948  0.21349528  0.31107437  1
  O  O42  1  0.19484581  0.18773177  0.80853648  1
  O  O43  1  0.99037840  0.81239985  0.80754765  1
  O  O44  1  0.81613712  0.00375191  0.80943260  1
  O  O45  1  0.79093710  0.96220169  0.69862385  1
  O  O46  1  0.17768375  0.21179564  0.69686824  1
  O  O47  1  0.03515634  0.82816607  0.69647608  1
  O  O48  1  0.78526020  0.81407050  0.19285715  1
  O  O49  1  0.03408852  0.20676786  0.20041065  1
  O  O50  1  0.17968188  0.96870119  0.19294806  1
  O  O51  1  0.89883569  0.36401398  0.63339816  1
  O  O52  1  0.46026615  0.09588992  0.63623088  1
  O  O53  1  0.63945143  0.54294335  0.64130423  1
  O  O54  1  0.92164943  0.54995285  0.13497992  1
  O  O55  1  0.62697457  0.08050282  0.13502399  1
  O  O56  1  0.44999901  0.36615427  0.13920421  1
  O  O57  1  0.45806212  0.30347840  0.03093855  1
  O  O58  1  0.84984097  0.54736146  0.02703201  1
  O  O59  1  0.69841545  0.15126667  0.02735522  1
  O  O60  1  0.44860156  0.14720743  0.52788646  1
  O  O61  1  0.69731024  0.54441916  0.53218961  1
  O  O62  1  0.85722254  0.30284903  0.52468055  1
  O  O63  1  0.53902342  0.69284571  0.96668571  1
  O  O64  1  0.15064307  0.45599041  0.96939088  1
  O  O65  1  0.30630961  0.84771762  0.96898936  1
  O  O66  1  0.52715100  0.85997257  0.47443858  1
  O  O67  1  0.33188095  0.48481000  0.47055141  1
  O  O68  1  0.14516416  0.66060586  0.47503028  1
  O  O69  1  0.12039201  0.62871990  0.36482156  1
  O  O70  1  0.51398168  0.88278608  0.36325669  1
  O  O71  1  0.36840079  0.48831408  0.35995079  1
  O  O72  1  0.11548953  0.48409235  0.86094173  1
  O  O73  1  0.36876480  0.88414954  0.86079136  1
  O  O74  1  0.52000188  0.63405894  0.85801224  1
  O  O75  1  0.01197335  0.80184367  0.42417190  1
  O  O76  1  0.79762422  0.00118171  0.42046353  1
  O  O77  1  0.18839844  0.21470373  0.41885625  1
  O  O78  1  0.01579872  0.19155606  0.91169975  1
  O  O79  1  0.17583317  0.98326594  0.91163004  1
  O  O80  1  0.80976716  0.82399610  0.91139794  1
  O  O81  1  0.98345741  0.16370299  0.58615936  1
  O  O82  1  0.17883840  0.01413498  0.58615174  1
  O  O83  1  0.83552423  0.81991914  0.58764788  1
  O  O84  1  0.98980309  0.82329133  0.08298895  1
  O  O85  1  0.83402638  0.01252322  0.08436447  1
  O  O86  1  0.17690933  0.16770578  0.08513884  1
  O  O87  1  0.68506529  0.14124966  0.75385226  1
  O  O88  1  0.46303693  0.32712780  0.75167536  1
  O  O89  1  0.85070775  0.54987044  0.75102771  1
  O  O90  1  0.65229554  0.51907295  0.24289174  1
  O  O91  1  0.86124424  0.33508509  0.24772110  1
  O  O92  1  0.47063752  0.14678193  0.24247591  1
  O  O93  1  0.64262856  0.49968421  0.92267797  1
  O  O94  1  0.85490590  0.35373399  0.92303122  1
  O  O95  1  0.49903585  0.14429053  0.92320879  1
  O  O96  1  0.62542489  0.14668278  0.42337858  1
  O  O97  1  0.51631967  0.37802048  0.42369197  1
  O  O98  1  0.85988657  0.47890857  0.42457246  1
  O  O99  1  0.33482271  0.48843495  0.06844363  1
  O  O100  1  0.15869940  0.67104920  0.06654190  1
  O  O101  1  0.51389831  0.84208064  0.06655427  1
  O  O102  1  0.32843935  0.84392196  0.57344736  1
  O  O103  1  0.51466022  0.66612044  0.57522170  1
  O  O104  1  0.15799602  0.48372085  0.57325462  1
  O  O105  1  0.29872665  0.82006228  0.25302933  1
  O  O106  1  0.51331048  0.69870995  0.25139451  1
  O  O107  1  0.18642975  0.48049762  0.25449966  1
  O  O108  1  0.29360057  0.47613302  0.75736264  1
  O  O109  1  0.17798367  0.70970683  0.75797711  1
  O  O110  1  0.53063062  0.81645771  0.75851815  1
