# generated using pymatgen
data_NaNbSi2SnSO12
_symmetry_space_group_name_H-M   'P 1'
_cell_length_a   8.88318509
_cell_length_b   8.88404748
_cell_length_c   22.92452985
_cell_angle_alpha   90.85676882
_cell_angle_beta   90.00000000
_cell_angle_gamma   119.99678889
_symmetry_Int_Tables_number   1
_chemical_formula_structural   NaNbSi2SnSO12
_chemical_formula_sum   'Na6 Nb6 Si12 Sn6 S6 O72'
_cell_volume   1566.60663742
_cell_formula_units_Z   6
loop_
 _symmetry_equiv_pos_site_id
 _symmetry_equiv_pos_as_xyz
  1  'x, y, z'
loop_
 _atom_site_type_symbol
 _atom_site_label
 _atom_site_symmetry_multiplicity
 _atom_site_fract_x
 _atom_site_fract_y
 _atom_site_fract_z
 _atom_site_occupancy
  Na  Na0  1  0.02296392  0.01069654  0.49652290  1
  Na  Na1  1  0.98773262  0.01069654  0.99652290  1
  Na  Na2  1  0.68963092  0.34402954  0.82985590  1
  Na  Na3  1  0.65439962  0.34402954  0.32985590  1
  Na  Na4  1  0.35629692  0.67736354  0.16318990  1
  Na  Na5  1  0.32106562  0.67736354  0.66318990  1
  Nb  Nb6  1  0.99558002  0.99256386  0.64379984  1
  Nb  Nb7  1  0.99698384  0.99256386  0.14379984  1
  Nb  Nb8  1  0.66224702  0.32589686  0.97713284  1
  Nb  Nb9  1  0.66365084  0.32589686  0.47713284  1
  Nb  Nb10  1  0.32891302  0.65923086  0.31046684  1
  Nb  Nb11  1  0.33031684  0.65923086  0.81046684  1
  Si  Si12  1  0.29271509  0.99948423  0.25045657  1
  Si  Si13  1  0.71492165  0.70993358  0.25035631  1
  Si  Si14  1  0.99501193  0.70993358  0.75035631  1
  Si  Si15  1  0.70676913  0.99948423  0.75045657  1
  Si  Si16  1  0.95938209  0.33281723  0.58378957  1
  Si  Si17  1  0.38158865  0.04326658  0.58368931  1
  Si  Si18  1  0.66167893  0.04326658  0.08368931  1
  Si  Si19  1  0.37343613  0.33281723  0.08378957  1
  Si  Si20  1  0.62604809  0.66615123  0.91712357  1
  Si  Si21  1  0.04825465  0.37660058  0.91702331  1
  Si  Si22  1  0.32834493  0.37660058  0.41702331  1
  Si  Si23  1  0.04010213  0.66615123  0.41712357  1
  Sn  Sn24  1  0.01301574  0.99335128  0.35395462  1
  Sn  Sn25  1  0.98033554  0.99335128  0.85395462  1
  Sn  Sn26  1  0.67968274  0.32668428  0.68728762  1
  Sn  Sn27  1  0.64700254  0.32668428  0.18728762  1
  Sn  Sn28  1  0.34634874  0.66001828  0.02062162  1
  Sn  Sn29  1  0.31366854  0.66001828  0.52062162  1
  S  S30  1  0.99672924  0.28507749  0.24945872  1
  S  S31  1  0.28834825  0.28507749  0.74945872  1
  S  S32  1  0.66339624  0.61841049  0.58279172  1
  S  S33  1  0.95501525  0.61841049  0.08279172  1
  S  S34  1  0.33006224  0.95174449  0.91612572  1
  S  S35  1  0.62168125  0.95174449  0.41612572  1
  O  O36  1  0.21982819  0.04619904  0.30835854  1
  O  O37  1  0.82105362  0.80314589  0.30941938  1
  O  O38  1  0.97085722  0.18485752  0.30280806  1
  O  O39  1  0.21400030  0.18485752  0.80280806  1
  O  O40  1  0.98209227  0.80314589  0.80941938  1
  O  O41  1  0.82637085  0.04619904  0.80835854  1
  O  O42  1  0.80969906  0.97843902  0.69303465  1
  O  O43  1  0.18019796  0.20105728  0.69658109  1
  O  O44  1  0.02471526  0.83189800  0.69258487  1
  O  O45  1  0.80718274  0.83189800  0.19258487  1
  O  O46  1  0.02085932  0.20105728  0.19658109  1
  O  O47  1  0.16873996  0.97843902  0.19303465  1
  O  O48  1  0.88649519  0.37953204  0.64169154  1
  O  O49  1  0.48772062  0.13647889  0.64275238  1
  O  O50  1  0.63752422  0.51819052  0.63614106  1
  O  O51  1  0.88066730  0.51819052  0.13614106  1
  O  O52  1  0.64875927  0.13647889  0.14275238  1
  O  O53  1  0.49303785  0.37953204  0.14169154  1
  O  O54  1  0.47636606  0.31177202  0.02636765  1
  O  O55  1  0.84686496  0.53439028  0.02991409  1
  O  O56  1  0.69138226  0.16523100  0.02591787  1
  O  O57  1  0.47384974  0.16523100  0.52591787  1
  O  O58  1  0.68752632  0.53439028  0.52991409  1
  O  O59  1  0.83540696  0.31177202  0.52636765  1
  O  O60  1  0.55316119  0.71286604  0.97502554  1
  O  O61  1  0.15438662  0.46981289  0.97608638  1
  O  O62  1  0.30419022  0.85152452  0.96947506  1
  O  O63  1  0.54733330  0.85152452  0.46947506  1
  O  O64  1  0.31542527  0.46981289  0.47608638  1
  O  O65  1  0.15970385  0.71286604  0.47502554  1
  O  O66  1  0.14303206  0.64510602  0.35970165  1
  O  O67  1  0.51353096  0.86772428  0.36324809  1
  O  O68  1  0.35804826  0.49856500  0.35925187  1
  O  O69  1  0.14051574  0.49856500  0.85925187  1
  O  O70  1  0.35419232  0.86772428  0.86324809  1
  O  O71  1  0.50207296  0.64510602  0.85970165  1
  O  O72  1  0.00300104  0.82730294  0.41376752  1
  O  O73  1  0.79946831  0.98386333  0.40972909  1
  O  O74  1  0.14858881  0.19084302  0.41092955  1
  O  O75  1  0.04225420  0.19084302  0.91092955  1
  O  O76  1  0.18439503  0.98386333  0.90972909  1
  O  O77  1  0.82430191  0.82730294  0.91376752  1
  O  O78  1  0.96560644  0.15049773  0.59030345  1
  O  O79  1  0.18454111  0.01877144  0.59091324  1
  O  O80  1  0.82830580  0.79201781  0.58702160  1
  O  O81  1  0.96371201  0.79201781  0.08702160  1
  O  O82  1  0.83423032  0.01877144  0.09091324  1
  O  O83  1  0.18489129  0.15049773  0.09030345  1
  O  O84  1  0.66966804  0.16063594  0.74710052  1
  O  O85  1  0.46613531  0.31719633  0.74306209  1
  O  O86  1  0.81525581  0.52417602  0.74426255  1
  O  O87  1  0.70892120  0.52417602  0.24426255  1
  O  O88  1  0.85106203  0.31719633  0.24306209  1
  O  O89  1  0.49096891  0.16063594  0.24710052  1
  O  O90  1  0.63227344  0.48383073  0.92363645  1
  O  O91  1  0.85120811  0.35210444  0.92424624  1
  O  O92  1  0.49497280  0.12535081  0.92035460  1
  O  O93  1  0.63037901  0.12535081  0.42035460  1
  O  O94  1  0.50089732  0.35210444  0.42424624  1
  O  O95  1  0.85155829  0.48383073  0.42363645  1
  O  O96  1  0.33633404  0.49396994  0.08043452  1
  O  O97  1  0.13280131  0.65053033  0.07639609  1
  O  O98  1  0.48192181  0.85751002  0.07759655  1
  O  O99  1  0.37558720  0.85751002  0.57759655  1
  O  O100  1  0.51772803  0.65053033  0.57639609  1
  O  O101  1  0.15763491  0.49396994  0.58043452  1
  O  O102  1  0.29893944  0.81716473  0.25697045  1
  O  O103  1  0.51787411  0.68543844  0.25758024  1
  O  O104  1  0.16163880  0.45868481  0.25368860  1
  O  O105  1  0.29704501  0.45868481  0.75368860  1
  O  O106  1  0.16756332  0.68543844  0.75758024  1
  O  O107  1  0.51822429  0.81716473  0.75697045  1
