# generated using pymatgen
data_Na3Hf2Al2P5SO24
_symmetry_space_group_name_H-M   'P 1'
_cell_length_a   8.66703672
_cell_length_b   8.64236864
_cell_length_c   22.33704610
_cell_angle_alpha   90.13870086
_cell_angle_beta   89.86806443
_cell_angle_gamma   120.17270096
_symmetry_Int_Tables_number   1
_chemical_formula_structural   Na3Hf2Al2P5SO24
_chemical_formula_sum   'Na9 Hf6 Al6 P15 S3 O72'
_cell_volume   1446.43781298
_cell_formula_units_Z   3
loop_
 _symmetry_equiv_pos_site_id
 _symmetry_equiv_pos_as_xyz
  1  'x, y, z'
loop_
 _atom_site_type_symbol
 _atom_site_label
 _atom_site_symmetry_multiplicity
 _atom_site_fract_x
 _atom_site_fract_y
 _atom_site_fract_z
 _atom_site_occupancy
  Na  Na0  1  0.00105888  0.36323583  0.75165519  1
  Na  Na1  1  0.66748739  0.97206431  0.58348943  1
  Na  Na2  1  0.02946437  0.33391214  0.08347915  1
  Na  Na3  1  0.00688907  0.99484247  0.50363630  1
  Na  Na4  1  0.00553505  0.99419314  0.00310033  1
  Na  Na5  1  0.65739683  0.32750874  0.83369414  1
  Na  Na6  1  0.67728578  0.33726457  0.33290478  1
  Na  Na7  1  0.34350710  0.67159913  0.16744570  1
  Na  Na8  1  0.33376317  0.66700318  0.66648655  1
  Hf  Hf9  1  0.98702797  0.99171477  0.35608373  1
  Hf  Hf10  1  0.00620460  0.00340803  0.85587172  1
  Hf  Hf11  1  0.66220264  0.33484328  0.68446482  1
  Hf  Hf12  1  0.67029463  0.33719312  0.18525872  1
  Hf  Hf13  1  0.66607459  0.32874554  0.98021304  1
  Hf  Hf14  1  0.67303509  0.33434577  0.47986066  1
  Al  Al15  1  0.00359941  0.99827694  0.64888157  1
  Al  Al16  1  0.99001918  0.99761186  0.14786671  1
  Al  Al17  1  0.32895480  0.66970570  0.02010193  1
  Al  Al18  1  0.32916647  0.67105478  0.51993604  1
  Al  Al19  1  0.33176753  0.66478881  0.31272128  1
  Al  Al20  1  0.33196966  0.67492114  0.81180544  1
  P  P21  1  0.70164545  0.71420356  0.24845066  1
  P  P22  1  0.01138889  0.29595125  0.24879634  1
  P  P23  1  0.28810108  0.29500315  0.74911365  1
  P  P24  1  0.00848984  0.71716897  0.74881103  1
  P  P25  1  0.70407356  0.98751916  0.74868949  1
  P  P26  1  0.97466097  0.33611633  0.58414466  1
  P  P27  1  0.36068600  0.03204480  0.58242381  1
  P  P28  1  0.66534325  0.63501119  0.58232333  1
  P  P29  1  0.96887002  0.64091375  0.08277989  1
  P  P30  1  0.66173528  0.02623801  0.08356350  1
  P  P31  1  0.36545502  0.33304922  0.08331292  1
  P  P32  1  0.05788833  0.39330036  0.91665042  1
  P  P33  1  0.33390803  0.94067952  0.91688708  1
  P  P34  1  0.60341400  0.94019389  0.41687374  1
  P  P35  1  0.06125012  0.66693919  0.41589717  1
  S  S36  1  0.28407065  0.99197792  0.24916771  1
  S  S37  1  0.60801205  0.66538479  0.91671543  1
  S  S38  1  0.33468128  0.38995852  0.41676268  1
  O  O39  1  0.20736058  0.02418622  0.30417992  1
  O  O40  1  0.81939890  0.79252650  0.30531925  1
  O  O41  1  0.98036280  0.17788961  0.30466907  1
  O  O42  1  0.20710543  0.18009584  0.80595017  1
  O  O43  1  0.97216310  0.79380895  0.80584768  1
  O  O44  1  0.82700486  0.02981380  0.80399936  1
  O  O45  1  0.79247479  0.96645855  0.69167729  1
  O  O46  1  0.16547325  0.20533115  0.69495924  1
  O  O47  1  0.03227925  0.83177673  0.69382636  1
  O  O48  1  0.79717840  0.83075441  0.19404530  1
  O  O49  1  0.03377325  0.20698429  0.19194312  1
  O  O50  1  0.17543739  0.96936318  0.19597850  1
  O  O51  1  0.88969356  0.36983709  0.64041865  1
  O  O52  1  0.48888277  0.11645897  0.63685651  1
  O  O53  1  0.63060946  0.51441050  0.63750593  1
  O  O54  1  0.88333367  0.51071052  0.13696930  1
  O  O55  1  0.62883090  0.11493329  0.13849878  1
  O  O56  1  0.48660937  0.36727881  0.13818051  1
  O  O57  1  0.45269653  0.29909707  0.02797175  1
  O  O58  1  0.84685002  0.55141208  0.02774493  1
  O  O59  1  0.70677732  0.15657286  0.02916726  1
  O  O60  1  0.45149344  0.15395786  0.52742830  1
  O  O61  1  0.69968734  0.54707623  0.52740783  1
  O  O62  1  0.84268519  0.29392012  0.53046260  1
  O  O63  1  0.52884058  0.68854781  0.97134069  1
  O  O64  1  0.16463960  0.47492488  0.97405542  1
  O  O65  1  0.31250581  0.83454663  0.97332152  1
  O  O66  1  0.52623163  0.83589982  0.47499947  1
  O  O67  1  0.31008444  0.46931767  0.47114759  1
  O  O68  1  0.16611217  0.68840187  0.47276811  1
  O  O69  1  0.14299068  0.64034624  0.35904180  1
  O  O70  1  0.49718753  0.85209782  0.36041341  1
  O  O71  1  0.35834477  0.49197633  0.36171352  1
  O  O72  1  0.14277979  0.49697868  0.85863469  1
  O  O73  1  0.36025228  0.85949098  0.85976483  1
  O  O74  1  0.50617645  0.64227636  0.86173669  1
  O  O75  1  0.03998510  0.83599041  0.41178243  1
  O  O76  1  0.79683625  0.96782007  0.41342540  1
  O  O77  1  0.17459234  0.20645432  0.41225855  1
  O  O78  1  0.03052960  0.20056224  0.91338343  1
  O  O79  1  0.16581083  0.96256473  0.91336277  1
  O  O80  1  0.79104265  0.82648753  0.91290616  1
  O  O81  1  0.98122474  0.16286593  0.59263869  1
  O  O82  1  0.17978403  0.01697509  0.59304583  1
  O  O83  1  0.83152166  0.82115458  0.59196117  1
  O  O84  1  0.98584556  0.82231533  0.09454651  1
  O  O85  1  0.83492886  0.01942586  0.09227553  1
  O  O86  1  0.17862871  0.16720036  0.09301150  1
  O  O87  1  0.69018501  0.16079930  0.74298046  1
  O  O88  1  0.47405770  0.31447374  0.74366473  1
  O  O89  1  0.84365410  0.52388437  0.74329607  1
  O  O90  1  0.68124635  0.52527042  0.24309887  1
  O  O91  1  0.84072973  0.31214334  0.24359696  1
  O  O92  1  0.46556198  0.15413229  0.24411663  1
  O  O93  1  0.63096478  0.50524621  0.92079824  1
  O  O94  1  0.86805568  0.37163583  0.92094968  1
  O  O95  1  0.49974519  0.13416735  0.92123195  1
  O  O96  1  0.62856186  0.13180679  0.42081404  1
  O  O97  1  0.49495836  0.36835879  0.42100206  1
  O  O98  1  0.86773333  0.50131145  0.42085243  1
  O  O99  1  0.34364341  0.49804707  0.07394192  1
  O  O100  1  0.14913565  0.64863542  0.07445418  1
  O  O101  1  0.49827021  0.84407299  0.07266202  1
  O  O102  1  0.35153768  0.85063086  0.57433113  1
  O  O103  1  0.50064490  0.65611987  0.57351559  1
  O  O104  1  0.15561717  0.50154758  0.57271423  1
  O  O105  1  0.30319997  0.83267163  0.25580131  1
  O  O106  1  0.51827860  0.69695936  0.25808090  1
  O  O107  1  0.17673565  0.48228759  0.25760908  1
  O  O108  1  0.30370953  0.47964403  0.75794559  1
  O  O109  1  0.17122349  0.69060302  0.75613995  1
  O  O110  1  0.51976802  0.82305374  0.75820392  1
