# generated using pymatgen
data_Mn2NiO4
_symmetry_space_group_name_H-M   'P 1'
_cell_length_a   5.80121999
_cell_length_b   5.80121999
_cell_length_c   6.20877881
_cell_angle_alpha   63.24452930
_cell_angle_beta   63.24452930
_cell_angle_gamma   92.08695492
_symmetry_Int_Tables_number   1
_chemical_formula_structural   Mn2NiO4
_chemical_formula_sum   'Mn4 Ni2 O8'
_cell_volume   158.93791698
_cell_formula_units_Z   2
loop_
 _symmetry_equiv_pos_site_id
 _symmetry_equiv_pos_as_xyz
  1  'x, y, z'
loop_
 _atom_site_type_symbol
 _atom_site_label
 _atom_site_symmetry_multiplicity
 _atom_site_fract_x
 _atom_site_fract_y
 _atom_site_fract_z
 _atom_site_occupancy
  Mn  Mn0  1  0.49629781  0.00393722  0.00132853  1
  Mn  Mn1  1  0.00393722  0.49629781  0.50132853  1
  Mn  Mn2  1  0.50521279  0.49759092  0.49873503  1
  Mn  Mn3  1  0.49759092  0.50521279  -0.00126497  1
  Ni  Ni4  1  0.86740794  0.11741679  0.25003710  1
  Ni  Ni5  1  0.11741679  0.86740794  0.75003710  1
  O  O6  1  0.27233229  0.73463092  0.48274320  1
  O  O7  1  0.73463092  0.27233229  0.98274320  1
  O  O8  1  0.75504875  0.71736150  0.51730170  1
  O  O9  1  0.27310555  0.25099180  0.99259023  1
  O  O10  1  0.25099180  0.27310555  0.49259023  1
  O  O11  1  0.71736150  0.75504875  0.01730170  1
  O  O12  1  0.74354604  0.26564568  0.50748121  1
  O  O13  1  0.26564568  0.74354604  0.00748121  1
