# generated using pymatgen
data_Na6La4Y4Si3(S3O16)3
_symmetry_space_group_name_H-M   'P 1'
_cell_length_a   18.88665163
_cell_length_b   9.41422890
_cell_length_c   24.84644503
_cell_angle_alpha   90.07704333
_cell_angle_beta   90.03244059
_cell_angle_gamma   119.88729304
_symmetry_Int_Tables_number   1
_chemical_formula_structural   Na6La4Y4Si3(S3O16)3
_chemical_formula_sum   'Na18 La12 Y12 Si9 S27 O144'
_cell_volume   3830.23917582
_cell_formula_units_Z   3
loop_
 _symmetry_equiv_pos_site_id
 _symmetry_equiv_pos_as_xyz
  1  'x, y, z'
loop_
 _atom_site_type_symbol
 _atom_site_label
 _atom_site_symmetry_multiplicity
 _atom_site_fract_x
 _atom_site_fract_y
 _atom_site_fract_z
 _atom_site_occupancy
  Na  Na0  1  0.00626766  0.64915278  0.25466076  1
  Na  Na1  1  0.50492656  0.36331128  0.74340794  1
  Na  Na2  1  0.16002038  0.30361242  0.91191451  1
  Na  Na3  1  0.65921648  0.30308657  0.91060538  1
  Na  Na4  1  0.16188467  0.02003737  0.41579336  1
  Na  Na5  1  0.65814622  0.00994391  0.41707488  1
  Na  Na6  1  0.99414716  0.98451362  0.49878004  1
  Na  Na7  1  0.49454049  0.00033108  0.50253182  1
  Na  Na8  1  0.99604848  0.00861365  0.99358040  1
  Na  Na9  1  0.49444839  0.00532102  0.99561381  1
  Na  Na10  1  0.33078791  0.33217917  0.82636158  1
  Na  Na11  1  0.83842081  0.33467090  0.82991025  1
  Na  Na12  1  0.34256842  0.35036860  0.33782040  1
  Na  Na13  1  0.83119960  0.33068563  0.33551492  1
  Na  Na14  1  0.17338856  0.68443554  0.17212975  1
  Na  Na15  1  0.66452820  0.68273021  0.17410536  1
  Na  Na16  1  0.16800144  0.64988895  0.67130515  1
  Na  Na17  1  0.66127644  0.64583569  0.66317982  1
  La  La18  1  0.00500639  0.01454379  0.65116052  1
  La  La19  1  0.50599290  0.02025360  0.64677397  1
  La  La20  1  0.00748766  0.00384542  0.15038363  1
  La  La21  1  0.50433493  0.99515339  0.15162763  1
  La  La22  1  0.82598995  0.33267231  0.68841746  1
  La  La23  1  0.32767051  0.32185690  0.18968989  1
  La  La24  1  0.15999188  0.65715931  0.01422654  1
  La  La25  1  0.66180909  0.65624506  0.01495439  1
  La  La26  1  0.16347929  0.66829725  0.51573359  1
  La  La27  1  0.64979122  0.64645107  0.51886137  1
  La  La28  1  0.65909562  0.67230433  0.31732424  1
  La  La29  1  0.15936442  0.64540037  0.81471262  1
  Y  Y30  1  0.00086135  0.99509907  0.35042759  1
  Y  Y31  1  0.50420112  0.99417298  0.34846127  1
  Y  Y32  1  0.00462025  0.01613928  0.84655251  1
  Y  Y33  1  0.50102081  0.00741160  0.84766029  1
  Y  Y34  1  0.33083209  0.33525212  0.68279353  1
  Y  Y35  1  0.82387536  0.31590147  0.18690965  1
  Y  Y36  1  0.34304900  0.33299283  0.97962911  1
  Y  Y37  1  0.83972160  0.33257838  0.98059106  1
  Y  Y38  1  0.34654104  0.34730440  0.48405586  1
  Y  Y39  1  0.84206001  0.35136563  0.48065293  1
  Y  Y40  1  0.16414239  0.66976331  0.31894751  1
  Y  Y41  1  0.66276067  0.65761345  0.81690139  1
  Si  Si42  1  0.14752882  0.99227242  0.25408638  1
  Si  Si43  1  0.65163539  0.00254975  0.25163346  1
  Si  Si44  1  0.15503051  0.29956190  0.75163597  1
  Si  Si45  1  0.64888354  0.30212593  0.75526532  1
  Si  Si46  1  0.47900703  0.33188876  0.58774821  1
  Si  Si47  1  0.01381940  0.35581849  0.91709165  1
  Si  Si48  1  0.51707730  0.36233289  0.91397025  1
  Si  Si49  1  0.01663989  0.66865026  0.41364283  1
  Si  Si50  1  0.51230521  0.66996107  0.41606215  1
  S  S51  1  0.34905886  0.70537730  0.25244594  1
  S  S52  1  0.85348067  0.70051381  0.24903037  1
  S  S53  1  -0.00020846  0.30190168  0.25089802  1
  S  S54  1  0.50004247  0.29300576  0.25109681  1
  S  S55  1  0.99919805  0.70667344  0.75138148  1
  S  S56  1  0.49977707  0.70056384  0.75136435  1
  S  S57  1  0.35263108  0.00526366  0.75033648  1
  S  S58  1  0.84917966  0.99393897  0.75282440  1
  S  S59  1  0.97868817  0.33245786  0.58223560  1
  S  S60  1  0.18826047  0.04396150  0.58101735  1
  S  S61  1  0.68916923  0.04218010  0.57921553  1
  S  S62  1  0.33200597  0.62347827  0.58304547  1
  S  S63  1  0.83452075  0.63109771  0.58133451  1
  S  S64  1  0.47857593  0.62516834  0.08228525  1
  S  S65  1  0.97604607  0.62002272  0.08513570  1
  S  S66  1  0.33356079  0.03790522  0.08154739  1
  S  S67  1  0.83326369  0.04352592  0.08337024  1
  S  S68  1  0.18782482  0.33461841  0.07986539  1
  S  S69  1  0.69001856  0.33424567  0.08157770  1
  S  S70  1  0.31833942  0.66408880  0.91813056  1
  S  S71  1  0.81570795  0.66472428  0.91611268  1
  S  S72  1  0.16663680  0.97449946  0.91677848  1
  S  S73  1  0.66664263  0.96923959  0.91587761  1
  S  S74  1  0.31572502  0.96663041  0.41507085  1
  S  S75  1  0.81798650  0.97138078  0.41850114  1
  S  S76  1  0.16621145  0.36419918  0.41504103  1
  S  S77  1  0.66758740  0.35859787  0.41617341  1
  O  O78  1  0.10120459  0.01257940  0.30682493  1
  O  O79  1  0.60801898  0.01972309  0.30648055  1
  O  O80  1  0.40069593  0.79345087  0.29935069  1
  O  O81  1  0.90464627  0.78359908  0.29749711  1
  O  O82  1  0.49253499  0.19396408  0.29897774  1
  O  O83  1  0.98672368  0.19762056  0.29839557  1
  O  O84  1  0.11002882  0.19891373  0.80788758  1
  O  O85  1  0.60550733  0.19389058  0.80987418  1
  O  O86  1  0.48918869  0.78192816  0.79988560  1
  O  O87  1  0.99222159  0.79177909  0.79970946  1
  O  O88  1  0.40369532  0.02190280  0.79899871  1
  O  O89  1  0.90173064  0.01079973  0.80006391  1
  O  O90  1  0.38948801  0.97949214  0.70187044  1
  O  O91  1  0.88516627  0.97167673  0.70261768  1
  O  O92  1  0.09533704  0.20314371  0.69969107  1
  O  O93  1  0.59090278  0.21550828  0.70253313  1
  O  O94  1  0.00274909  0.79616181  0.70146639  1
  O  O95  1  0.50900507  0.79397942  0.70242690  1
  O  O96  1  0.38464797  0.79846446  0.20185010  1
  O  O97  1  0.89172429  0.80177708  0.20025612  1
  O  O98  1  0.00950533  0.22535499  0.20123089  1
  O  O99  1  0.50345002  0.21043597  0.20077004  1
  O  O100  1  0.08971757  0.96449287  0.20018850  1
  O  O101  1  0.59586453  0.98537693  0.19806541  1
  O  O102  1  0.43470148  0.34145752  0.64380136  1
  O  O103  1  0.93971973  0.34530947  0.63185940  1
  O  O104  1  0.23664611  0.13141447  0.62936914  1
  O  O105  1  0.73555233  0.12730323  0.62892907  1
  O  O106  1  0.32380344  0.52571491  0.63217703  1
  O  O107  1  0.82815614  0.53735126  0.63111908  1
  O  O108  1  0.43950630  0.53414212  0.13178743  1
  O  O109  1  0.93639963  0.52859126  0.13484829  1
  O  O110  1  0.32647642  0.11739452  0.13119655  1
  O  O111  1  0.82746617  0.12840001  0.13236966  1
  O  O112  1  0.23401874  0.34493921  0.12945275  1
  O  O113  1  0.73890417  0.34457995  0.12995317  1
  O  O114  1  0.22951516  0.32340669  0.03099483  1
  O  O115  1  0.73007586  0.32232604  0.03176270  1
  O  O116  1  0.43009257  0.53681762  0.03381645  1
  O  O117  1  0.92784350  0.53330808  0.03648340  1
  O  O118  1  0.33876397  0.13764546  0.03363230  1
  O  O119  1  0.83932692  0.14072583  0.03465768  1
  O  O120  1  0.22673958  0.13403126  0.53053896  1
  O  O121  1  0.73185344  0.13961208  0.53054999  1
  O  O122  1  0.33592729  0.53691432  0.53395103  1
  O  O123  1  0.84045415  0.54084007  0.53356354  1
  O  O124  1  0.42715751  0.32457424  0.53358285  1
  O  O125  1  0.93028686  0.32369364  0.53378516  1
  O  O126  1  0.28104342  0.69401243  0.96642346  1
  O  O127  1  0.78079418  0.69454501  0.96567189  1
  O  O128  1  0.07453022  0.44409127  0.96971635  1
  O  O129  1  0.57750205  0.45036153  0.96692372  1
  O  O130  1  0.15693311  0.87629136  0.96611198  1
  O  O131  1  0.65736344  0.87347332  0.96544882  1
  O  O132  1  0.28056496  0.86711595  0.46437268  1
  O  O133  1  0.78142559  0.86866221  0.46601366  1
  O  O134  1  0.15641445  0.44127650  0.46431129  1
  O  O135  1  0.65846821  0.43699351  0.46490768  1
  O  O136  1  0.07866658  0.70281251  0.46523605  1
  O  O137  1  0.57518399  0.70971915  0.46707637  1
  O  O138  1  0.05945640  0.64537601  0.35902071  1
  O  O139  1  0.55602601  0.64329898  0.36283913  1
  O  O140  1  0.26160723  0.87943046  0.36786703  1
  O  O141  1  0.76743632  0.89717331  0.36923000  1
  O  O142  1  0.17759631  0.46832126  0.36725142  1
  O  O143  1  0.68238517  0.46060779  0.36774117  1
  O  O144  1  0.05751627  0.47094987  0.86498380  1
  O  O145  1  0.56217808  0.47645831  0.86143719  1
  O  O146  1  0.18136216  0.90208338  0.86920275  1
  O  O147  1  0.68022251  0.89226147  0.86841881  1
  O  O148  1  0.26698519  0.63706262  0.87001977  1
  O  O149  1  0.76214712  0.64095634  0.86914324  1
  O  O150  1  0.01224079  0.84054630  0.40981132  1
  O  O151  1  0.50943978  0.84241786  0.41012088  1
  O  O152  1  0.39879774  0.99556589  0.40662166  1
  O  O153  1  0.90232910  0.99964307  0.40993814  1
  O  O154  1  0.09053124  0.19913273  0.40887191  1
  O  O155  1  0.59283877  0.19379949  0.41016598  1
  O  O156  1  0.01091672  0.17744629  0.91241684  1
  O  O157  1  0.51193209  0.18133161  0.91041301  1
  O  O158  1  0.09161118  0.98995243  0.91159191  1
  O  O159  1  0.59195561  0.98533268  0.90999827  1
  O  O160  1  0.40221331  0.80525518  0.91111269  1
  O  O161  1  0.89965274  0.80344983  0.90832182  1
  O  O162  1  0.48815135  0.16605043  0.58445046  1
  O  O163  1  0.98576491  0.18114782  0.58222599  1
  O  O164  1  0.10448411  0.02329238  0.58439389  1
  O  O165  1  0.60629759  0.02310714  0.58117778  1
  O  O166  1  0.40643493  0.78553744  0.58588635  1
  O  O167  1  0.91067714  0.79472511  0.58302052  1
  O  O168  1  0.48560986  0.79055750  0.08242597  1
  O  O169  1  0.98384660  0.78619701  0.08570659  1
  O  O170  1  0.40832562  0.02309375  0.08306572  1
  O  O171  1  0.90795046  0.02781130  0.08616562  1
  O  O172  1  0.10443010  0.18556731  0.08225328  1
  O  O173  1  0.60670575  0.18662288  0.08472616  1
  O  O174  1  0.35222665  0.16424994  0.74679768  1
  O  O175  1  0.84412085  0.14693645  0.74972026  1
  O  O176  1  0.24470078  0.31279467  0.74663630  1
  O  O177  1  0.74042900  0.32168503  0.75081884  1
  O  O178  1  0.42753608  0.52972812  0.74768400  1
  O  O179  1  0.92644684  0.53880512  0.74991466  1
  O  O180  1  0.34338120  0.54195736  0.24905386  1
  O  O181  1  0.85475025  0.54188520  0.24331256  1
  O  O182  1  0.42715403  0.31521297  0.24905545  1
  O  O183  1  0.92869387  0.33071097  0.24440237  1
  O  O184  1  0.23810316  0.15522007  0.24827723  1
  O  O185  1  0.74231893  0.17104525  0.24610706  1
  O  O186  1  0.32038935  0.50780515  0.92604875  1
  O  O187  1  0.81619826  0.50567627  0.92297998  1
  O  O188  1  0.42660761  0.34395487  0.92242844  1
  O  O189  1  0.92335914  0.33730865  0.92513264  1
  O  O190  1  0.23713543  0.14651532  0.92475016  1
  O  O191  1  0.73767951  0.14084202  0.92267448  1
  O  O192  1  0.31444828  0.12472392  0.42051320  1
  O  O193  1  0.82102531  0.13408614  0.42509640  1
  O  O194  1  0.23645102  0.33455297  0.42030554  1
  O  O195  1  0.73838025  0.32738346  0.42290497  1
  O  O196  1  0.42168404  0.50755036  0.42170219  1
  O  O197  1  0.92594057  0.50664834  0.42147193  1
  O  O198  1  0.17923219  0.48408901  0.07883994  1
  O  O199  1  0.68282981  0.48508718  0.08078636  1
  O  O200  1  0.05970574  0.63974931  0.08175233  1
  O  O201  1  0.56214001  0.64561405  0.07889305  1
  O  O202  1  0.25928293  0.87230467  0.07789220  1
  O  O203  1  0.75906430  0.87896667  0.08028021  1
  O  O204  1  0.18088992  0.87834255  0.58035503  1
  O  O205  1  0.68369654  0.87970506  0.57833653  1
  O  O206  1  0.25783374  0.64182514  0.58018054  1
  O  O207  1  0.76189183  0.64935695  0.57752305  1
  O  O208  1  0.06219497  0.47918623  0.57879863  1
  O  O209  1  0.57135505  0.49692216  0.58640368  1
  O  O210  1  0.15164394  0.82042539  0.25675367  1
  O  O211  1  0.66327866  0.84058949  0.25109568  1
  O  O212  1  0.26558058  0.68289753  0.25851050  1
  O  O213  1  0.77015250  0.67050804  0.25446174  1
  O  O214  1  0.07444259  0.46720026  0.25692770  1
  O  O215  1  0.57547372  0.45568210  0.25270031  1
  O  O216  1  0.16341279  0.48331190  0.75161679  1
  O  O217  1  0.65350707  0.48251532  0.75868335  1
  O  O218  1  0.07459654  0.69505530  0.75336652  1
  O  O219  1  0.57409403  0.68229048  0.75808253  1
  O  O220  1  0.26898388  0.86661240  0.75667302  1
  O  O221  1  0.76675995  0.85080757  0.76005080  1
