# generated using pymatgen
data_Na6Zn3Si2Ge(SO6)4
_symmetry_space_group_name_H-M   'P 1'
_cell_length_a   8.98720262
_cell_length_b   8.98931816
_cell_length_c   22.01556479
_cell_angle_alpha   89.69217106
_cell_angle_beta   88.97100811
_cell_angle_gamma   120.02880574
_symmetry_Int_Tables_number   1
_chemical_formula_structural   Na6Zn3Si2Ge(SO6)4
_chemical_formula_sum   'Na18 Zn9 Si6 Ge3 S12 O72'
_cell_volume   1539.41534004
_cell_formula_units_Z   3
loop_
 _symmetry_equiv_pos_site_id
 _symmetry_equiv_pos_as_xyz
  1  'x, y, z'
loop_
 _atom_site_type_symbol
 _atom_site_label
 _atom_site_symmetry_multiplicity
 _atom_site_fract_x
 _atom_site_fract_y
 _atom_site_fract_z
 _atom_site_occupancy
  Na  Na0  1  0.63447534  0.99841138  0.25773724  1
  Na  Na1  1  0.36794335  0.36654928  0.24383446  1
  Na  Na2  1  0.63714195  0.64238299  0.74016424  1
  Na  Na3  1  0.30415176  0.33789770  0.59044893  1
  Na  Na4  1  0.03117865  0.70407711  0.58329649  1
  Na  Na5  1  0.66513687  0.94074144  0.58421273  1
  Na  Na6  1  0.29418502  0.96813326  0.07582955  1
  Na  Na7  1  0.05341800  0.33800484  0.07638429  1
  Na  Na8  1  0.97954991  0.67960477  0.91660240  1
  Na  Na9  1  0.70264493  0.02849512  0.90502995  1
  Na  Na10  1  0.31031665  0.28700648  0.91783047  1
  Na  Na11  1  0.69734459  0.68649913  0.42066540  1
  Na  Na12  1  0.99096771  0.00258238  0.49488045  1
  Na  Na13  1  0.00732524  0.00777982  0.99700569  1
  Na  Na14  1  0.66672707  0.30697638  0.82575926  1
  Na  Na15  1  0.67804263  0.32407808  0.33509480  1
  Na  Na16  1  0.33720195  0.65535123  0.16290212  1
  Na  Na17  1  0.34696833  0.67304510  0.66986439  1
  Zn  Zn18  1  0.99387272  0.00982259  0.35016672  1
  Zn  Zn19  1  0.99743853  0.02081716  0.84746854  1
  Zn  Zn20  1  0.96063660  0.96937749  0.65760362  1
  Zn  Zn21  1  0.01858841  0.01116025  0.14783584  1
  Zn  Zn22  1  0.65583642  0.31564389  0.68599354  1
  Zn  Zn23  1  0.65916095  0.34484274  0.17898623  1
  Zn  Zn24  1  0.32979418  0.65721330  0.01428736  1
  Zn  Zn25  1  0.35912337  0.66760687  0.51122829  1
  Zn  Zn26  1  0.34672286  0.70016220  0.33014124  1
  Si  Si27  1  0.68303359  0.99123394  0.75313996  1
  Si  Si28  1  0.66561699  0.61422439  0.58378973  1
  Si  Si29  1  0.37709835  0.34045254  0.08430243  1
  Si  Si30  1  0.03674509  0.37953666  0.91992201  1
  Si  Si31  1  0.33331417  0.96341599  0.92254331  1
  Si  Si32  1  0.64358690  0.98502859  0.41903045  1
  Ge  Ge33  1  0.65641677  0.31807916  0.97914303  1
  Ge  Ge34  1  0.67440903  0.33071231  0.48279649  1
  Ge  Ge35  1  0.31915429  0.69192907  0.81912182  1
  S  S36  1  0.29195638  0.99330408  0.25017570  1
  S  S37  1  0.70867879  0.70528993  0.25089121  1
  S  S38  1  0.00086005  0.30358459  0.24783200  1
  S  S39  1  0.29458699  0.30237705  0.75036008  1
  S  S40  1  0.00877732  0.70575204  0.75219527  1
  S  S41  1  0.96054791  0.33662688  0.58084277  1
  S  S42  1  0.37297799  0.04254632  0.58200880  1
  S  S43  1  0.95331288  0.62499877  0.08265990  1
  S  S44  1  0.67034203  0.04433898  0.08414076  1
  S  S45  1  0.62591864  0.65767189  0.91702348  1
  S  S46  1  0.33748826  0.36483605  0.41645284  1
  S  S47  1  0.03139285  0.65854147  0.41982036  1
  O  O48  1  0.19687903  0.01130495  0.30221592  1
  O  O49  1  0.79677292  0.78337464  0.30834959  1
  O  O50  1  0.97226718  0.18906727  0.30073689  1
  O  O51  1  0.21547840  0.20119120  0.80652078  1
  O  O52  1  0.99706459  0.79478757  0.80615641  1
  O  O53  1  0.79380878  0.00469182  0.81150012  1
  O  O54  1  0.74677872  0.93615216  0.69044823  1
  O  O55  1  0.20007038  0.21330512  0.69467908  1
  O  O56  1  0.03585221  0.80491331  0.69429267  1
  O  O57  1  0.79991403  0.81580039  0.19730100  1
  O  O58  1  0.02671989  0.22689083  0.19070074  1
  O  O59  1  0.20735104  0.98360540  0.19162269  1
  O  O60  1  0.88093176  0.35994559  0.63544522  1
  O  O61  1  0.48056674  0.11190800  0.63474836  1
  O  O62  1  0.64282307  0.50091189  0.64368894  1
  O  O63  1  0.87198619  0.51400211  0.13642436  1
  O  O64  1  0.65267657  0.12789319  0.13928788  1
  O  O65  1  0.46647109  0.35023879  0.14819320  1
  O  O66  1  0.48308126  0.30671980  0.02491343  1
  O  O67  1  0.85870622  0.54122321  0.02528296  1
  O  O68  1  0.70215136  0.15829489  0.02688937  1
  O  O69  1  0.46103627  0.15379883  0.52579880  1
  O  O70  1  0.69080577  0.51334140  0.52166548  1
  O  O71  1  0.84477250  0.29803036  0.52611310  1
  O  O72  1  0.55152808  0.69077165  0.97134183  1
  O  O73  1  0.14790109  0.44635882  0.97961047  1
  O  O74  1  0.30717458  0.85334225  0.98336284  1
  O  O75  1  0.55729651  0.86419564  0.47901910  1
  O  O76  1  0.30746796  0.43773803  0.47277059  1
  O  O77  1  0.12234311  0.66786606  0.47587266  1
  O  O78  1  0.11237496  0.63308639  0.36504464  1
  O  O79  1  0.53533876  0.91400317  0.35664445  1
  O  O80  1  0.35975646  0.47452637  0.36193044  1
  O  O81  1  0.13774707  0.52225759  0.86155352  1
  O  O82  1  0.38132213  0.87751385  0.86371204  1
  O  O83  1  0.51910741  0.62751783  0.86227496  1
  O  O84  1  0.00832032  0.81069220  0.41494187  1
  O  O85  1  0.83089570  0.99633341  0.41310583  1
  O  O86  1  0.19582219  0.18707479  0.41099648  1
  O  O87  1  0.00170716  0.18665753  0.91043971  1
  O  O88  1  0.16758272  0.98600277  0.91206397  1
  O  O89  1  0.80442485  0.80256103  0.91003504  1
  O  O90  1  0.98685828  0.18549402  0.58409340  1
  O  O91  1  0.20549861  0.03961135  0.58690640  1
  O  O92  1  0.84116178  0.80641823  0.58137347  1
  O  O93  1  0.96356650  0.79527064  0.08567978  1
  O  O94  1  0.82658959  0.02854652  0.08482250  1
  O  O95  1  0.18606943  0.15974685  0.08082882  1
  O  O96  1  0.66069190  0.15699224  0.74478428  1
  O  O97  1  0.47566741  0.33763460  0.74899117  1
  O  O98  1  0.85240849  0.53453350  0.74957020  1
  O  O99  1  0.68786136  0.52949896  0.24827122  1
  O  O100  1  0.84149991  0.31621720  0.24442757  1
  O  O101  1  0.47040259  0.14987965  0.25008518  1
  O  O102  1  0.63690134  0.49414337  0.92226566  1
  O  O103  1  0.84303415  0.37071202  0.92554456  1
  O  O104  1  0.51682194  0.15723206  0.92321883  1
  O  O105  1  0.65607267  0.17766025  0.42789864  1
  O  O106  1  0.50773291  0.36717751  0.42040616  1
  O  O107  1  0.84867932  0.50138001  0.42152339  1
  O  O108  1  0.35243114  0.50685811  0.07899800  1
  O  O109  1  0.13087150  0.65186421  0.08089205  1
  O  O110  1  0.51178752  0.87792286  0.07899453  1
  O  O111  1  0.33788683  0.86307650  0.57483950  1
  O  O112  1  0.49182749  0.63178974  0.57959978  1
  O  O113  1  0.12946191  0.49607462  0.57114810  1
  O  O114  1  0.31112462  0.83742076  0.25418694  1
  O  O115  1  0.53002923  0.68416481  0.25265569  1
  O  O116  1  0.15958814  0.47324684  0.25447032  1
  O  O117  1  0.30268967  0.47353397  0.75249797  1
  O  O118  1  0.16745433  0.68579148  0.75469890  1
  O  O119  1  0.48881016  0.79950431  0.76251760  1
