# generated using pymatgen
data_MgTiFeO4
_symmetry_space_group_name_H-M   'P 1'
_cell_length_a   6.40103146
_cell_length_b   5.65062799
_cell_length_c   6.43649149
_cell_angle_alpha   130.72282522
_cell_angle_beta   148.74051104
_cell_angle_gamma   59.65535374
_symmetry_Int_Tables_number   1
_chemical_formula_structural   MgTiFeO4
_chemical_formula_sum   'Mg1 Ti1 Fe1 O4'
_cell_volume   90.73739464
_cell_formula_units_Z   1
loop_
 _symmetry_equiv_pos_site_id
 _symmetry_equiv_pos_as_xyz
  1  'x, y, z'
loop_
 _atom_site_type_symbol
 _atom_site_label
 _atom_site_symmetry_multiplicity
 _atom_site_fract_x
 _atom_site_fract_y
 _atom_site_fract_z
 _atom_site_occupancy
  Mg  Mg0  1  0.40168400  0.14451300  0.77696100  1
  Ti  Ti1  1  0.73376800  0.36289800  0.61945900  1
  Fe  Fe2  1  0.03397700  0.87497700  0.88221700  1
  O  O3  1  0.54182400  0.13824800  0.58362700  1
  O  O4  1  0.22586400  0.17161200  0.95608600  1
  O  O5  1  0.90961800  0.41289300  0.49774200  1
  O  O6  1  0.78421700  0.77581200  0.94581300  1
