# generated using pymatgen
data_MgCo2(PO4)2
_symmetry_space_group_name_H-M   'P 1'
_cell_length_a   4.98545245
_cell_length_b   8.48485075
_cell_length_c   5.06861097
_cell_angle_alpha   76.74363963
_cell_angle_beta   61.50520705
_cell_angle_gamma   74.15824655
_symmetry_Int_Tables_number   1
_chemical_formula_structural   MgCo2(PO4)2
_chemical_formula_sum   'Mg1 Co2 P2 O8'
_cell_volume   180.02758097
_cell_formula_units_Z   1
loop_
 _symmetry_equiv_pos_site_id
 _symmetry_equiv_pos_as_xyz
  1  'x, y, z'
loop_
 _atom_site_type_symbol
 _atom_site_label
 _atom_site_symmetry_multiplicity
 _atom_site_fract_x
 _atom_site_fract_y
 _atom_site_fract_z
 _atom_site_occupancy
  Mg  Mg0  1  0.93240500  0.00582900  0.05363900  1
  Co  Co1  1  0.18501300  0.27242100  0.30678300  1
  Co  Co2  1  0.83029400  0.72350500  0.68312800  1
  P  P3  1  0.18014100  0.62714700  0.04719700  1
  P  P4  1  0.58307400  0.12453000  0.68987600  1
  O  O5  1  0.02861300  0.78080900  0.23855500  1
  O  O6  1  0.28579900  0.48136800  0.24464000  1
  O  O7  1  0.24664000  0.14957500  0.95965900  1
  O  O8  1  0.54790500  0.10959000  0.40547000  1
  O  O9  1  0.43846100  0.68666900  0.74790900  1
  O  O10  1  0.75636100  0.26079000  0.63848200  1
  O  O11  1  0.94205400  0.58051900  0.98232700  1
  O  O12  1  0.77922000  0.96117700  0.77581500  1
