# generated using pymatgen
data_La2SiSn2S5O24
_symmetry_space_group_name_H-M   'P 1'
_cell_length_a   9.19104221
_cell_length_b   9.24782563
_cell_length_c   23.84748304
_cell_angle_alpha   89.73682570
_cell_angle_beta   90.10182650
_cell_angle_gamma   120.02154894
_symmetry_Int_Tables_number   1
_chemical_formula_structural   La2SiSn2S5O24
_chemical_formula_sum   'La6 Si3 Sn6 S15 O72'
_cell_volume   1755.00585295
_cell_formula_units_Z   3
loop_
 _symmetry_equiv_pos_site_id
 _symmetry_equiv_pos_as_xyz
  1  'x, y, z'
loop_
 _atom_site_type_symbol
 _atom_site_label
 _atom_site_symmetry_multiplicity
 _atom_site_fract_x
 _atom_site_fract_y
 _atom_site_fract_z
 _atom_site_occupancy
  La  La0  1  0.98782435  0.00164505  0.36677799  1
  La  La1  1  0.00505535  0.00374951  0.86232666  1
  La  La2  1  0.68182645  0.33623849  0.68020465  1
  La  La3  1  0.65414823  0.33325883  0.18354787  1
  La  La4  1  0.65199096  0.33046675  0.98862148  1
  La  La5  1  0.32833209  0.66274082  0.80411036  1
  Si  Si6  1  0.97441513  0.33683664  0.57974147  1
  Si  Si7  1  0.34921785  0.33193184  0.08449817  1
  Si  Si8  1  0.59505027  0.95114036  0.42030390  1
  Sn  Sn9  1  0.99885190  0.00684076  0.64027539  1
  Sn  Sn10  1  0.00585391  0.00498243  0.15037170  1
  Sn  Sn11  1  0.67357165  0.31682424  0.48094056  1
  Sn  Sn12  1  0.33236555  0.66047559  0.02269505  1
  Sn  Sn13  1  0.33394425  0.66490217  0.52031249  1
  Sn  Sn14  1  0.33692663  0.67242981  0.31654373  1
  S  S15  1  0.27798390  0.97560245  0.25178290  1
  S  S16  1  0.70185414  0.72139417  0.24976745  1
  S  S17  1  0.02222127  0.30863524  0.25164502  1
  S  S18  1  0.28129435  0.27869429  0.74440060  1
  S  S19  1  0.00051823  0.72880816  0.74374277  1
  S  S20  1  0.72115014  0.99712986  0.74560393  1
  S  S21  1  0.36025968  0.02982313  0.58015909  1
  S  S22  1  0.67010726  0.63589532  0.57913108  1
  S  S23  1  0.98240659  0.65170818  0.08414494  1
  S  S24  1  0.66789072  0.01656698  0.08426424  1
  S  S25  1  0.61343674  0.66775397  0.92021580  1
  S  S26  1  0.04844343  0.38629863  0.92115674  1
  S  S27  1  0.33494120  0.94171928  0.92181925  1
  S  S28  1  0.35852320  0.39691914  0.42021119  1
  S  S29  1  0.04128164  0.64490749  0.41883750  1
  O  O30  1  0.20027812  0.00244510  0.30078288  1
  O  O31  1  0.80660434  0.80124996  0.29872187  1
  O  O32  1  0.99438234  0.20402112  0.30120931  1
  O  O33  1  0.20315142  0.18564357  0.79653616  1
  O  O34  1  0.98850939  0.80873285  0.79528424  1
  O  O35  1  0.81595911  0.01288398  0.79705173  1
  O  O36  1  0.80668098  0.97964247  0.69448644  1
  O  O37  1  0.17555566  0.19100377  0.69404357  1
  O  O38  1  0.01708253  0.83089907  0.69189745  1
  O  O39  1  0.78129539  0.82760460  0.19721608  1
  O  O40  1  0.05224271  0.23097689  0.20055723  1
  O  O41  1  0.17339897  0.95122673  0.19937711  1
  O  O42  1  0.90122690  0.37699343  0.63509598  1
  O  O43  1  0.46283712  0.09828656  0.63077460  1
  O  O44  1  0.63456704  0.53401367  0.63018960  1
  O  O45  1  0.91092818  0.53936296  0.13277442  1
  O  O46  1  0.63380768  0.09089126  0.13329483  1
  O  O47  1  0.47512719  0.36975218  0.13739827  1
  O  O48  1  0.42704068  0.29163467  0.02953121  1
  O  O49  1  0.87801774  0.58079577  0.03385721  1
  O  O50  1  0.70788226  0.12425850  0.03442636  1
  O  O51  1  0.43829355  0.14585212  0.53116813  1
  O  O52  1  0.70053995  0.55519333  0.52985676  1
  O  O53  1  0.84266590  0.29786958  0.52638763  1
  O  O54  1  0.52723011  0.68607288  0.97082811  1
  O  O55  1  0.15440059  0.47454679  0.97129409  1
  O  O56  1  0.31857782  0.83924656  0.97332440  1
  O  O57  1  0.50914545  0.83366723  0.47493633  1
  O  O58  1  0.32340002  0.47236565  0.46901485  1
  O  O59  1  0.14713266  0.66922149  0.46819732  1
  O  O60  1  0.11242503  0.61223624  0.36651920  1
  O  O61  1  0.48472072  0.86845130  0.36153177  1
  O  O62  1  0.38306575  0.49704500  0.36726007  1
  O  O63  1  0.12760288  0.47997888  0.86909210  1
  O  O64  1  0.34670151  0.86103451  0.87031991  1
  O  O65  1  0.51840386  0.65190446  0.86862974  1
  O  O66  1  0.02855352  0.79547518  0.41221700  1
  O  O67  1  0.77859854  0.97108282  0.41392116  1
  O  O68  1  0.21289936  0.22936568  0.41350334  1
  O  O69  1  0.03972089  0.22262238  0.91939605  1
  O  O70  1  0.18206872  0.95528550  0.92061735  1
  O  O71  1  0.77933723  0.82073303  0.91832530  1
  O  O72  1  0.99101817  0.16776534  0.58905068  1
  O  O73  1  0.18900725  0.01027111  0.58831800  1
  O  O74  1  0.82450812  0.80467966  0.58756319  1
  O  O75  1  0.99574733  0.81730729  0.09563753  1
  O  O76  1  0.81321182  0.98929406  0.09546171  1
  O  O77  1  0.16418090  0.16294144  0.09644762  1
  O  O78  1  0.70150157  0.14440468  0.74114944  1
  O  O79  1  0.44828384  0.29820368  0.73915301  1
  O  O80  1  0.84900256  0.56376542  0.74033987  1
  O  O81  1  0.68298920  0.55601809  0.24206678  1
  O  O82  1  0.88051763  0.33511605  0.24179577  1
  O  O83  1  0.44838316  0.11656296  0.24300533  1
  O  O84  1  0.63308588  0.52066361  0.92533075  1
  O  O85  1  0.88174820  0.36673946  0.92673463  1
  O  O86  1  0.48605406  0.10647267  0.92580077  1
  O  O87  1  0.61015114  0.13610724  0.42660581  1
  O  O88  1  0.51488389  0.38807116  0.42907413  1
  O  O89  1  0.86975406  0.49657009  0.42603522  1
  O  O90  1  0.32989160  0.49773190  0.07418950  1
  O  O91  1  0.15641552  0.68171586  0.07380578  1
  O  O92  1  0.51567113  0.84978875  0.07354234  1
  O  O93  1  0.33720271  0.86198481  0.56989369  1
  O  O94  1  0.52416023  0.66090088  0.57033723  1
  O  O95  1  0.16123289  0.49804105  0.56753042  1
  O  O96  1  0.28527798  0.81600590  0.25713531  1
  O  O97  1  0.53101108  0.70527323  0.25594424  1
  O  O98  1  0.18230439  0.47812044  0.25981913  1
  O  O99  1  0.29120501  0.44304661  0.74646848  1
  O  O100  1  0.15290706  0.71419138  0.74521151  1
  O  O101  1  0.55494475  0.84435591  0.74755096  1
