# generated using pymatgen
data_Na7Ca2Zr2SiP5O24
_symmetry_space_group_name_H-M   'P 1'
_cell_length_a   9.35427548
_cell_length_b   9.35929869
_cell_length_c   22.44624599
_cell_angle_alpha   89.91221621
_cell_angle_beta   90.05114549
_cell_angle_gamma   119.92779541
_symmetry_Int_Tables_number   1
_chemical_formula_structural   Na7Ca2Zr2SiP5O24
_chemical_formula_sum   'Na21 Ca6 Zr6 Si3 P15 O72'
_cell_volume   1703.11048821
_cell_formula_units_Z   3
loop_
 _symmetry_equiv_pos_site_id
 _symmetry_equiv_pos_as_xyz
  1  'x, y, z'
loop_
 _atom_site_type_symbol
 _atom_site_label
 _atom_site_symmetry_multiplicity
 _atom_site_fract_x
 _atom_site_fract_y
 _atom_site_fract_z
 _atom_site_occupancy
  Na  Na0  1  0.34915591  0.36029397  0.25810841  1
  Na  Na1  1  0.01689407  0.64313160  0.25760941  1
  Na  Na2  1  0.63209711  0.65270963  0.75343403  1
  Na  Na3  1  0.00684703  0.36477887  0.75956448  1
  Na  Na4  1  0.35278109  0.98184881  0.75721488  1
  Na  Na5  1  0.29598660  0.30703194  0.58509130  1
  Na  Na6  1  0.02042555  0.70177640  0.58924991  1
  Na  Na7  1  0.67908217  0.98077946  0.59449203  1
  Na  Na8  1  0.29717590  0.98210689  0.09057608  1
  Na  Na9  1  0.69252151  0.70291942  0.08667551  1
  Na  Na10  1  0.01779918  0.32343657  0.09215825  1
  Na  Na11  1  0.96727071  0.65415257  0.92943090  1
  Na  Na12  1  0.68936070  0.03694456  0.92328640  1
  Na  Na13  1  0.96512835  0.31241795  0.42362159  1
  Na  Na14  1  0.34796308  0.03078307  0.42788645  1
  Na  Na15  1  0.99429083  0.98262516  0.50517338  1
  Na  Na16  1  0.01869655  0.00451737  0.00409455  1
  Na  Na17  1  0.64704323  0.33471072  0.83970870  1
  Na  Na18  1  0.66214104  0.33414443  0.33858405  1
  Na  Na19  1  0.35463068  0.68990697  0.17397797  1
  Na  Na20  1  0.34431326  0.68037443  0.67225197  1
  Ca  Ca21  1  0.99971712  0.00033254  0.65299502  1
  Ca  Ca22  1  0.99337082  0.99639469  0.15405090  1
  Ca  Ca23  1  0.65938420  0.33651198  0.98352254  1
  Ca  Ca24  1  0.66247998  0.33992849  0.48210624  1
  Ca  Ca25  1  0.34696115  0.67481050  0.31711189  1
  Ca  Ca26  1  0.33445464  0.66382531  0.82042362  1
  Zr  Zr27  1  0.99147726  0.99467696  0.34996625  1
  Zr  Zr28  1  0.00012937  0.00463917  0.85013130  1
  Zr  Zr29  1  0.66347592  0.32513879  0.68352193  1
  Zr  Zr30  1  0.67246929  0.33235428  0.18412209  1
  Zr  Zr31  1  0.32956454  0.66035588  0.01688078  1
  Zr  Zr32  1  0.34192088  0.67211701  0.51689229  1
  Si  Si33  1  0.69681100  0.00729003  0.74701501  1
  Si  Si34  1  0.36341535  0.02308208  0.57867841  1
  Si  Si35  1  0.97630906  0.63506701  0.07982791  1
  P  P36  1  0.30629274  0.01159995  0.24805045  1
  P  P37  1  0.70037210  0.68582424  0.24509875  1
  P  P38  1  0.99064806  0.29969847  0.24871661  1
  P  P39  1  0.30759036  0.29763538  0.74611481  1
  P  P40  1  0.98816541  0.69130451  0.74949354  1
  P  P41  1  0.97400791  0.34501023  0.57985127  1
  P  P42  1  0.65799665  0.62865378  0.58547999  1
  P  P43  1  0.65662050  0.02829279  0.07856537  1
  P  P44  1  0.37114769  0.34224117  0.08653383  1
  P  P45  1  0.64685396  0.68011707  0.91327093  1
  P  P46  1  0.03171779  0.35492021  0.91465012  1
  P  P47  1  0.32189468  0.96161524  0.91407883  1
  P  P48  1  0.64286125  0.96796577  0.41773433  1
  P  P49  1  0.31802505  0.35408525  0.41235767  1
  P  P50  1  0.04175446  0.67719625  0.41236440  1
  O  O51  1  0.19814615  0.02328769  0.30094085  1
  O  O52  1  0.82163253  0.80256795  0.29559237  1
  O  O53  1  0.98205347  0.18600592  0.30254283  1
  O  O54  1  0.19904127  0.17532202  0.79758416  1
  O  O55  1  0.98059180  0.79817898  0.80305250  1
  O  O56  1  0.82518363  0.02265209  0.80334913  1
  O  O57  1  0.77369476  0.98880837  0.68609455  1
  O  O58  1  0.22440453  0.23013801  0.68623084  1
  O  O59  1  0.01607065  0.78714249  0.69140811  1
  O  O60  1  0.76724615  0.76371890  0.18435289  1
  O  O61  1  0.00441847  0.22517946  0.19016120  1
  O  O62  1  0.21982555  0.00298247  0.18917973  1
  O  O63  1  0.87566498  0.36227097  0.63486433  1
  O  O64  1  0.48957646  0.13464133  0.63601511  1
  O  O65  1  0.64215396  0.52670265  0.64389550  1
  O  O66  1  0.86518436  0.50668015  0.13660890  1
  O  O67  1  0.63871526  0.13261937  0.13086098  1
  O  O68  1  0.47806746  0.35920216  0.14387517  1
  O  O69  1  0.44400716  0.30110064  0.03377370  1
  O  O70  1  0.87614279  0.55653975  0.01986508  1
  O  O71  1  0.67494125  0.11585349  0.01972349  1
  O  O72  1  0.44266260  0.12312367  0.51880490  1
  O  O73  1  0.68914511  0.54816836  0.53281629  1
  O  O74  1  0.87968984  0.32744872  0.52274846  1
  O  O75  1  0.54040721  0.68642025  0.96713723  1
  O  O76  1  0.14529618  0.46053657  0.96872704  1
  O  O77  1  0.31078603  0.84130808  0.96714041  1
  O  O78  1  0.55316905  0.86279923  0.47563569  1
  O  O79  1  0.31205149  0.45863460  0.46711343  1
  O  O80  1  0.16336084  0.69556352  0.46592894  1
  O  O81  1  0.11845012  0.66599919  0.35408302  1
  O  O82  1  0.53354245  0.88557332  0.36461802  1
  O  O83  1  0.32190400  0.43975311  0.35424672  1
  O  O84  1  0.10706196  0.44452804  0.85632005  1
  O  O85  1  0.32906709  0.88399801  0.85520480  1
  O  O86  1  0.56493193  0.67724630  0.85411155  1
  O  O87  1  0.03576429  0.84303307  0.41332256  1
  O  O88  1  0.81389691  0.97397465  0.41344821  1
  O  O89  1  0.14841310  0.18374544  0.41527529  1
  O  O90  1  0.02330922  0.18322500  0.91628059  1
  O  O91  1  0.15576082  0.96425589  0.91740375  1
  O  O92  1  0.81714960  0.84812152  0.91723589  1
  O  O93  1  0.00295495  0.19826182  0.58644126  1
  O  O94  1  0.17583338  0.98800120  0.58414134  1
  O  O95  1  0.79747797  0.80874982  0.58861559  1
  O  O96  1  0.01119829  0.82269827  0.08567974  1
  O  O97  1  0.80489462  0.00259505  0.08752699  1
  O  O98  1  0.18872961  0.20879175  0.09233507  1
  O  O99  1  0.69941276  0.18767646  0.74863182  1
  O  O100  1  0.47752294  0.30190740  0.74931063  1
  O  O101  1  0.81790407  0.52752747  0.74950704  1
  O  O102  1  0.70620566  0.52034173  0.25057693  1
  O  O103  1  0.82802529  0.31024465  0.24989957  1
  O  O104  1  0.47556854  0.17723505  0.25069752  1
  O  O105  1  0.68008054  0.53638131  0.91633614  1
  O  O106  1  0.85663468  0.32825225  0.91990151  1
  O  O107  1  0.47561686  0.13051896  0.91962147  1
  O  O108  1  0.67780170  0.14627609  0.42135304  1
  O  O109  1  0.46024628  0.31803169  0.41489041  1
  O  O110  1  0.87273756  0.52462605  0.41958973  1
  O  O111  1  0.38243311  0.51585685  0.07958476  1
  O  O112  1  0.15551826  0.63367469  0.08024211  1
  O  O113  1  0.49207792  0.85649663  0.07975039  1
  O  O114  1  0.36469138  0.84437972  0.58051355  1
  O  O115  1  0.48603913  0.62233231  0.58010110  1
  O  O116  1  0.14518322  0.51048006  0.57922418  1
  O  O117  1  0.32193048  0.85732260  0.25323561  1
  O  O118  1  0.52228738  0.64679062  0.25209605  1
  O  O119  1  0.13966883  0.47485317  0.25393972  1
  O  O120  1  0.33341460  0.47145352  0.75445722  1
  O  O121  1  0.12916434  0.65316421  0.75641988  1
  O  O122  1  0.51000340  0.85391743  0.75267404  1
