# generated using pymatgen
data_Na7Zn3SnP5SO24
_symmetry_space_group_name_H-M   'P 1'
_cell_length_a   9.04101860
_cell_length_b   9.02002304
_cell_length_c   22.04057460
_cell_angle_alpha   89.34393491
_cell_angle_beta   90.39583928
_cell_angle_gamma   119.96467669
_symmetry_Int_Tables_number   1
_chemical_formula_structural   Na7Zn3SnP5SO24
_chemical_formula_sum   'Na21 Zn9 Sn3 P15 S3 O72'
_cell_volume   1557.05568977
_cell_formula_units_Z   3
loop_
 _symmetry_equiv_pos_site_id
 _symmetry_equiv_pos_as_xyz
  1  'x, y, z'
loop_
 _atom_site_type_symbol
 _atom_site_label
 _atom_site_symmetry_multiplicity
 _atom_site_fract_x
 _atom_site_fract_y
 _atom_site_fract_z
 _atom_site_occupancy
  Na  Na0  1  0.62493002  0.99853285  0.25119747  1
  Na  Na1  1  0.36714529  0.36116713  0.25289530  1
  Na  Na2  1  0.00762740  0.63943691  0.25007195  1
  Na  Na3  1  0.64568361  0.63489188  0.74603591  1
  Na  Na4  1  0.99106778  0.35546490  0.74684375  1
  Na  Na5  1  0.29525024  0.33932643  0.58745689  1
  Na  Na6  1  0.03062920  0.69994818  0.58773686  1
  Na  Na7  1  0.67486551  0.96225392  0.58493416  1
  Na  Na8  1  0.29367570  0.95903625  0.08255778  1
  Na  Na9  1  0.66463594  0.70297605  0.07986541  1
  Na  Na10  1  0.03814948  0.33443053  0.08011208  1
  Na  Na11  1  0.97366977  0.67907199  0.90984039  1
  Na  Na12  1  0.32244664  0.29410392  0.90957244  1
  Na  Na13  1  0.32335087  0.02070054  0.41088095  1
  Na  Na14  1  0.69841158  0.67665505  0.41596791  1
  Na  Na15  1  0.99406526  0.01307722  0.49777294  1
  Na  Na16  1  0.98752416  0.00026933  0.99477573  1
  Na  Na17  1  0.65349246  0.30706285  0.82626773  1
  Na  Na18  1  0.67125602  0.32664586  0.33224466  1
  Na  Na19  1  0.33238994  0.67209570  0.16375394  1
  Na  Na20  1  0.33402185  0.67095961  0.66571758  1
  Zn  Zn21  1  0.00988475  0.00979368  0.35316907  1
  Zn  Zn22  1  0.99659202  0.00176416  0.84588314  1
  Zn  Zn23  1  0.99390759  0.00189290  0.66080704  1
  Zn  Zn24  1  0.00818731  0.99823979  0.14819256  1
  Zn  Zn25  1  0.66897316  0.33632539  0.68657935  1
  Zn  Zn26  1  0.65678744  0.32304285  0.17648534  1
  Zn  Zn27  1  0.33612281  0.66832370  0.01372011  1
  Zn  Zn28  1  0.33002377  0.65576079  0.50958407  1
  Zn  Zn29  1  0.33015453  0.67259456  0.32811485  1
  Sn  Sn30  1  0.66739655  0.32933474  0.98211489  1
  Sn  Sn31  1  0.67612727  0.33688581  0.48189625  1
  Sn  Sn32  1  0.33539747  0.67331191  0.81667378  1
  P  P33  1  0.29832765  0.99874871  0.25024677  1
  P  P34  1  0.29972804  0.29958525  0.75158712  1
  P  P35  1  0.00419267  0.70581089  0.75072452  1
  P  P36  1  0.70004251  -0.00056210  0.74909255  1
  P  P37  1  0.96502860  0.33302716  0.58611888  1
  P  P38  1  0.66643453  0.63077107  0.58376166  1
  P  P39  1  0.96035775  0.62710630  0.08545097  1
  P  P40  1  0.66862028  0.03391167  0.08663813  1
  P  P41  1  0.36928582  0.33497447  0.08437166  1
  P  P42  1  0.63188364  0.66735312  0.91930163  1
  P  P43  1  0.03561214  0.36959785  0.91900200  1
  P  P44  1  0.33430756  0.96424192  0.92002137  1
  P  P45  1  0.63357591  0.96710863  0.41740368  1
  P  P46  1  0.33477414  0.36735940  0.41726555  1
  P  P47  1  0.03443267  0.66647024  0.41671708  1
  S  S48  1  0.70292682  0.70327293  0.25034248  1
  S  S49  1  0.00008755  0.29556744  0.24901990  1
  S  S50  1  0.37198969  0.03912669  0.58288532  1
  O  O51  1  0.21351653  0.02526810  0.30649031  1
  O  O52  1  0.80528162  0.78727787  0.30495045  1
  O  O53  1  0.97395818  0.18393411  0.30172086  1
  O  O54  1  0.21651836  0.19869992  0.80969500  1
  O  O55  1  0.98213642  0.78923175  0.80766700  1
  O  O56  1  0.81645427  0.02775149  0.80336532  1
  O  O57  1  0.76694767  0.95980605  0.69012162  1
  O  O58  1  0.18914012  0.22361541  0.69404096  1
  O  O59  1  0.02829894  0.80816107  0.69153204  1
  O  O60  1  0.78340968  0.80765031  0.19489399  1
  O  O61  1  0.01978494  0.21834951  0.19241402  1
  O  O62  1  0.18941427  0.97185895  0.19229820  1
  O  O63  1  0.88170170  0.36110578  0.64177818  1
  O  O64  1  0.48437767  0.12682916  0.63420498  1
  O  O65  1  0.63703072  0.51424388  0.63884211  1
  O  O66  1  0.87587166  0.51662713  0.14216259  1
  O  O67  1  0.63865510  0.11037118  0.14407521  1
  O  O68  1  0.47822153  0.36461183  0.14161273  1
  O  O69  1  0.45569647  0.30298395  0.02754857  1
  O  O70  1  0.84645845  0.54314898  0.02703005  1
  O  O71  1  0.70453624  0.15831726  0.03081820  1
  O  O72  1  0.44881546  0.14248134  0.52455290  1
  O  O73  1  0.69244916  0.54523684  0.52467563  1
  O  O74  1  0.84266439  0.29381754  0.52913798  1
  O  O75  1  0.54976970  0.68434200  0.97688679  1
  O  O76  1  0.14099150  0.45280411  0.97611243  1
  O  O77  1  0.31122924  0.86086726  0.97826003  1
  O  O78  1  0.54856540  0.85817956  0.47449153  1
  O  O79  1  0.31773998  0.44652192  0.47580099  1
  O  O80  1  0.14367089  0.69162138  0.47348161  1
  O  O81  1  0.10818610  0.63890620  0.35800575  1
  O  O82  1  0.52318632  0.89310182  0.35948483  1
  O  O83  1  0.36803926  0.48136179  0.36010159  1
  O  O84  1  0.11820349  0.48940153  0.86158027  1
  O  O85  1  0.36487818  0.88031818  0.86373278  1
  O  O86  1  0.51272563  0.63089377  0.86230411  1
  O  O87  1  0.00961681  0.82461921  0.41302220  1
  O  O88  1  0.81046053  0.98344818  0.41176254  1
  O  O89  1  0.18292459  0.18420210  0.41336290  1
  O  O90  1  0.01961276  0.19396849  0.91243342  1
  O  O91  1  0.17560153  0.98485187  0.91341460  1
  O  O92  1  0.81313461  0.81791565  0.91253527  1
  O  O93  1  0.98517591  0.17192149  0.58818423  1
  O  O94  1  0.20239705  0.02540421  0.58598012  1
  O  O95  1  0.83201810  0.80705071  0.58512108  1
  O  O96  1  0.97286775  0.80482676  0.08599465  1
  O  O97  1  0.83220218  0.01901506  0.08869537  1
  O  O98  1  0.19134273  0.17103216  0.08590210  1
  O  O99  1  0.67959686  0.15829129  0.74421169  1
  O  O100  1  0.48300518  0.33166034  0.74701345  1
  O  O101  1  0.84445392  0.52341741  0.74827567  1
  O  O102  1  0.68988354  0.53129181  0.24772428  1
  O  O103  1  0.84682685  0.31831760  0.24702536  1
  O  O104  1  0.47975372  0.16362392  0.24698635  1
  O  O105  1  0.64044133  0.49420703  0.92051215  1
  O  O106  1  0.85827415  0.36459526  0.92036835  1
  O  O107  1  0.49773509  0.14933300  0.92083663  1
  O  O108  1  0.64132436  0.14675359  0.42147613  1
  O  O109  1  0.50520972  0.35236564  0.42030610  1
  O  O110  1  0.84868581  0.50404216  0.41981496  1
  O  O111  1  0.35257954  0.49665909  0.07856958  1
  O  O112  1  0.13833725  0.64383222  0.08072614  1
  O  O113  1  0.50594152  0.85753651  0.07959179  1
  O  O114  1  0.35640105  0.86789063  0.57874801  1
  O  O115  1  0.50520045  0.64951040  0.57871374  1
  O  O116  1  0.14022502  0.49923592  0.57840803  1
  O  O117  1  0.31673063  0.83492653  0.25412881  1
  O  O118  1  0.52808357  0.68230904  0.25292261  1
  O  O119  1  0.15866625  0.46701821  0.25364055  1
  O  O120  1  0.31215123  0.48455832  0.75509445  1
  O  O121  1  0.16580813  0.68045324  0.75402601  1
  O  O122  1  0.52138769  0.82803301  0.75559155  1
