# generated using pymatgen
data_Na2LaZnP(SO6)2
_symmetry_space_group_name_H-M   'P 1'
_cell_length_a   9.38390819
_cell_length_b   9.30872565
_cell_length_c   23.49711720
_cell_angle_alpha   89.23440457
_cell_angle_beta   90.00000000
_cell_angle_gamma   120.26753228
_symmetry_Int_Tables_number   1
_chemical_formula_structural   Na2LaZnP(SO6)2
_chemical_formula_sum   'Na12 La6 Zn6 P6 S12 O72'
_cell_volume   1772.51576976
_cell_formula_units_Z   6
loop_
 _symmetry_equiv_pos_site_id
 _symmetry_equiv_pos_as_xyz
  1  'x, y, z'
loop_
 _atom_site_type_symbol
 _atom_site_label
 _atom_site_symmetry_multiplicity
 _atom_site_fract_x
 _atom_site_fract_y
 _atom_site_fract_z
 _atom_site_occupancy
  Na  Na0  1  0.00444872  0.64097032  0.23954981  1
  Na  Na1  1  0.63652160  0.64097032  0.73954981  1
  Na  Na2  1  0.65721276  0.95882067  0.57777592  1
  Na  Na3  1  0.30160890  0.95882067  0.07777592  1
  Na  Na4  1  0.69100501  0.02690788  0.90727029  1
  Na  Na5  1  0.33590187  0.02690788  0.40727029  1
  Na  Na6  1  0.97495005  0.98299604  0.48701314  1
  Na  Na7  1  0.00804599  0.98299604  0.98701314  1
  Na  Na8  1  0.65451877  0.30807840  0.82018245  1
  Na  Na9  1  0.65356064  0.30807840  0.32018245  1
  Na  Na10  1  0.33724783  0.65294696  0.15362711  1
  Na  Na11  1  0.31569812  0.65294696  0.65362711  1
  La  La12  1  0.00834451  0.00334780  0.64873876  1
  La  La13  1  0.99500329  0.00334780  0.14873876  1
  La  La14  1  0.67459503  0.35265023  0.98219452  1
  La  La15  1  0.67805620  0.35265023  0.48219452  1
  La  La16  1  0.34837213  0.67671838  0.31482506  1
  La  La17  1  0.32834525  0.67671838  0.81482506  1
  Zn  Zn18  1  0.98992747  0.00516688  0.34802888  1
  Zn  Zn19  1  0.01523941  0.00516688  0.84802888  1
  Zn  Zn20  1  0.66880695  0.32373849  0.68095470  1
  Zn  Zn21  1  0.65493254  0.32373849  0.18095470  1
  Zn  Zn22  1  0.27403279  0.65599533  0.01231055  1
  Zn  Zn23  1  0.38196153  0.65599533  0.51231055  1
  P  P24  1  0.30526982  0.01912663  0.25143664  1
  P  P25  1  0.71385680  0.01912663  0.75143664  1
  P  P26  1  0.64959701  0.62609047  0.59004399  1
  P  P27  1  0.97649446  0.62609047  0.09004399  1
  P  P28  1  0.31846165  0.96567056  0.92070067  1
  P  P29  1  0.64720791  0.96567056  0.42070067  1
  S  S30  1  0.71066339  0.68813110  0.25302870  1
  S  S31  1  0.98192176  0.29578125  0.25277461  1
  S  S32  1  0.31385949  0.29578125  0.75277461  1
  S  S33  1  0.97746770  0.68813110  0.75302870  1
  S  S34  1  0.97395282  0.35185328  0.58555094  1
  S  S35  1  0.37928792  0.02697484  0.58305871  1
  S  S36  1  0.64768792  0.02697484  0.08305871  1
  S  S37  1  0.37790147  0.35185328  0.08555094  1
  S  S38  1  0.63942906  0.68754512  0.91522346  1
  S  S39  1  0.03870518  0.35105681  0.91901221  1
  S  S40  1  0.31235063  0.35105681  0.41901221  1
  S  S41  1  0.04811506  0.68754512  0.41522346  1
  O  O42  1  0.22016621  0.03473177  0.30645187  1
  O  O43  1  0.80892413  0.78350468  0.30258388  1
  O  O44  1  0.97371305  0.19692672  0.30369580  1
  O  O45  1  0.22321367  0.19692672  0.80369580  1
  O  O46  1  0.97458054  0.78350468  0.80258388  1
  O  O47  1  0.81456556  0.03473177  0.80645187  1
  O  O48  1  0.79690413  0.99441002  0.69823295  1
  O  O49  1  0.22206620  0.22203886  0.69990333  1
  O  O50  1  0.00085464  0.78353398  0.69942421  1
  O  O51  1  0.78267934  0.78353398  0.19942421  1
  O  O52  1  -0.00002734  0.22203886  0.19990333  1
  O  O53  1  0.19750590  0.99441002  0.19823295  1
  O  O54  1  0.88649192  0.36277634  0.63653317  1
  O  O55  1  0.48694580  0.12486977  0.63108677  1
  O  O56  1  0.64150233  0.53057552  0.64544147  1
  O  O57  1  0.88907418  0.53057552  0.14544147  1
  O  O58  1  0.63792498  0.12486977  0.13108677  1
  O  O59  1  0.47628542  0.36277634  0.13653317  1
  O  O60  1  0.45242892  0.32530703  0.03373808  1
  O  O61  1  0.87590717  0.54210910  0.03642113  1
  O  O62  1  0.66549531  0.11538498  0.02790419  1
  O  O63  1  0.44989066  0.11538498  0.52790419  1
  O  O64  1  0.66620293  0.54210910  0.53642113  1
  O  O65  1  0.87287912  0.32530703  0.53373808  1
  O  O66  1  0.54194483  0.69170689  0.96363204  1
  O  O67  1  0.13334355  0.43989579  0.97026404  1
  O  O68  1  0.29520532  0.86598687  0.97794362  1
  O  O69  1  0.57078055  0.86598687  0.47794362  1
  O  O70  1  0.30655124  0.43989579  0.47026404  1
  O  O71  1  0.14976107  0.69170689  0.46363204  1
  O  O72  1  0.11785643  0.67037983  0.36032087  1
  O  O73  1  0.52669388  0.87649755  0.37129021  1
  O  O74  1  0.33106097  0.44719716  0.36651300  1
  O  O75  1  0.11613519  0.44719716  0.86651300  1
  O  O76  1  0.34980267  0.87649755  0.87129021  1
  O  O77  1  0.55252240  0.67037983  0.86032087  1
  O  O78  1  0.04432303  0.84728275  0.41387033  1
  O  O79  1  0.81784449  0.98249748  0.41089120  1
  O  O80  1  0.16196073  0.18417469  0.41779551  1
  O  O81  1  0.02221395  0.18417469  0.91779551  1
  O  O82  1  0.16465300  0.98249748  0.91089120  1
  O  O83  1  0.80295972  0.84728275  0.91387033  1
  O  O84  1  0.98748009  0.19721924  0.58834866  1
  O  O85  1  0.21079743  0.00324525  0.58732521  1
  O  O86  1  0.79955405  0.80939273  0.58876449  1
  O  O87  1  0.00983868  0.80939273  0.08876449  1
  O  O88  1  0.79244782  0.00324525  0.08732521  1
  O  O89  1  0.20973915  0.19721924  0.08834866  1
  O  O90  1  0.68942035  0.17140966  0.74385857  1
  O  O91  1  0.48010769  0.31261971  0.75039698  1
  O  O92  1  0.81698387  0.52813981  0.75121892  1
  O  O93  1  0.71115693  0.52813981  0.25121892  1
  O  O94  1  0.83251302  0.31261971  0.25039698  1
  O  O95  1  0.48199031  0.17140966  0.24385857  1
  O  O96  1  0.67006773  0.54548579  0.91769279  1
  O  O97  1  0.86617432  0.32477221  0.92071792  1
  O  O98  1  0.48180657  0.13794764  0.92277717  1
  O  O99  1  0.65614207  0.13794764  0.42277717  1
  O  O100  1  0.45859889  0.32477221  0.42071792  1
  O  O101  1  0.87541906  0.54548579  0.41769279  1
  O  O102  1  0.36163806  0.50037129  0.08018491  1
  O  O103  1  0.15170369  0.64230972  0.08473044  1
  O  O104  1  0.49278373  0.86292875  0.08327358  1
  O  O105  1  0.37014402  0.86292875  0.58327358  1
  O  O106  1  0.49060503  0.64230972  0.58473044  1
  O  O107  1  0.13873223  0.50037129  0.58018491  1
  O  O108  1  0.31269305  0.85369190  0.25399662  1
  O  O109  1  0.53764771  0.65330321  0.25490596  1
  O  O110  1  0.12972662  0.46950787  0.25456900  1
  O  O111  1  0.33978025  0.46950787  0.75456900  1
  O  O112  1  0.11565450  0.65330321  0.75490596  1
  O  O113  1  0.54099785  0.85369190  0.75399662  1
