# generated using pymatgen
data_Na2Y6Ta2Si3(S3O16)3
_symmetry_space_group_name_H-M   'P 1'
_cell_length_a   18.20413352
_cell_length_b   9.12580313
_cell_length_c   23.96199482
_cell_angle_alpha   89.92980161
_cell_angle_beta   90.10035261
_cell_angle_gamma   120.16937848
_symmetry_Int_Tables_number   1
_chemical_formula_structural   Na2Y6Ta2Si3(S3O16)3
_chemical_formula_sum   'Na6 Y18 Ta6 Si9 S27 O144'
_cell_volume   3441.51950106
_cell_formula_units_Z   3
loop_
 _symmetry_equiv_pos_site_id
 _symmetry_equiv_pos_as_xyz
  1  'x, y, z'
loop_
 _atom_site_type_symbol
 _atom_site_label
 _atom_site_symmetry_multiplicity
 _atom_site_fract_x
 _atom_site_fract_y
 _atom_site_fract_z
 _atom_site_occupancy
  Na  Na0  1  0.99869545  0.98338375  0.49933396  1
  Na  Na1  1  0.50247646  0.01617761  0.99645079  1
  Na  Na2  1  0.34571893  0.33814624  0.83538850  1
  Na  Na3  1  0.83923331  0.36598178  0.83056647  1
  Na  Na4  1  0.34089464  0.31562800  0.33763340  1
  Na  Na5  1  0.84467040  0.34953959  0.34520725  1
  Y  Y6  1  0.00570722  0.99082095  0.36005700  1
  Y  Y7  1  0.50447158  0.01796792  0.85713878  1
  Y  Y8  1  0.00096415  0.99347510  0.64863441  1
  Y  Y9  1  0.50233301  0.00936880  0.14931611  1
  Y  Y10  1  0.32582819  0.33690505  0.68172832  1
  Y  Y11  1  0.84128260  0.34024245  0.68431389  1
  Y  Y12  1  0.34554882  0.33972845  0.18902754  1
  Y  Y13  1  0.82440006  0.31203715  0.18270267  1
  Y  Y14  1  0.33366846  0.33217565  0.98111135  1
  Y  Y15  1  0.84007849  0.33572627  0.98222397  1
  Y  Y16  1  0.34084847  0.34576510  0.48375707  1
  Y  Y17  1  0.82798987  0.32620287  0.48468404  1
  Y  Y18  1  0.16104259  0.65985545  0.01920319  1
  Y  Y19  1  0.66267352  0.67394789  0.52322389  1
  Y  Y20  1  0.16143422  0.67366683  0.31306503  1
  Y  Y21  1  0.66866654  0.66387939  0.30832214  1
  Y  Y22  1  0.16839334  0.67415303  0.80666292  1
  Y  Y23  1  0.66074915  0.64809017  0.81063145  1
  Ta  Ta24  1  0.49245670  0.00289663  0.35590889  1
  Ta  Ta25  1  0.99232505  0.98146204  0.85397141  1
  Ta  Ta26  1  0.49784308  0.99052454  0.64344561  1
  Ta  Ta27  1  0.99505642  0.00008987  0.14586789  1
  Ta  Ta28  1  0.67535586  0.66770765  0.01424298  1
  Ta  Ta29  1  0.17380574  0.68145611  0.51515438  1
  Si  Si30  1  0.49602690  0.28386404  0.25313874  1
  Si  Si31  1  0.99341140  0.70208912  0.75238819  1
  Si  Si32  1  0.68633873  0.04263185  0.58693958  1
  Si  Si33  1  0.32932269  0.62920434  0.58279765  1
  Si  Si34  1  0.82953679  0.03070912  0.08254427  1
  Si  Si35  1  0.81237399  0.66174882  0.91303458  1
  Si  Si36  1  0.52093210  0.37605166  0.91888947  1
  Si  Si37  1  0.31152779  0.96408007  0.41379616  1
  Si  Si38  1  0.01848088  0.65925646  0.41886353  1
  S  S39  1  0.14189000  0.00484885  0.24539429  1
  S  S40  1  0.64402487  0.00902033  0.25519737  1
  S  S41  1  0.35877017  0.71166445  0.25404320  1
  S  S42  1  0.86152430  0.71613451  0.24754209  1
  S  S43  1  0.99904527  0.27881832  0.24751130  1
  S  S44  1  0.14415019  0.27864919  0.75561360  1
  S  S45  1  0.64168037  0.27947425  0.74614011  1
  S  S46  1  0.49783032  0.71877412  0.74829847  1
  S  S47  1  0.36113016  0.00888560  0.74829727  1
  S  S48  1  0.85940036  0.00738265  0.75452184  1
  S  S49  1  0.47895836  0.32035066  0.58748780  1
  S  S50  1  0.98978093  0.34392925  0.57948115  1
  S  S51  1  0.18490627  0.02915636  0.57912121  1
  S  S52  1  0.83534718  0.63330797  0.58179327  1
  S  S53  1  0.48771555  0.63382354  0.07982835  1
  S  S54  1  0.98040915  0.63900065  0.08766003  1
  S  S55  1  0.33283629  0.03495906  0.08232119  1
  S  S56  1  0.18092777  0.32271950  0.08734492  1
  S  S57  1  0.68511481  0.34079610  0.07896263  1
  S  S58  1  0.31261612  0.66740219  0.91744612  1
  S  S59  1  0.02206971  0.36540871  0.91234279  1
  S  S60  1  0.16127176  0.96099378  0.91374831  1
  S  S61  1  0.66638591  0.94940461  0.91912867  1
  S  S62  1  0.81357987  0.95949674  0.41577265  1
  S  S63  1  0.16734287  0.38395480  0.41908824  1
  S  S64  1  0.66210627  0.36140043  0.41262456  1
  S  S65  1  0.52050791  0.67680601  0.41105763  1
  O  O66  1  0.10504348  0.02862902  0.29725499  1
  O  O67  1  0.59583045  0.01981262  0.30336626  1
  O  O68  1  0.41465910  0.80287229  0.30394845  1
  O  O69  1  0.91236622  0.79358445  0.29806093  1
  O  O70  1  0.48763374  0.15573424  0.30739318  1
  O  O71  1  0.98731516  0.17727358  0.29750471  1
  O  O72  1  0.09556508  0.17112427  0.80443085  1
  O  O73  1  0.60435541  0.18311357  0.79851648  1
  O  O74  1  0.48661868  0.79656486  0.79899969  1
  O  O75  1  0.98778701  0.81690434  0.80813844  1
  O  O76  1  0.41053015  0.03174887  0.80008345  1
  O  O77  1  0.91573718  0.02374357  0.80488659  1
  O  O78  1  0.40674042  0.99616437  0.69905516  1
  O  O79  1  0.89930699  0.99201282  0.70337086  1
  O  O80  1  0.09786660  0.20828588  0.70297877  1
  O  O81  1  0.58568640  0.18244719  0.69826380  1
  O  O82  1  0.00341703  0.81223304  0.69757204  1
  O  O83  1  0.50113160  0.82203184  0.69801818  1
  O  O84  1  0.39850033  0.80677064  0.20247547  1
  O  O85  1  0.90919777  0.82411205  0.19710622  1
  O  O86  1  0.00328797  0.18073418  0.19623957  1
  O  O87  1  0.50367648  0.19619045  0.19693836  1
  O  O88  1  0.08630473  0.99124751  0.19664198  1
  O  O89  1  0.59827006  0.98753308  0.20214249  1
  O  O90  1  0.43814734  0.35164768  0.63548135  1
  O  O91  1  0.95474261  0.37423165  0.63101772  1
  O  O92  1  0.23367282  0.09966196  0.63113099  1
  O  O93  1  0.74697854  0.13375969  0.63991462  1
  O  O94  1  0.30827899  0.50933059  0.63727691  1
  O  O95  1  0.82891807  0.53838932  0.63282627  1
  O  O96  1  0.44983004  0.53196678  0.13146618  1
  O  O97  1  0.94010026  0.52773170  0.13579977  1
  O  O98  1  0.32356829  0.11693247  0.13288812  1
  O  O99  1  0.81025409  0.10724748  0.13777761  1
  O  O100  1  0.23727261  0.35627060  0.13527942  1
  O  O101  1  0.73385401  0.36779074  0.13114074  1
  O  O102  1  0.21203063  0.27913976  0.03721387  1
  O  O103  1  0.72826956  0.31564535  0.03143173  1
  O  O104  1  0.42808182  0.54902273  0.03254145  1
  O  O105  1  0.92755375  0.57737134  0.03734746  1
  O  O106  1  0.34455698  0.14103973  0.03272510  1
  O  O107  1  0.85842323  0.15844329  0.03071719  1
  O  O108  1  0.22783257  0.13995398  0.53133925  1
  O  O109  1  0.72011122  0.15716862  0.53149660  1
  O  O110  1  0.35589506  0.55697590  0.53027386  1
  O  O111  1  0.85044160  0.55608131  0.53221069  1
  O  O112  1  0.42598613  0.27927882  0.53710643  1
  O  O113  1  0.93185586  0.31036823  0.53174486  1
  O  O114  1  0.27024320  0.68620291  0.96805577  1
  O  O115  1  0.76438500  0.68782611  0.97000811  1
  O  O116  1  0.07038399  0.43787672  0.96514605  1
  O  O117  1  0.58380842  0.49126546  0.97267896  1
  O  O118  1  0.14537017  0.85699587  0.96466928  1
  O  O119  1  0.66054414  0.84458521  0.96968756  1
  O  O120  1  0.26312985  0.84226585  0.46993683  1
  O  O121  1  0.77244515  0.85633864  0.46587072  1
  O  O122  1  0.16096198  0.47557686  0.46902439  1
  O  O123  1  0.64532176  0.42843967  0.46330679  1
  O  O124  1  0.08274600  0.67144013  0.47185484  1
  O  O125  1  0.56782866  0.70302753  0.46336624  1
  O  O126  1  0.05944247  0.64383342  0.36051558  1
  O  O127  1  0.56382883  0.65172148  0.36351805  1
  O  O128  1  0.25735547  0.87297149  0.35925755  1
  O  O129  1  0.76576398  0.87535077  0.36477569  1
  O  O130  1  0.17609902  0.47624132  0.36724785  1
  O  O131  1  0.67507442  0.47058407  0.36404280  1
  O  O132  1  0.06584473  0.48025481  0.86551439  1
  O  O133  1  0.55944219  0.47551491  0.86103697  1
  O  O134  1  0.17818533  0.88301932  0.86565115  1
  O  O135  1  0.67545636  0.87417042  0.86772350  1
  O  O136  1  0.26424894  0.65381324  0.86675078  1
  O  O137  1  0.75561240  0.64182537  0.85996699  1
  O  O138  1  0.01738657  0.83952042  0.42142591  1
  O  O139  1  0.51316122  0.83151677  0.40059556  1
  O  O140  1  0.40588353  0.96965196  0.40416132  1
  O  O141  1  0.90070138  0.98153360  0.41247122  1
  O  O142  1  0.08751040  0.21573206  0.41841705  1
  O  O143  1  0.58448133  0.18635397  0.40201299  1
  O  O144  1  0.01537231  0.19798490  0.90302964  1
  O  O145  1  0.51725952  0.19260243  0.92138575  1
  O  O146  1  0.08425806  0.97777434  0.90386584  1
  O  O147  1  0.58655630  0.95635604  0.91902142  1
  O  O148  1  0.39929001  0.81777443  0.91504424  1
  O  O149  1  0.90635038  0.84384745  0.90373392  1
  O  O150  1  0.48834833  0.16917880  0.60046750  1
  O  O151  1  0.00099031  0.19430007  0.58599328  1
  O  O152  1  0.09874130  0.00703726  0.58392547  1
  O  O153  1  0.58829075  0.01611988  0.60299058  1
  O  O154  1  0.41008191  0.82045279  0.60204845  1
  O  O155  1  0.90979248  0.81046518  0.58505391  1
  O  O156  1  0.49785656  0.80472700  0.08569689  1
  O  O157  1  0.99325890  0.81330808  0.10070501  1
  O  O158  1  0.40817302  0.01291688  0.08603991  1
  O  O159  1  0.91222953  0.00064603  0.10174583  1
  O  O160  1  0.09312403  0.16932925  0.10035443  1
  O  O161  1  0.59889945  0.19047500  0.08364894  1
  O  O162  1  0.34916944  0.15742375  0.74296764  1
  O  O163  1  0.85604713  0.16507484  0.75493111  1
  O  O164  1  0.22759764  0.28499937  0.75454597  1
  O  O165  1  0.72671098  0.29940060  0.74086436  1
  O  O166  1  0.42245553  0.54545103  0.74232343  1
  O  O167  1  0.90783053  0.52050257  0.75463962  1
  O  O168  1  0.35336831  0.54372601  0.25227651  1
  O  O169  1  0.85117613  0.54718682  0.23968567  1
  O  O170  1  0.40881274  0.29360590  0.25414184  1
  O  O171  1  0.92402979  0.29925825  0.23967749  1
  O  O172  1  0.22603448  0.15761924  0.23791242  1
  O  O173  1  0.72799114  0.17003545  0.25334503  1
  O  O174  1  0.31837168  0.51144105  0.92215224  1
  O  O175  1  0.83143678  0.51055903  0.92412737  1
  O  O176  1  0.42480310  0.34766117  0.92534732  1
  O  O177  1  0.93568477  0.34255462  0.91724403  1
  O  O178  1  0.23437265  0.13451572  0.92081002  1
  O  O179  1  0.74046399  0.12141034  0.92604320  1
  O  O180  1  0.33132616  0.15468843  0.42287785  1
  O  O181  1  0.82098246  0.12824754  0.41899390  1
  O  O182  1  0.24116259  0.35910338  0.42533937  1
  O  O183  1  0.73589625  0.33639053  0.41648135  1
  O  O184  1  0.43322053  0.52855119  0.41498309  1
  O  O185  1  0.92322038  0.49820899  0.42347578  1
  O  O186  1  0.16657979  0.46597118  0.07739104  1
  O  O187  1  0.67677280  0.49433993  0.06969423  1
  O  O188  1  0.06577708  0.66362367  0.07821668  1
  O  O189  1  0.57109208  0.64823820  0.06960119  1
  O  O190  1  0.25569767  0.86665399  0.07503189  1
  O  O191  1  0.75009628  0.84247889  0.06607097  1
  O  O192  1  0.17613216  0.85842329  0.56995400  1
  O  O193  1  0.66631505  0.85126439  0.57576247  1
  O  O194  1  0.24913862  0.65598863  0.56549531  1
  O  O195  1  0.75757299  0.64317698  0.57472966  1
  O  O196  1  0.07448835  0.49628888  0.56869154  1
  O  O197  1  0.56424043  0.46417891  0.57823462  1
  O  O198  1  0.14606326  0.84933177  0.24670155  1
  O  O199  1  0.65732196  0.86403445  0.26169154  1
  O  O200  1  0.27521599  0.69360819  0.26071696  1
  O  O201  1  0.78048737  0.71265568  0.24894061  1
  O  O202  1  0.07852332  0.44066798  0.24730084  1
  O  O203  1  0.57876527  0.46454945  0.26288337  1
  O  O204  1  0.15693193  0.44950282  0.76268984  1
  O  O205  1  0.64545061  0.44421427  0.74770486  1
  O  O206  1  0.07800159  0.69373015  0.76386765  1
  O  O207  1  0.57685932  0.71414737  0.74936430  1
  O  O208  1  0.27842642  0.85087684  0.75144025  1
  O  O209  1  0.77632594  0.85750523  0.76185648  1
