# generated using pymatgen
data_CsSbS6
_symmetry_space_group_name_H-M   'P 1'
_cell_length_a   14.78325171
_cell_length_b   6.03827590
_cell_length_c   11.49352343
_cell_angle_alpha   71.78765069
_cell_angle_beta   90.00000000
_cell_angle_gamma   90.00000000
_symmetry_Int_Tables_number   1
_chemical_formula_structural   CsSbS6
_chemical_formula_sum   'Cs4 Sb4 S24'
_cell_volume   974.57698489
_cell_formula_units_Z   4
loop_
 _symmetry_equiv_pos_site_id
 _symmetry_equiv_pos_as_xyz
  1  'x, y, z'
loop_
 _atom_site_type_symbol
 _atom_site_label
 _atom_site_symmetry_multiplicity
 _atom_site_fract_x
 _atom_site_fract_y
 _atom_site_fract_z
 _atom_site_occupancy
  Cs  Cs0  1  0.08545550  0.71573507  0.68907089  1
  Cs  Cs1  1  0.58545550  0.28426493  0.81092911  1
  Cs  Cs2  1  0.91454450  0.28426493  0.31092911  1
  Cs  Cs3  1  0.41454450  0.71573507  0.18907089  1
  Sb  Sb4  1  0.40563768  0.91426666  0.61394592  1
  Sb  Sb5  1  0.90563768  0.08573334  0.88605408  1
  Sb  Sb6  1  0.59436232  0.08573334  0.38605408  1
  Sb  Sb7  1  0.09436232  0.91426666  0.11394592  1
  S  S8  1  0.38250375  0.32816558  0.61873375  1
  S  S9  1  0.88250375  0.67183442  0.88126625  1
  S  S10  1  0.61749625  0.67183442  0.38126625  1
  S  S11  1  0.11749625  0.32816558  0.11873375  1
  S  S12  1  0.27638356  0.26934946  0.73915530  1
  S  S13  1  0.77638356  0.73065054  0.76084470  1
  S  S14  1  0.72361644  0.73065054  0.26084470  1
  S  S15  1  0.22361644  0.26934946  0.23915530  1
  S  S16  1  0.06789441  0.11242368  0.87477320  1
  S  S17  1  0.56789441  0.88757632  0.62522680  1
  S  S18  1  0.93210559  0.88757632  0.12522680  1
  S  S19  1  0.43210559  0.11242368  0.37477320  1
  S  S20  1  0.06818146  0.75061561  0.36240065  1
  S  S21  1  0.56818146  0.24938439  0.13759935  1
  S  S22  1  0.93181854  0.24938439  0.63759935  1
  S  S23  1  0.43181854  0.75061561  0.86240065  1
  S  S24  1  0.18824192  0.58696480  0.42295949  1
  S  S25  1  0.68824192  0.41303520  0.07704051  1
  S  S26  1  0.81175808  0.41303520  0.57704051  1
  S  S27  1  0.31175808  0.58696480  0.92295949  1
  S  S28  1  0.17759827  0.25406892  0.41138771  1
  S  S29  1  0.67759827  0.74593108  0.08861229  1
  S  S30  1  0.82240173  0.74593108  0.58861229  1
  S  S31  1  0.32240173  0.25406892  0.91138771  1
