# generated using pymatgen
data_Nd2Mg(BiO4)2
_symmetry_space_group_name_H-M   'P 1'
_cell_length_a   7.48074003
_cell_length_b   7.48074003
_cell_length_c   7.04231913
_cell_angle_alpha   132.34878191
_cell_angle_beta   134.44738457
_cell_angle_gamma   72.93978474
_symmetry_Int_Tables_number   1
_chemical_formula_structural   Nd2Mg(BiO4)2
_chemical_formula_sum   'Nd2 Mg1 Bi2 O8'
_cell_volume   195.69065802
_cell_formula_units_Z   1
loop_
 _symmetry_equiv_pos_site_id
 _symmetry_equiv_pos_as_xyz
  1  'x, y, z'
loop_
 _atom_site_type_symbol
 _atom_site_label
 _atom_site_symmetry_multiplicity
 _atom_site_fract_x
 _atom_site_fract_y
 _atom_site_fract_z
 _atom_site_occupancy
  Nd  Nd0  1  0.38399045  0.13399045  0.25000000  1
  Nd  Nd1  1  0.65216134  0.90216134  0.75000000  1
  Mg  Mg2  1  0.41045957  0.66045957  0.75000000  1
  Bi  Bi3  1  0.82473081  0.57473081  0.25000000  1
  Bi  Bi4  1  0.12272759  0.37272759  0.75000000  1
  O  O5  1  0.71728580  0.52767573  0.84854164  1
  O  O6  1  0.70486487  0.05776028  0.21034497  1
  O  O7  1  0.47386781  0.22160063  0.75537958  1
  O  O8  1  0.06221639  0.32425815  0.30822522  1
  O  O9  1  0.96622105  0.71848923  0.74462042  1
  O  O10  1  0.51603392  0.75399116  0.19177478  1
  O  O11  1  0.17913509  0.86874516  0.65145836  1
  O  O12  1  0.34741631  0.49452090  0.28965503  1
