# generated using pymatgen
data_Na2ScGe(PO4)3
_symmetry_space_group_name_H-M   'P 1'
_cell_length_a   8.74114421
_cell_length_b   8.74114393
_cell_length_c   22.14864992
_cell_angle_alpha   90.21411473
_cell_angle_beta   89.78588528
_cell_angle_gamma   120.41789890
_symmetry_Int_Tables_number   1
_chemical_formula_structural   Na2ScGe(PO4)3
_chemical_formula_sum   'Na12 Sc6 Ge6 P18 O72'
_cell_volume   1459.37246834
_cell_formula_units_Z   6
loop_
 _symmetry_equiv_pos_site_id
 _symmetry_equiv_pos_as_xyz
  1  'x, y, z'
loop_
 _atom_site_type_symbol
 _atom_site_label
 _atom_site_symmetry_multiplicity
 _atom_site_fract_x
 _atom_site_fract_y
 _atom_site_fract_z
 _atom_site_occupancy
  Na  Na0  1  0.36407191  0.35847991  0.24993048  1
  Na  Na1  1  0.64152009  0.63592809  0.74993048  1
  Na  Na2  1  0.03073891  0.69181291  0.58326348  1
  Na  Na3  1  0.30818709  0.96926109  0.08326348  1
  Na  Na4  1  0.69740491  0.02514691  0.91659748  1
  Na  Na5  1  0.97485309  0.30259509  0.41659748  1
  Na  Na6  1  0.99950633  0.99907326  0.49956366  1
  Na  Na7  1  0.00092674  0.00049367  0.99956366  1
  Na  Na8  1  0.66617333  0.33240626  0.83289666  1
  Na  Na9  1  0.66759374  0.33382667  0.33289666  1
  Na  Na10  1  0.33283933  0.66574026  0.16623066  1
  Na  Na11  1  0.33425974  0.66716067  0.66623066  1
  Sc  Sc12  1  0.99853519  0.99223553  0.35406788  1
  Sc  Sc13  1  0.00776447  0.00146481  0.85406788  1
  Sc  Sc14  1  0.66520219  0.32556853  0.68740088  1
  Sc  Sc15  1  0.67443147  0.33479781  0.18740088  1
  Sc  Sc16  1  0.33186819  0.65890253  0.02073488  1
  Sc  Sc17  1  0.34109747  0.66813181  0.52073488  1
  Ge  Ge18  1  0.00244139  0.00729356  0.64826327  1
  Ge  Ge19  1  0.99270644  0.99755861  0.14826327  1
  Ge  Ge20  1  0.66910839  0.34062656  0.98159627  1
  Ge  Ge21  1  0.65937344  0.33089161  0.48159627  1
  Ge  Ge22  1  0.33577439  0.67396056  0.31493027  1
  Ge  Ge23  1  0.32603944  0.66422561  0.81493027  1
  P  P24  1  0.28456836  0.98717430  0.24925546  1
  P  P25  1  0.70381543  0.71523163  0.24995121  1
  P  P26  1  0.00646656  0.29412997  0.25213960  1
  P  P27  1  0.28476837  0.29618457  0.74995121  1
  P  P28  1  0.01282570  0.71543164  0.74925546  1
  P  P29  1  0.70587003  0.99353344  0.75213960  1
  P  P30  1  0.95123536  0.32050730  0.58258846  1
  P  P31  1  0.37048243  0.04856463  0.58328421  1
  P  P32  1  0.67313356  0.62746297  0.58547260  1
  P  P33  1  0.95143537  0.62951757  0.08328421  1
  P  P34  1  0.67949270  0.04876464  0.08258846  1
  P  P35  1  0.37253703  0.32686644  0.08547260  1
  P  P36  1  0.61790136  0.65384130  0.91592246  1
  P  P37  1  0.03714843  0.38189863  0.91661821  1
  P  P38  1  0.33979956  0.96079697  0.91880660  1
  P  P39  1  0.61810137  0.96285157  0.41661821  1
  P  P40  1  0.34615870  0.38209864  0.41592246  1
  P  P41  1  0.03920303  0.66020044  0.41880660  1
  O  O42  1  0.20137858  0.02448728  0.30330160  1
  O  O43  1  0.81450316  0.79584923  0.30573598  1
  O  O44  1  0.98279218  0.19033147  0.30959915  1
  O  O45  1  0.20415077  0.18549684  0.80573598  1
  O  O46  1  0.97551272  0.79862142  0.80330160  1
  O  O47  1  0.80966853  0.01720782  0.80959915  1
  O  O48  1  0.79363201  0.95365941  0.69560958  1
  O  O49  1  0.16824865  0.20969463  0.69193372  1
  O  O50  1  0.04218027  0.82808529  0.68964698  1
  O  O51  1  0.79030537  0.83175135  0.19193372  1
  O  O52  1  0.04634059  0.20636799  0.19560958  1
  O  O53  1  0.17191471  0.95781973  0.18964698  1
  O  O54  1  0.86804558  0.35782028  0.63663460  1
  O  O55  1  0.48117016  0.12918223  0.63906898  1
  O  O56  1  0.64945918  0.52366447  0.64293215  1
  O  O57  1  0.87081777  0.51882984  0.13906898  1
  O  O58  1  0.64217972  0.13195442  0.13663460  1
  O  O59  1  0.47633553  0.35054082  0.14293215  1
  O  O60  1  0.46029901  0.28699241  0.02894258  1
  O  O61  1  0.83491565  0.54302763  0.02526672  1
  O  O62  1  0.70884727  0.16141829  0.02297998  1
  O  O63  1  0.45697237  0.16508435  0.52526672  1
  O  O64  1  0.71300759  0.53970099  0.52894258  1
  O  O65  1  0.83858171  0.29115273  0.52297998  1
  O  O66  1  0.53471158  0.69115428  0.96996860  1
  O  O67  1  0.14783616  0.46251623  0.97240298  1
  O  O68  1  0.31612518  0.85699847  0.97626615  1
  O  O69  1  0.53748377  0.85216384  0.47240298  1
  O  O70  1  0.30884572  0.46528842  0.46996860  1
  O  O71  1  0.14300153  0.68387482  0.47626615  1
  O  O72  1  0.12696501  0.62032641  0.36227658  1
  O  O73  1  0.50158165  0.87636163  0.35860072  1
  O  O74  1  0.37551327  0.49475229  0.35631398  1
  O  O75  1  0.12363837  0.49841835  0.85860072  1
  O  O76  1  0.37967359  0.87303499  0.86227658  1
  O  O77  1  0.50524771  0.62448673  0.85631398  1
  O  O78  1  0.01519061  0.81939458  0.41179352  1
  O  O79  1  0.80734736  0.99520484  0.41061415  1
  O  O80  1  0.18066396  0.19701170  0.41021632  1
  O  O81  1  0.00479516  0.19265264  0.91061415  1
  O  O82  1  0.18060542  0.98480939  0.91179352  1
  O  O83  1  0.80298830  0.81933604  0.91021632  1
  O  O84  1  0.96435254  0.14946051  0.58995670  1
  O  O85  1  0.18128549  0.03002649  0.58876798  1
  O  O86  1  0.85034023  0.81449663  0.58965276  1
  O  O87  1  0.96997351  0.81871451  0.08876798  1
  O  O88  1  0.85053949  0.03564746  0.08995670  1
  O  O89  1  0.18550337  0.14965977  0.08965276  1
  O  O90  1  0.68185761  0.15272758  0.74512652  1
  O  O91  1  0.47401436  0.32853784  0.74394715  1
  O  O92  1  0.84733096  0.53034470  0.74354932  1
  O  O93  1  0.67146216  0.52598564  0.24394715  1
  O  O94  1  0.84727242  0.31814239  0.24512652  1
  O  O95  1  0.46965530  0.15266904  0.24354932  1
  O  O96  1  0.63101954  0.48279351  0.92328970  1
  O  O97  1  0.84795249  0.36335949  0.92210098  1
  O  O98  1  0.51700723  0.14782963  0.92298576  1
  O  O99  1  0.63664051  0.15204751  0.42210098  1
  O  O100  1  0.51720649  0.36898046  0.42328970  1
  O  O101  1  0.85217037  0.48299277  0.42298576  1
  O  O102  1  0.34852361  0.48606158  0.07846052  1
  O  O103  1  0.14068036  0.66187184  0.07728115  1
  O  O104  1  0.51399696  0.86367870  0.07688332  1
  O  O105  1  0.33812816  0.85931964  0.57728115  1
  O  O106  1  0.51393842  0.65147639  0.57846052  1
  O  O107  1  0.13632130  0.48600304  0.57688332  1
  O  O108  1  0.29768554  0.81612751  0.25662370  1
  O  O109  1  0.51461849  0.69669349  0.25543498  1
  O  O110  1  0.18367323  0.48116363  0.25631976  1
  O  O111  1  0.30330651  0.48538151  0.75543498  1
  O  O112  1  0.18387249  0.70231446  0.75662370  1
  O  O113  1  0.51883637  0.81632677  0.75631976  1
