# generated using pymatgen
data_MgFe2(PO4)2
_symmetry_space_group_name_H-M   'P 1'
_cell_length_a   5.22641851
_cell_length_b   5.00251930
_cell_length_c   7.32114225
_cell_angle_alpha   76.45306844
_cell_angle_beta   60.88495921
_cell_angle_gamma   67.81399171
_symmetry_Int_Tables_number   1
_chemical_formula_structural   MgFe2(PO4)2
_chemical_formula_sum   'Mg1 Fe2 P2 O8'
_cell_volume   154.54394103
_cell_formula_units_Z   1
loop_
 _symmetry_equiv_pos_site_id
 _symmetry_equiv_pos_as_xyz
  1  'x, y, z'
loop_
 _atom_site_type_symbol
 _atom_site_label
 _atom_site_symmetry_multiplicity
 _atom_site_fract_x
 _atom_site_fract_y
 _atom_site_fract_z
 _atom_site_occupancy
  Mg  Mg0  1  0.38887381  0.54703010  0.06819816  1
  Fe  Fe1  1  0.04735091  0.77761090  0.70647305  1
  Fe  Fe2  1  0.92693634  0.19715658  0.32119310  1
  P  P3  1  0.35675412  0.14145082  0.79228518  1
  P  P4  1  0.63936101  0.86315828  0.22015700  1
  O  O5  1  0.16571411  0.35117161  0.68157433  1
  O  O6  1  0.30241788  0.86897007  0.37865568  1
  O  O7  1  0.30300004  0.84147092  0.84010092  1
  O  O8  1  0.26989318  0.25718432  0.00106524  1
  O  O9  1  0.69946501  0.74286017  0.02166211  1
  O  O10  1  0.65728188  0.17714924  0.18642788  1
  O  O11  1  0.70657658  0.10600700  0.64360944  1
  O  O12  1  0.88637513  0.66003001  0.29600491  1
