# generated using pymatgen
data_Ba2La2MgMn(WO6)2
_symmetry_space_group_name_H-M   'P 1'
_cell_length_a   10.03326024
_cell_length_b   10.33568019
_cell_length_c   10.33568118
_cell_angle_alpha   33.04481152
_cell_angle_beta   33.61835945
_cell_angle_gamma   33.61835722
_symmetry_Int_Tables_number   1
_chemical_formula_structural   Ba2La2MgMn(WO6)2
_chemical_formula_sum   'Ba2 La2 Mg1 Mn1 W2 O12'
_cell_volume   289.59567707
_cell_formula_units_Z   1
loop_
 _symmetry_equiv_pos_site_id
 _symmetry_equiv_pos_as_xyz
  1  'x, y, z'
loop_
 _atom_site_type_symbol
 _atom_site_label
 _atom_site_symmetry_multiplicity
 _atom_site_fract_x
 _atom_site_fract_y
 _atom_site_fract_z
 _atom_site_occupancy
  Ba  Ba0  1  0.15018100  0.12647200  0.12647200  1
  Ba  Ba1  1  0.84981900  0.87352800  0.87352800  1
  La  La2  1  0.30522100  0.27631400  0.27631400  1
  La  La3  1  0.69477900  0.72368600  0.72368600  1
  Mg  Mg4  1  0.50000000  0.50000000  0.50000000  1
  Mn  Mn5  1  0.00000000  0.00000000  0.00000000  1
  W  W6  1  0.45049300  0.38633600  0.38633600  1
  W  W7  1  0.54950700  0.61366400  0.61366400  1
  O  O8  1  0.86036300  0.41337500  0.41337500  1
  O  O9  1  0.70270500  0.36666700  0.84858500  1
  O  O10  1  0.13963700  0.58662500  0.58662500  1
  O  O11  1  0.21288800  0.81063300  0.81063300  1
  O  O12  1  0.29729500  0.15141500  0.63333200  1
  O  O13  1  0.78711200  0.18936700  0.18936700  1
  O  O14  1  0.38243000  0.38376000  0.86379300  1
  O  O15  1  0.29729500  0.63333200  0.15141500  1
  O  O16  1  0.38243000  0.86379300  0.38376000  1
  O  O17  1  0.70270500  0.84858500  0.36666700  1
  O  O18  1  0.61757000  0.61624000  0.13620700  1
  O  O19  1  0.61757000  0.13620700  0.61624000  1
