# generated using pymatgen
data_MgMn4(FeO6)2
_symmetry_space_group_name_H-M   'P 1'
_cell_length_a   5.10377858
_cell_length_b   5.10628972
_cell_length_c   10.14077813
_cell_angle_alpha   90.05370306
_cell_angle_beta   89.24913062
_cell_angle_gamma   120.09621310
_symmetry_Int_Tables_number   1
_chemical_formula_structural   MgMn4(FeO6)2
_chemical_formula_sum   'Mg1 Mn4 Fe2 O12'
_cell_volume   228.62873639
_cell_formula_units_Z   1
loop_
 _symmetry_equiv_pos_site_id
 _symmetry_equiv_pos_as_xyz
  1  'x, y, z'
loop_
 _atom_site_type_symbol
 _atom_site_label
 _atom_site_symmetry_multiplicity
 _atom_site_fract_x
 _atom_site_fract_y
 _atom_site_fract_z
 _atom_site_occupancy
  Mg  Mg0  1  0.51236300  0.67081400  0.25391600  1
  Mn  Mn1  1  0.17004000  0.83489800  0.49495200  1
  Mn  Mn2  1  0.32798700  0.66581200  0.99047400  1
  Mn  Mn3  1  0.66725700  0.33408800  0.00083300  1
  Mn  Mn4  1  0.83381100  0.16705900  0.49480600  1
  Fe  Fe5  1  0.99945300  0.99767300  0.99182500  1
  Fe  Fe6  1  0.50032900  0.49510600  0.53275900  1
  O  O7  1  0.99746000  0.65536800  0.09680600  1
  O  O8  1  0.99519500  0.34150400  0.90253500  1
  O  O9  1  0.18449200  0.50947900  0.39853800  1
  O  O10  1  0.49857500  0.86060700  0.59662900  1
  O  O11  1  0.13614600  0.13577900  0.59592800  1
  O  O12  1  0.34874900  0.35997700  0.10277000  1
  O  O13  1  0.65324300  0.64594700  0.90003400  1
  O  O14  1  0.35177400  0.00651700  0.90227200  1
  O  O15  1  0.82668800  0.82967300  0.39818700  1
  O  O16  1  0.50490400  0.16251100  0.39983800  1
  O  O17  1  0.86020600  0.49773700  0.59548800  1
  O  O18  1  0.64382900  0.97945200  0.10141100  1
