# generated using pymatgen
data_Cd3(PO4)2
_symmetry_space_group_name_H-M   'P 1'
_cell_length_a   7.66824277
_cell_length_b   9.53319772
_cell_length_c   9.53319793
_cell_angle_alpha   107.90645290
_cell_angle_beta   90.00000000
_cell_angle_gamma   90.00000000
_symmetry_Int_Tables_number   1
_chemical_formula_structural   Cd3(PO4)2
_chemical_formula_sum   'Cd12 P8 O32'
_cell_volume   663.14598172
_cell_formula_units_Z   4
loop_
 _symmetry_equiv_pos_site_id
 _symmetry_equiv_pos_as_xyz
  1  'x, y, z'
loop_
 _atom_site_type_symbol
 _atom_site_label
 _atom_site_symmetry_multiplicity
 _atom_site_fract_x
 _atom_site_fract_y
 _atom_site_fract_z
 _atom_site_occupancy
  Cd  Cd0  1  -0.00000000  0.10757837  0.89242163  1
  Cd  Cd1  1  0.50000000  0.39242163  0.60757837  1
  Cd  Cd2  1  -0.00000000  0.89242163  0.10757837  1
  Cd  Cd3  1  0.50000000  0.60757837  0.39242163  1
  Cd  Cd4  1  0.55631226  0.68556734  0.96828139  1
  Cd  Cd5  1  0.05631226  0.81443266  0.53171861  1
  Cd  Cd6  1  0.94368774  0.46828139  0.18556734  1
  Cd  Cd7  1  0.44368774  0.03171861  0.31443266  1
  Cd  Cd8  1  0.44368774  0.31443266  0.03171861  1
  Cd  Cd9  1  0.94368774  0.18556734  0.46828139  1
  Cd  Cd10  1  0.05631226  0.53171861  0.81443266  1
  Cd  Cd11  1  0.55631226  0.96828139  0.68556734  1
  P  P12  1  0.70359980  0.18307481  0.18307481  1
  P  P13  1  0.20359980  0.31692519  0.31692519  1
  P  P14  1  0.79640020  0.68307481  0.68307481  1
  P  P15  1  0.29640020  0.81692519  0.81692519  1
  P  P16  1  0.25000000  0.18521293  0.68521293  1
  P  P17  1  0.75000000  0.31478707  0.81478707  1
  P  P18  1  0.75000000  0.81478707  0.31478707  1
  P  P19  1  0.25000000  0.68521293  0.18521293  1
  O  O20  1  0.87018588  0.10375237  0.10375237  1
  O  O21  1  0.37018588  0.39624763  0.39624763  1
  O  O22  1  0.62981412  0.60375237  0.60375237  1
  O  O23  1  0.12981412  0.89624763  0.89624763  1
  O  O24  1  0.52992134  0.11739369  0.11739369  1
  O  O25  1  0.02992134  0.38260631  0.38260631  1
  O  O26  1  0.97007866  0.61739369  0.61739369  1
  O  O27  1  0.47007866  0.88260631  0.88260631  1
  O  O28  1  0.08518311  0.09218050  0.62680744  1
  O  O29  1  0.58518311  0.40781950  0.87319256  1
  O  O30  1  0.41481689  0.12680744  0.59218050  1
  O  O31  1  0.91481689  0.37319256  0.90781950  1
  O  O32  1  0.91481689  0.90781950  0.37319256  1
  O  O33  1  0.41481689  0.59218050  0.12680744  1
  O  O34  1  0.58518311  0.87319256  0.40781950  1
  O  O35  1  0.08518311  0.62680744  0.09218050  1
  O  O36  1  0.27412633  0.17889670  0.84324144  1
  O  O37  1  0.77412633  0.32110330  0.65675856  1
  O  O38  1  0.22587367  0.34324144  0.67889670  1
  O  O39  1  0.72587367  0.15675856  0.82110330  1
  O  O40  1  0.29688768  0.82506038  0.65721372  1
  O  O41  1  0.79688768  0.67493962  0.84278628  1
  O  O42  1  0.20311232  0.15721372  0.32506038  1
  O  O43  1  0.70311232  0.34278628  0.17493962  1
  O  O44  1  0.70311232  0.17493962  0.34278628  1
  O  O45  1  0.20311232  0.32506038  0.15721372  1
  O  O46  1  0.79688768  0.84278628  0.67493962  1
  O  O47  1  0.29688768  0.65721372  0.82506038  1
  O  O48  1  0.27412633  0.84324144  0.17889670  1
  O  O49  1  0.77412633  0.65675856  0.32110330  1
  O  O50  1  0.22587367  0.67889670  0.34324144  1
  O  O51  1  0.72587367  0.82110330  0.15675856  1
