# generated using pymatgen
data_Na7Y2Ti2Si3(PO8)3
_symmetry_space_group_name_H-M   'P 1'
_cell_length_a   9.17196125
_cell_length_b   9.16896717
_cell_length_c   22.26551895
_cell_angle_alpha   90.14365370
_cell_angle_beta   89.82967850
_cell_angle_gamma   119.92899837
_symmetry_Int_Tables_number   1
_chemical_formula_structural   Na7Y2Ti2Si3(PO8)3
_chemical_formula_sum   'Na21 Y6 Ti6 Si9 P9 O72'
_cell_volume   1622.75941037
_cell_formula_units_Z   3
loop_
 _symmetry_equiv_pos_site_id
 _symmetry_equiv_pos_as_xyz
  1  'x, y, z'
loop_
 _atom_site_type_symbol
 _atom_site_label
 _atom_site_symmetry_multiplicity
 _atom_site_fract_x
 _atom_site_fract_y
 _atom_site_fract_z
 _atom_site_occupancy
  Na  Na0  1  0.62624756  0.00197737  0.25458727  1
  Na  Na1  1  0.37133525  0.37451795  0.24796201  1
  Na  Na2  1  0.00148109  0.61680233  0.25095927  1
  Na  Na3  1  0.63550392  0.63415876  0.74634603  1
  Na  Na4  1  0.98764426  0.36333878  0.74525436  1
  Na  Na5  1  0.37582745  0.00245028  0.74123436  1
  Na  Na6  1  0.02753471  0.69260326  0.58388353  1
  Na  Na7  1  0.65707422  0.96735420  0.58042375  1
  Na  Na8  1  0.67307105  0.68804735  0.08407628  1
  Na  Na9  1  0.02265123  0.34005921  0.08668537  1
  Na  Na10  1  0.95832581  0.66155122  0.92472570  1
  Na  Na11  1  0.69951251  0.03210660  0.91861960  1
  Na  Na12  1  0.34347209  0.30627754  0.92189527  1
  Na  Na13  1  0.97409992  0.31248772  0.41757107  1
  Na  Na14  1  0.33481511  0.03208373  0.41783629  1
  Na  Na15  1  0.00294023  0.99791203  0.49992761  1
  Na  Na16  1  0.01335009  0.99275967  0.00672364  1
  Na  Na17  1  0.66758865  0.33389813  0.83269412  1
  Na  Na18  1  0.67589621  0.35156889  0.34174875  1
  Na  Na19  1  0.32218231  0.67166386  0.16243768  1
  Na  Na20  1  0.33494836  0.65314400  0.65712731  1
  Y  Y21  1  0.99540684  0.99772003  0.85385338  1
  Y  Y22  1  0.66713772  0.33240873  0.67199867  1
  Y  Y23  1  0.67034304  0.33438744  0.18360698  1
  Y  Y24  1  0.66250555  0.33513108  0.99184354  1
  Y  Y25  1  0.32850467  0.66151591  0.32069365  1
  Y  Y26  1  0.33814118  0.66838455  0.81107977  1
  Ti  Ti27  1  0.98816211  0.99702317  0.35822861  1
  Ti  Ti28  1  0.00103541  0.00894170  0.64259004  1
  Ti  Ti29  1  0.00985563  0.00806913  0.14733724  1
  Ti  Ti30  1  0.66874993  0.32828554  0.48648574  1
  Ti  Ti31  1  0.33548880  0.66554130  0.02011767  1
  Ti  Ti32  1  0.32922393  0.67209898  0.51206654  1
  Si  Si33  1  0.99840070  0.28234494  0.25274196  1
  Si  Si34  1  0.70634265  0.00363353  0.74632188  1
  Si  Si35  1  0.97913311  0.33871791  0.58194213  1
  Si  Si36  1  0.36021557  0.02532706  0.58148602  1
  Si  Si37  1  0.98579448  0.65173988  0.08488040  1
  Si  Si38  1  0.35355554  0.33627513  0.08405500  1
  Si  Si39  1  0.62859305  0.66195313  0.91769711  1
  Si  Si40  1  0.63211569  0.97164901  0.41632078  1
  Si  Si41  1  0.02259643  0.66323122  0.41626718  1
  P  P42  1  0.27915304  0.00072642  0.25324494  1
  P  P43  1  0.72124777  0.72099320  0.25112782  1
  P  P44  1  0.28837056  0.28777603  0.74609740  1
  P  P45  1  0.99637162  0.70744904  0.74502860  1
  P  P46  1  0.66210156  0.63589100  0.58234242  1
  P  P47  1  0.66772956  0.01710431  0.08515530  1
  P  P48  1  0.04104012  0.37502077  0.91931112  1
  P  P49  1  0.33789213  0.95903154  0.91818535  1
  P  P50  1  0.33825856  0.36722201  0.41676133  1
  O  O51  1  0.19043652  0.00702520  0.31151242  1
  O  O52  1  0.82664953  0.81891391  0.30752028  1
  O  O53  1  0.99682344  0.17340057  0.31275581  1
  O  O54  1  0.22032922  0.20050384  0.80690940  1
  O  O55  1  0.98975089  0.78806886  0.80522112  1
  O  O56  1  0.80138956  0.01939310  0.80969948  1
  O  O57  1  0.82589839  0.99948635  0.68939212  1
  O  O58  1  0.17584762  0.17325008  0.69368718  1
  O  O59  1  0.00346732  0.81681176  0.69061829  1
  O  O60  1  0.81113827  0.81573169  0.19326775  1
  O  O61  1  0.99648848  0.17288344  0.19379345  1
  O  O62  1  0.17499473  0.99580567  0.19735910  1
  O  O63  1  0.92035268  0.39034542  0.64349562  1
  O  O64  1  0.47067243  0.08609517  0.64261559  1
  O  O65  1  0.63493191  0.55318533  0.64481858  1
  O  O66  1  0.90624828  0.51846857  0.14103406  1
  O  O67  1  0.64021876  0.09992317  0.14091433  1
  O  O68  1  0.48332310  0.38272337  0.14017481  1
  O  O69  1  0.42534356  0.29874376  0.02339583  1
  O  O70  1  0.85883206  0.57447784  0.02767001  1
  O  O71  1  0.70561907  0.13085877  0.02971696  1
  O  O72  1  0.47398641  0.15934646  0.52811331  1
  O  O73  1  0.68712327  0.52248019  0.53625297  1
  O  O74  1  0.83136361  0.30340742  0.53125768  1
  O  O75  1  0.50667848  0.66176397  0.97370308  1
  O  O76  1  0.14819341  0.48436382  0.97324566  1
  O  O77  1  0.33256481  0.84132400  0.96917043  1
  O  O78  1  0.52478921  0.84214628  0.47090306  1
  O  O79  1  0.31250731  0.47648411  0.46401326  1
  O  O80  1  0.16707600  0.69475264  0.46762815  1
  O  O81  1  0.08260766  0.60884890  0.35513840  1
  O  O82  1  0.52300363  0.90687886  0.35497693  1
  O  O83  1  0.36568599  0.45300235  0.35488454  1
  O  O84  1  0.11329939  0.46707902  0.85944965  1
  O  O85  1  0.34549053  0.88532951  0.85646177  1
  O  O86  1  0.53426583  0.64804518  0.85428532  1
  O  O87  1  0.02189752  0.84215569  0.41207687  1
  O  O88  1  0.82365791  0.99527820  0.41266369  1
  O  O89  1  0.17226434  0.18981766  0.41660798  1
  O  O90  1  0.04206562  0.20668801  0.92272566  1
  O  O91  1  0.17801501  0.97509628  0.92311126  1
  O  O92  1  0.81028666  0.83552755  0.92481980  1
  O  O93  1  0.98227422  0.16019403  0.58658097  1
  O  O94  1  0.17016507  0.00001810  0.58645015  1
  O  O95  1  0.82921052  0.81209020  0.58281940  1
  O  O96  1  0.99944731  0.83453809  0.09646378  1
  O  O97  1  0.82325873  0.99269283  0.09184913  1
  O  O98  1  0.16085318  0.17733226  0.09384120  1
  O  O99  1  0.68593821  0.17087955  0.74378857  1
  O  O100  1  0.46906991  0.31766217  0.74051408  1
  O  O101  1  0.83471322  0.53210491  0.74421062  1
  O  O102  1  0.70531600  0.54432509  0.25245876  1
  O  O103  1  0.82763982  0.29670112  0.25474722  1
  O  O104  1  0.45478046  0.16109091  0.25056338  1
  O  O105  1  0.65174966  0.49650905  0.91953232  1
  O  O106  1  0.86005400  0.34322682  0.92412326  1
  O  O107  1  0.49828648  0.13245646  0.92222474  1
  O  O108  1  0.65863216  0.16259553  0.42790715  1
  O  O109  1  0.48766158  0.33775820  0.42877106  1
  O  O110  1  0.84009985  0.50000256  0.43380547  1
  O  O111  1  0.32707993  0.50176290  0.07660287  1
  O  O112  1  0.17180306  0.67387404  0.07277822  1
  O  O113  1  0.51378587  0.83794831  0.07750732  1
  O  O114  1  0.33821832  0.83632763  0.56952647  1
  O  O115  1  0.51423490  0.66568701  0.56942943  1
  O  O116  1  0.16105957  0.49971928  0.56460382  1
  O  O117  1  0.29586502  0.84011661  0.25062328  1
  O  O118  1  0.54546789  0.70529493  0.25258627  1
  O  O119  1  0.16977663  0.46666344  0.24900852  1
  O  O120  1  0.28641773  0.45521387  0.74224248  1
  O  O121  1  0.15585773  0.68991604  0.74225805  1
  O  O122  1  0.52536858  0.82899660  0.74019953  1
