# generated using pymatgen
data_Na4ZrGaSi2PO12
_symmetry_space_group_name_H-M   'P 1'
_cell_length_a   9.09121605
_cell_length_b   9.09121573
_cell_length_c   22.35847244
_cell_angle_alpha   89.39794865
_cell_angle_beta   90.60205139
_cell_angle_gamma   119.39011909
_symmetry_Int_Tables_number   1
_chemical_formula_structural   Na4ZrGaSi2PO12
_chemical_formula_sum   'Na24 Zr6 Ga6 Si12 P6 O72'
_cell_volume   1609.98136253
_cell_formula_units_Z   6
loop_
 _symmetry_equiv_pos_site_id
 _symmetry_equiv_pos_as_xyz
  1  'x, y, z'
loop_
 _atom_site_type_symbol
 _atom_site_label
 _atom_site_symmetry_multiplicity
 _atom_site_fract_x
 _atom_site_fract_y
 _atom_site_fract_z
 _atom_site_occupancy
  Na  Na0  1  0.63885096  0.00574269  0.24970141  1
  Na  Na1  1  0.37084417  0.36664581  0.24606207  1
  Na  Na2  1  0.99065211  0.62569299  0.24942660  1
  Na  Na3  1  0.63335419  0.62915583  0.74606207  1
  Na  Na4  1  0.99425731  0.36114904  0.74970141  1
  Na  Na5  1  0.37430701  0.00934789  0.74942660  1
  Na  Na6  1  0.30551796  0.33907569  0.58303441  1
  Na  Na7  1  0.03751117  0.69997881  0.57939507  1
  Na  Na8  1  0.65731911  0.95902599  0.58275960  1
  Na  Na9  1  0.30002119  0.96248883  0.07939507  1
  Na  Na10  1  0.66092431  0.69448204  0.08303441  1
  Na  Na11  1  0.04097401  0.34268089  0.08275960  1
  Na  Na12  1  0.97218396  0.67240969  0.91636841  1
  Na  Na13  1  0.70417717  0.03331281  0.91272907  1
  Na  Na14  1  0.32398511  0.29235999  0.91609360  1
  Na  Na15  1  0.96668719  0.29582283  0.41272907  1
  Na  Na16  1  0.32759031  0.02781604  0.41636841  1
  Na  Na17  1  0.70764001  0.67601489  0.41609360  1
  Na  Na18  1  0.99826719  0.99405668  0.49638770  1
  Na  Na19  1  0.00594332  0.00173281  0.99638770  1
  Na  Na20  1  0.66493419  0.32738968  0.82972070  1
  Na  Na21  1  0.67261032  0.33506581  0.32972070  1
  Na  Na22  1  0.33160019  0.66072368  0.16305470  1
  Na  Na23  1  0.33927632  0.66839981  0.66305470  1
  Zr  Zr24  1  0.99856062  0.99997904  0.64841654  1
  Zr  Zr25  1  0.00002096  0.00143938  0.14841654  1
  Zr  Zr26  1  0.66522762  0.33331204  0.98174954  1
  Zr  Zr27  1  0.66668796  0.33477238  0.48174954  1
  Zr  Zr28  1  0.33189362  0.66664604  0.31508354  1
  Zr  Zr29  1  0.33335396  0.66810638  0.81508354  1
  Ga  Ga30  1  0.98308272  0.98800199  0.35006762  1
  Ga  Ga31  1  0.01199801  0.01691728  0.85006762  1
  Ga  Ga32  1  0.64974972  0.32133499  0.68340062  1
  Ga  Ga33  1  0.67866501  0.35025028  0.18340062  1
  Ga  Ga34  1  0.31641572  0.65466899  0.01673462  1
  Ga  Ga35  1  0.34533101  0.68358428  0.51673462  1
  Si  Si36  1  0.70716189  0.70186429  0.25074335  1
  Si  Si37  1  0.99332379  0.28973297  0.25127249  1
  Si  Si38  1  0.29813571  0.29283811  0.75074335  1
  Si  Si39  1  0.71026703  0.00667621  0.75127249  1
  Si  Si40  1  0.37382889  0.03519729  0.58407635  1
  Si  Si41  1  0.65999079  0.62306597  0.58460549  1
  Si  Si42  1  0.96480271  0.62617111  0.08407635  1
  Si  Si43  1  0.37693403  0.34000921  0.08460549  1
  Si  Si44  1  0.04049489  0.36853129  0.91741035  1
  Si  Si45  1  0.32665679  0.95639997  0.91793949  1
  Si  Si46  1  0.63146871  0.95950511  0.41741035  1
  Si  Si47  1  0.04360003  0.67334321  0.41793949  1
  P  P48  1  0.29464724  0.00560681  0.25213190  1
  P  P49  1  0.99439319  0.70535276  0.75213190  1
  P  P50  1  0.96131424  0.33893981  0.58546490  1
  P  P51  1  0.66106019  0.03868576  0.08546490  1
  P  P52  1  0.62798024  0.67227381  0.91879890  1
  P  P53  1  0.32772619  0.37201976  0.41879890  1
  O  O54  1  0.20957737  0.03314469  0.30727280  1
  O  O55  1  0.82794782  0.78715705  0.30919776  1
  O  O56  1  0.96639411  0.16968279  0.31000624  1
  O  O57  1  0.21284295  0.17205218  0.80919776  1
  O  O58  1  0.96685531  0.79042263  0.80727280  1
  O  O59  1  0.83031721  0.03360589  0.81000624  1
  O  O60  1  0.79051908  0.96658576  0.69222157  1
  O  O61  1  0.17651917  0.20889488  0.69190841  1
  O  O62  1  0.02859698  0.81820303  0.69541694  1
  O  O63  1  0.79110512  0.82348083  0.19190841  1
  O  O64  1  0.03341424  0.20948092  0.19222157  1
  O  O65  1  0.18179697  0.97140302  0.19541694  1
  O  O66  1  0.87624437  0.36647769  0.64060580  1
  O  O67  1  0.49461482  0.12049005  0.64253076  1
  O  O68  1  0.63306111  0.50301579  0.64333924  1
  O  O69  1  0.87950995  0.50538518  0.14253076  1
  O  O70  1  0.63352231  0.12375563  0.14060580  1
  O  O71  1  0.49698421  0.36693889  0.14333924  1
  O  O72  1  0.45718608  0.29991876  0.02555457  1
  O  O73  1  0.84318617  0.54222788  0.02524141  1
  O  O74  1  0.69526398  0.15153603  0.02874994  1
  O  O75  1  0.45777212  0.15681383  0.52524141  1
  O  O76  1  0.70008124  0.54281392  0.52555457  1
  O  O77  1  0.84846397  0.30473602  0.52874994  1
  O  O78  1  0.54291037  0.69981169  0.97393980  1
  O  O79  1  0.16128082  0.45382405  0.97586476  1
  O  O80  1  0.29972711  0.83634979  0.97667324  1
  O  O81  1  0.54617595  0.83871918  0.47586476  1
  O  O82  1  0.30018831  0.45708963  0.47393980  1
  O  O83  1  0.16365021  0.70027289  0.47667324  1
  O  O84  1  0.12385208  0.63325276  0.35888857  1
  O  O85  1  0.50985217  0.87556188  0.35857541  1
  O  O86  1  0.36192998  0.48487003  0.36208394  1
  O  O87  1  0.12443812  0.49014783  0.85857541  1
  O  O88  1  0.36674724  0.87614792  0.85888857  1
  O  O89  1  0.51512997  0.63807002  0.86208394  1
  O  O90  1  0.02965332  0.84635930  0.41073309  1
  O  O91  1  0.82017834  0.97968753  0.41191341  1
  O  O92  1  0.17371191  0.19603802  0.41197074  1
  O  O93  1  0.02031247  0.17982166  0.91191341  1
  O  O94  1  0.15364070  0.97034668  0.91073309  1
  O  O95  1  0.80396198  0.82628809  0.91197074  1
  O  O96  1  0.97624957  0.17517217  0.58881041  1
  O  O97  1  0.18571095  0.01941349  0.58802381  1
  O  O98  1  0.82922231  0.81200966  0.58831515  1
  O  O99  1  0.98058651  0.81428905  0.08802381  1
  O  O100  1  0.82482783  0.02375043  0.08881041  1
  O  O101  1  0.18799034  0.17077769  0.08831515  1
  O  O102  1  0.69632032  0.17969230  0.74406609  1
  O  O103  1  0.48684534  0.31302053  0.74524641  1
  O  O104  1  0.84037891  0.52937102  0.74530374  1
  O  O105  1  0.68697947  0.51315466  0.24524641  1
  O  O106  1  0.82030770  0.30367968  0.24406609  1
  O  O107  1  0.47062898  0.15962109  0.24530374  1
  O  O108  1  0.64291657  0.50850517  0.92214341  1
  O  O109  1  0.85237795  0.35274649  0.92135681  1
  O  O110  1  0.49588931  0.14534266  0.92164815  1
  O  O111  1  0.64725351  0.14762205  0.42135681  1
  O  O112  1  0.49149483  0.35708343  0.42214341  1
  O  O113  1  0.85465734  0.50411069  0.42164815  1
  O  O114  1  0.36298632  0.51302630  0.07740009  1
  O  O115  1  0.15351134  0.64635453  0.07858041  1
  O  O116  1  0.50704491  0.86270502  0.07863774  1
  O  O117  1  0.35364547  0.84648866  0.57858041  1
  O  O118  1  0.48697370  0.63701368  0.57740009  1
  O  O119  1  0.13729498  0.49295509  0.57863774  1
  O  O120  1  0.30958257  0.84183917  0.25547741  1
  O  O121  1  0.51904395  0.68608049  0.25469081  1
  O  O122  1  0.16255531  0.47867666  0.25498215  1
  O  O123  1  0.31391951  0.48095605  0.75469081  1
  O  O124  1  0.15816083  0.69041743  0.75547741  1
  O  O125  1  0.52132334  0.83744469  0.75498215  1
