# generated using pymatgen
data_CsMnCl3
_symmetry_space_group_name_H-M   'P 1'
_cell_length_a   10.06014829
_cell_length_b   10.06014743
_cell_length_c   10.06014844
_cell_angle_alpha   42.59069864
_cell_angle_beta   42.59070190
_cell_angle_gamma   42.59070069
_symmetry_Int_Tables_number   1
_chemical_formula_structural   CsMnCl3
_chemical_formula_sum   'Cs3 Mn3 Cl9'
_cell_volume   422.31554617
_cell_formula_units_Z   3
loop_
 _symmetry_equiv_pos_site_id
 _symmetry_equiv_pos_as_xyz
  1  'x, y, z'
loop_
 _atom_site_type_symbol
 _atom_site_label
 _atom_site_symmetry_multiplicity
 _atom_site_fract_x
 _atom_site_fract_y
 _atom_site_fract_z
 _atom_site_occupancy
  Cs  Cs0  1  0.78056749  0.78056849  0.78056749  1
  Cs  Cs1  1  0.21943251  0.21943151  0.21943251  1
  Cs  Cs2  1  0.00000000  -0.00000000  0.00000000  1
  Mn  Mn3  1  0.61574158  0.61574058  0.61574058  1
  Mn  Mn4  1  0.38425842  0.38425942  0.38425942  1
  Mn  Mn5  1  0.50000000  0.50000000  0.50000000  1
  Cl  Cl6  1  0.28570600  0.28570600  0.75693382  1
  Cl  Cl7  1  0.28570600  0.75693382  0.28570600  1
  Cl  Cl8  1  0.75693382  0.28570600  0.28570600  1
  Cl  Cl9  1  0.24306618  0.71429400  0.71429400  1
  Cl  Cl10  1  0.71429400  0.71429400  0.24306618  1
  Cl  Cl11  1  0.71429400  0.24306618  0.71429400  1
  Cl  Cl12  1  0.50000000  0.50000000  0.00000000  1
  Cl  Cl13  1  0.00000000  0.50000000  0.50000000  1
  Cl  Cl14  1  0.50000000  -0.00000000  0.50000000  1
