# generated using pymatgen
data_CoAs4F18
_symmetry_space_group_name_H-M   'P 1'
_cell_length_a   12.36675589
_cell_length_b   7.15478511
_cell_length_c   9.89018413
_cell_angle_alpha   46.55483573
_cell_angle_beta   90.00000000
_cell_angle_gamma   90.00000000
_symmetry_Int_Tables_number   1
_chemical_formula_structural   CoAs4F18
_chemical_formula_sum   'Co2 As8 F36'
_cell_volume   635.34998453
_cell_formula_units_Z   2
loop_
 _symmetry_equiv_pos_site_id
 _symmetry_equiv_pos_as_xyz
  1  'x, y, z'
loop_
 _atom_site_type_symbol
 _atom_site_label
 _atom_site_symmetry_multiplicity
 _atom_site_fract_x
 _atom_site_fract_y
 _atom_site_fract_z
 _atom_site_occupancy
  Co  Co0  1  0.50000000  0.00000000  0.50000000  1
  Co  Co1  1  -0.00000000  0.00000000  -0.00000000  1
  As  As2  1  0.50000000  0.50000000  -0.00000000  1
  As  As3  1  0.21103431  0.91537750  0.56081478  1
  As  As4  1  0.71103431  0.08462250  0.93918522  1
  As  As5  1  -0.00000000  0.50000000  -0.00000000  1
  As  As6  1  -0.00000000  0.50000000  0.50000000  1
  As  As7  1  0.78896569  0.08462250  0.43918522  1
  As  As8  1  0.28896569  0.91537750  0.06081478  1
  As  As9  1  0.50000000  0.50000000  0.50000000  1
  F  F10  1  0.04098426  0.32600712  0.93868392  1
  F  F11  1  0.34356993  0.97353510  0.45485850  1
  F  F12  1  0.75300309  0.95438072  0.85255345  1
  F  F13  1  0.95901574  0.67399288  0.06131608  1
  F  F14  1  0.46456227  0.79551643  0.76939336  1
  F  F15  1  0.25300309  0.04561928  0.64744655  1
  F  F16  1  0.04831680  0.78262249  0.78680361  1
  F  F17  1  0.37583717  0.44492237  0.59888232  1
  F  F18  1  0.54673489  0.67413405  0.05008669  1
  F  F19  1  0.95326511  0.67413405  0.55008669  1
  F  F20  1  0.62652121  0.50672406  0.92397337  1
  F  F21  1  0.45168320  0.78262249  0.28680361  1
  F  F22  1  0.87347879  0.50672406  0.42397337  1
  F  F23  1  0.12416283  0.44492237  0.09888232  1
  F  F24  1  0.84356993  0.02646490  0.04514150  1
  F  F25  1  0.74675900  0.39439759  0.74195508  1
  F  F26  1  0.12652121  0.49327594  0.57602663  1
  F  F27  1  0.45901574  0.32600712  0.43868392  1
  F  F28  1  0.96456227  0.20448357  0.73060664  1
  F  F29  1  0.65643007  0.02646490  0.54514150  1
  F  F30  1  0.45326511  0.32586595  0.94991331  1
  F  F31  1  0.95168320  0.21737751  0.21319639  1
  F  F32  1  0.54098426  0.67399288  0.56131608  1
  F  F33  1  0.04673489  0.32586595  0.44991331  1
  F  F34  1  0.75324100  0.39439759  0.24195508  1
  F  F35  1  0.74699691  0.95438072  0.35255345  1
  F  F36  1  0.37347879  0.49327594  0.07602663  1
  F  F37  1  0.24675900  0.60560241  0.75804492  1
  F  F38  1  0.15643007  0.97353510  0.95485850  1
  F  F39  1  0.54831680  0.21737751  0.71319639  1
  F  F40  1  0.03543773  0.79551643  0.26939336  1
  F  F41  1  0.53543773  0.20448357  0.23060664  1
  F  F42  1  0.25324100  0.60560241  0.25804492  1
  F  F43  1  0.62416283  0.55507763  0.40111768  1
  F  F44  1  0.87583717  0.55507763  0.90111768  1
  F  F45  1  0.24699691  0.04561928  0.14744655  1
