# generated using pymatgen
data_Co10Ge3O16
_symmetry_space_group_name_H-M   'P 1'
_cell_length_a   10.22824545
_cell_length_b   10.23133451
_cell_length_c   10.22050435
_cell_angle_alpha   33.77063131
_cell_angle_beta   33.77543852
_cell_angle_gamma   33.72340699
_symmetry_Int_Tables_number   1
_chemical_formula_structural   Co10Ge3O16
_chemical_formula_sum   'Co10 Ge3 O16'
_cell_volume   294.24960807
_cell_formula_units_Z   1
loop_
 _symmetry_equiv_pos_site_id
 _symmetry_equiv_pos_as_xyz
  1  'x, y, z'
loop_
 _atom_site_type_symbol
 _atom_site_label
 _atom_site_symmetry_multiplicity
 _atom_site_fract_x
 _atom_site_fract_y
 _atom_site_fract_z
 _atom_site_occupancy
  Co  Co0  1  0.75141597  0.75140971  0.24123548  1
  Co  Co1  1  0.75069093  0.24144581  0.75139068  1
  Co  Co2  1  0.24145426  0.75061405  0.75163276  1
  Co  Co3  1  0.75851331  0.24938796  0.24841946  1
  Co  Co4  1  0.24874873  0.24841562  0.75877577  1
  Co  Co5  1  0.24929154  0.75859813  0.24855963  1
  Co  Co6  1  0.49997594  0.50002472  0.50000223  1
  Co  Co7  1  0.99998535  0.50002545  0.50001318  1
  Co  Co8  1  0.50002568  0.49998925  -0.00001383  1
  Co  Co9  1  0.49998151  0.00004246  0.49996750  1
  Ge  Ge10  1  0.81154215  0.81155633  0.80959388  1
  Ge  Ge11  1  0.18845802  0.18842188  0.19043010  1
  Ge  Ge12  1  -0.00000114  0.00000681  0.99999003  1
  O  O13  1  0.37261001  0.87622269  0.37446571  1
  O  O14  1  0.87660935  0.37228918  0.37470920  1
  O  O15  1  0.37165168  0.37161930  0.88058180  1
  O  O16  1  0.62731255  0.12377284  0.62559101  1
  O  O17  1  0.12338498  0.62776438  0.62527045  1
  O  O18  1  0.62834130  0.62835737  0.11946047  1
  O  O19  1  0.66222994  0.11261443  0.11184540  1
  O  O20  1  0.11136404  0.11105245  0.66296993  1
  O  O21  1  0.11198519  0.66244404  0.11232016  1
  O  O22  1  0.88863584  0.88895973  0.33701036  1
  O  O23  1  0.88807796  0.33757347  0.88758824  1
  O  O24  1  0.33775766  0.88735082  0.88820632  1
  O  O25  1  0.62398340  0.62444952  0.62241235  1
  O  O26  1  0.12718587  0.12773903  0.12549032  1
  O  O27  1  0.37605072  0.37554473  0.37755755  1
  O  O28  1  0.87273827  0.87230483  0.87453388  1
