# generated using pymatgen
data_NaZrGe(PO4)3
_symmetry_space_group_name_H-M   'P 1'
_cell_length_a   8.63285835
_cell_length_b   8.63285808
_cell_length_c   22.46068199
_cell_angle_alpha   90.00000000
_cell_angle_beta   90.00000000
_cell_angle_gamma   120.00000099
_symmetry_Int_Tables_number   1
_chemical_formula_structural   NaZrGe(PO4)3
_chemical_formula_sum   'Na6 Zr6 Ge6 P18 O72'
_cell_volume   1449.64874077
_cell_formula_units_Z   6
loop_
 _symmetry_equiv_pos_site_id
 _symmetry_equiv_pos_as_xyz
  1  'x, y, z'
loop_
 _atom_site_type_symbol
 _atom_site_label
 _atom_site_symmetry_multiplicity
 _atom_site_fract_x
 _atom_site_fract_y
 _atom_site_fract_z
 _atom_site_occupancy
  Na  Na0  1  -0.00000000  0.00000000  0.49802481  1
  Na  Na1  1  -0.00000000  0.00000000  0.99623198  1
  Na  Na2  1  0.66666700  0.33333300  0.83745562  1
  Na  Na3  1  0.66666700  0.33333300  0.33044863  1
  Na  Na4  1  0.33333300  0.66666700  0.16301671  1
  Na  Na5  1  0.33333300  0.66666700  0.66933174  1
  Zr  Zr6  1  -0.00000000  0.00000000  0.65097559  1
  Zr  Zr7  1  -0.00000000  0.00000000  0.13994163  1
  Zr  Zr8  1  0.66666700  0.33333300  0.69295430  1
  Zr  Zr9  1  0.66666700  0.33333300  0.47771774  1
  Zr  Zr10  1  0.33333300  0.66666700  0.51670753  1
  Zr  Zr11  1  0.33333300  0.66666700  0.30952988  1
  Ge  Ge12  1  -0.00000000  0.00000000  0.34874439  1
  Ge  Ge13  1  -0.00000000  0.00000000  0.85618001  1
  Ge  Ge14  1  0.66666700  0.33333300  0.18421295  1
  Ge  Ge15  1  0.66666700  0.33333300  0.97846587  1
  Ge  Ge16  1  0.33333300  0.66666700  0.01777003  1
  Ge  Ge17  1  0.33333300  0.66666700  0.81888666  1
  P  P18  1  0.29594704  0.01540288  0.24833247  1
  P  P19  1  0.71945583  0.70405296  0.24833247  1
  P  P20  1  0.98459712  0.28054417  0.24833247  1
  P  P21  1  0.28332282  0.29614255  0.75855398  1
  P  P22  1  0.01281973  0.71667718  0.75855398  1
  P  P23  1  0.70385745  0.98718027  0.75855398  1
  P  P24  1  0.96025755  0.33384139  0.58446234  1
  P  P25  1  0.37358484  0.03974245  0.58446234  1
  P  P26  1  0.66615861  0.62641516  0.58446234  1
  P  P27  1  0.95223631  0.60440310  0.07949419  1
  P  P28  1  0.65216779  0.04776369  0.07949419  1
  P  P29  1  0.39559690  0.34783221  0.07949419  1
  P  P30  1  0.62057603  0.66700283  0.91786918  1
  P  P31  1  0.04642580  0.37942397  0.91786918  1
  P  P32  1  0.33299717  0.95357420  0.91786918  1
  P  P33  1  0.64127058  0.96045529  0.41273192  1
  P  P34  1  0.31918371  0.35872942  0.41273192  1
  P  P35  1  0.03954471  0.68081629  0.41273192  1
  O  O36  1  0.20858031  0.04327338  0.30513383  1
  O  O37  1  0.83469307  0.79141969  0.30513383  1
  O  O38  1  0.95672662  0.16530693  0.30513383  1
  O  O39  1  0.19444745  0.17052520  0.81230389  1
  O  O40  1  0.97607775  0.80555255  0.81230389  1
  O  O41  1  0.82947480  0.02392225  0.81230389  1
  O  O42  1  0.78109825  0.95740397  0.70072486  1
  O  O43  1  0.17630573  0.21890175  0.70072486  1
  O  O44  1  0.04259603  0.82369427  0.70072486  1
  O  O45  1  0.80044363  0.81859563  0.19308683  1
  O  O46  1  0.01815200  0.19955637  0.19308683  1
  O  O47  1  0.18140437  0.98184800  0.19308683  1
  O  O48  1  0.87143794  0.35579443  0.64047092  1
  O  O49  1  0.48435749  0.12856206  0.64047092  1
  O  O50  1  0.64420557  0.51564251  0.64047092  1
  O  O51  1  0.87201221  0.49371284  0.13739977  1
  O  O52  1  0.62170164  0.12798779  0.13739977  1
  O  O53  1  0.50628716  0.37829836  0.13739977  1
  O  O54  1  0.47493383  0.31025786  0.02365712  1
  O  O55  1  0.83532503  0.52506617  0.02365712  1
  O  O56  1  0.68974214  0.16467497  0.02365712  1
  O  O57  1  0.45949532  0.14874023  0.52813140  1
  O  O58  1  0.68924591  0.54050468  0.52813140  1
  O  O59  1  0.85125977  0.31075409  0.52813140  1
  O  O60  1  0.53883434  0.70514016  0.97328685  1
  O  O61  1  0.16630482  0.46116566  0.97328685  1
  O  O62  1  0.29485984  0.83369518  0.97328685  1
  O  O63  1  0.55681722  0.84938124  0.46948276  1
  O  O64  1  0.29256302  0.44318278  0.46948276  1
  O  O65  1  0.15061876  0.70743698  0.46948276  1
  O  O66  1  0.12710491  0.64735824  0.35911208  1
  O  O67  1  0.52025233  0.87289509  0.35911208  1
  O  O68  1  0.35264176  0.47974767  0.35911208  1
  O  O69  1  0.12772409  0.49883742  0.86237863  1
  O  O70  1  0.37111234  0.87227591  0.86237863  1
  O  O71  1  0.50116258  0.62888766  0.86237863  1
  O  O72  1  0.02758254  0.85107554  0.40511616  1
  O  O73  1  0.82349301  0.97241746  0.40511616  1
  O  O74  1  0.14892446  0.17650699  0.40511616  1
  O  O75  1  0.02552943  0.18994616  0.91078096  1
  O  O76  1  0.16441673  0.97447057  0.91078096  1
  O  O77  1  0.81005384  0.83558327  0.91078096  1
  O  O78  1  0.97826463  0.16760199  0.58894239  1
  O  O79  1  0.18933736  0.02173537  0.58894239  1
  O  O80  1  0.83239801  0.81066264  0.58894239  1
  O  O81  1  0.97384090  0.79172168  0.08480939  1
  O  O82  1  0.81788078  0.02615910  0.08480939  1
  O  O83  1  0.20827832  0.18211922  0.08480939  1
  O  O84  1  0.68451177  0.15376782  0.75233751  1
  O  O85  1  0.46925705  0.31548823  0.75233751  1
  O  O86  1  0.84623218  0.53074295  0.75233751  1
  O  O87  1  0.70494062  0.51877931  0.24137517  1
  O  O88  1  0.81383968  0.29505938  0.24137517  1
  O  O89  1  0.48122069  0.18616032  0.24137517  1
  O  O90  1  0.64111260  0.49754630  0.92438734  1
  O  O91  1  0.85643471  0.35888740  0.92438734  1
  O  O92  1  0.50245370  0.14356529  0.92438734  1
  O  O93  1  0.66310908  0.14665462  0.41826391  1
  O  O94  1  0.48354653  0.33689092  0.41826391  1
  O  O95  1  0.85334538  0.51645347  0.41826391  1
  O  O96  1  0.37655069  0.51737576  0.07314409  1
  O  O97  1  0.14082407  0.62344931  0.07314409  1
  O  O98  1  0.48262424  0.85917593  0.07314409  1
  O  O99  1  0.35666508  0.85539585  0.57978125  1
  O  O100  1  0.49872977  0.64333492  0.57978125  1
  O  O101  1  0.14460415  0.50127023  0.57978125  1
  O  O102  1  0.31893956  0.85141841  0.25373073  1
  O  O103  1  0.53247784  0.68106044  0.25373073  1
  O  O104  1  0.14858159  0.46752216  0.25373073  1
  O  O105  1  0.30018245  0.48223535  0.76518604  1
  O  O106  1  0.18205190  0.69981755  0.76518604  1
  O  O107  1  0.51776465  0.81794810  0.76518604  1
