# generated using pymatgen
data_Na7Mg3GeP5SO24
_symmetry_space_group_name_H-M   'P 1'
_cell_length_a   8.89564381
_cell_length_b   8.88480631
_cell_length_c   21.76624228
_cell_angle_alpha   89.84516324
_cell_angle_beta   90.29125986
_cell_angle_gamma   119.95005371
_symmetry_Int_Tables_number   1
_chemical_formula_structural   Na7Mg3GeP5SO24
_chemical_formula_sum   'Na21 Mg9 Ge3 P15 S3 O72'
_cell_volume   1490.56931908
_cell_formula_units_Z   3
loop_
 _symmetry_equiv_pos_site_id
 _symmetry_equiv_pos_as_xyz
  1  'x, y, z'
loop_
 _atom_site_type_symbol
 _atom_site_label
 _atom_site_symmetry_multiplicity
 _atom_site_fract_x
 _atom_site_fract_y
 _atom_site_fract_z
 _atom_site_occupancy
  Na  Na0  1  0.62640986  -0.00002584  0.25121080  1
  Na  Na1  1  0.36435110  0.35684383  0.25284721  1
  Na  Na2  1  0.00819944  0.64288771  0.25031591  1
  Na  Na3  1  0.64681492  0.63869184  0.74895230  1
  Na  Na4  1  0.99342141  0.35416919  0.74947053  1
  Na  Na5  1  0.29547482  0.33916481  0.58659674  1
  Na  Na6  1  0.03034904  0.69757219  0.58745779  1
  Na  Na7  1  0.67179140  0.96204544  0.58497168  1
  Na  Na8  1  0.29566419  0.96159338  0.08160179  1
  Na  Na9  1  0.66428012  0.70236778  0.07792674  1
  Na  Na10  1  0.03725585  0.33434043  0.07835642  1
  Na  Na11  1  0.97319377  0.67538039  0.91113026  1
  Na  Na12  1  0.32642106  0.29753071  0.91102150  1
  Na  Na13  1  0.32655626  0.02112886  0.41347375  1
  Na  Na14  1  0.69356681  0.67320066  0.41856429  1
  Na  Na15  1  0.99488604  0.01144455  0.49744306  1
  Na  Na16  1  0.98905481  0.00090414  0.99463118  1
  Na  Na17  1  0.65608741  0.31046925  0.82875582  1
  Na  Na18  1  0.66873873  0.32523426  0.33573924  1
  Na  Na19  1  0.33215560  0.67293425  0.16288402  1
  Na  Na20  1  0.33391695  0.67138442  0.66930048  1
  Mg  Mg21  1  0.00670075  0.00753790  0.35464360  1
  Mg  Mg22  1  0.99681940  0.00187642  0.84981336  1
  Mg  Mg23  1  0.99429562  0.99879704  0.65581041  1
  Mg  Mg24  1  0.00571586  0.99880230  0.14482131  1
  Mg  Mg25  1  0.66637815  0.33386693  0.68815445  1
  Mg  Mg26  1  0.66156775  0.32825108  0.18160169  1
  Mg  Mg27  1  0.33469037  0.66790081  0.01640396  1
  Mg  Mg28  1  0.33163720  0.66148042  0.51456610  1
  Mg  Mg29  1  0.33157298  0.67063854  0.32384503  1
  Ge  Ge30  1  0.66671296  0.32826018  0.98027059  1
  Ge  Ge31  1  0.68002737  0.34045324  0.48034360  1
  Ge  Ge32  1  0.33543671  0.67393691  0.81665462  1
  P  P33  1  0.29670546  0.99831966  0.24994958  1
  P  P34  1  0.29724177  0.30171782  0.75300052  1
  P  P35  1  0.00949783  0.70723318  0.75222577  1
  P  P36  1  0.69569405  0.99386635  0.75119268  1
  P  P37  1  0.95669289  0.33372037  0.58369936  1
  P  P38  1  0.66672299  0.62349337  0.58278367  1
  P  P39  1  0.95426708  0.62067230  0.08309578  1
  P  P40  1  0.66715169  0.04300397  0.08342629  1
  P  P41  1  0.37730111  0.33496960  0.08250256  1
  P  P42  1  0.62539660  0.66361950  0.91924355  1
  P  P43  1  0.03576919  0.37424043  0.91886542  1
  P  P44  1  0.34077454  0.96197914  0.91898217  1
  P  P45  1  0.63322380  0.97211482  0.41910275  1
  P  P46  1  0.33909295  0.36906362  0.41907651  1
  P  P47  1  0.03161159  0.66098878  0.41771531  1
  S  S48  1  0.70494570  0.70605464  0.24983077  1
  S  S49  1  0.00098235  0.29429292  0.24907660  1
  S  S50  1  0.37796160  0.04526120  0.58220089  1
  O  O51  1  0.20893773  0.02316591  0.30676029  1
  O  O52  1  0.80987204  0.79111245  0.30510918  1
  O  O53  1  0.97408351  0.18208924  0.30247448  1
  O  O54  1  0.21146129  0.19540311  0.81017372  1
  O  O55  1  0.98094853  0.79182842  0.80841488  1
  O  O56  1  0.81740834  0.02419046  0.80478975  1
  O  O57  1  0.76304386  0.95176525  0.69152426  1
  O  O58  1  0.18471030  0.22698831  0.69438695  1
  O  O59  1  0.03636520  0.81120420  0.69256615  1
  O  O60  1  0.78521303  0.81171338  0.19414829  1
  O  O61  1  0.02181379  0.21523967  0.19222759  1
  O  O62  1  0.18622583  0.97247197  0.19167315  1
  O  O63  1  0.87283455  0.35920839  0.64028752  1
  O  O64  1  0.48799609  0.12939367  0.63500542  1
  O  O65  1  0.63792215  0.50909612  0.63841496  1
  O  O66  1  0.87351203  0.51268904  0.14097975  1
  O  O67  1  0.63898998  0.12002868  0.14201349  1
  O  O68  1  0.48572413  0.36420688  0.14055721  1
  O  O69  1  0.46671033  0.30191604  0.02475004  1
  O  O70  1  0.83359892  0.53109851  0.02460430  1
  O  O71  1  0.70234589  0.16963556  0.02705450  1
  O  O72  1  0.45523875  0.15177564  0.52410519  1
  O  O73  1  0.69578587  0.53391266  0.52323050  1
  O  O74  1  0.83116971  0.29721061  0.52587765  1
  O  O75  1  0.54399756  0.68395533  0.97681431  1
  O  O76  1  0.14418288  0.45695353  0.97611907  1
  O  O77  1  0.31083406  0.85581686  0.97690624  1
  O  O78  1  0.54714380  0.85878412  0.47555991  1
  O  O79  1  0.31967563  0.45473239  0.47618234  1
  O  O80  1  0.14590753  0.69270878  0.47419860  1
  O  O81  1  0.10797192  0.63250086  0.35877136  1
  O  O82  1  0.51917431  0.89642453  0.36080337  1
  O  O83  1  0.37602217  0.48228292  0.36077226  1
  O  O84  1  0.12178392  0.49814116  0.86116589  1
  O  O85  1  0.37046125  0.87228340  0.86208082  1
  O  O86  1  0.50251620  0.62669748  0.86132705  1
  O  O87  1  0.00239902  0.81850570  0.41212099  1
  O  O88  1  0.81252834  0.99017151  0.41136017  1
  O  O89  1  0.18630742  0.18355742  0.41321906  1
  O  O90  1  0.01733845  0.19562770  0.91079541  1
  O  O91  1  0.18283081  0.98746355  0.91081478  1
  O  O92  1  0.80984360  0.81482717  0.91126048  1
  O  O93  1  0.97654007  0.17027399  0.58568365  1
  O  O94  1  0.20296206  0.02779188  0.58626667  1
  O  O95  1  0.83368971  0.80345864  0.58456296  1
  O  O96  1  0.96846421  0.80133750  0.08460056  1
  O  O97  1  0.83182832  0.02580029  0.08599714  1
  O  O98  1  0.19575194  0.17017903  0.08444451  1
  O  O99  1  0.67408834  0.15325561  0.74422885  1
  O  O100  1  0.48306240  0.33576922  0.74672913  1
  O  O101  1  0.84994946  0.52156972  0.74739829  1
  O  O102  1  0.69047014  0.53144482  0.24606933  1
  O  O103  1  0.84658415  0.31863611  0.24584750  1
  O  O104  1  0.48079065  0.16386577  0.24670233  1
  O  O105  1  0.63702296  0.48752820  0.92172520  1
  O  O106  1  0.85226081  0.36503194  0.92251102  1
  O  O107  1  0.50834287  0.15075479  0.92261382  1
  O  O108  1  0.64306872  0.15533151  0.42545540  1
  O  O109  1  0.51162996  0.35204119  0.42429064  1
  O  O110  1  0.84388155  0.49425108  0.42313906  1
  O  O111  1  0.35634388  0.49603171  0.07647656  1
  O  O112  1  0.13626824  0.64183341  0.07732896  1
  O  O113  1  0.50564539  0.86192538  0.07650997  1
  O  O114  1  0.35801870  0.86929607  0.57651566  1
  O  O115  1  0.50635812  0.64625293  0.57622163  1
  O  O116  1  0.13661734  0.49808553  0.57612755  1
  O  O117  1  0.31676788  0.83376013  0.25450062  1
  O  O118  1  0.52745030  0.68317158  0.25425613  1
  O  O119  1  0.16055844  0.46815220  0.25492972  1
  O  O120  1  0.31085023  0.49035926  0.75929360  1
  O  O121  1  0.17588875  0.68468481  0.75906679  1
  O  O122  1  0.51286985  0.82033745  0.76022099  1
