# generated using pymatgen
data_K4Bi2O5
_symmetry_space_group_name_H-M   'P 1'
_cell_length_a   5.67220409
_cell_length_b   9.54530379
_cell_length_c   9.80617325
_cell_angle_alpha   106.69895367
_cell_angle_beta   104.95618991
_cell_angle_gamma   106.16206612
_symmetry_Int_Tables_number   1
_chemical_formula_structural   K4Bi2O5
_chemical_formula_sum   'K8 Bi4 O10'
_cell_volume   454.27125141
_cell_formula_units_Z   2
loop_
 _symmetry_equiv_pos_site_id
 _symmetry_equiv_pos_as_xyz
  1  'x, y, z'
loop_
 _atom_site_type_symbol
 _atom_site_label
 _atom_site_symmetry_multiplicity
 _atom_site_fract_x
 _atom_site_fract_y
 _atom_site_fract_z
 _atom_site_occupancy
  K  K0  1  0.39932596  0.99184809  0.31636887  1
  K  K1  1  0.60067404  0.00815191  0.68363113  1
  K  K2  1  0.37014831  0.62243197  0.63249889  1
  K  K3  1  0.62985169  0.37756803  0.36750111  1
  K  K4  1  0.60921026  0.70171565  0.04363359  1
  K  K5  1  0.39078974  0.29828435  0.95636641  1
  K  K6  1  0.87702053  0.78617185  0.45113120  1
  K  K7  1  0.12297947  0.21382815  0.54886880  1
  Bi  Bi8  1  0.85963234  0.45857237  0.77144926  1
  Bi  Bi9  1  0.14036766  0.54142763  0.22855074  1
  Bi  Bi10  1  0.10474007  0.88322489  0.87564893  1
  Bi  Bi11  1  0.89525993  0.11677511  0.12435107  1
  O  O12  1  0.23201582  0.45994866  0.80072318  1
  O  O13  1  0.76798418  0.54005134  0.19927682  1
  O  O14  1  0.65045836  0.24909783  0.58046156  1
  O  O15  1  0.34954164  0.75090217  0.41953844  1
  O  O16  1  0.12917316  0.00648843  0.73563157  1
  O  O17  1  0.87082684  0.99351157  0.26436843  1
  O  O18  1  0.74394282  0.88532293  0.89281841  1
  O  O19  1  0.25605718  0.11467707  0.10718159  1
  O  O20  1  0.11917483  0.37155477  0.33202247  1
  O  O21  1  0.88082517  0.62844523  0.66797753  1
