# generated using pymatgen
data_NaSc2Nb2P5SO24
_symmetry_space_group_name_H-M   'P 1'
_cell_length_a   8.83337207
_cell_length_b   8.83145986
_cell_length_c   22.92701440
_cell_angle_alpha   89.87348800
_cell_angle_beta   89.98657016
_cell_angle_gamma   119.92950250
_symmetry_Int_Tables_number   1
_chemical_formula_structural   NaSc2Nb2P5SO24
_chemical_formula_sum   'Na3 Sc6 Nb6 P15 S3 O72'
_cell_volume   1550.04269066
_cell_formula_units_Z   3
loop_
 _symmetry_equiv_pos_site_id
 _symmetry_equiv_pos_as_xyz
  1  'x, y, z'
loop_
 _atom_site_type_symbol
 _atom_site_label
 _atom_site_symmetry_multiplicity
 _atom_site_fract_x
 _atom_site_fract_y
 _atom_site_fract_z
 _atom_site_occupancy
  Na  Na0  1  0.00019269  0.99950096  0.00497727  1
  Na  Na1  1  0.66652543  0.33264411  0.83287308  1
  Na  Na2  1  0.66752499  0.33182465  0.33906581  1
  Sc  Sc3  1  0.99414477  0.99410160  0.64619776  1
  Sc  Sc4  1  0.00599204  0.00443416  0.14718303  1
  Sc  Sc5  1  0.66401471  0.33998001  0.68825135  1
  Sc  Sc6  1  0.66710872  0.33409580  0.97724745  1
  Sc  Sc7  1  0.66958816  0.34003709  0.47993377  1
  Sc  Sc8  1  0.32838973  0.66728676  0.31093731  1
  Nb  Nb9  1  0.00685488  0.00909701  0.35957967  1
  Nb  Nb10  1  0.99962759  0.00018058  0.85472226  1
  Nb  Nb11  1  0.66579409  0.32691792  0.18679049  1
  Nb  Nb12  1  0.33181121  0.66589531  0.02549434  1
  Nb  Nb13  1  0.33869745  0.66850136  0.51982998  1
  Nb  Nb14  1  0.33407362  0.66658761  0.80917951  1
  P  P15  1  0.28744172  0.00284078  0.25024128  1
  P  P16  1  0.99850461  0.28542321  0.25013361  1
  P  P17  1  0.28672602  0.28505645  0.74991612  1
  P  P18  1  0.99840422  0.71205922  0.75054541  1
  P  P19  1  0.71388389  0.00385351  0.75030628  1
  P  P20  1  0.66747269  0.62294847  0.58309542  1
  P  P21  1  0.95045316  0.62105737  0.08179554  1
  P  P22  1  0.66929799  0.04583529  0.08113324  1
  P  P23  1  0.37983632  0.33106570  0.08149084  1
  P  P24  1  0.61754398  0.66785826  0.91645026  1
  P  P25  1  0.04995026  0.38241266  0.91629397  1
  P  P26  1  0.33274366  0.95012293  0.91613045  1
  P  P27  1  0.61959666  0.95554300  0.41460566  1
  P  P28  1  0.33898466  0.38456994  0.41524141  1
  P  P29  1  0.04555594  0.66494198  0.41537187  1
  S  S30  1  0.71370671  0.71015924  0.25037331  1
  S  S31  1  0.95920450  0.33568077  0.58286516  1
  S  S32  1  0.37705118  0.04211517  0.58284048  1
  O  O33  1  0.19779624  0.03360785  0.30481779  1
  O  O34  1  0.82544015  0.79047546  0.30267229  1
  O  O35  1  0.96531132  0.16543647  0.30517441  1
  O  O36  1  0.19051936  0.16873996  0.80529347  1
  O  O37  1  0.97671623  0.80756589  0.80551968  1
  O  O38  1  0.83036285  0.02341729  0.80547045  1
  O  O39  1  0.78950029  0.96852200  0.69652876  1
  O  O40  1  0.17760182  0.20957738  0.69608060  1
  O  O41  1  0.03378195  0.82219025  0.69648000  1
  O  O42  1  0.79297408  0.81140252  0.19738355  1
  O  O43  1  0.01589834  0.19878458  0.19569551  1
  O  O44  1  0.18110495  0.97919678  0.19582051  1
  O  O45  1  0.88272577  0.36891324  0.63517997  1
  O  O46  1  0.48721144  0.11498575  0.63520622  1
  O  O47  1  0.62717049  0.50652722  0.63754692  1
  O  O48  1  0.86285744  0.50322454  0.13734436  1
  O  O49  1  0.63967743  0.13399154  0.13726692  1
  O  O50  1  0.49535132  0.35878240  0.13704994  1
  O  O51  1  0.46426259  0.30639120  0.02768303  1
  O  O52  1  0.84234563  0.53688733  0.02788540  1
  O  O53  1  0.69565244  0.15739701  0.02790741  1
  O  O54  1  0.45980270  0.14759212  0.53061709  1
  O  O55  1  0.69100769  0.53632605  0.52907161  1
  O  O56  1  0.85160968  0.30855146  0.53088862  1
  O  O57  1  0.53145863  0.69508393  0.97137464  1
  O  O58  1  0.16318690  0.46814669  0.97129579  1
  O  O59  1  0.30503476  0.83648391  0.97125536  1
  O  O60  1  0.53209527  0.83844341  0.47032159  1
  O  O61  1  0.30771932  0.46951124  0.47047128  1
  O  O62  1  0.16094076  0.69524237  0.47053202  1
  O  O63  1  0.12837426  0.63818187  0.36167607  1
  O  O64  1  0.50981766  0.87092001  0.36150669  1
  O  O65  1  0.36441362  0.49223668  0.36145984  1
  O  O66  1  0.14405886  0.49326325  0.86215352  1
  O  O67  1  0.34950895  0.85609338  0.86209599  1
  O  O68  1  0.50702779  0.65100447  0.86223804  1
  O  O69  1  0.03087742  0.83483042  0.40610765  1
  O  O70  1  0.80213042  0.96589673  0.40635256  1
  O  O71  1  0.16524742  0.20035052  0.40851382  1
  O  O72  1  0.03634536  0.19895987  0.90924382  1
  O  O73  1  0.16283046  0.96373501  0.90902335  1
  O  O74  1  0.80099028  0.83733300  0.90921474  1
  O  O75  1  0.98694908  0.18661487  0.59024912  1
  O  O76  1  0.20212215  0.01846172  0.59018067  1
  O  O77  1  0.82092668  0.80664313  0.59115601  1
  O  O78  1  0.97994560  0.80428214  0.09030854  1
  O  O79  1  0.82146148  0.01449960  0.09024181  1
  O  O80  1  0.19516494  0.17785395  0.08899148  1
  O  O81  1  0.69170846  0.16357910  0.74729260  1
  O  O82  1  0.46859865  0.30506450  0.74826280  1
  O  O83  1  0.83832093  0.52972932  0.74791024  1
  O  O84  1  0.69828536  0.53069388  0.24403578  1
  O  O85  1  0.82656125  0.30116261  0.24270147  1
  O  O86  1  0.47307946  0.17615267  0.24264593  1
  O  O87  1  0.63952239  0.50780243  0.91954485  1
  O  O88  1  0.86818988  0.36072882  0.91960395  1
  O  O89  1  0.49267839  0.13174905  0.91958718  1
  O  O90  1  0.65006799  0.13841884  0.42495530  1
  O  O91  1  0.48897714  0.34899078  0.42373504  1
  O  O92  1  0.86195289  0.51010054  0.42371488  1
  O  O93  1  0.36738476  0.50249388  0.07384010  1
  O  O94  1  0.13427512  0.63316350  0.07388351  1
  O  O95  1  0.49708260  0.86428186  0.07387582  1
  O  O96  1  0.35747577  0.86261797  0.57295799  1
  O  O97  1  0.49877942  0.64135283  0.57022661  1
  O  O98  1  0.13634047  0.49728283  0.57264610  1
  O  O99  1  0.31969290  0.85269183  0.25974868  1
  O  O100  1  0.53935288  0.68576168  0.25808224  1
  O  O101  1  0.15221035  0.46513640  0.25952882  1
  O  O102  1  0.30649915  0.46808523  0.76323875  1
  O  O103  1  0.16237649  0.69364312  0.76355014  1
  O  O104  1  0.53191281  0.83879504  0.76345486  1
