# generated using pymatgen
data_Na4ZrZnSi(PO6)2
_symmetry_space_group_name_H-M   'P 1'
_cell_length_a   9.16446527
_cell_length_b   9.20487608
_cell_length_c   22.37372290
_cell_angle_alpha   89.60078520
_cell_angle_beta   90.00000000
_cell_angle_gamma   119.85488092
_symmetry_Int_Tables_number   1
_chemical_formula_structural   Na4ZrZnSi(PO6)2
_chemical_formula_sum   'Na24 Zr6 Zn6 Si6 P12 O72'
_cell_volume   1636.86614940
_cell_formula_units_Z   6
loop_
 _symmetry_equiv_pos_site_id
 _symmetry_equiv_pos_as_xyz
  1  'x, y, z'
loop_
 _atom_site_type_symbol
 _atom_site_label
 _atom_site_symmetry_multiplicity
 _atom_site_fract_x
 _atom_site_fract_y
 _atom_site_fract_z
 _atom_site_occupancy
  Na  Na0  1  0.63890552  0.01987289  0.24707252  1
  Na  Na1  1  0.37454676  0.35453520  0.24834183  1
  Na  Na2  1  0.98532961  0.62395647  0.24242524  1
  Na  Na3  1  0.63862686  0.62395647  0.74242524  1
  Na  Na4  1  0.97998844  0.35453520  0.74834183  1
  Na  Na5  1  0.38096737  0.01987289  0.74707252  1
  Na  Na6  1  0.31191221  0.35344607  0.58185563  1
  Na  Na7  1  0.03808267  0.69186612  0.57862364  1
  Na  Na8  1  0.64577631  0.94862161  0.57761030  1
  Na  Na9  1  0.30284630  0.94862161  0.07761030  1
  Na  Na10  1  0.65378446  0.69186612  0.07862364  1
  Na  Na11  1  0.04153486  0.35344607  0.08185563  1
  Na  Na12  1  0.97995852  0.68915204  0.91620643  1
  Na  Na13  1  0.70705235  0.02728092  0.90962485  1
  Na  Na14  1  0.31493998  0.28505789  0.91217451  1
  Na  Na15  1  0.97011691  0.28505789  0.41217451  1
  Na  Na16  1  0.32022758  0.02728092  0.40962485  1
  Na  Na17  1  0.70919253  0.68915204  0.41620643  1
  Na  Na18  1  0.99252685  0.99554034  0.49210021  1
  Na  Na19  1  0.00301350  0.99554034  0.99210021  1
  Na  Na20  1  0.66328827  0.32498967  0.82564225  1
  Na  Na21  1  0.66170240  0.32498967  0.32564225  1
  Na  Na22  1  0.32663239  0.66758351  0.15930371  1
  Na  Na23  1  0.34095013  0.66758351  0.65930371  1
  Zr  Zr24  1  0.99245228  0.99515057  0.64903401  1
  Zr  Zr25  1  0.00269829  0.99515057  0.14903401  1
  Zr  Zr26  1  0.66689699  0.33413102  0.98262407  1
  Zr  Zr27  1  0.66723503  0.33413102  0.48262407  1
  Zr  Zr28  1  0.33657207  0.67520003  0.31600009  1
  Zr  Zr29  1  0.33862695  0.67520003  0.81600009  1
  Zn  Zn30  1  0.99966724  0.00090769  0.34553252  1
  Zn  Zn31  1  0.00124044  0.00090769  0.84553252  1
  Zn  Zn32  1  0.66451479  0.32955746  0.67917826  1
  Zn  Zn33  1  0.66504367  0.32955746  0.17917826  1
  Zn  Zn34  1  0.32018938  0.66948695  0.01244623  1
  Zn  Zn35  1  0.34929657  0.66948695  0.51244623  1
  Si  Si36  1  0.30037141  0.00475739  0.25316328  1
  Si  Si37  1  0.70438598  0.00475739  0.75316328  1
  Si  Si38  1  0.66418785  0.62705471  0.58641354  1
  Si  Si39  1  0.96286786  0.62705471  0.08641354  1
  Si  Si40  1  0.32943246  0.96712904  0.91855292  1
  Si  Si41  1  0.63769558  0.96712904  0.41855292  1
  P  P42  1  0.70369213  0.70322486  0.25268405  1
  P  P43  1  0.00054056  0.29519772  0.25183872  1
  P  P44  1  0.29465716  0.29519772  0.75183872  1
  P  P45  1  0.99953272  0.70322486  0.75268405  1
  P  P46  1  0.96480282  0.33574847  0.58537189  1
  P  P47  1  0.36954724  0.03653625  0.58576004  1
  P  P48  1  0.66699001  0.03653625  0.08576004  1
  P  P49  1  0.37094665  0.33574847  0.08537189  1
  P  P50  1  0.62599897  0.66561876  0.92006223  1
  P  P51  1  0.03919235  0.37126354  0.91906094  1
  P  P52  1  0.33207019  0.37126354  0.41906094  1
  P  P53  1  0.03961879  0.66561876  0.42006223  1
  O  O54  1  0.21455441  0.03247816  0.31163089  1
  O  O55  1  0.80889474  0.78516059  0.30815995  1
  O  O56  1  0.97444179  0.18903758  0.30788968  1
  O  O57  1  0.21459578  0.18903758  0.80788968  1
  O  O58  1  0.97626585  0.78516059  0.80815995  1
  O  O59  1  0.81792375  0.03247816  0.81163089  1
  O  O60  1  0.79484217  0.97206051  0.69398783  1
  O  O61  1  0.18353718  0.20832576  0.69568313  1
  O  O62  1  0.03070292  0.81795097  0.69624145  1
  O  O63  1  0.78724805  0.81795097  0.19624145  1
  O  O64  1  0.02478857  0.20832576  0.19568313  1
  O  O65  1  0.17721834  0.97206051  0.19398783  1
  O  O66  1  0.88329433  0.35823088  0.64141927  1
  O  O67  1  0.47676966  0.11411755  0.64130267  1
  O  O68  1  0.63911639  0.51406208  0.64493568  1
  O  O69  1  0.87494669  0.51406208  0.14493568  1
  O  O70  1  0.63734890  0.11411755  0.14130267  1
  O  O71  1  0.47493754  0.35823088  0.14141927  1
  O  O72  1  0.45500762  0.30384106  0.02962000  1
  O  O73  1  0.84292292  0.53891631  0.02669908  1
  O  O74  1  0.69138966  0.14993313  0.02958243  1
  O  O75  1  0.45854447  0.14993313  0.52958243  1
  O  O76  1  0.69599439  0.53891631  0.52669908  1
  O  O77  1  0.84883443  0.30384106  0.52962000  1
  O  O78  1  0.54092182  0.68597929  0.97547818  1
  O  O79  1  0.14590563  0.45072199  0.97466042  1
  O  O80  1  0.29938207  0.85433564  0.97754903  1
  O  O81  1  0.55495256  0.85433564  0.47754903  1
  O  O82  1  0.30481537  0.45072199  0.47466042  1
  O  O83  1  0.14505647  0.68597929  0.47547818  1
  O  O84  1  0.12418636  0.63812042  0.36340570  1
  O  O85  1  0.51185501  0.87474755  0.36001518  1
  O  O86  1  0.35874475  0.48308693  0.36259420  1
  O  O87  1  0.12434119  0.48308693  0.86259420  1
  O  O88  1  0.36289154  0.87474755  0.86001518  1
  O  O89  1  0.51393306  0.63812042  0.86340570  1
  O  O90  1  0.01574668  0.81845696  0.41367314  1
  O  O91  1  0.82451209  0.98928315  0.41122214  1
  O  O92  1  0.18101626  0.19370407  0.41408121  1
  O  O93  1  0.01268781  0.19370407  0.91408121  1
  O  O94  1  0.16477105  0.98928315  0.91122214  1
  O  O95  1  0.80271028  0.81845696  0.91367314  1
  O  O96  1  0.98236339  0.17443284  0.58848873  1
  O  O97  1  0.19618534  0.03125435  0.58834005  1
  O  O98  1  0.84084550  0.81477908  0.58772789  1
  O  O99  1  0.97393358  0.81477908  0.08772789  1
  O  O100  1  0.83506902  0.03125435  0.08834005  1
  O  O101  1  0.19206945  0.17443284  0.08848873  1
  O  O102  1  0.67802515  0.16627152  0.74570907  1
  O  O103  1  0.47275575  0.32006599  0.74670573  1
  O  O104  1  0.84605551  0.52763758  0.74658095  1
  O  O105  1  0.68158307  0.52763758  0.24658095  1
  O  O106  1  0.84731124  0.32006599  0.24670573  1
  O  O107  1  0.48824737  0.16627152  0.24570907  1
  O  O108  1  0.63947468  0.50194078  0.92189655  1
  O  O109  1  0.86287121  0.36131001  0.92224141  1
  O  O110  1  0.50506022  0.15304726  0.92058757  1
  O  O111  1  0.64798804  0.15304726  0.42058757  1
  O  O112  1  0.49843980  0.36131001  0.42224141  1
  O  O113  1  0.86246710  0.50194078  0.42189655  1
  O  O114  1  0.35127308  0.49077314  0.07767338  1
  O  O115  1  0.15078975  0.65062502  0.08166053  1
  O  O116  1  0.51822685  0.85790562  0.07943337  1
  O  O117  1  0.33967777  0.85790562  0.57943337  1
  O  O118  1  0.49983427  0.65062502  0.58166053  1
  O  O119  1  0.13949906  0.49077314  0.57767338  1
  O  O120  1  0.30837583  0.82696412  0.25426683  1
  O  O121  1  0.52502459  0.68742179  0.25532879  1
  O  O122  1  0.16624559  0.47015312  0.25482400  1
  O  O123  1  0.30390653  0.47015312  0.75482400  1
  O  O124  1  0.16239620  0.68742179  0.75532879  1
  O  O125  1  0.51858729  0.82696412  0.75426683  1
