# generated using pymatgen
data_Na2Nb6In2Si7S5O48
_symmetry_space_group_name_H-M   'P 1'
_cell_length_a   17.80411614
_cell_length_b   8.93959488
_cell_length_c   23.03274460
_cell_angle_alpha   89.94757472
_cell_angle_beta   90.11020366
_cell_angle_gamma   120.17013867
_symmetry_Int_Tables_number   1
_chemical_formula_structural   Na2Nb6In2Si7S5O48
_chemical_formula_sum   'Na6 Nb18 In6 Si21 S15 O144'
_cell_volume   3169.32409777
_cell_formula_units_Z   3
loop_
 _symmetry_equiv_pos_site_id
 _symmetry_equiv_pos_as_xyz
  1  'x, y, z'
loop_
 _atom_site_type_symbol
 _atom_site_label
 _atom_site_symmetry_multiplicity
 _atom_site_fract_x
 _atom_site_fract_y
 _atom_site_fract_z
 _atom_site_occupancy
  Na  Na0  1  0.99747734  0.00271024  0.49624524  1
  Na  Na1  1  0.49862883  0.00319203  0.99272863  1
  Na  Na2  1  0.33815746  0.32201441  0.83135233  1
  Na  Na3  1  0.82342811  0.33282820  0.83362770  1
  Na  Na4  1  0.32520026  0.31770053  0.34042591  1
  Na  Na5  1  0.83546401  0.35353040  0.34008476  1
  Nb  Nb6  1  0.50002780  0.99292593  0.35948235  1
  Nb  Nb7  1  0.00061798  0.00530121  0.85726239  1
  Nb  Nb8  1  0.50010013  0.00495886  0.64295576  1
  Nb  Nb9  1  0.99896650  0.99527576  0.14327835  1
  Nb  Nb10  1  0.32447910  0.33471555  0.68905232  1
  Nb  Nb11  1  0.83370575  0.31236080  0.68771332  1
  Nb  Nb12  1  0.33011224  0.34448547  0.19069600  1
  Nb  Nb13  1  0.82518941  0.31336903  0.19099564  1
  Nb  Nb14  1  0.32589884  0.32895241  0.97213638  1
  Nb  Nb15  1  0.83016015  0.31993449  0.47420701  1
  Nb  Nb16  1  0.17093162  0.67122539  0.02170646  1
  Nb  Nb17  1  0.67694999  0.67221909  0.02134666  1
  Nb  Nb18  1  0.17074822  0.67250411  0.52544188  1
  Nb  Nb19  1  0.67302298  0.67033417  0.52256694  1
  Nb  Nb20  1  0.16624925  0.68647409  0.31195837  1
  Nb  Nb21  1  0.68067289  0.67855526  0.30883011  1
  Nb  Nb22  1  0.17913652  0.68177646  0.80720237  1
  Nb  Nb23  1  0.66450279  0.64443596  0.80985767  1
  In  In24  1  0.00115062  0.97969778  0.35641771  1
  In  In25  1  0.50128039  0.02260853  0.85458040  1
  In  In26  1  0.99269241  0.01531667  0.64823354  1
  In  In27  1  0.49521744  0.98615599  0.15310736  1
  In  In28  1  0.83313822  0.33228786  0.97967655  1
  In  In29  1  0.33209279  0.33233636  0.47983523  1
  Si  Si30  1  0.14144623  0.00440784  0.25106475  1
  Si  Si31  1  0.63910324  0.99152389  0.25123337  1
  Si  Si32  1  0.35341678  0.71450092  0.25185965  1
  Si  Si33  1  0.86013546  0.70953867  0.24845572  1
  Si  Si34  1  0.14096845  0.28687213  0.75117029  1
  Si  Si35  1  0.64570608  0.27819860  0.75050427  1
  Si  Si36  1  0.36090535  0.01241915  0.74849422  1
  Si  Si37  1  0.85332920  0.99396903  0.75232343  1
  Si  Si38  1  0.97763626  0.33199021  0.58036694  1
  Si  Si39  1  0.68870839  0.04411771  0.58196247  1
  Si  Si40  1  0.33679367  0.62156705  0.58010338  1
  Si  Si41  1  0.83454935  0.05051176  0.08104506  1
  Si  Si42  1  0.18951073  0.33420232  0.08300885  1
  Si  Si43  1  0.31508226  0.67793341  0.91574804  1
  Si  Si44  1  0.81147055  0.65764834  0.91482286  1
  Si  Si45  1  0.52522722  0.38429542  0.91992709  1
  Si  Si46  1  0.16215995  0.94148552  0.91657737  1
  Si  Si47  1  0.30975636  0.96163428  0.41798410  1
  Si  Si48  1  0.81569542  0.95561477  0.41645620  1
  Si  Si49  1  0.66478425  0.38320114  0.41693685  1
  Si  Si50  1  0.02456845  0.66610144  0.41954675  1
  S  S51  1  0.99945055  0.28765843  0.24910635  1
  S  S52  1  0.49977127  0.29171146  0.25126429  1
  S  S53  1  -0.00027743  0.71202201  0.75182611  1
  S  S54  1  0.49867279  0.70938313  0.74961654  1
  S  S55  1  0.47883187  0.33565687  0.58348276  1
  S  S56  1  0.18490150  0.03878673  0.58439199  1
  S  S57  1  0.83494306  0.61726998  0.58144820  1
  S  S58  1  0.47673328  0.61852424  0.08069969  1
  S  S59  1  0.97866829  0.62223730  0.08352791  1
  S  S60  1  0.33618263  0.05061722  0.08128956  1
  S  S61  1  0.68336280  0.32836290  0.08413382  1
  S  S62  1  0.02597891  0.38492725  0.91538536  1
  S  S63  1  0.66639921  0.94796607  0.91696196  1
  S  S64  1  0.16677761  0.38635358  0.41683448  1
  S  S65  1  0.52546855  0.66550234  0.41525614  1
  O  O66  1  0.11494527  0.06693648  0.30804864  1
  O  O67  1  0.59575491  0.03468796  0.30621967  1
  O  O68  1  0.42195683  0.81147518  0.30506243  1
  O  O69  1  0.91279888  0.76667837  0.30771535  1
  O  O70  1  0.48025981  0.17424895  0.30122897  1
  O  O71  1  0.97634875  0.18087020  0.30097871  1
  O  O72  1  0.09803853  0.16252137  0.80809799  1
  O  O73  1  0.61653512  0.16525249  0.80890718  1
  O  O74  1  0.47629402  0.77038271  0.80202611  1
  O  O75  1  0.98483833  0.79567916  0.80340566  1
  O  O76  1  0.41038733  0.05728802  0.80919081  1
  O  O77  1  0.92075985  0.03170982  0.80682042  1
  O  O78  1  0.40649653  0.97724532  0.69351439  1
  O  O79  1  0.88086299  0.93954942  0.69388674  1
  O  O80  1  0.09326506  0.21606070  0.69089039  1
  O  O81  1  0.58233813  0.18183996  0.69541890  1
  O  O82  1  0.01745756  0.81353362  0.69856543  1
  O  O83  1  0.51157803  0.81514135  0.69747787  1
  O  O84  1  0.38084255  0.81704913  0.19134104  1
  O  O85  1  0.90567931  0.83412488  0.19250006  1
  O  O86  1  0.01072751  0.20575156  0.19634613  1
  O  O87  1  0.51858968  0.22813958  0.19702250  1
  O  O88  1  0.08179586  0.98034043  0.19441975  1
  O  O89  1  0.59349895  0.96694235  0.18939844  1
  O  O90  1  0.43442881  0.35835024  0.63406057  1
  O  O91  1  0.93190117  0.35721159  0.63980240  1
  O  O92  1  0.23986437  0.13146703  0.63684615  1
  O  O93  1  0.75322738  0.13266014  0.63914499  1
  O  O94  1  0.31973586  0.49341591  0.63740862  1
  O  O95  1  0.82114459  0.51317212  0.63392504  1
  O  O96  1  0.43736028  0.51754768  0.13525330  1
  O  O97  1  0.93478736  0.51019341  0.13381986  1
  O  O98  1  0.32627676  0.13266867  0.13389501  1
  O  O99  1  0.81789598  0.14524181  0.13745448  1
  O  O100  1  0.25582328  0.37238668  0.13901823  1
  O  O101  1  0.73729520  0.34900245  0.13655103  1
  O  O102  1  0.23903743  0.30512678  0.02837554  1
  O  O103  1  0.72102986  0.30116237  0.03117989  1
  O  O104  1  0.42022358  0.52400246  0.03025837  1
  O  O105  1  0.92738443  0.55838928  0.02992028  1
  O  O106  1  0.34513834  0.15207600  0.02850738  1
  O  O107  1  0.85601039  0.16649099  0.02418208  1
  O  O108  1  0.22245004  0.14371084  0.53177787  1
  O  O109  1  0.73330401  0.16746573  0.52599740  1
  O  O110  1  0.35971806  0.54713208  0.52436493  1
  O  O111  1  0.84131897  0.53485589  0.52793264  1
  O  O112  1  0.42759602  0.29689879  0.52990574  1
  O  O113  1  0.91249488  0.31502490  0.52624726  1
  O  O114  1  0.25958543  0.69002398  0.97258835  1
  O  O115  1  0.76727423  0.68669197  0.97487560  1
  O  O116  1  0.07460557  0.46573614  0.97074704  1
  O  O117  1  0.58556041  0.49660615  0.97589339  1
  O  O118  1  0.15083948  0.82860751  0.97544036  1
  O  O119  1  0.66515604  0.85392605  0.97207512  1
  O  O120  1  0.26591974  0.84554906  0.47579019  1
  O  O121  1  0.75928437  0.82910868  0.47228186  1
  O  O122  1  0.16486879  0.47271490  0.47174196  1
  O  O123  1  0.64970137  0.47211646  0.47505117  1
  O  O124  1  0.08731755  0.67699206  0.47349524  1
  O  O125  1  0.57354547  0.68251613  0.47009734  1
  O  O126  1  0.06638081  0.63779118  0.35911324  1
  O  O127  1  0.57001545  0.65022849  0.36402322  1
  O  O128  1  0.24695996  0.86270091  0.36066189  1
  O  O129  1  0.75877407  0.86042409  0.35790621  1
  O  O130  1  0.17233630  0.48814219  0.36468014  1
  O  O131  1  0.67753463  0.50296667  0.36006828  1
  O  O132  1  0.07004680  0.49214394  0.86481643  1
  O  O133  1  0.56490725  0.49678174  0.86017960  1
  O  O134  1  0.17975945  0.85437272  0.86065595  1
  O  O135  1  0.67164740  0.85810455  0.86513753  1
  O  O136  1  0.25713431  0.65263989  0.85771554  1
  O  O137  1  0.74450296  0.62905439  0.86108897  1
  O  O138  1  0.02286921  0.84331280  0.42233359  1
  O  O139  1  0.52020205  0.82877028  0.41132522  1
  O  O140  1  0.40253152  0.97077108  0.40302436  1
  O  O141  1  0.91064134  0.98335509  0.41553217  1
  O  O142  1  0.08711846  0.21572053  0.41617098  1
  O  O143  1  0.58004021  0.19355813  0.40405048  1
  O  O144  1  0.02088636  0.21290581  0.91167349  1
  O  O145  1  0.52166409  0.20228263  0.92228817  1
  O  O146  1  0.07989227  0.96775449  0.90577789  1
  O  O147  1  0.58653954  0.95770080  0.91851501  1
  O  O148  1  0.41108642  0.83843625  0.91557748  1
  O  O149  1  0.90321137  0.83540155  0.90379393  1
  O  O150  1  0.49263434  0.18567671  0.59253608  1
  O  O151  1  0.98270457  0.15713026  0.57914949  1
  O  O152  1  0.09587979  0.00339637  0.59177431  1
  O  O153  1  0.59512418  0.02294780  0.59636481  1
  O  O154  1  0.41769181  0.81051806  0.59819868  1
  O  O155  1  0.91248084  0.79065920  0.58523198  1
  O  O156  1  0.48253440  0.79005988  0.08241203  1
  O  O157  1  0.99300800  0.80037135  0.09234207  1
  O  O158  1  0.41320848  0.02858057  0.08434702  1
  O  O159  1  0.91524709  0.02078740  0.09766000  1
  O  O160  1  0.09619039  0.16679042  0.09589380  1
  O  O161  1  0.59360746  0.18236314  0.09020984  1
  O  O162  1  0.34419753  0.17320678  0.73282899  1
  O  O163  1  0.84879077  0.17621759  0.74552711  1
  O  O164  1  0.24274777  0.31812946  0.74548114  1
  O  O165  1  0.74572456  0.32671846  0.73471344  1
  O  O166  1  0.42298545  0.52557245  0.73899251  1
  O  O167  1  0.91997594  0.53731038  0.74686162  1
  O  O168  1  0.35034160  0.52188955  0.24322794  1
  O  O169  1  0.84347907  0.51587768  0.23152478  1
  O  O170  1  0.42025076  0.30798055  0.24218630  1
  O  O171  1  0.92284293  0.31848747  0.23804729  1
  O  O172  1  0.24282827  0.16243303  0.23380302  1
  O  O173  1  0.74106427  0.16604450  0.24499560  1
  O  O174  1  0.31444949  0.49212411  0.92465759  1
  O  O175  1  0.82014656  0.48720779  0.91885373  1
  O  O176  1  0.42762269  0.36398953  0.92924148  1
  O  O177  1  0.93780220  0.36059165  0.91771256  1
  O  O178  1  0.25057894  0.13369794  0.92528126  1
  O  O179  1  0.74546686  0.12260043  0.91763551  1
  O  O180  1  0.32195342  0.15343674  0.41880573  1
  O  O181  1  0.81230353  0.13578895  0.42167024  1
  O  O182  1  0.24606560  0.36957224  0.41637755  1
  O  O183  1  0.75180226  0.36914707  0.42427276  1
  O  O184  1  0.43718579  0.51500398  0.41651744  1
  O  O185  1  0.92678383  0.49244476  0.42501236  1
  O  O186  1  0.17921436  0.50342743  0.07047013  1
  O  O187  1  0.68139648  0.49381042  0.07890756  1
  O  O188  1  0.06513227  0.63662591  0.07624954  1
  O  O189  1  0.56347031  0.63761812  0.07445160  1
  O  O190  1  0.25515341  0.87399049  0.07553284  1
  O  O191  1  0.74625172  0.86071473  0.07333672  1
  O  O192  1  0.18679640  0.87505152  0.58090046  1
  O  O193  1  0.67704365  0.85258452  0.56971568  1
  O  O194  1  0.24988431  0.63537917  0.57241615  1
  O  O195  1  0.75479031  0.63840210  0.57577292  1
  O  O196  1  0.07255010  0.50526194  0.57093351  1
  O  O197  1  0.56497363  0.49391601  0.57665012  1
  O  O198  1  0.15136667  0.83231513  0.25858059  1
  O  O199  1  0.65087327  0.82655369  0.26576533  1
  O  O200  1  0.25558787  0.66616251  0.26929785  1
  O  O201  1  0.76178609  0.68422791  0.25528542  1
  O  O202  1  0.07672350  0.45952608  0.25538263  1
  O  O203  1  0.57256258  0.46701694  0.26277098  1
  O  O204  1  0.15167527  0.47517886  0.76585981  1
  O  O205  1  0.65026727  0.46796080  0.75917564  1
  O  O206  1  0.07385345  0.68446888  0.76406409  1
  O  O207  1  0.57641150  0.69233452  0.75702498  1
  O  O208  1  0.26221849  0.83913255  0.75553531  1
  O  O209  1  0.75559155  0.84300926  0.77058182  1
