# generated using pymatgen
data_Na5Mg2Ti2P5SO24
_symmetry_space_group_name_H-M   'P 1'
_cell_length_a   8.81246241
_cell_length_b   8.82894316
_cell_length_c   22.05052032
_cell_angle_alpha   90.27379444
_cell_angle_beta   89.61514389
_cell_angle_gamma   120.14777311
_symmetry_Int_Tables_number   1
_chemical_formula_structural   Na5Mg2Ti2P5SO24
_chemical_formula_sum   'Na15 Mg6 Ti6 P15 S3 O72'
_cell_volume   1483.53051065
_cell_formula_units_Z   3
loop_
 _symmetry_equiv_pos_site_id
 _symmetry_equiv_pos_as_xyz
  1  'x, y, z'
loop_
 _atom_site_type_symbol
 _atom_site_label
 _atom_site_symmetry_multiplicity
 _atom_site_fract_x
 _atom_site_fract_y
 _atom_site_fract_z
 _atom_site_occupancy
  Na  Na0  1  0.63897667  0.00158306  0.25311196  1
  Na  Na1  1  0.36951873  0.37246821  0.24755476  1
  Na  Na2  1  0.99432598  0.62417885  0.25233693  1
  Na  Na3  1  0.63818330  0.63110580  0.74734083  1
  Na  Na4  1  0.99127300  0.35818101  0.74756338  1
  Na  Na5  1  0.36877453  0.01062759  0.74749296  1
  Na  Na6  1  0.30229368  0.96508612  0.07738080  1
  Na  Na7  1  0.03771842  0.34588595  0.07841306  1
  Na  Na8  1  0.70494714  0.67367101  0.41805611  1
  Na  Na9  1  0.00553792  0.00506289  0.49991695  1
  Na  Na10  1  0.99777822  0.99609962  0.99028775  1
  Na  Na11  1  0.66597267  0.33175608  0.83362156  1
  Na  Na12  1  0.67612023  0.32706931  0.33720691  1
  Na  Na13  1  0.34351617  0.66234471  0.16168811  1
  Na  Na14  1  0.33549240  0.66513265  0.66235704  1
  Mg  Mg15  1  0.99569217  0.00107517  0.35567858  1
  Mg  Mg16  1  0.00380709  0.00425026  0.85266062  1
  Mg  Mg17  1  0.66659767  0.33470679  0.68155194  1
  Mg  Mg18  1  0.66945272  0.33732433  0.18198892  1
  Mg  Mg19  1  0.33541530  0.66559483  0.01765864  1
  Mg  Mg20  1  0.33048678  0.66566339  0.31868906  1
  Ti  Ti21  1  0.99713597  0.99807401  0.64556579  1
  Ti  Ti22  1  0.98525781  0.99788200  0.14372748  1
  Ti  Ti23  1  0.66890371  0.32984046  0.97976757  1
  Ti  Ti24  1  0.67729489  0.32882828  0.48551322  1
  Ti  Ti25  1  0.33368365  0.67903762  0.52067717  1
  Ti  Ti26  1  0.32422397  0.66939862  0.81770391  1
  P  P27  1  0.70872906  0.70661902  0.25166063  1
  P  P28  1  0.99895447  0.28991854  0.25018652  1
  P  P29  1  0.29009051  0.29088079  0.75056126  1
  P  P30  1  0.99890846  0.71127752  0.75116484  1
  P  P31  1  0.70940986  0.99874161  0.75162308  1
  P  P32  1  0.96543909  0.33425260  0.58541021  1
  P  P33  1  0.37359570  0.04388246  0.58465783  1
  P  P34  1  0.66416427  0.62617679  0.58325731  1
  P  P35  1  0.95700290  0.62668068  0.08439369  1
  P  P36  1  0.66294838  0.04009648  0.08456681  1
  P  P37  1  0.37650043  0.33433248  0.08544702  1
  P  P38  1  0.03809747  0.37099381  0.91987036  1
  P  P39  1  0.33212397  0.96169330  0.92016307  1
  P  P40  1  0.62336965  0.96295487  0.41617707  1
  P  P41  1  0.03987385  0.66492133  0.41657289  1
  S  S42  1  0.28949373  0.00066730  0.24967799  1
  S  S43  1  0.62482899  0.66500511  0.91677962  1
  S  S44  1  0.33461976  0.37305538  0.41716329  1
  O  O45  1  0.20702492  0.02731125  0.30274767  1
  O  O46  1  0.82078922  0.78617817  0.30788967  1
  O  O47  1  0.97237960  0.17318100  0.30379469  1
  O  O48  1  0.21019764  0.17639444  0.80517531  1
  O  O49  1  0.96603925  0.79145064  0.80610280  1
  O  O50  1  0.82385746  0.03106762  0.80575396  1
  O  O51  1  0.79791533  0.96498654  0.69410867  1
  O  O52  1  0.16721899  0.20293310  0.69378379  1
  O  O53  1  0.03636318  0.83230439  0.69419044  1
  O  O54  1  0.80976988  0.83199849  0.19539379  1
  O  O55  1  0.02421356  0.19819266  0.19096764  1
  O  O56  1  0.18302039  0.97460460  0.19351962  1
  O  O57  1  0.89272179  0.36798087  0.64299941  1
  O  O58  1  0.47687351  0.11086984  0.64284395  1
  O  O59  1  0.63254954  0.52212682  0.64115020  1
  O  O60  1  0.88342076  0.51943344  0.14217645  1
  O  O61  1  0.63413013  0.11637018  0.14271496  1
  O  O62  1  0.47479240  0.35546002  0.14412126  1
  O  O63  1  0.46883585  0.30006244  0.03052840  1
  O  O64  1  0.83590028  0.53303419  0.02927430  1
  O  O65  1  0.70141531  0.16719560  0.02968644  1
  O  O66  1  0.47148000  0.16343587  0.52942152  1
  O  O67  1  0.69179786  0.53463398  0.52661340  1
  O  O68  1  0.84061036  0.30674861  0.53013111  1
  O  O69  1  0.54038976  0.68694448  0.97073111  1
  O  O70  1  0.14418067  0.45604751  0.97642227  1
  O  O71  1  0.31486687  0.85668655  0.97651128  1
  O  O72  1  0.52016817  0.83577482  0.46980961  1
  O  O73  1  0.31244671  0.46368932  0.46999924  1
  O  O74  1  0.16069034  0.68079947  0.47039945  1
  O  O75  1  0.10774943  0.63059514  0.35704040  1
  O  O76  1  0.52152900  0.89074563  0.35699433  1
  O  O77  1  0.36785850  0.47836635  0.36062503  1
  O  O78  1  0.13516549  0.49532792  0.86194425  1
  O  O79  1  0.36132496  0.86735002  0.86151848  1
  O  O80  1  0.51460398  0.63918051  0.86054551  1
  O  O81  1  0.01748937  0.82627042  0.41662227  1
  O  O82  1  0.80290579  0.97439798  0.41674055  1
  O  O83  1  0.17955673  0.19866572  0.41269567  1
  O  O84  1  0.01121631  0.18993790  0.91112111  1
  O  O85  1  0.17374511  0.98168335  0.91144885  1
  O  O86  1  0.79931545  0.81807906  0.91033010  1
  O  O87  1  0.97830027  0.16575530  0.58814924  1
  O  O88  1  0.18845460  0.02333446  0.58796651  1
  O  O89  1  0.83298542  0.81113265  0.58820023  1
  O  O90  1  0.97694739  0.81393185  0.08986347  1
  O  O91  1  0.83827810  0.03216832  0.08805619  1
  O  O92  1  0.18879917  0.15915549  0.08903159  1
  O  O93  1  0.68178940  0.15635317  0.74344820  1
  O  O94  1  0.47663394  0.31957649  0.74249689  1
  O  O95  1  0.84325331  0.52419482  0.74329323  1
  O  O96  1  0.68409881  0.52217279  0.24432287  1
  O  O97  1  0.83435337  0.30850864  0.24464556  1
  O  O98  1  0.46836111  0.15738559  0.24458431  1
  O  O99  1  0.63546125  0.50067937  0.92075715  1
  O  O100  1  0.85602360  0.36543190  0.92297617  1
  O  O101  1  0.50707994  0.14544712  0.92342787  1
  O  O102  1  0.64098008  0.14576654  0.42706579  1
  O  O103  1  0.49876003  0.36181779  0.42371441  1
  O  O104  1  0.85091077  0.49931175  0.42675426  1
  O  O105  1  0.34373776  0.48717557  0.07766627  1
  O  O106  1  0.14326787  0.65448402  0.07699092  1
  O  O107  1  0.50478413  0.85876886  0.07629931  1
  O  O108  1  0.35042505  0.85696438  0.57351998  1
  O  O109  1  0.50244838  0.64941285  0.57185011  1
  O  O110  1  0.14795527  0.49580805  0.57241082  1
  O  O111  1  0.30666357  0.84089824  0.25302497  1
  O  O112  1  0.52825368  0.69626434  0.25211458  1
  O  O113  1  0.16710249  0.47309545  0.25100051  1
  O  O114  1  0.30563428  0.47721227  0.75593222  1
  O  O115  1  0.17202133  0.69643382  0.75635058  1
  O  O116  1  0.52315141  0.82681552  0.75598439  1
