# generated using pymatgen
data_Na4CaZr3Si3(SO8)3
_symmetry_space_group_name_H-M   'P 1'
_cell_length_a   9.19215876
_cell_length_b   9.18003102
_cell_length_c   23.44955179
_cell_angle_alpha   89.64129532
_cell_angle_beta   90.30018715
_cell_angle_gamma   119.95701897
_symmetry_Int_Tables_number   1
_chemical_formula_structural   Na4CaZr3Si3(SO8)3
_chemical_formula_sum   'Na12 Ca3 Zr9 Si9 S9 O72'
_cell_volume   1714.37163498
_cell_formula_units_Z   3
loop_
 _symmetry_equiv_pos_site_id
 _symmetry_equiv_pos_as_xyz
  1  'x, y, z'
loop_
 _atom_site_type_symbol
 _atom_site_label
 _atom_site_symmetry_multiplicity
 _atom_site_fract_x
 _atom_site_fract_y
 _atom_site_fract_z
 _atom_site_occupancy
  Na  Na0  1  0.63250091  0.00604527  0.23916015  1
  Na  Na1  1  0.37692392  0.35038991  0.25188456  1
  Na  Na2  1  0.98938660  0.64802734  0.24787859  1
  Na  Na3  1  0.99052569  0.35117737  0.75692952  1
  Na  Na4  1  0.38460735  0.01606394  0.75717319  1
  Na  Na5  1  0.70119835  0.67852979  0.40431162  1
  Na  Na6  1  0.00654271  0.02175318  0.48990911  1
  Na  Na7  1  0.00326757  0.01346039  0.00111918  1
  Na  Na8  1  0.65568254  0.32428515  0.83494629  1
  Na  Na9  1  0.64175886  0.31688690  0.32311456  1
  Na  Na10  1  0.35412235  0.69196165  0.16186878  1
  Na  Na11  1  0.35567263  0.66464612  0.67375548  1
  Ca  Ca12  1  0.00959028  0.00960607  0.35443236  1
  Ca  Ca13  1  0.66078682  0.33399788  0.68581296  1
  Ca  Ca14  1  0.65758173  0.32108789  0.17664671  1
  Zr  Zr15  1  0.00853925  0.02121889  0.85769006  1
  Zr  Zr16  1  0.99283413  0.00838326  0.65118060  1
  Zr  Zr17  1  0.98853545  0.98654844  0.14904798  1
  Zr  Zr18  1  0.66639216  0.30872853  0.97938298  1
  Zr  Zr19  1  0.65525421  0.32054353  0.47723475  1
  Zr  Zr20  1  0.33057191  0.67434806  0.01642817  1
  Zr  Zr21  1  0.34002970  0.66483517  0.51624010  1
  Zr  Zr22  1  0.35364739  0.68096270  0.31462642  1
  Zr  Zr23  1  0.34035125  0.66732240  0.81803104  1
  Si  Si24  1  0.29370374  0.99810056  0.25077453  1
  Si  Si25  1  0.70393263  0.70070385  0.25428624  1
  Si  Si26  1  0.29102792  0.29655690  0.75133555  1
  Si  Si27  1  0.70359832  0.99255173  0.75209391  1
  Si  Si28  1  0.66931257  0.02448097  0.08533765  1
  Si  Si29  1  0.04119630  0.38153064  0.91671432  1
  Si  Si30  1  0.32957468  0.95883176  0.91429682  1
  Si  Si31  1  0.62838049  0.96112268  0.41836157  1
  Si  Si32  1  0.33227258  0.37315478  0.41781171  1
  S  S33  1  0.00492810  0.29787001  0.24938899  1
  S  S34  1  0.00523202  0.71678058  0.75081782  1
  S  S35  1  0.96394698  0.33510876  0.58346621  1
  S  S36  1  0.36476399  0.03236152  0.58314371  1
  S  S37  1  0.67046288  0.63414300  0.58154694  1
  S  S38  1  0.96423064  0.63069409  0.08226273  1
  S  S39  1  0.36618683  0.33376187  0.08156613  1
  S  S40  1  0.62658121  0.66512634  0.91821239  1
  S  S41  1  0.03905554  0.65840383  0.41956899  1
  O  O42  1  0.21635867  0.03951346  0.30465807  1
  O  O43  1  0.80242719  0.77521929  0.31298397  1
  O  O44  1  0.97070620  0.19499879  0.30063786  1
  O  O45  1  0.19209288  0.17316702  0.80532772  1
  O  O46  1  0.98368297  0.79495011  0.80148320  1
  O  O47  1  0.82426905  0.00775169  0.80507145  1
  O  O48  1  0.79577844  0.96958956  0.69340617  1
  O  O49  1  0.16667839  0.19708856  0.69455452  1
  O  O50  1  0.02492799  0.82033991  0.69799889  1
  O  O51  1  0.80062828  0.83131633  0.19905685  1
  O  O52  1  0.03189566  0.21573257  0.19856979  1
  O  O53  1  0.17094693  0.97177737  0.19387804  1
  O  O54  1  0.89485804  0.35673241  0.63666683  1
  O  O55  1  0.46186324  0.10089526  0.63553369  1
  O  O56  1  0.64509596  0.53471900  0.63287481  1
  O  O57  1  0.89929965  0.54192522  0.13641367  1
  O  O58  1  0.63739471  0.08681444  0.14508914  1
  O  O59  1  0.45759907  0.36270173  0.13583246  1
  O  O60  1  0.46154798  0.31631883  0.03321792  1
  O  O61  1  0.85295398  0.54097236  0.03337921  1
  O  O62  1  0.68758104  0.15436673  0.03132420  1
  O  O63  1  0.45786906  0.14549358  0.53339798  1
  O  O64  1  0.68754357  0.54893225  0.53024225  1
  O  O65  1  0.85374703  0.31607273  0.53399593  1
  O  O66  1  0.54478587  0.69088119  0.96799038  1
  O  O67  1  0.16368765  0.47372520  0.97029163  1
  O  O68  1  0.31522492  0.84252484  0.96897240  1
  O  O69  1  0.51224590  0.84509484  0.47173938  1
  O  O70  1  0.32463953  0.48199128  0.47245901  1
  O  O71  1  0.14334026  0.67241953  0.46998308  1
  O  O72  1  0.11177078  0.63412887  0.36656607  1
  O  O73  1  0.51659466  0.87981035  0.35967194  1
  O  O74  1  0.36326509  0.49122862  0.36060664  1
  O  O75  1  0.12885123  0.48702493  0.85709234  1
  O  O76  1  0.36019361  0.87424439  0.85642969  1
  O  O77  1  0.52089118  0.64067624  0.86562303  1
  O  O78  1  0.01640567  0.80461810  0.41807429  1
  O  O79  1  0.80038398  0.95992400  0.42132156  1
  O  O80  1  0.17723066  0.18976457  0.42155188  1
  O  O81  1  0.01540422  0.19092997  0.91228734  1
  O  O82  1  0.15744357  0.96727028  0.90943093  1
  O  O83  1  0.79333118  0.81513036  0.91085779  1
  O  O84  1  0.97943981  0.17873557  0.58595864  1
  O  O85  1  0.19649680  0.01885006  0.58600491  1
  O  O86  1  0.82405705  0.80411419  0.58554984  1
  O  O87  1  0.98286017  0.80268115  0.08488898  1
  O  O88  1  0.84520672  0.01593106  0.08645453  1
  O  O89  1  0.19809136  0.17825553  0.08522503  1
  O  O90  1  0.69697966  0.16605252  0.74803179  1
  O  O91  1  0.46926945  0.30506004  0.74774995  1
  O  O92  1  0.86321701  0.54353547  0.74447369  1
  O  O93  1  0.68045534  0.51566742  0.24459560  1
  O  O94  1  0.86287648  0.32871396  0.24096985  1
  O  O95  1  0.48681952  0.15049941  0.24537659  1
  O  O96  1  0.64047761  0.51267930  0.92463743  1
  O  O97  1  0.85534497  0.36618201  0.92364747  1
  O  O98  1  0.49527501  0.14854984  0.92245335  1
  O  O99  1  0.64535989  0.14835731  0.42668278  1
  O  O100  1  0.51849886  0.37993366  0.42721831  1
  O  O101  1  0.86802683  0.50416529  0.42746319  1
  O  O102  1  0.34393657  0.48201377  0.07217000  1
  O  O103  1  0.13542735  0.65066870  0.07461020  1
  O  O104  1  0.50598120  0.83704878  0.07245663  1
  O  O105  1  0.34233658  0.86163386  0.57438317  1
  O  O106  1  0.51892689  0.65673279  0.57581985  1
  O  O107  1  0.13481011  0.48376333  0.57550988  1
  O  O108  1  0.29091560  0.81287460  0.25605810  1
  O  O109  1  0.51457473  0.68869366  0.25412669  1
  O  O110  1  0.16283531  0.46529279  0.25526024  1
  O  O111  1  0.29089285  0.47570529  0.75457864  1
  O  O112  1  0.16497205  0.70840476  0.75341091  1
  O  O113  1  0.51144410  0.83030043  0.75456536  1
