# generated using pymatgen
data_Na6Ta20Zn4Si21(S5O48)3
_symmetry_space_group_name_H-M   'P 1'
_cell_length_a   17.72039730
_cell_length_b   8.85627260
_cell_length_c   22.89059935
_cell_angle_alpha   89.99427827
_cell_angle_beta   90.04636703
_cell_angle_gamma   119.90545791
_symmetry_Int_Tables_number   1
_chemical_formula_structural   Na6Ta20Zn4Si21(S5O48)3
_chemical_formula_sum   'Na6 Ta20 Zn4 Si21 S15 O144'
_cell_volume   3114.04589121
_cell_formula_units_Z   1
loop_
 _symmetry_equiv_pos_site_id
 _symmetry_equiv_pos_as_xyz
  1  'x, y, z'
loop_
 _atom_site_type_symbol
 _atom_site_label
 _atom_site_symmetry_multiplicity
 _atom_site_fract_x
 _atom_site_fract_y
 _atom_site_fract_z
 _atom_site_occupancy
  Na  Na0  1  0.99858912  0.99751935  0.49891618  1
  Na  Na1  1  0.50001000  0.00193370  0.00204670  1
  Na  Na2  1  0.33577313  0.31999051  0.83687148  1
  Na  Na3  1  0.83315405  0.33235613  0.83457853  1
  Na  Na4  1  0.33575492  0.33568753  0.33287535  1
  Na  Na5  1  0.83082344  0.34591354  0.33358005  1
  Ta  Ta6  1  0.50239098  0.99169858  0.35967175  1
  Ta  Ta7  1  0.99476231  0.00122635  0.86146251  1
  Ta  Ta8  1  0.49321470  0.99147306  0.63881418  1
  Ta  Ta9  1  0.99315315  0.99500142  0.13900882  1
  Ta  Ta10  1  0.33541219  0.33564578  0.68667072  1
  Ta  Ta11  1  0.83787732  0.32261502  0.68505236  1
  Ta  Ta12  1  0.33941435  0.35643485  0.18638986  1
  Ta  Ta13  1  0.83145456  0.32587924  0.19072262  1
  Ta  Ta14  1  0.33369184  0.33410388  0.97893876  1
  Ta  Ta15  1  0.84066475  0.34244072  0.97847812  1
  Ta  Ta16  1  0.34035713  0.33930438  0.47623150  1
  Ta  Ta17  1  0.83278537  0.32994506  0.47693301  1
  Ta  Ta18  1  0.16026030  0.66152589  0.02540907  1
  Ta  Ta19  1  0.66527163  0.65774464  0.02543923  1
  Ta  Ta20  1  0.16596316  0.67328497  0.52358778  1
  Ta  Ta21  1  0.66056388  0.66010111  0.52363926  1
  Ta  Ta22  1  0.16660695  0.67687211  0.31193705  1
  Ta  Ta23  1  0.66610163  0.65903648  0.30655556  1
  Ta  Ta24  1  0.16799037  0.67847434  0.81077639  1
  Ta  Ta25  1  0.66652211  0.65880394  0.81265911  1
  Zn  Zn26  1  0.99605182  0.96883741  0.35434092  1
  Zn  Zn27  1  0.49610702  0.02581879  0.85459938  1
  Zn  Zn28  1  0.98970291  0.01261432  0.64653992  1
  Zn  Zn29  1  0.49401778  0.95506878  0.15210123  1
  Si  Si30  1  0.64201398  0.00030999  0.24983131  1
  Si  Si31  1  0.35587497  0.71852340  0.25037068  1
  Si  Si32  1  0.85880720  0.71538881  0.25073764  1
  Si  Si33  1  0.35733920  0.00041070  0.75059784  1
  Si  Si34  1  0.85559561  0.99670487  0.74998032  1
  Si  Si35  1  0.47678454  0.33341931  0.58291330  1
  Si  Si36  1  0.97979706  0.32611619  0.58035254  1
  Si  Si37  1  0.69076713  0.04580733  0.58240526  1
  Si  Si38  1  0.32829139  0.61170245  0.58255363  1
  Si  Si39  1  0.47920207  0.63587376  0.08090665  1
  Si  Si40  1  0.97491813  0.61723495  0.08574102  1
  Si  Si41  1  0.82878151  0.04543949  0.08299546  1
  Si  Si42  1  0.19103499  0.33458004  0.08309712  1
  Si  Si43  1  0.80582316  0.65768715  0.91815880  1
  Si  Si44  1  0.02612778  0.38709412  0.91605451  1
  Si  Si45  1  0.52271975  0.37290356  0.91756764  1
  Si  Si46  1  0.16835826  0.95658485  0.91723116  1
  Si  Si47  1  0.30925683  0.95427890  0.41710774  1
  Si  Si48  1  0.66748373  0.38338847  0.41590287  1
  Si  Si49  1  0.02248118  0.67330192  0.41687578  1
  Si  Si50  1  0.52659011  0.66585333  0.41528840  1
  S  S51  1  0.14643143  0.00455014  0.24926104  1
  S  S52  1  0.00116237  0.28709013  0.25158273  1
  S  S53  1  0.49808157  0.28308376  0.24845068  1
  S  S54  1  0.14500318  0.28907976  0.75120220  1
  S  S55  1  0.64618081  0.28915720  0.74949373  1
  S  S56  1  0.99968031  0.71473808  0.74918989  1
  S  S57  1  0.49962661  0.71260552  0.75133004  1
  S  S58  1  0.18896815  0.04916918  0.58296619  1
  S  S59  1  0.83478046  0.61957994  0.58236180  1
  S  S60  1  0.33492952  0.04818127  0.08266437  1
  S  S61  1  0.68932768  0.32899542  0.08261075  1
  S  S62  1  0.30970809  0.66690146  0.91722008  1
  S  S63  1  0.66477347  0.94957657  0.91741834  1
  S  S64  1  0.80990425  0.95186250  0.41717809  1
  S  S65  1  0.16486255  0.38016679  0.41743490  1
  O  O66  1  0.11458699  0.04326882  0.30262807  1
  O  O67  1  0.59719309  0.03489124  0.30775713  1
  O  O68  1  0.41801575  0.80675363  0.30760538  1
  O  O69  1  0.91443515  0.78225681  0.30850764  1
  O  O70  1  0.48370140  0.17994076  0.30208009  1
  O  O71  1  0.98590142  0.18347180  0.30396637  1
  O  O72  1  0.10513946  0.17698819  0.80328036  1
  O  O73  1  0.61415659  0.18549853  0.80259359  1
  O  O74  1  0.48340653  0.78355257  0.80364052  1
  O  O75  1  0.98732320  0.79564167  0.80229111  1
  O  O76  1  0.41233881  0.04454846  0.80849354  1
  O  O77  1  0.91916759  0.03005264  0.80731578  1
  O  O78  1  0.40587837  0.97492470  0.69305480  1
  O  O79  1  0.89054824  0.95406171  0.69299873  1
  O  O80  1  0.09649068  0.21978508  0.69764114  1
  O  O81  1  0.59180800  0.20717815  0.69764410  1
  O  O82  1  0.01697412  0.81522926  0.69652963  1
  O  O83  1  0.51236315  0.81676276  0.69789788  1
  O  O84  1  0.38429854  0.82213014  0.19111346  1
  O  O85  1  0.90709676  0.84103526  0.19320280  1
  O  O86  1  0.01399528  0.20858233  0.19797537  1
  O  O87  1  0.51315490  0.21605550  0.19551353  1
  O  O88  1  0.09204536  0.97781092  0.19745700  1
  O  O89  1  0.59332360  0.97045508  0.18980997  1
  O  O90  1  0.42777653  0.35991916  0.63953793  1
  O  O91  1  0.93249307  0.35940351  0.63966187  1
  O  O92  1  0.24506112  0.13246459  0.63620945  1
  O  O93  1  0.75309403  0.14374272  0.64035149  1
  O  O94  1  0.31556278  0.49356638  0.64088983  1
  O  O95  1  0.81979200  0.50970166  0.63573545  1
  O  O96  1  0.43283270  0.50689375  0.13948133  1
  O  O97  1  0.92753262  0.49239555  0.14018898  1
  O  O98  1  0.31815495  0.12631974  0.13517228  1
  O  O99  1  0.81607818  0.13798436  0.14008951  1
  O  O100  1  0.25354379  0.36120851  0.14008592  1
  O  O101  1  0.74392766  0.35787103  0.13555323  1
  O  O102  1  0.23497776  0.29921736  0.02595483  1
  O  O103  1  0.73450282  0.31061024  0.02959792  1
  O  O104  1  0.41403598  0.51572191  0.02715370  1
  O  O105  1  0.91641231  0.53115121  0.02579765  1
  O  O106  1  0.34268915  0.15585451  0.02881732  1
  O  O107  1  0.84395795  0.16990475  0.02580900  1
  O  O108  1  0.23150118  0.15702890  0.53050054  1
  O  O109  1  0.73507182  0.17126922  0.52646239  1
  O  O110  1  0.34325306  0.51517894  0.52679352  1
  O  O111  1  0.84371415  0.52962702  0.52951951  1
  O  O112  1  0.41526664  0.30043544  0.52572974  1
  O  O113  1  0.91343686  0.30829953  0.52717310  1
  O  O114  1  0.26716941  0.68850419  0.96943047  1
  O  O115  1  0.76362508  0.69400677  0.97426072  1
  O  O116  1  0.08350428  0.47599743  0.97438233  1
  O  O117  1  0.58563097  0.48525091  0.97235088  1
  O  O118  1  0.15642383  0.83413432  0.97330379  1
  O  O119  1  0.65596281  0.84648811  0.97028771  1
  O  O120  1  0.26339760  0.83372364  0.47399336  1
  O  O121  1  0.76737844  0.84710636  0.47032682  1
  O  O122  1  0.15623606  0.46618357  0.47080869  1
  O  O123  1  0.65856087  0.48268570  0.47416905  1
  O  O124  1  0.08499727  0.68594011  0.47246467  1
  O  O125  1  0.58271223  0.69010606  0.47492282  1
  O  O126  1  0.06729703  0.63626264  0.35900013  1
  O  O127  1  0.57054769  0.63199343  0.35975368  1
  O  O128  1  0.24552697  0.85954192  0.35994957  1
  O  O129  1  0.75711148  0.87414896  0.36434955  1
  O  O130  1  0.18140825  0.49133053  0.36452710  1
  O  O131  1  0.68442326  0.50729816  0.35928914  1
  O  O132  1  0.07200832  0.50418866  0.85873785  1
  O  O133  1  0.56823159  0.49890898  0.85900297  1
  O  O134  1  0.18334171  0.86158474  0.85914215  1
  O  O135  1  0.68086593  0.86937918  0.86410207  1
  O  O136  1  0.25526607  0.64010424  0.86368933  1
  O  O137  1  0.74677313  0.63314057  0.85940647  1
  O  O138  1  0.01789171  0.84879053  0.41812934  1
  O  O139  1  0.51385544  0.83396727  0.41035735  1
  O  O140  1  0.40438324  0.98397413  0.40346253  1
  O  O141  1  0.89849513  0.98223549  0.41371607  1
  O  O142  1  0.08787326  0.20985462  0.41093848  1
  O  O143  1  0.58057051  0.19719558  0.40548169  1
  O  O144  1  0.01560311  0.19452050  0.90750847  1
  O  O145  1  0.51735595  0.18750772  0.91799299  1
  O  O146  1  0.08303269  0.97125839  0.90081315  1
  O  O147  1  0.58737088  0.96500274  0.90976495  1
  O  O148  1  0.39738345  0.81387032  0.91178605  1
  O  O149  1  0.90290411  0.82423897  0.90496290  1
  O  O150  1  0.48815043  0.16534435  0.59397811  1
  O  O151  1  0.99101736  0.15905714  0.58255061  1
  O  O152  1  0.10277953  0.02465183  0.59062742  1
  O  O153  1  0.59661768  0.02184378  0.60035680  1
  O  O154  1  0.41745934  0.79880661  0.59345857  1
  O  O155  1  0.91409274  0.78742015  0.58662822  1
  O  O156  1  0.48561660  0.82007455  0.07962535  1
  O  O157  1  0.98870488  0.81151961  0.09379525  1
  O  O158  1  0.41338559  0.03846223  0.08607649  1
  O  O159  1  0.91776010  0.03501386  0.09231616  1
  O  O160  1  0.09680715  0.17127540  0.09956107  1
  O  O161  1  0.60281888  0.18352641  0.08625580  1
  O  O162  1  0.33730291  0.16309898  0.73725133  1
  O  O163  1  0.84576864  0.17777968  0.74426653  1
  O  O164  1  0.23563123  0.31124775  0.74588749  1
  O  O165  1  0.73811466  0.32646991  0.73968853  1
  O  O166  1  0.42006802  0.52954781  0.74202427  1
  O  O167  1  0.91962341  0.53595027  0.74459629  1
  O  O168  1  0.34544936  0.51550267  0.24398450  1
  O  O169  1  0.84297630  0.51851239  0.23638339  1
  O  O170  1  0.41745376  0.30411800  0.24360229  1
  O  O171  1  0.92258027  0.31121928  0.24297186  1
  O  O172  1  0.23819825  0.15049960  0.23949961  1
  O  O173  1  0.74309050  0.17300477  0.24491690  1
  O  O174  1  0.31314296  0.49974681  0.92193359  1
  O  O175  1  0.81355906  0.48182147  0.92338009  1
  O  O176  1  0.42672804  0.36160141  0.92485334  1
  O  O177  1  0.92732034  0.35965090  0.92291584  1
  O  O178  1  0.25350907  0.14871704  0.92337604  1
  O  O179  1  0.74515682  0.12680078  0.92289074  1
  O  O180  1  0.31245671  0.14276751  0.42483300  1
  O  O181  1  0.81424430  0.12778351  0.42313190  1
  O  O182  1  0.24524296  0.36303958  0.42394703  1
  O  O183  1  0.75273371  0.35873568  0.42512872  1
  O  O184  1  0.42715522  0.49402367  0.42332097  1
  O  O185  1  0.92682499  0.49319239  0.42561989  1
  O  O186  1  0.18602476  0.51068728  0.07136313  1
  O  O187  1  0.68737127  0.49682185  0.07591298  1
  O  O188  1  0.07090235  0.63929702  0.07497742  1
  O  O189  1  0.57101684  0.63706511  0.07181840  1
  O  O190  1  0.25565639  0.87397149  0.07317547  1
  O  O191  1  0.74721630  0.85565349  0.07112398  1
  O  O192  1  0.18638683  0.87802228  0.57710766  1
  O  O193  1  0.68624604  0.86079418  0.57203661  1
  O  O194  1  0.24672773  0.63910499  0.57215212  1
  O  O195  1  0.75634608  0.63716797  0.57468857  1
  O  O196  1  0.07171020  0.50760038  0.57179062  1
  O  O197  1  0.57155349  0.50426111  0.57558175  1
  O  O198  1  0.15261573  0.83988707  0.25596834  1
  O  O199  1  0.65752707  0.83725023  0.26683840  1
  O  O200  1  0.25555107  0.67305027  0.26692670  1
  O  O201  1  0.76088513  0.69070297  0.25791748  1
  O  O202  1  0.07845899  0.46514045  0.25755913  1
  O  O203  1  0.57371645  0.46582400  0.25787119  1
  O  O204  1  0.15788525  0.46656924  0.76261957  1
  O  O205  1  0.65255977  0.46586327  0.75657709  1
  O  O206  1  0.07574359  0.68378583  0.75988830  1
  O  O207  1  0.57638125  0.68735679  0.75704336  1
  O  O208  1  0.25972597  0.82457212  0.75864310  1
  O  O209  1  0.75653792  0.83929021  0.76642497  1
