# generated using pymatgen
data_MgSc2V2O8
_symmetry_space_group_name_H-M   'P 1'
_cell_length_a   5.87445792
_cell_length_b   5.87445870
_cell_length_c   6.14742680
_cell_angle_alpha   107.59484547
_cell_angle_beta   107.59485864
_cell_angle_gamma   114.42004347
_symmetry_Int_Tables_number   1
_chemical_formula_structural   MgSc2V2O8
_chemical_formula_sum   'Mg1 Sc2 V2 O8'
_cell_volume   160.27358618
_cell_formula_units_Z   1
loop_
 _symmetry_equiv_pos_site_id
 _symmetry_equiv_pos_as_xyz
  1  'x, y, z'
loop_
 _atom_site_type_symbol
 _atom_site_label
 _atom_site_symmetry_multiplicity
 _atom_site_fract_x
 _atom_site_fract_y
 _atom_site_fract_z
 _atom_site_occupancy
  Mg  Mg0  1  0.86368300  0.13631700  0.25000000  1
  Sc  Sc1  1  0.84764400  0.15235600  0.75000000  1
  Sc  Sc2  1  0.16649600  0.83350400  0.25000000  1
  V  V3  1  0.58507700  0.41492300  0.25000000  1
  V  V4  1  0.38818200  0.61181800  0.75000000  1
  O  O5  1  0.80010300  0.78422400  0.47269900  1
  O  O6  1  0.39476800  0.82413700  0.58182600  1
  O  O7  1  0.75370200  0.77645500  0.99022600  1
  O  O8  1  0.82437700  0.37463600  0.09666100  1
  O  O9  1  0.62536400  0.17562300  0.40333900  1
  O  O10  1  0.22354500  0.24629800  0.50977400  1
  O  O11  1  0.17586400  0.60523200  0.91817400  1
  O  O12  1  0.21577600  0.19989700  0.02730100  1
