# generated using pymatgen
data_Na3Zn2Ga2PS5O24
_symmetry_space_group_name_H-M   'P 1'
_cell_length_a   8.65863636
_cell_length_b   8.65149932
_cell_length_c   22.37315675
_cell_angle_alpha   90.11318272
_cell_angle_beta   89.74532869
_cell_angle_gamma   119.92567001
_symmetry_Int_Tables_number   1
_chemical_formula_structural   Na3Zn2Ga2PS5O24
_chemical_formula_sum   'Na9 Zn6 Ga6 P3 S15 O72'
_cell_volume   1452.51045551
_cell_formula_units_Z   3
loop_
 _symmetry_equiv_pos_site_id
 _symmetry_equiv_pos_as_xyz
  1  'x, y, z'
loop_
 _atom_site_type_symbol
 _atom_site_label
 _atom_site_symmetry_multiplicity
 _atom_site_fract_x
 _atom_site_fract_y
 _atom_site_fract_z
 _atom_site_occupancy
  Na  Na0  1  0.36692758  0.99676651  0.74974471  1
  Na  Na1  1  0.66442282  0.96499932  0.58551051  1
  Na  Na2  1  0.66985545  0.70066952  0.08261226  1
  Na  Na3  1  0.01286728  0.00133187  0.50071698  1
  Na  Na4  1  0.00764495  0.00250230  0.00036514  1
  Na  Na5  1  0.67437990  0.33731512  0.83400738  1
  Na  Na6  1  0.66669296  0.33336914  0.33342638  1
  Na  Na7  1  0.31997422  0.66497920  0.16714831  1
  Na  Na8  1  0.33062601  0.66059218  0.66673812  1
  Zn  Zn9  1  0.00512225  0.99989838  0.64912950  1
  Zn  Zn10  1  0.00660747  0.99754345  0.14886523  1
  Zn  Zn11  1  0.31685826  0.66452497  0.01677342  1
  Zn  Zn12  1  0.32689773  0.66925027  0.51647675  1
  Zn  Zn13  1  0.33168233  0.66570194  0.31709136  1
  Zn  Zn14  1  0.34103487  0.66777575  0.81721471  1
  Ga  Ga15  1  0.00190809  0.00125144  0.34942826  1
  Ga  Ga16  1  0.99060705  0.00231104  0.84915264  1
  Ga  Ga17  1  0.66837469  0.32514550  0.68381449  1
  Ga  Ga18  1  0.67592224  0.33755389  0.18423097  1
  Ga  Ga19  1  0.67451928  0.34015376  0.98317105  1
  Ga  Ga20  1  0.65736460  0.32942871  0.48282042  1
  P  P21  1  0.71039502  0.00105371  0.74829491  1
  P  P22  1  0.37355203  0.04428570  0.58324368  1
  P  P23  1  0.95753680  0.62114786  0.08371647  1
  S  S24  1  0.29528769  0.00276189  0.24964617  1
  S  S25  1  0.70701036  0.70650409  0.24967334  1
  S  S26  1  0.99860527  0.28989897  0.24944533  1
  S  S27  1  0.29165408  0.29385865  0.74991114  1
  S  S28  1  0.99469892  0.70436780  0.75012166  1
  S  S29  1  0.95746804  0.33759579  0.58250730  1
  S  S30  1  0.66622136  0.61799484  0.58341190  1
  S  S31  1  0.66636935  0.04658648  0.08333404  1
  S  S32  1  0.37781846  0.33049763  0.08322973  1
  S  S33  1  0.62969425  0.66625585  0.91768559  1
  S  S34  1  0.03822107  0.37045333  0.91618737  1
  S  S35  1  0.33309528  0.96660975  0.91621701  1
  S  S36  1  0.63159328  0.96365951  0.41647741  1
  S  S37  1  0.33280113  0.37151570  0.41649995  1
  S  S38  1  0.03493947  0.66580661  0.41636776  1
  O  O39  1  0.21493998  0.03574897  0.30452395  1
  O  O40  1  0.82210157  0.78902311  0.30344835  1
  O  O41  1  0.96602599  0.17799727  0.30447793  1
  O  O42  1  0.21463984  0.17514325  0.80403403  1
  O  O43  1  0.96582945  0.78588413  0.80501349  1
  O  O44  1  0.82643271  0.03511433  0.80473217  1
  O  O45  1  0.78790732  0.97124853  0.69091298  1
  O  O46  1  0.18621262  0.21505012  0.69613547  1
  O  O47  1  0.03301380  0.81725663  0.69685203  1
  O  O48  1  0.78331381  0.81192466  0.19470916  1
  O  O49  1  0.02651291  0.20999441  0.19567385  1
  O  O50  1  0.18695533  0.97269147  0.19624838  1
  O  O51  1  0.87763480  0.36787171  0.63752144  1
  O  O52  1  0.49286505  0.12497164  0.64066534  1
  O  O53  1  0.63979535  0.50927482  0.63804947  1
  O  O54  1  0.86983486  0.50517770  0.14005203  1
  O  O55  1  0.63398283  0.12516289  0.13792840  1
  O  O56  1  0.49160900  0.36396545  0.13754663  1
  O  O57  1  0.45891422  0.30071146  0.02862566  1
  O  O58  1  0.83406621  0.53842302  0.02813998  1
  O  O59  1  0.69365264  0.15514819  0.02880782  1
  O  O60  1  0.46445879  0.16151444  0.52769901  1
  O  O61  1  0.69734874  0.53912222  0.52872375  1
  O  O62  1  0.84202151  0.30413161  0.52896518  1
  O  O63  1  0.55431194  0.69771085  0.97278321  1
  O  O64  1  0.14561015  0.44454086  0.97026585  1
  O  O65  1  0.30134261  0.85599542  0.96948061  1
  O  O66  1  0.55892629  0.85786908  0.47180688  1
  O  O67  1  0.30064774  0.44725868  0.47079596  1
  O  O68  1  0.14345051  0.70010002  0.47028921  1
  O  O69  1  0.11129201  0.63291572  0.36243458  1
  O  O70  1  0.52020978  0.88473693  0.36354865  1
  O  O71  1  0.36521295  0.47945069  0.36245980  1
  O  O72  1  0.11446523  0.47974915  0.86235867  1
  O  O73  1  0.36562067  0.89221259  0.86107678  1
  O  O74  1  0.52049443  0.63458461  0.86423961  1
  O  O75  1  0.01631773  0.82945405  0.40872857  1
  O  O76  1  0.81312273  0.98196617  0.40865749  1
  O  O77  1  0.17047330  0.18865781  0.40922281  1
  O  O78  1  0.01963274  0.18839298  0.90954724  1
  O  O79  1  0.16990922  0.98432765  0.90875493  1
  O  O80  1  0.81156686  0.82824872  0.91027049  1
  O  O81  1  0.96754752  0.17228170  0.58758453  1
  O  O82  1  0.19043798  0.02707275  0.58876628  1
  O  O83  1  0.82420969  0.79903623  0.58745800  1
  O  O84  1  0.96669957  0.80423551  0.08844391  1
  O  O85  1  0.82711074  0.02831249  0.08846837  1
  O  O86  1  0.20000284  0.17364995  0.08878347  1
  O  O87  1  0.68815977  0.17208580  0.74418473  1
  O  O88  1  0.47257289  0.30806682  0.74457946  1
  O  O89  1  0.83151346  0.52646194  0.74338233  1
  O  O90  1  0.69095110  0.52547708  0.24465301  1
  O  O91  1  0.83232150  0.30440733  0.24482769  1
  O  O92  1  0.47547403  0.16804127  0.24349662  1
  O  O93  1  0.64742789  0.50251619  0.92354969  1
  O  O94  1  0.85533910  0.34940342  0.92329060  1
  O  O95  1  0.49639737  0.14716872  0.92417196  1
  O  O96  1  0.65189099  0.14596011  0.42330528  1
  O  O97  1  0.49594576  0.35243454  0.42292025  1
  O  O98  1  0.85346743  0.50369014  0.42431147  1
  O  O99  1  0.36831163  0.49676402  0.07768136  1
  O  O100  1  0.14098701  0.63847401  0.07855940  1
  O  O101  1  0.50894491  0.86502793  0.07807394  1
  O  O102  1  0.36651080  0.86207429  0.57810275  1
  O  O103  1  0.50554971  0.63684585  0.57833249  1
  O  O104  1  0.13480219  0.49530947  0.57729179  1
  O  O105  1  0.31462922  0.84398817  0.25714072  1
  O  O106  1  0.52921652  0.68742457  0.25718337  1
  O  O107  1  0.15620661  0.46858683  0.25661229  1
  O  O108  1  0.31083770  0.47062202  0.75761654  1
  O  O109  1  0.15547160  0.68619760  0.75737149  1
  O  O110  1  0.51976836  0.84040684  0.75590500  1
