# generated using pymatgen
data_Na2Sn3O7
_symmetry_space_group_name_H-M   'P 1'
_cell_length_a   16.74473900
_cell_length_b   3.16665100
_cell_length_c   12.07715600
_cell_angle_alpha   90.00000000
_cell_angle_beta   90.00000000
_cell_angle_gamma   90.00000000
_symmetry_Int_Tables_number   1
_chemical_formula_structural   Na2Sn3O7
_chemical_formula_sum   'Na8 Sn12 O28'
_cell_volume   640.38811118
_cell_formula_units_Z   4
loop_
 _symmetry_equiv_pos_site_id
 _symmetry_equiv_pos_as_xyz
  1  'x, y, z'
loop_
 _atom_site_type_symbol
 _atom_site_label
 _atom_site_symmetry_multiplicity
 _atom_site_fract_x
 _atom_site_fract_y
 _atom_site_fract_z
 _atom_site_occupancy
  Na  Na0  1  0.30715800  0.25000000  0.43795300  1
  Na  Na1  1  0.69284200  0.75000000  0.56204700  1
  Na  Na2  1  0.19284200  0.75000000  0.93795300  1
  Na  Na3  1  0.80715800  0.25000000  0.06204700  1
  Na  Na4  1  0.43533100  0.25000000  0.88984900  1
  Na  Na5  1  0.56466900  0.75000000  0.11015100  1
  Na  Na6  1  0.06466900  0.75000000  0.38984900  1
  Na  Na7  1  0.93533100  0.25000000  0.61015100  1
  Sn  Sn8  1  0.02155000  0.25000000  0.11617900  1
  Sn  Sn9  1  0.97845000  0.75000000  0.88382100  1
  Sn  Sn10  1  0.47845000  0.75000000  0.61617900  1
  Sn  Sn11  1  0.52155000  0.25000000  0.38382100  1
  Sn  Sn12  1  0.28556700  0.25000000  0.71025600  1
  Sn  Sn13  1  0.71443300  0.75000000  0.28974400  1
  Sn  Sn14  1  0.21443300  0.75000000  0.21025600  1
  Sn  Sn15  1  0.78556700  0.25000000  0.78974400  1
  Sn  Sn16  1  0.38193500  0.25000000  0.15003900  1
  Sn  Sn17  1  0.61806500  0.75000000  0.84996100  1
  Sn  Sn18  1  0.11806500  0.75000000  0.65003900  1
  Sn  Sn19  1  0.88193500  0.25000000  0.34996100  1
  O  O20  1  0.08755500  0.25000000  0.54841000  1
  O  O21  1  0.91244500  0.75000000  0.45159000  1
  O  O22  1  0.41244500  0.75000000  0.04841000  1
  O  O23  1  0.58755500  0.25000000  0.95159000  1
  O  O24  1  0.16430000  0.25000000  0.75619400  1
  O  O25  1  0.83570000  0.75000000  0.24380600  1
  O  O26  1  0.33570000  0.75000000  0.25619400  1
  O  O27  1  0.66430000  0.25000000  0.74380600  1
  O  O28  1  0.18743800  0.25000000  0.31362400  1
  O  O29  1  0.81256200  0.75000000  0.68637600  1
  O  O30  1  0.31256200  0.75000000  0.81362400  1
  O  O31  1  0.68743800  0.25000000  0.18637600  1
  O  O32  1  0.25378100  0.25000000  0.09947800  1
  O  O33  1  0.74621900  0.75000000  0.90052200  1
  O  O34  1  0.24621900  0.75000000  0.59947800  1
  O  O35  1  0.75378100  0.25000000  0.40052200  1
  O  O36  1  0.39564200  0.25000000  0.62867400  1
  O  O37  1  0.60435800  0.75000000  0.37132600  1
  O  O38  1  0.10435800  0.75000000  0.12867400  1
  O  O39  1  0.89564200  0.25000000  0.87132600  1
  O  O40  1  0.49240000  0.25000000  0.22366600  1
  O  O41  1  0.50760000  0.75000000  0.77633400  1
  O  O42  1  0.00760000  0.75000000  0.72366600  1
  O  O43  1  0.99240000  0.25000000  0.27633400  1
  O  O44  1  0.55269600  0.25000000  0.55882500  1
  O  O45  1  0.44730400  0.75000000  0.44117500  1
  O  O46  1  0.94730400  0.75000000  0.05882500  1
  O  O47  1  0.05269600  0.25000000  0.94117500  1
