# generated using pymatgen
data_MgAl4(CuO4)2
_symmetry_space_group_name_H-M   'P 1'
_cell_length_a   5.84526205
_cell_length_b   5.74821884
_cell_length_c   6.47644677
_cell_angle_alpha   120.00187961
_cell_angle_beta   83.31301828
_cell_angle_gamma   63.69152222
_symmetry_Int_Tables_number   1
_chemical_formula_structural   MgAl4(CuO4)2
_chemical_formula_sum   'Mg1 Al4 Cu2 O8'
_cell_volume   152.07186131
_cell_formula_units_Z   1
loop_
 _symmetry_equiv_pos_site_id
 _symmetry_equiv_pos_as_xyz
  1  'x, y, z'
loop_
 _atom_site_type_symbol
 _atom_site_label
 _atom_site_symmetry_multiplicity
 _atom_site_fract_x
 _atom_site_fract_y
 _atom_site_fract_z
 _atom_site_occupancy
  Mg  Mg0  1  0.17201397  0.65559521  0.82715110  1
  Al  Al1  1  0.84578002  0.30755145  0.15574265  1
  Al  Al2  1  0.34251374  0.31515771  0.15818157  1
  Al  Al3  1  0.18812043  0.07730562  0.48506506  1
  Al  Al4  1  0.73277086  0.07799088  0.59125066  1
  Cu  Cu5  1  0.74800132  0.66986092  -0.00107832  1
  Cu  Cu6  1  0.57787138  0.67773535  0.67345651  1
  O  O7  1  0.43943621  0.63979084  0.30996523  1
  O  O8  1  0.92045858  0.64052283  0.32981565  1
  O  O9  1  0.24341745  0.00558893  0.00483412  1
  O  O10  1  0.31507471  0.28871490  0.44838145  1
  O  O11  1  0.39707191  0.28858499  0.84173843  1
  O  O12  1  0.75053964  0.00513933  0.00402691  1
  O  O13  1  0.86964155  0.19925951  0.41344581  1
  O  O14  1  0.93347825  0.19286854  0.78183315  1
