# generated using pymatgen
data_Cs3BiO3
_symmetry_space_group_name_H-M   'P 1'
_cell_length_a   9.27482569
_cell_length_b   9.27482569
_cell_length_c   9.27482569
_cell_angle_alpha   90.00000000
_cell_angle_beta   90.00000000
_cell_angle_gamma   90.00000000
_symmetry_Int_Tables_number   1
_chemical_formula_structural   Cs3BiO3
_chemical_formula_sum   'Cs12 Bi4 O12'
_cell_volume   797.84268734
_cell_formula_units_Z   4
loop_
 _symmetry_equiv_pos_site_id
 _symmetry_equiv_pos_as_xyz
  1  'x, y, z'
loop_
 _atom_site_type_symbol
 _atom_site_label
 _atom_site_symmetry_multiplicity
 _atom_site_fract_x
 _atom_site_fract_y
 _atom_site_fract_z
 _atom_site_occupancy
  Cs  Cs0  1  0.02849744  0.02849744  0.02849744  1
  Cs  Cs1  1  0.47150256  0.97150256  0.52849744  1
  Cs  Cs2  1  0.52849744  0.47150256  0.97150256  1
  Cs  Cs3  1  0.97150256  0.52849744  0.47150256  1
  Cs  Cs4  1  0.96807366  0.46807366  0.03192634  1
  Cs  Cs5  1  0.53192634  0.53192634  0.53192634  1
  Cs  Cs6  1  0.23119563  0.26880437  0.73119563  1
  Cs  Cs7  1  0.26880437  0.73119563  0.23119563  1
  Cs  Cs8  1  0.73119563  0.23119563  0.26880437  1
  Cs  Cs9  1  0.76880437  0.76880437  0.76880437  1
  Cs  Cs10  1  0.46807366  0.03192634  0.96807366  1
  Cs  Cs11  1  0.03192634  0.96807366  0.46807366  1
  Bi  Bi12  1  0.74248861  0.75751139  0.24248861  1
  Bi  Bi13  1  0.75751139  0.24248861  0.74248861  1
  Bi  Bi14  1  0.24248861  0.74248861  0.75751139  1
  Bi  Bi15  1  0.25751139  0.25751139  0.25751139  1
  O  O16  1  0.53700227  0.24574660  0.70495535  1
  O  O17  1  0.03700227  0.25425340  0.29504465  1
  O  O18  1  0.46299773  0.74574660  0.79504465  1
  O  O19  1  0.25425340  0.29504465  0.03700227  1
  O  O20  1  0.24574660  0.70495535  0.53700227  1
  O  O21  1  0.70495535  0.53700227  0.24574660  1
  O  O22  1  0.74574660  0.79504465  0.46299773  1
  O  O23  1  0.75425340  0.20495535  0.96299773  1
  O  O24  1  0.20495535  0.96299773  0.75425340  1
  O  O25  1  0.96299773  0.75425340  0.20495535  1
  O  O26  1  0.79504465  0.46299773  0.74574660  1
  O  O27  1  0.29504465  0.03700227  0.25425340  1
