# generated using pymatgen
data_Na6Y5Ta3(PO4)12
_symmetry_space_group_name_H-M   'P 1'
_cell_length_a   18.14198688
_cell_length_b   9.07370642
_cell_length_c   23.20697208
_cell_angle_alpha   90.06503506
_cell_angle_beta   89.89136392
_cell_angle_gamma   119.97595386
_symmetry_Int_Tables_number   1
_chemical_formula_structural   Na6Y5Ta3(PO4)12
_chemical_formula_sum   'Na18 Y15 Ta9 P36 O144'
_cell_volume   3309.20043958
_cell_formula_units_Z   3
loop_
 _symmetry_equiv_pos_site_id
 _symmetry_equiv_pos_as_xyz
  1  'x, y, z'
loop_
 _atom_site_type_symbol
 _atom_site_label
 _atom_site_symmetry_multiplicity
 _atom_site_fract_x
 _atom_site_fract_y
 _atom_site_fract_z
 _atom_site_occupancy
  Na  Na0  1  0.68048622  0.37035607  0.25008991  1
  Na  Na1  1  0.00330475  0.63637242  0.25086336  1
  Na  Na2  1  0.00182696  0.37152819  0.74690422  1
  Na  Na3  1  0.50198565  0.37154516  0.74725432  1
  Na  Na4  1  0.18163427  0.99258411  0.74650339  1
  Na  Na5  1  0.68174791  0.99291019  0.74688327  1
  Na  Na6  1  0.00037039  0.99984100  0.50385494  1
  Na  Na7  1  0.50006109  0.00024210  0.50411425  1
  Na  Na8  1  0.99813113  0.99535009  0.00489372  1
  Na  Na9  1  0.50254521  0.00572264  0.00391001  1
  Na  Na10  1  0.33331176  0.34654379  0.83499415  1
  Na  Na11  1  0.83280886  0.34614091  0.83613953  1
  Na  Na12  1  0.33302332  0.33340270  0.33838703  1
  Na  Na13  1  0.83300812  0.31809068  0.33614614  1
  Na  Na14  1  0.17323355  0.66286970  0.16850701  1
  Na  Na15  1  0.66904162  0.68915624  0.16771866  1
  Na  Na16  1  0.17595496  0.66647739  0.66083722  1
  Na  Na17  1  0.67584407  0.66621203  0.66118255  1
  Y  Y18  1  0.99778713  0.99607247  0.64369270  1
  Y  Y19  1  0.49803169  0.99582797  0.64379939  1
  Y  Y20  1  0.99785235  0.00130625  0.14543375  1
  Y  Y21  1  0.50039403  0.99919012  0.14479503  1
  Y  Y22  1  0.33291419  0.34235103  0.67996079  1
  Y  Y23  1  0.83278445  0.34250425  0.67999810  1
  Y  Y24  1  0.83271828  0.32240414  0.18237856  1
  Y  Y25  1  0.33303953  0.33117666  0.97923339  1
  Y  Y26  1  0.83366803  0.33225192  0.98138049  1
  Y  Y27  1  0.33313223  0.33237762  0.48131090  1
  Y  Y28  1  0.83350181  0.33417147  0.47978767  1
  Y  Y29  1  0.17216494  0.66800577  0.31442108  1
  Y  Y30  1  0.66560836  0.67374682  0.31543444  1
  Y  Y31  1  0.17098880  0.66617892  0.81752292  1
  Y  Y32  1  0.67071790  0.66663413  0.81781324  1
  Ta  Ta33  1  0.00200551  0.00583041  0.35490094  1
  Ta  Ta34  1  0.49671643  0.99488215  0.35446275  1
  Ta  Ta35  1  0.99849570  0.99709946  0.85726157  1
  Ta  Ta36  1  0.49892376  0.99738627  0.85670164  1
  Ta  Ta37  1  0.33358445  0.33449682  0.18567437  1
  Ta  Ta38  1  0.16815293  0.66917460  0.01922819  1
  Ta  Ta39  1  0.66462860  0.66244959  0.01784123  1
  Ta  Ta40  1  0.16574150  0.66692655  0.51576562  1
  Ta  Ta41  1  0.66608301  0.66748412  0.51552773  1
  P  P42  1  0.14757958  0.01146674  0.24996736  1
  P  P43  1  0.64513293  0.00742818  0.25216363  1
  P  P44  1  0.35825287  0.70243715  0.24929926  1
  P  P45  1  0.85701810  0.70852538  0.25280169  1
  P  P46  1  0.99742532  0.28892802  0.25273410  1
  P  P47  1  0.49315488  0.28153103  0.25054332  1
  P  P48  1  0.14323679  0.28137761  0.75330235  1
  P  P49  1  0.64350525  0.28224393  0.75308287  1
  P  P50  1  0.99724024  0.70887941  0.75416595  1
  P  P51  1  0.49728694  0.70853650  0.75397545  1
  P  P52  1  0.35701684  0.00600065  0.75313230  1
  P  P53  1  0.85700674  0.00592541  0.75326279  1
  P  P54  1  0.48809134  0.34464278  0.58232533  1
  P  P55  1  0.98742383  0.34474131  0.58214625  1
  P  P56  1  0.18421080  0.02435505  0.58269536  1
  P  P57  1  0.68490041  0.02554770  0.58218066  1
  P  P58  1  0.32762036  0.63243137  0.57904711  1
  P  P59  1  0.82770910  0.63175952  0.57872176  1
  P  P60  1  0.48152915  0.61628430  0.08248112  1
  P  P61  1  0.98707638  0.63145231  0.08254375  1
  P  P62  1  0.32673435  0.03663098  0.08305542  1
  P  P63  1  0.82805146  0.02307027  0.07905760  1
  P  P64  1  0.19194713  0.34865800  0.08322470  1
  P  P65  1  0.68375869  0.34052302  0.08203668  1
  P  P66  1  0.31793906  0.67851612  0.91842442  1
  P  P67  1  0.81671086  0.67588684  0.91795612  1
  P  P68  1  0.02363809  0.36900337  0.91637115  1
  P  P69  1  0.52136782  0.36639623  0.91435411  1
  P  P70  1  0.16108484  0.95425006  0.91557773  1
  P  P71  1  0.66110059  0.95539685  0.91574383  1
  P  P72  1  0.31589172  0.95631583  0.41582988  1
  P  P73  1  0.81738661  0.95624654  0.41559518  1
  P  P74  1  0.16203432  0.36742815  0.41624855  1
  P  P75  1  0.66044653  0.36651354  0.41279474  1
  P  P76  1  0.02290127  0.67711818  0.41266299  1
  P  P77  1  0.52087430  0.67690106  0.41585967  1
  O  O78  1  0.10232234  0.03402572  0.30521360  1
  O  O79  1  0.59064080  0.01741769  0.30539978  1
  O  O80  1  0.41309537  0.79413968  0.30497671  1
  O  O81  1  0.91655333  0.81657207  0.30571983  1
  O  O82  1  0.47996980  0.16271282  0.30461395  1
  O  O83  1  0.99480937  0.17737121  0.30700625  1
  O  O84  1  0.09210596  0.16755745  0.80789084  1
  O  O85  1  0.59224180  0.16788186  0.80749154  1
  O  O86  1  0.49157101  0.80956350  0.80855842  1
  O  O87  1  0.99154280  0.81022358  0.80879855  1
  O  O88  1  0.41250482  0.01206086  0.80762674  1
  O  O89  1  0.91262860  0.01238453  0.80791403  1
  O  O90  1  0.39867031  0.98868751  0.69948825  1
  O  O91  1  0.89873923  0.98852629  0.69973242  1
  O  O92  1  0.09119100  0.19847296  0.70001716  1
  O  O93  1  0.59133418  0.19901359  0.69982419  1
  O  O94  1  0.01009626  0.81594906  0.70126030  1
  O  O95  1  0.51002897  0.81541457  0.70103646  1
  O  O96  1  0.39870288  0.80653248  0.19667233  1
  O  O97  1  0.89723693  0.80695026  0.19839518  1
  O  O98  1  0.00515523  0.20514471  0.19884197  1
  O  O99  1  0.50936877  0.20552646  0.19762302  1
  O  O100  1  0.09226953  0.98054397  0.19795017  1
  O  O101  1  0.59749078  0.99502802  0.19747758  1
  O  O102  1  0.45571579  0.37655114  0.64095084  1
  O  O103  1  0.95516486  0.37579206  0.64102758  1
  O  O104  1  0.23196738  0.08938694  0.64139075  1
  O  O105  1  0.73219539  0.08982515  0.64112180  1
  O  O106  1  0.31162116  0.53103682  0.63599599  1
  O  O107  1  0.81149866  0.53088494  0.63582134  1
  O  O108  1  0.43301857  0.49760545  0.13717630  1
  O  O109  1  0.95466186  0.53412696  0.14040107  1
  O  O110  1  0.31567652  0.13417099  0.13729177  1
  O  O111  1  0.81188929  0.09297170  0.13546719  1
  O  O112  1  0.25199363  0.37068116  0.13754963  1
  O  O113  1  0.73123084  0.37170397  0.14029339  1
  O  O114  1  0.23030337  0.32140437  0.02993966  1
  O  O115  1  0.73072634  0.31944616  0.03199135  1
  O  O116  1  0.42974971  0.53723269  0.02948684  1
  O  O117  1  0.93022200  0.54003598  0.03210200  1
  O  O118  1  0.33983708  0.13903113  0.02960475  1
  O  O119  1  0.84005274  0.13249484  0.02723776  1
  O  O120  1  0.23097351  0.14175964  0.53321982  1
  O  O121  1  0.73165455  0.14271775  0.53288483  1
  O  O122  1  0.33998112  0.54524718  0.52788656  1
  O  O123  1  0.84026262  0.54513921  0.52770555  1
  O  O124  1  0.42974432  0.32139455  0.53281823  1
  O  O125  1  0.92912866  0.32157959  0.53276932  1
  O  O126  1  0.26857895  0.69974559  0.97117553  1
  O  O127  1  0.76481098  0.69464743  0.96940659  1
  O  O128  1  0.08644470  0.47192860  0.96796133  1
  O  O129  1  0.58199326  0.46921381  0.96608195  1
  O  O130  1  0.15369631  0.83306830  0.96740849  1
  O  O131  1  0.64981662  0.83125481  0.96721954  1
  O  O132  1  0.26669274  0.83642332  0.46835037  1
  O  O133  1  0.76753112  0.83628794  0.46826611  1
  O  O134  1  0.15136656  0.46620254  0.46895175  1
  O  O135  1  0.64991109  0.46953333  0.46447337  1
  O  O136  1  0.08394313  0.69748871  0.46484578  1
  O  O137  1  0.58139683  0.70062862  0.46848154  1
  O  O138  1  0.05932009  0.65478805  0.35640241  1
  O  O139  1  0.55889006  0.65291755  0.36165401  1
  O  O140  1  0.26626924  0.88289996  0.36115391  1
  O  O141  1  0.76758608  0.87882641  0.36125568  1
  O  O142  1  0.17279034  0.46667321  0.36187341  1
  O  O143  1  0.67231707  0.46055858  0.35639451  1
  O  O144  1  0.05927750  0.46248923  0.85970399  1
  O  O145  1  0.55744500  0.45944310  0.85771018  1
  O  O146  1  0.17115673  0.88191524  0.85887828  1
  O  O147  1  0.67148741  0.88324852  0.85894116  1
  O  O148  1  0.26842827  0.65519740  0.86360107  1
  O  O149  1  0.76880873  0.65288434  0.86227015  1
  O  O150  1  0.01994734  0.84848158  0.40798780  1
  O  O151  1  0.51649483  0.84688724  0.40959455  1
  O  O152  1  0.40381987  0.95973639  0.40944791  1
  O  O153  1  0.90684738  0.96516169  0.40976729  1
  O  O154  1  0.07693560  0.18923673  0.41115306  1
  O  O155  1  0.57431839  0.18828241  0.40720409  1
  O  O156  1  0.01886677  0.18994725  0.91176380  1
  O  O157  1  0.51802856  0.18912739  0.91081781  1
  O  O158  1  0.07549940  0.96064991  0.91233948  1
  O  O159  1  0.57603652  0.96396596  0.91150302  1
  O  O160  1  0.40600903  0.84902392  0.91293891  1
  O  O161  1  0.90494850  0.84794965  0.91305647  1
  O  O162  1  0.50499942  0.19586857  0.58512071  1
  O  O163  1  0.00479235  0.19631214  0.58503353  1
  O  O164  1  0.09290201  0.99066422  0.58518028  1
  O  O165  1  0.59330340  0.99105369  0.58487028  1
  O  O166  1  0.40206969  0.81479106  0.58322225  1
  O  O167  1  0.90172639  0.81459721  0.58320450  1
  O  O168  1  0.49751120  0.79592555  0.09050486  1
  O  O169  1  0.00663986  0.81577568  0.08490112  1
  O  O170  1  0.39941958  0.00182491  0.09177375  1
  O  O171  1  0.90192030  0.98731877  0.08251831  1
  O  O172  1  0.10196444  0.20410153  0.09257894  1
  O  O173  1  0.59206583  0.19141568  0.08296027  1
  O  O174  1  0.35484862  0.17545388  0.75392092  1
  O  O175  1  0.85498795  0.17544912  0.75407005  1
  O  O176  1  0.22963581  0.28619086  0.75321797  1
  O  O177  1  0.72972427  0.28638250  0.75304975  1
  O  O178  1  0.41746873  0.52965105  0.75302547  1
  O  O179  1  0.91743150  0.53006156  0.75321832  1
  O  O180  1  0.35349805  0.52257490  0.24169520  1
  O  O181  1  0.85578744  0.53567572  0.25353171  1
  O  O182  1  0.41044415  0.29598893  0.24160809  1
  O  O183  1  0.91512102  0.30112222  0.25432668  1
  O  O184  1  0.23743146  0.17792928  0.24100846  1
  O  O185  1  0.73038951  0.17892630  0.25442086  1
  O  O186  1  0.33423773  0.53168817  0.92421274  1
  O  O187  1  0.83381998  0.53040390  0.92464910  1
  O  O188  1  0.43188883  0.33474903  0.92170010  1
  O  O189  1  0.93486164  0.33991802  0.92445027  1
  O  O190  1  0.23448668  0.13345297  0.92274852  1
  O  O191  1  0.73485038  0.13404896  0.92336122  1
  O  O192  1  0.33436482  0.13719768  0.42356163  1
  O  O193  1  0.83353257  0.13565311  0.42294225  1
  O  O194  1  0.23526006  0.33356446  0.42304336  1
  O  O195  1  0.73304616  0.33248629  0.42233014  1
  O  O196  1  0.43102713  0.52972965  0.42336554  1
  O  O197  1  0.93380377  0.53021444  0.42169723  1
  O  O198  1  0.18826019  0.51950500  0.07584066  1
  O  O199  1  0.67778743  0.50750636  0.06908204  1
  O  O200  1  0.07617403  0.63835724  0.06931539  1
  O  O201  1  0.57088885  0.62685462  0.07537345  1
  O  O202  1  0.24187492  0.85847308  0.07546263  1
  O  O203  1  0.74255949  0.84461940  0.06889693  1
  O  O204  1  0.17856882  0.84669016  0.57018222  1
  O  O205  1  0.67945438  0.84736062  0.56989506  1
  O  O206  1  0.24390172  0.64360387  0.56927242  1
  O  O207  1  0.74360821  0.64182977  0.56856751  1
  O  O208  1  0.07629350  0.51232611  0.56994334  1
  O  O209  1  0.57706932  0.51125515  0.56971527  1
  O  O210  1  0.15963811  0.85657653  0.25666542  1
  O  O211  1  0.65785525  0.85393267  0.25558127  1
  O  O212  1  0.26705128  0.66727220  0.25478400  1
  O  O213  1  0.76481346  0.67235892  0.25679632  1
  O  O214  1  0.07363116  0.47243341  0.25545277  1
  O  O215  1  0.57092125  0.45848374  0.25871275  1
  O  O216  1  0.15153213  0.45837566  0.75720596  1
  O  O217  1  0.65188118  0.45928828  0.75701370  1
  O  O218  1  0.07705848  0.68830471  0.75848328  1
  O  O219  1  0.57719154  0.68825164  0.75817680  1
  O  O220  1  0.26459571  0.85683140  0.75594823  1
  O  O221  1  0.76458488  0.85668715  0.75603391  1
