# generated using pymatgen
data_Na14Hf8Si11SO48
_symmetry_space_group_name_H-M   'P 1'
_cell_length_a   18.35669480
_cell_length_b   9.18422227
_cell_length_c   22.89139705
_cell_angle_alpha   90.01572815
_cell_angle_beta   90.01073248
_cell_angle_gamma   119.99876973
_symmetry_Int_Tables_number   1
_chemical_formula_structural   Na14Hf8Si11SO48
_chemical_formula_sum   'Na42 Hf24 Si33 S3 O144'
_cell_volume   3342.29777692
_cell_formula_units_Z   3
loop_
 _symmetry_equiv_pos_site_id
 _symmetry_equiv_pos_as_xyz
  1  'x, y, z'
loop_
 _atom_site_type_symbol
 _atom_site_label
 _atom_site_symmetry_multiplicity
 _atom_site_fract_x
 _atom_site_fract_y
 _atom_site_fract_z
 _atom_site_occupancy
  Na  Na0  1  0.32068915  -0.00001071  0.24998336  1
  Na  Na1  1  0.82061664  0.00001170  0.25001942  1
  Na  Na2  1  0.32040189  0.64186579  0.75056706  1
  Na  Na3  1  0.81725829  0.63313295  0.74949721  1
  Na  Na4  1  0.50051126  0.36419986  0.75084661  1
  Na  Na5  1  0.68408876  0.00210250  0.74947441  1
  Na  Na6  1  0.15094935  0.33494996  0.58106127  1
  Na  Na7  1  0.65075155  0.33290419  0.58391481  1
  Na  Na8  1  0.01621216  0.69508943  0.58360297  1
  Na  Na9  1  0.51690694  0.70116049  0.58301233  1
  Na  Na10  1  0.33309174  0.96594223  0.58359460  1
  Na  Na11  1  0.83221786  0.96943892  0.58344709  1
  Na  Na12  1  0.15129085  0.96815924  0.08165992  1
  Na  Na13  1  0.65122122  0.96869467  0.08158476  1
  Na  Na14  1  0.33212614  0.69624784  0.08352162  1
  Na  Na15  1  0.83206869  0.69583301  0.08377419  1
  Na  Na16  1  0.01688633  0.33665152  0.08346676  1
  Na  Na17  1  0.51675255  0.33610347  0.08355791  1
  Na  Na18  1  0.48333298  0.66686662  0.91651013  1
  Na  Na19  1  0.98420648  0.66329102  0.91655013  1
  Na  Na20  1  0.34964015  0.03220510  0.91650196  1
  Na  Na21  1  0.84862785  0.03427666  0.91654085  1
  Na  Na22  1  0.16735563  0.30407934  0.91891510  1
  Na  Na23  1  0.66644420  0.29922744  0.91641324  1
  Na  Na24  1  0.48412182  0.30395421  0.41626615  1
  Na  Na25  1  0.98397796  0.30407732  0.41647158  1
  Na  Na26  1  0.16700068  0.03130409  0.41834101  1
  Na  Na27  1  0.66698583  0.03171719  0.41854441  1
  Na  Na28  1  0.34868491  0.66392543  0.41638406  1
  Na  Na29  1  0.84859266  0.66328061  0.41640927  1
  Na  Na30  1  0.00073515  0.00072178  0.49979130  1
  Na  Na31  1  0.50060642  0.99950197  0.50089139  1
  Na  Na32  1  0.00111577  0.00170557  0.00030119  1
  Na  Na33  1  0.50038714  0.00000713  0.99902249  1
  Na  Na34  1  0.33366970  0.32779463  0.83421664  1
  Na  Na35  1  0.83722956  0.33418616  0.83131969  1
  Na  Na36  1  0.33770945  0.34674676  0.33194053  1
  Na  Na37  1  0.83764112  0.34672184  0.33210378  1
  Na  Na38  1  0.16431556  0.65333943  0.16789396  1
  Na  Na39  1  0.66431477  0.65323228  0.16804935  1
  Na  Na40  1  0.16388225  0.67471053  0.66775147  1
  Na  Na41  1  0.66711848  0.66728895  0.66679725  1
  Hf  Hf42  1  0.99434726  0.99666748  0.35246630  1
  Hf  Hf43  1  0.49439522  0.99677387  0.35254880  1
  Hf  Hf44  1  0.99495460  0.99186451  0.85293924  1
  Hf  Hf45  1  0.49935155  0.00007893  0.85124984  1
  Hf  Hf46  1  0.99611711  0.98866447  0.64697566  1
  Hf  Hf47  1  0.49974971  -0.00017874  0.64881955  1
  Hf  Hf48  1  0.99602587  0.00328292  0.14754341  1
  Hf  Hf49  1  0.49600994  0.00337271  0.14745730  1
  Hf  Hf50  1  0.33522984  0.32861445  0.68360899  1
  Hf  Hf51  1  0.83690393  0.33514624  0.68681428  1
  Hf  Hf52  1  0.33883007  0.34756307  0.18532925  1
  Hf  Hf53  1  0.83882596  0.34765603  0.18531483  1
  Hf  Hf54  1  0.33354200  0.33489572  0.98191367  1
  Hf  Hf55  1  0.83331761  0.33337171  0.98178993  1
  Hf  Hf56  1  0.33355055  0.33367510  0.48146019  1
  Hf  Hf57  1  0.83401019  0.33282941  0.48180021  1
  Hf  Hf58  1  0.16687053  0.66588843  0.01824401  1
  Hf  Hf59  1  0.66682576  0.66645970  0.01849969  1
  Hf  Hf60  1  0.16646096  0.66639910  0.51821583  1
  Hf  Hf61  1  0.66646251  0.66704818  0.51811636  1
  Hf  Hf62  1  0.16498494  0.65248869  0.31467509  1
  Hf  Hf63  1  0.66498720  0.65229043  0.31471524  1
  Hf  Hf64  1  0.16479149  0.67692436  0.81535986  1
  Hf  Hf65  1  0.66693267  0.66731024  0.81443481  1
  Si  Si66  1  0.35195486  0.70337014  0.25014071  1
  Si  Si67  1  0.85189409  0.70329400  0.25013381  1
  Si  Si68  1  0.00026502  0.29662413  0.24985551  1
  Si  Si69  1  0.50027730  0.29658720  0.24985741  1
  Si  Si70  1  0.64689184  0.29325155  0.74999447  1
  Si  Si71  1  0.00184311  0.70626810  0.74974747  1
  Si  Si72  1  0.49875857  0.70506369  0.75003242  1
  Si  Si73  1  0.35140574  0.99810097  0.74994654  1
  Si  Si74  1  0.85385148  0.00275198  0.75020046  1
  Si  Si75  1  0.48051053  0.33318623  0.58269767  1
  Si  Si76  1  0.98035606  0.33384424  0.58322427  1
  Si  Si77  1  0.18706914  0.04111211  0.58282536  1
  Si  Si78  1  0.68729680  0.04162772  0.58384385  1
  Si  Si79  1  0.33292107  0.62504166  0.58424376  1
  Si  Si80  1  0.83215662  0.62287731  0.58364686  1
  Si  Si81  1  0.48086903  0.62831276  0.08266222  1
  Si  Si82  1  0.98086071  0.62817808  0.08250574  1
  Si  Si83  1  0.33193972  0.04219684  0.08446452  1
  Si  Si84  1  0.83199765  0.04210286  0.08458612  1
  Si  Si85  1  0.18751616  0.33238146  0.08364120  1
  Si  Si86  1  0.68756710  0.33232330  0.08358989  1
  Si  Si87  1  0.31210706  0.66573380  0.91525216  1
  Si  Si88  1  0.81223302  0.66462261  0.91677541  1
  Si  Si89  1  0.02101297  0.37467367  0.91652890  1
  Si  Si90  1  0.52022994  0.37385686  0.91651616  1
  Si  Si91  1  0.16705484  0.96161431  0.91776866  1
  Si  Si92  1  0.66651893  0.95970835  0.91666770  1
  Si  Si93  1  0.31094557  0.95788457  0.41548701  1
  Si  Si94  1  0.81095314  0.95797022  0.41541343  1
  Si  Si95  1  0.16671379  0.37196351  0.41739785  1
  Si  Si96  1  0.66680293  0.37198899  0.41761257  1
  Si  Si97  1  0.02131827  0.66764106  0.41637428  1
  Si  Si98  1  0.52129215  0.66765535  0.41628887  1
  S  S99  1  0.14593931  0.00002056  0.25002005  1
  S  S100  1  0.64589606  -0.00002611  0.25000092  1
  S  S101  1  0.14614337  0.29240101  0.74996410  1
  O  O102  1  0.10508918  0.02281518  0.30293341  1
  O  O103  1  0.60510655  0.02281661  0.30291975  1
  O  O104  1  0.41101679  0.79569480  0.30790625  1
  O  O105  1  0.91101909  0.79571592  0.30788364  1
  O  O106  1  0.48610684  0.17460580  0.30696498  1
  O  O107  1  0.98613518  0.17457316  0.30696088  1
  O  O108  1  0.10557606  0.18754921  0.80295854  1
  O  O109  1  0.60253273  0.17304097  0.80727067  1
  O  O110  1  0.48269095  0.79281598  0.80729329  1
  O  O111  1  0.98709128  0.79910619  0.80699241  1
  O  O112  1  0.41246548  0.03301723  0.80731622  1
  O  O113  1  0.91197590  0.02703515  0.80797435  1
  O  O114  1  0.39673180  0.96901072  0.69242745  1
  O  O115  1  0.89887957  0.97083363  0.69314478  1
  O  O116  1  0.09392374  0.21018726  0.69693658  1
  O  O117  1  0.58622782  0.20626835  0.69275913  1
  O  O118  1  0.01433142  0.82441687  0.69207050  1
  O  O119  1  0.51554150  0.82502142  0.69266196  1
  O  O120  1  0.39879682  0.82533672  0.19302299  1
  O  O121  1  0.89877846  0.82532570  0.19301632  1
  O  O122  1  0.01313854  0.20414614  0.19211975  1
  O  O123  1  0.51314376  0.20422629  0.19211756  1
  O  O124  1  0.09366327  0.97719045  0.19707218  1
  O  O125  1  0.59369459  0.97718224  0.19707400  1
  O  O126  1  0.43686678  0.36690488  0.64013225  1
  O  O127  1  0.93485359  0.36885533  0.63796427  1
  O  O128  1  0.24938652  0.13278240  0.63822641  1
  O  O129  1  0.74733930  0.12832062  0.64070628  1
  O  O130  1  0.31607518  0.50463641  0.64159805  1
  O  O131  1  0.81611712  0.50567220  0.64079769  1
  O  O132  1  0.43599920  0.50199107  0.13784799  1
  O  O133  1  0.93589501  0.50213256  0.13776305  1
  O  O134  1  0.31539488  0.12723364  0.14168269  1
  O  O135  1  0.81542844  0.12724758  0.14173337  1
  O  O136  1  0.25034377  0.36557662  0.13835488  1
  O  O137  1  0.75037511  0.36571358  0.13838655  1
  O  O138  1  0.22857799  0.29825101  0.02485564  1
  O  O139  1  0.72897873  0.29863154  0.02492207  1
  O  O140  1  0.42074130  0.54502842  0.02505982  1
  O  O141  1  0.92065574  0.54491970  0.02492915  1
  O  O142  1  0.35028035  0.16163851  0.02659629  1
  O  O143  1  0.85042739  0.16119427  0.02664192  1
  O  O144  1  0.22874570  0.15893071  0.52478386  1
  O  O145  1  0.73029817  0.16023012  0.52585612  1
  O  O146  1  0.34945052  0.53799708  0.52679071  1
  O  O147  1  0.85064195  0.54057279  0.52588528  1
  O  O148  1  0.41998484  0.29988743  0.52586742  1
  O  O149  1  0.92102039  0.29646252  0.52497095  1
  O  O150  1  0.26918368  0.69929373  0.97316621  1
  O  O151  1  0.77080028  0.70140450  0.97416003  1
  O  O152  1  0.07942439  0.45735684  0.97507782  1
  O  O153  1  0.58016423  0.46063929  0.97394178  1
  O  O154  1  0.14822121  0.84106802  0.97520996  1
  O  O155  1  0.65026897  0.84000875  0.97411470  1
  O  O156  1  0.26975985  0.83862070  0.47341246  1
  O  O157  1  0.76981845  0.83888701  0.47334565  1
  O  O158  1  0.14832552  0.45524348  0.47504521  1
  O  O159  1  0.64823551  0.45555153  0.47509735  1
  O  O160  1  0.07960185  0.70172858  0.47508718  1
  O  O161  1  0.57949298  0.70140947  0.47499230  1
  O  O162  1  0.06752777  0.63447242  0.36164806  1
  O  O163  1  0.56743638  0.63418149  0.36157848  1
  O  O164  1  0.25178380  0.87276404  0.35829621  1
  O  O165  1  0.75184103  0.87273677  0.35823993  1
  O  O166  1  0.18489414  0.49804306  0.36216126  1
  O  O167  1  0.68493166  0.49802614  0.36227874  1
  O  O168  1  0.06697185  0.49993867  0.86164737  1
  O  O169  1  0.56374194  0.49377451  0.85933025  1
  O  O170  1  0.18482600  0.87198579  0.86229282  1
  O  O171  1  0.68327433  0.87280697  0.85944718  1
  O  O172  1  0.25195269  0.63073412  0.85811682  1
  O  O173  1  0.75334947  0.63368521  0.85943550  1
  O  O174  1  0.01312159  0.83749559  0.40940493  1
  O  O175  1  0.51308880  0.83736159  0.40932771  1
  O  O176  1  0.40551053  0.97692643  0.41036277  1
  O  O177  1  0.90559736  0.97704959  0.41041133  1
  O  O178  1  0.08358514  0.18487222  0.40901942  1
  O  O179  1  0.58369008  0.18509656  0.40894577  1
  O  O180  1  0.01319936  0.18878293  0.90935744  1
  O  O181  1  0.51120045  0.18724913  0.91102513  1
  O  O182  1  0.08391360  0.98272170  0.90915475  1
  O  O183  1  0.58205898  0.97721046  0.91096797  1
  O  O184  1  0.40570028  0.83483559  0.91045939  1
  O  O185  1  0.90636730  0.83475445  0.91092826  1
  O  O186  1  0.48859025  0.16422015  0.58882609  1
  O  O187  1  0.99130658  0.16758101  0.59133828  1
  O  O188  1  0.09439377  0.02617852  0.59027558  1
  O  O189  1  0.59350744  0.02258392  0.58908714  1
  O  O190  1  0.41734986  0.81162220  0.58948568  1
  O  O191  1  0.91729405  0.81201345  0.58909700  1
  O  O192  1  0.49120280  0.81508398  0.09112973  1
  O  O193  1  0.99114004  0.81510693  0.09102351  1
  O  O194  1  0.41697363  0.02308408  0.08962880  1
  O  O195  1  0.91710056  0.02299722  0.08958612  1
  O  O196  1  0.09432744  0.16251724  0.09055296  1
  O  O197  1  0.59444658  0.16262884  0.09062367  1
  O  O198  1  0.34612867  0.17119872  0.74396496  1
  O  O199  1  0.83982102  0.16329863  0.74500738  1
  O  O200  1  0.23094996  0.31079102  0.74484755  1
  O  O201  1  0.73949504  0.31090579  0.74435918  1
  O  O202  1  0.41294878  0.51914911  0.74449826  1
  O  O203  1  0.91331859  0.52757663  0.74432574  1
  O  O204  1  0.34157286  0.51711035  0.24464838  1
  O  O205  1  0.84159716  0.51716316  0.24466813  1
  O  O206  1  0.41048845  0.29602532  0.24455840  1
  O  O207  1  0.91048754  0.29598969  0.24454588  1
  O  O208  1  0.23058385  0.15036201  0.24497525  1
  O  O209  1  0.73062387  0.15039449  0.24496553  1
  O  O210  1  0.32162758  0.49759572  0.92215393  1
  O  O211  1  0.82258625  0.49853063  0.92244530  1
  O  O212  1  0.42686688  0.35579452  0.92241085  1
  O  O213  1  0.92723493  0.35448218  0.92264392  1
  O  O214  1  0.25143681  0.14730909  0.92276067  1
  O  O215  1  0.75114892  0.14577886  0.92270563  1
  O  O216  1  0.32222181  0.14583825  0.42242724  1
  O  O217  1  0.82213175  0.14589842  0.42226106  1
  O  O218  1  0.25121351  0.35542048  0.42269916  1
  O  O219  1  0.75131216  0.35522641  0.42302890  1
  O  O220  1  0.42740532  0.50011293  0.42252789  1
  O  O221  1  0.92750259  0.50005695  0.42250404  1
  O  O222  1  0.17767437  0.50020864  0.07751244  1
  O  O223  1  0.67759894  0.49997363  0.07740886  1
  O  O224  1  0.07366789  0.64490513  0.07725540  1
  O  O225  1  0.57367238  0.64500621  0.07720476  1
  O  O226  1  0.24926876  0.85398540  0.07745207  1
  O  O227  1  0.74927938  0.85405083  0.07768518  1
  O  O228  1  0.17767078  0.85442957  0.57741546  1
  O  O229  1  0.67821315  0.85461998  0.57736575  1
  O  O230  1  0.24875417  0.64348275  0.57772485  1
  O  O231  1  0.74935619  0.64530345  0.57739517  1
  O  O232  1  0.07356166  0.50219704  0.57726107  1
  O  O233  1  0.57317438  0.50243801  0.57778959  1
  O  O234  1  0.15538292  0.84971030  0.25505177  1
  O  O235  1  0.65541630  0.84969321  0.25505713  1
  O  O236  1  0.26245416  0.70395073  0.25546071  1
  O  O237  1  0.76245034  0.70395530  0.25544388  1
  O  O238  1  0.08303462  0.48287429  0.25531325  1
  O  O239  1  0.58304389  0.48290078  0.25530061  1
  O  O240  1  0.15570585  0.46093680  0.75499476  1
  O  O241  1  0.65489483  0.47903909  0.75581075  1
  O  O242  1  0.08452617  0.68555015  0.75533808  1
  O  O243  1  0.58298959  0.68681802  0.75556824  1
  O  O244  1  0.26178595  0.82169415  0.75573511  1
  O  O245  1  0.76115997  0.82995808  0.75551497  1
