# generated using pymatgen
data_Gd6MgWO12
_symmetry_space_group_name_H-M   'P 1'
_cell_length_a   6.64278688
_cell_length_b   6.64278457
_cell_length_c   6.64278716
_cell_angle_alpha   99.48611886
_cell_angle_beta   99.48621985
_cell_angle_gamma   99.48604426
_symmetry_Int_Tables_number   1
_chemical_formula_structural   Gd6MgWO12
_chemical_formula_sum   'Gd6 Mg1 W1 O12'
_cell_volume   279.55468117
_cell_formula_units_Z   1
loop_
 _symmetry_equiv_pos_site_id
 _symmetry_equiv_pos_as_xyz
  1  'x, y, z'
loop_
 _atom_site_type_symbol
 _atom_site_label
 _atom_site_symmetry_multiplicity
 _atom_site_fract_x
 _atom_site_fract_y
 _atom_site_fract_z
 _atom_site_occupancy
  Gd  Gd0  1  0.39612400  0.86009000  0.67403800  1
  Gd  Gd1  1  0.30039000  0.65281700  0.13345300  1
  Gd  Gd2  1  0.13345400  0.30039000  0.65281700  1
  Gd  Gd3  1  0.86009000  0.67403700  0.39612400  1
  Gd  Gd4  1  0.67403700  0.39612400  0.86009100  1
  Gd  Gd5  1  0.65281700  0.13345400  0.30038900  1
  Mg  Mg6  1  0.27092200  0.27092200  0.27092200  1
  W  W7  1  0.98414700  0.98414700  0.98414700  1
  O  O8  1  0.05179700  0.92080900  0.68670600  1
  O  O9  1  0.30362500  0.98466200  0.08957000  1
  O  O10  1  0.19044200  0.55523300  0.41827100  1
  O  O11  1  0.57959000  0.82894600  0.40836700  1
  O  O12  1  0.08957000  0.30362300  0.98466200  1
  O  O13  1  0.40836700  0.57958900  0.82894600  1
  O  O14  1  0.55523300  0.41827100  0.19044200  1
  O  O15  1  0.92080900  0.68670700  0.05179700  1
  O  O16  1  0.41827000  0.19044200  0.55523300  1
  O  O17  1  0.82894600  0.40836700  0.57958900  1
  O  O18  1  0.68670500  0.05179700  0.92080900  1
  O  O19  1  0.98466200  0.08957000  0.30362400  1
