# generated using pymatgen
data_Bi2Se2O
_symmetry_space_group_name_H-M   'P 1'
_cell_length_a   4.07160300
_cell_length_b   4.07160300
_cell_length_c   14.99153900
_cell_angle_alpha   90.00000000
_cell_angle_beta   90.00000000
_cell_angle_gamma   90.00000000
_symmetry_Int_Tables_number   1
_chemical_formula_structural   Bi2Se2O
_chemical_formula_sum   'Bi4 Se4 O2'
_cell_volume   248.52899880
_cell_formula_units_Z   2
loop_
 _symmetry_equiv_pos_site_id
 _symmetry_equiv_pos_as_xyz
  1  'x, y, z'
loop_
 _atom_site_type_symbol
 _atom_site_label
 _atom_site_symmetry_multiplicity
 _atom_site_fract_x
 _atom_site_fract_y
 _atom_site_fract_z
 _atom_site_occupancy
  Bi  Bi0  1  0.25000000  0.25000000  0.13834300  1
  Bi  Bi1  1  0.75000000  0.75000000  0.86165700  1
  Bi  Bi2  1  0.75000000  0.75000000  0.41723200  1
  Bi  Bi3  1  0.25000000  0.25000000  0.58276800  1
  Se  Se4  1  0.75000000  0.75000000  0.09779000  1
  Se  Se5  1  0.25000000  0.25000000  0.90221000  1
  Se  Se6  1  0.25000000  0.25000000  0.31704500  1
  Se  Se7  1  0.75000000  0.75000000  0.68295500  1
  O  O8  1  0.75000000  0.25000000  0.50000000  1
  O  O9  1  0.25000000  0.75000000  0.50000000  1
