# generated using pymatgen
data_Ba2In2S5
_symmetry_space_group_name_H-M   'P 1'
_cell_length_a   11.92852595
_cell_length_b   12.84814138
_cell_length_c   13.32312910
_cell_angle_alpha   90.00000000
_cell_angle_beta   90.00000000
_cell_angle_gamma   90.00000000
_symmetry_Int_Tables_number   1
_chemical_formula_structural   Ba2In2S5
_chemical_formula_sum   'Ba16 In16 S40'
_cell_volume   2041.89461025
_cell_formula_units_Z   8
loop_
 _symmetry_equiv_pos_site_id
 _symmetry_equiv_pos_as_xyz
  1  'x, y, z'
loop_
 _atom_site_type_symbol
 _atom_site_label
 _atom_site_symmetry_multiplicity
 _atom_site_fract_x
 _atom_site_fract_y
 _atom_site_fract_z
 _atom_site_occupancy
  Ba  Ba0  1  0.75091796  0.25401409  0.69196564  1
  Ba  Ba1  1  0.25091796  0.74598591  0.80803436  1
  Ba  Ba2  1  0.74908204  0.75401409  0.30803436  1
  Ba  Ba3  1  0.24908204  0.24598591  0.19196564  1
  Ba  Ba4  1  0.24908204  0.74598591  0.30803436  1
  Ba  Ba5  1  0.74908204  0.25401409  0.19196564  1
  Ba  Ba6  1  0.25091796  0.24598591  0.69196564  1
  Ba  Ba7  1  0.75091796  0.75401409  0.80803436  1
  Ba  Ba8  1  0.50505726  0.47402570  0.80619564  1
  Ba  Ba9  1  0.00505726  0.52597430  0.69380436  1
  Ba  Ba10  1  0.99494274  0.97402570  0.19380436  1
  Ba  Ba11  1  0.49494274  0.02597430  0.30619564  1
  Ba  Ba12  1  0.49494274  0.52597430  0.19380436  1
  Ba  Ba13  1  0.99494274  0.47402570  0.30619564  1
  Ba  Ba14  1  0.00505726  0.02597430  0.80619564  1
  Ba  Ba15  1  0.50505726  0.97402570  0.69380436  1
  In  In16  1  0.55749656  0.29966232  0.45027885  1
  In  In17  1  0.05749656  0.70033768  0.04972115  1
  In  In18  1  0.94250344  0.79966232  0.54972115  1
  In  In19  1  0.44250344  0.20033768  0.95027885  1
  In  In20  1  0.44250344  0.70033768  0.54972115  1
  In  In21  1  0.94250344  0.29966232  0.95027885  1
  In  In22  1  0.05749656  0.20033768  0.45027885  1
  In  In23  1  0.55749656  0.79966232  0.04972115  1
  In  In24  1  0.77479291  0.53487712  0.02733298  1
  In  In25  1  0.27479291  0.46512288  0.47266702  1
  In  In26  1  0.72520709  0.03487712  0.97266702  1
  In  In27  1  0.22520709  0.96512288  0.52733298  1
  In  In28  1  0.22520709  0.46512288  0.97266702  1
  In  In29  1  0.72520709  0.53487712  0.52733298  1
  In  In30  1  0.27479291  0.96512288  0.02733298  1
  In  In31  1  0.77479291  0.03487712  0.47266702  1
  S  S32  1  0.75720425  0.35696176  0.45862999  1
  S  S33  1  0.25720425  0.64303824  0.04137001  1
  S  S34  1  0.74279575  0.85696176  0.54137001  1
  S  S35  1  0.24279575  0.14303824  0.95862999  1
  S  S36  1  0.24279575  0.64303824  0.54137001  1
  S  S37  1  0.74279575  0.35696176  0.95862999  1
  S  S38  1  0.25720425  0.14303824  0.45862999  1
  S  S39  1  0.75720425  0.85696176  0.04137001  1
  S  S40  1  0.24073241  0.48738572  0.79189492  1
  S  S41  1  0.74073241  0.51261428  0.70810508  1
  S  S42  1  0.25926759  0.98738572  0.20810508  1
  S  S43  1  0.75926759  0.01261428  0.29189492  1
  S  S44  1  0.75926759  0.51261428  0.20810508  1
  S  S45  1  0.25926759  0.48738572  0.29189492  1
  S  S46  1  0.74073241  0.01261428  0.79189492  1
  S  S47  1  0.24073241  0.98738572  0.70810508  1
  S  S48  1  0.43109902  0.38940495  0.56972770  1
  S  S49  1  0.00211405  0.22051535  0.27737498  1
  S  S50  1  0.93109902  0.61059505  0.93027230  1
  S  S51  1  0.56890098  0.11059505  0.06972770  1
  S  S52  1  0.56890098  0.61059505  0.43027230  1
  S  S53  1  0.06890098  0.38940495  0.06972770  1
  S  S54  1  0.93109902  0.11059505  0.56972770  1
  S  S55  1  0.43109902  0.88940495  0.93027230  1
  S  S56  1  0.90560591  0.12207181  0.02443003  1
  S  S57  1  0.40560591  0.87792819  0.47556997  1
  S  S58  1  0.59439409  0.62207181  0.97556997  1
  S  S59  1  0.09439409  0.37792819  0.52443003  1
  S  S60  1  0.09439409  0.87792819  0.97556997  1
  S  S61  1  0.59439409  0.12207181  0.52443003  1
  S  S62  1  0.40560591  0.37792819  0.02443003  1
  S  S63  1  0.90560591  0.62207181  0.47556997  1
  S  S64  1  0.00211405  0.72051535  0.22262502  1
  S  S65  1  0.50211405  0.27948465  0.27737498  1
  S  S66  1  0.49788595  0.22051535  0.77737498  1
  S  S67  1  0.99788595  0.77948465  0.72262502  1
  S  S68  1  0.99788595  0.27948465  0.77737498  1
  S  S69  1  0.49788595  0.72051535  0.72262502  1
  S  S70  1  0.50211405  0.77948465  0.22262502  1
  S  S71  1  0.06890098  0.88940495  0.43027230  1
