# generated using pymatgen
data_NaTa2Si2PO12
_symmetry_space_group_name_H-M   'P 1'
_cell_length_a   8.81739387
_cell_length_b   8.81739358
_cell_length_c   22.94989424
_cell_angle_alpha   89.72621924
_cell_angle_beta   90.27378075
_cell_angle_gamma   119.85910945
_symmetry_Int_Tables_number   1
_chemical_formula_structural   NaTa2Si2PO12
_chemical_formula_sum   'Na6 Ta12 Si12 P6 O72'
_cell_volume   1547.39072509
_cell_formula_units_Z   6
loop_
 _symmetry_equiv_pos_site_id
 _symmetry_equiv_pos_as_xyz
  1  'x, y, z'
loop_
 _atom_site_type_symbol
 _atom_site_label
 _atom_site_symmetry_multiplicity
 _atom_site_fract_x
 _atom_site_fract_y
 _atom_site_fract_z
 _atom_site_occupancy
  Na  Na0  1  0.99991204  0.00227560  0.49992634  1
  Na  Na1  1  0.99772440  0.00008796  0.99992634  1
  Na  Na2  1  0.66657904  0.33560860  0.83325934  1
  Na  Na3  1  0.66439140  0.33342096  0.33325934  1
  Na  Na4  1  0.33324504  0.66894260  0.16659334  1
  Na  Na5  1  0.33105740  0.66675496  0.66659334  1
  Ta  Ta6  1  0.00276146  0.00009380  0.35463958  1
  Ta  Ta7  1  -0.00009380  0.99723854  0.85463958  1
  Ta  Ta8  1  0.00839302  0.00503623  0.64523438  1
  Ta  Ta9  1  0.99496377  0.99160698  0.14523438  1
  Ta  Ta10  1  0.66942846  0.33342680  0.68797258  1
  Ta  Ta11  1  0.66657320  0.33057154  0.18797258  1
  Ta  Ta12  1  0.67506002  0.33836923  0.97856738  1
  Ta  Ta13  1  0.66163077  0.32493998  0.47856738  1
  Ta  Ta14  1  0.33609446  0.66676080  0.02130658  1
  Ta  Ta15  1  0.33323920  0.66390554  0.52130658  1
  Ta  Ta16  1  0.34172602  0.67170323  0.31190138  1
  Ta  Ta17  1  0.32829677  0.65827398  0.81190138  1
  Si  Si18  1  0.28757588  -0.00019885  0.25000108  1
  Si  Si19  1  0.71306897  0.71081338  0.25046014  1
  Si  Si20  1  0.28918662  0.28693103  0.75046014  1
  Si  Si21  1  0.00019885  0.71242412  0.75000108  1
  Si  Si22  1  0.95424288  0.33313415  0.58333408  1
  Si  Si23  1  0.37973597  0.04414638  0.58379314  1
  Si  Si24  1  0.95585362  0.62026403  0.08379314  1
  Si  Si25  1  0.66686585  0.04575712  0.08333408  1
  Si  Si26  1  0.62090888  0.66646815  0.91666808  1
  Si  Si27  1  0.04640197  0.37748038  0.91712714  1
  Si  Si28  1  0.62251962  0.95359803  0.41712714  1
  Si  Si29  1  0.33353185  0.37909112  0.41666808  1
  P  P30  1  0.00154978  0.28677286  0.24961492  1
  P  P31  1  0.71322714  0.99845022  0.74961492  1
  P  P32  1  0.66821678  0.62010586  0.58294792  1
  P  P33  1  0.37989414  0.33178322  0.08294792  1
  P  P34  1  0.33488278  0.95343986  0.91628192  1
  P  P35  1  0.04656014  0.66511722  0.41628192  1
  O  O36  1  0.19630681  0.03096671  0.30711484  1
  O  O37  1  0.83449233  0.80542811  0.30728545  1
  O  O38  1  0.96999632  0.17176428  0.30469438  1
  O  O39  1  0.19457190  0.16550767  0.80728545  1
  O  O40  1  0.96903329  0.80369319  0.80711484  1
  O  O41  1  0.82823572  0.03000368  0.80469438  1
  O  O42  1  0.79705889  0.97010786  0.69524564  1
  O  O43  1  0.16467717  0.19728866  0.69315317  1
  O  O44  1  0.02688909  0.83365505  0.69285310  1
  O  O45  1  0.80271134  0.83532283  0.19315317  1
  O  O46  1  0.02989214  0.20294111  0.19524564  1
  O  O47  1  0.16634495  0.97311091  0.19285310  1
  O  O48  1  0.86297381  0.36429971  0.64044784  1
  O  O49  1  0.50115933  0.13876111  0.64061845  1
  O  O50  1  0.63666332  0.50509728  0.63802738  1
  O  O51  1  0.86123890  0.49884067  0.14061845  1
  O  O52  1  0.63570029  0.13702619  0.14044784  1
  O  O53  1  0.49490272  0.36333668  0.13802738  1
  O  O54  1  0.46372589  0.30344086  0.02857864  1
  O  O55  1  0.83134417  0.53062166  0.02648617  1
  O  O56  1  0.69355609  0.16698805  0.02618610  1
  O  O57  1  0.46937834  0.16865583  0.52648617  1
  O  O58  1  0.69655914  0.53627411  0.52857864  1
  O  O59  1  0.83301195  0.30644391  0.52618610  1
  O  O60  1  0.52963981  0.69763371  0.97378184  1
  O  O61  1  0.16782533  0.47209511  0.97395245  1
  O  O62  1  0.30332932  0.83843128  0.97136138  1
  O  O63  1  0.52790490  0.83217467  0.47395245  1
  O  O64  1  0.30236629  0.47036019  0.47378184  1
  O  O65  1  0.16156872  0.69667068  0.47136138  1
  O  O66  1  0.13039189  0.63677486  0.36191264  1
  O  O67  1  0.49801017  0.86395566  0.35982017  1
  O  O68  1  0.36022209  0.50032205  0.35952010  1
  O  O69  1  0.13604434  0.50198983  0.85982017  1
  O  O70  1  0.36322514  0.86960811  0.86191264  1
  O  O71  1  0.49967795  0.63977791  0.85952010  1
  O  O72  1  0.02773970  0.83065627  0.40935552  1
  O  O73  1  0.81522989  0.97564510  0.40832529  1
  O  O74  1  0.16201680  0.18559735  0.40876398  1
  O  O75  1  0.02435490  0.18477011  0.90832529  1
  O  O76  1  0.16934373  0.97226030  0.90935552  1
  O  O77  1  0.81440265  0.83798320  0.90876398  1
  O  O78  1  0.96989756  0.15791983  0.59121946  1
  O  O79  1  0.18506257  0.02283386  0.59065712  1
  O  O80  1  0.82750955  0.80348175  0.59145563  1
  O  O81  1  0.97716614  0.81493743  0.09065712  1
  O  O82  1  0.84208017  0.03010244  0.09121946  1
  O  O83  1  0.19651825  0.17249045  0.09145563  1
  O  O84  1  0.69440670  0.16398927  0.74268852  1
  O  O85  1  0.48189689  0.30897810  0.74165829  1
  O  O86  1  0.82868380  0.51893035  0.74209698  1
  O  O87  1  0.69102190  0.51810311  0.24165829  1
  O  O88  1  0.83601073  0.30559330  0.24268852  1
  O  O89  1  0.48106965  0.17131620  0.24209698  1
  O  O90  1  0.63656456  0.49125283  0.92455246  1
  O  O91  1  0.85172957  0.35616686  0.92399012  1
  O  O92  1  0.49417655  0.13681475  0.92478863  1
  O  O93  1  0.64383314  0.14827043  0.42399012  1
  O  O94  1  0.50874717  0.36343544  0.42455246  1
  O  O95  1  0.86318525  0.50582345  0.42478863  1
  O  O96  1  0.36107270  0.49732327  0.07602252  1
  O  O97  1  0.14856289  0.64231210  0.07499229  1
  O  O98  1  0.49534980  0.85226435  0.07543098  1
  O  O99  1  0.35768790  0.85143711  0.57499229  1
  O  O100  1  0.50267673  0.63892730  0.57602252  1
  O  O101  1  0.14773565  0.50465020  0.57543098  1
  O  O102  1  0.30323056  0.82458683  0.25788646  1
  O  O103  1  0.51839557  0.68950086  0.25732412  1
  O  O104  1  0.16084255  0.47014875  0.25812263  1
  O  O105  1  0.31049914  0.48160443  0.75732412  1
  O  O106  1  0.17541317  0.69676944  0.75788646  1
  O  O107  1  0.52985125  0.83915745  0.75812263  1
