# generated using pymatgen
data_MgBi4(WO6)2
_symmetry_space_group_name_H-M   'P 1'
_cell_length_a   3.90967610
_cell_length_b   8.04014222
_cell_length_c   8.93120618
_cell_angle_alpha   102.10639619
_cell_angle_beta   102.41632430
_cell_angle_gamma   90.02251234
_symmetry_Int_Tables_number   1
_chemical_formula_structural   MgBi4(WO6)2
_chemical_formula_sum   'Mg1 Bi4 W2 O12'
_cell_volume   267.77815539
_cell_formula_units_Z   1
loop_
 _symmetry_equiv_pos_site_id
 _symmetry_equiv_pos_as_xyz
  1  'x, y, z'
loop_
 _atom_site_type_symbol
 _atom_site_label
 _atom_site_symmetry_multiplicity
 _atom_site_fract_x
 _atom_site_fract_y
 _atom_site_fract_z
 _atom_site_occupancy
  Mg  Mg0  1  0.50000000  0.00000000  0.00000000  1
  Bi  Bi1  1  0.68065700  0.59840100  0.35564100  1
  Bi  Bi2  1  0.31934300  0.40159900  0.64435900  1
  Bi  Bi3  1  0.32032200  0.92663500  0.64764500  1
  Bi  Bi4  1  0.67967800  0.07336500  0.35235500  1
  W  W5  1  0.01576200  0.71097900  0.03078500  1
  W  W6  1  0.98423800  0.28902100  0.96921500  1
  O  O7  1  0.75218000  0.87612200  0.50474200  1
  O  O8  1  0.74137400  0.36896000  0.48019800  1
  O  O9  1  0.92733300  0.50352400  0.85266200  1
  O  O10  1  0.25862600  0.63104000  0.51980200  1
  O  O11  1  0.05621000  0.13504900  0.11648400  1
  O  O12  1  0.87924200  0.16468000  0.75470500  1
  O  O13  1  0.07266700  0.49647600  0.14733800  1
  O  O14  1  0.12075800  0.83532000  0.24529500  1
  O  O15  1  0.24782000  0.12387800  0.49525800  1
  O  O16  1  0.94379000  0.86495100  0.88351600  1
  O  O17  1  0.51785300  0.75180600  0.03511000  1
  O  O18  1  0.48214700  0.24819400  0.96489000  1
