# generated using pymatgen
data_MgCr2(WO4)2
_symmetry_space_group_name_H-M   'P 1'
_cell_length_a   5.01533067
_cell_length_b   5.67772597
_cell_length_c   5.67772543
_cell_angle_alpha   65.78613454
_cell_angle_beta   89.01524812
_cell_angle_gamma   89.01525909
_symmetry_Int_Tables_number   1
_chemical_formula_structural   MgCr2(WO4)2
_chemical_formula_sum   'Mg1 Cr2 W2 O8'
_cell_volume   147.42196191
_cell_formula_units_Z   1
loop_
 _symmetry_equiv_pos_site_id
 _symmetry_equiv_pos_as_xyz
  1  'x, y, z'
loop_
 _atom_site_type_symbol
 _atom_site_label
 _atom_site_symmetry_multiplicity
 _atom_site_fract_x
 _atom_site_fract_y
 _atom_site_fract_z
 _atom_site_occupancy
  Mg  Mg0  1  0.50000000  0.49008800  0.50991200  1
  Cr  Cr1  1  0.49431900  0.21642000  0.23634600  1
  Cr  Cr2  1  0.50568100  0.76365400  0.78358000  1
  W  W3  1  0.00000000  0.74181700  0.25818300  1
  W  W4  1  0.00000000  0.23787100  0.76212900  1
  O  O5  1  0.17589800  0.60689800  0.62716900  1
  O  O6  1  0.82410200  0.37283100  0.39310200  1
  O  O7  1  0.83081500  0.87766900  0.89800500  1
  O  O8  1  0.16918500  0.10199500  0.12233100  1
  O  O9  1  0.66322600  0.38823700  0.87980400  1
  O  O10  1  0.33677400  0.12019600  0.61176300  1
  O  O11  1  0.33666400  0.59158800  0.14021600  1
  O  O12  1  0.66333600  0.85978400  0.40841200  1
