# generated using pymatgen
data_Na14Ti8Si11SO48
_symmetry_space_group_name_H-M   'P 1'
_cell_length_a   17.94512255
_cell_length_b   8.97696383
_cell_length_c   21.91251256
_cell_angle_alpha   90.04558692
_cell_angle_beta   90.03169578
_cell_angle_gamma   120.00603757
_symmetry_Int_Tables_number   1
_chemical_formula_structural   Na14Ti8Si11SO48
_chemical_formula_sum   'Na42 Ti24 Si33 S3 O144'
_cell_volume   3056.83424017
_cell_formula_units_Z   3
loop_
 _symmetry_equiv_pos_site_id
 _symmetry_equiv_pos_as_xyz
  1  'x, y, z'
loop_
 _atom_site_type_symbol
 _atom_site_label
 _atom_site_symmetry_multiplicity
 _atom_site_fract_x
 _atom_site_fract_y
 _atom_site_fract_z
 _atom_site_occupancy
  Na  Na0  1  0.31464737  0.99988505  0.24993072  1
  Na  Na1  1  0.81445763  0.00002025  0.25000307  1
  Na  Na2  1  0.31543440  0.63045378  0.75133119  1
  Na  Na3  1  0.81325909  0.62646763  0.74886436  1
  Na  Na4  1  0.50040131  0.36887584  0.75153201  1
  Na  Na5  1  0.68635796  0.00204048  0.74875205  1
  Na  Na6  1  0.14830016  0.33552392  0.58299269  1
  Na  Na7  1  0.64763142  0.33288907  0.58473654  1
  Na  Na8  1  0.01885204  0.69803617  0.58265539  1
  Na  Na9  1  0.51986438  0.70759725  0.58303346  1
  Na  Na10  1  0.33288466  0.95859083  0.58351213  1
  Na  Na11  1  0.83193364  0.96591056  0.58302302  1
  Na  Na12  1  0.14835793  0.96148280  0.08419015  1
  Na  Na13  1  0.64829305  0.96302087  0.08425145  1
  Na  Na14  1  0.33173192  0.70012379  0.08303985  1
  Na  Na15  1  0.83152508  0.69921867  0.08343254  1
  Na  Na16  1  0.01989221  0.33921712  0.08265128  1
  Na  Na17  1  0.51950770  0.33796081  0.08262463  1
  Na  Na18  1  0.47967132  0.66668136  0.91600972  1
  Na  Na19  1  0.98256816  0.66183519  0.91724258  1
  Na  Na20  1  0.35244948  0.03851451  0.91689032  1
  Na  Na21  1  0.85073177  0.04010674  0.91725340  1
  Na  Na22  1  0.16753191  0.30036188  0.91699695  1
  Na  Na23  1  0.66625029  0.29136710  0.91568953  1
  Na  Na24  1  0.48165076  0.30037070  0.41665337  1
  Na  Na25  1  0.98190577  0.30106104  0.41670222  1
  Na  Na26  1  0.16720917  0.03732659  0.41573910  1
  Na  Na27  1  0.66688140  0.03789418  0.41594174  1
  Na  Na28  1  0.35050737  0.66194861  0.41735503  1
  Na  Na29  1  0.85052054  0.66063382  0.41735710  1
  Na  Na30  1  0.00243656  0.00302617  0.49945668  1
  Na  Na31  1  0.50138371  0.99937746  0.50151744  1
  Na  Na32  1  0.00296367  0.00332021  0.00062784  1
  Na  Na33  1  0.50088076  0.99936743  0.99840011  1
  Na  Na34  1  0.32980539  0.32208689  0.83290942  1
  Na  Na35  1  0.84016014  0.33553112  0.83105885  1
  Na  Na36  1  0.33705763  0.34917730  0.33044478  1
  Na  Na37  1  0.83696681  0.34931980  0.33056628  1
  Na  Na38  1  0.16242129  0.65101976  0.16932174  1
  Na  Na39  1  0.66247262  0.65071654  0.16963515  1
  Na  Na40  1  0.16234228  0.67357595  0.66934693  1
  Na  Na41  1  0.66715688  0.66738680  0.66655543  1
  Ti  Ti42  1  0.99178212  0.99400604  0.35465612  1
  Ti  Ti43  1  0.49171021  0.99420363  0.35489672  1
  Ti  Ti44  1  0.99309206  0.98922813  0.85565113  1
  Ti  Ti45  1  0.49837169  0.00010502  0.85250334  1
  Ti  Ti46  1  0.99527801  0.98364393  0.64436967  1
  Ti  Ti47  1  0.49914936  0.99929705  0.64749737  1
  Ti  Ti48  1  0.99472909  0.00595119  0.14535060  1
  Ti  Ti49  1  0.49460184  0.00603897  0.14512515  1
  Ti  Ti50  1  0.33669924  0.32890257  0.68441253  1
  Ti  Ti51  1  0.83751299  0.33585231  0.68866945  1
  Ti  Ti52  1  0.34061048  0.35041899  0.18622664  1
  Ti  Ti53  1  0.84059088  0.35057574  0.18617067  1
  Ti  Ti54  1  0.33340157  0.33602874  0.98005372  1
  Ti  Ti55  1  0.83288655  0.33322733  0.97993995  1
  Ti  Ti56  1  0.33314032  0.33324032  0.47956668  1
  Ti  Ti57  1  0.83403737  0.33123167  0.47983414  1
  Ti  Ti58  1  0.16692467  0.66586297  0.02015000  1
  Ti  Ti59  1  0.66693618  0.66729669  0.02045421  1
  Ti  Ti60  1  0.16627992  0.66567918  0.52026357  1
  Ti  Ti61  1  0.66608675  0.66715075  0.51977446  1
  Ti  Ti62  1  0.16530373  0.64966165  0.31383026  1
  Ti  Ti63  1  0.66526031  0.64920362  0.31387427  1
  Ti  Ti64  1  0.16543317  0.68019852  0.81467103  1
  Ti  Ti65  1  0.66668825  0.66756377  0.81258366  1
  Si  Si66  1  0.35328744  0.70586192  0.24981135  1
  Si  Si67  1  0.85317064  0.70568543  0.24979559  1
  Si  Si68  1  0.00040535  0.29430461  0.25020392  1
  Si  Si69  1  0.50038570  0.29414081  0.25020008  1
  Si  Si70  1  0.64479698  0.28925377  0.75017168  1
  Si  Si71  1  0.00286505  0.71014963  0.74992833  1
  Si  Si72  1  0.49839745  0.70874811  0.75013769  1
  Si  Si73  1  0.35230155  0.99766452  0.74974001  1
  Si  Si74  1  0.85644630  0.00369403  0.75010250  1
  Si  Si75  1  0.47894926  0.33323877  0.58200458  1
  Si  Si76  1  0.97839073  0.33336570  0.58352439  1
  Si  Si77  1  0.18933289  0.04519195  0.58249346  1
  Si  Si78  1  0.68972523  0.04670332  0.58418654  1
  Si  Si79  1  0.33282643  0.62050865  0.58449740  1
  Si  Si80  1  0.83155390  0.61693830  0.58374102  1
  Si  Si81  1  0.47950053  0.62608800  0.08239312  1
  Si  Si82  1  0.97946168  0.62572656  0.08205109  1
  Si  Si83  1  0.33135068  0.04689934  0.08467455  1
  Si  Si84  1  0.83136677  0.04643673  0.08503577  1
  Si  Si85  1  0.18999331  0.33258917  0.08386805  1
  Si  Si86  1  0.68990461  0.33250471  0.08379255  1
  Si  Si87  1  0.30984423  0.66581615  0.91476423  1
  Si  Si88  1  0.80949388  0.66324097  0.91664253  1
  Si  Si89  1  0.02330922  0.37927350  0.91641060  1
  Si  Si90  1  0.52254920  0.37877075  0.91654667  1
  Si  Si91  1  0.16700372  0.95857840  0.91854087  1
  Si  Si92  1  0.66632509  0.95519930  0.91662145  1
  Si  Si93  1  0.30801081  0.95341481  0.41513850  1
  Si  Si94  1  0.80817695  0.95348907  0.41489678  1
  Si  Si95  1  0.16645317  0.37438978  0.41779215  1
  Si  Si96  1  0.66652960  0.37433079  0.41815519  1
  Si  Si97  1  0.02374701  0.66745604  0.41627739  1
  Si  Si98  1  0.52338469  0.66734455  0.41592107  1
  S  S99  1  0.14340199  0.00005846  0.24997118  1
  S  S100  1  0.64327985  -0.00000730  0.24999641  1
  S  S101  1  0.14359027  0.28727679  0.74983924  1
  O  O102  1  0.10012347  0.01291812  0.30587469  1
  O  O103  1  0.60022732  0.01290028  0.30582527  1
  O  O104  1  0.41189269  0.80215916  0.31125322  1
  O  O105  1  0.91185254  0.80213329  0.31123690  1
  O  O106  1  0.48843147  0.16743924  0.30912809  1
  O  O107  1  0.98852345  0.16736525  0.30911024  1
  O  O108  1  0.10168016  0.18779458  0.80576591  1
  O  O109  1  0.59685763  0.16636112  0.80967959  1
  O  O110  1  0.48358736  0.80244004  0.80969226  1
  O  O111  1  0.99016312  0.81124807  0.80923087  1
  O  O112  1  0.41479452  0.03093663  0.80987761  1
  O  O113  1  0.91372294  0.02215019  0.81141977  1
  O  O114  1  0.40094856  0.97223548  0.68975052  1
  O  O115  1  0.90539950  0.97563788  0.69104864  1
  O  O116  1  0.09431916  0.20009551  0.69390463  1
  O  O117  1  0.58281676  0.19647839  0.69035135  1
  O  O118  1  0.01278428  0.82672350  0.68851884  1
  O  O119  1  0.51352921  0.83133820  0.69026017  1
  O  O120  1  0.40464398  0.83267293  0.19087881  1
  O  O121  1  0.90459234  0.83258960  0.19089935  1
  O  O122  1  0.01067717  0.19744591  0.18887996  1
  O  O123  1  0.51072359  0.19773819  0.18880725  1
  O  O124  1  0.09370541  0.98742450  0.19416207  1
  O  O125  1  0.59382706  0.98744796  0.19414608  1
  O  O126  1  0.43430429  0.36658019  0.64263483  1
  O  O127  1  0.92981619  0.36789580  0.64035687  1
  O  O128  1  0.25507893  0.14389916  0.63960164  1
  O  O129  1  0.75069102  0.13636078  0.64376189  1
  O  O130  1  0.31796154  0.49916943  0.64442519  1
  O  O131  1  0.81587199  0.49921728  0.64385802  1
  O  O132  1  0.43380754  0.49514346  0.14029504  1
  O  O133  1  0.93335552  0.49531265  0.14010113  1
  O  O134  1  0.31589269  0.13366465  0.14470846  1
  O  O135  1  0.81597838  0.13379208  0.14487244  1
  O  O136  1  0.25640223  0.36696504  0.13995012  1
  O  O137  1  0.75636018  0.36699177  0.13989762  1
  O  O138  1  0.23268746  0.29923302  0.02229768  1
  O  O139  1  0.73326155  0.29955579  0.02232717  1
  O  O140  1  0.41757188  0.53885109  0.02241758  1
  O  O141  1  0.91751450  0.53785324  0.02200726  1
  O  O142  1  0.34957126  0.17066160  0.02465746  1
  O  O143  1  0.84941431  0.16932346  0.02469578  1
  O  O144  1  0.23219789  0.16508689  0.52173675  1
  O  O145  1  0.73598883  0.16834372  0.52391795  1
  O  O146  1  0.34791814  0.52786286  0.52450161  1
  O  O147  1  0.85018652  0.53093689  0.52381039  1
  O  O148  1  0.41723274  0.30330796  0.52283943  1
  O  O149  1  0.91809103  0.29710329  0.52237577  1
  O  O150  1  0.26350761  0.69623666  0.97502779  1
  O  O151  1  0.76690047  0.69906836  0.97675027  1
  O  O152  1  0.08280113  0.46486635  0.97787081  1
  O  O153  1  0.58402255  0.47063371  0.97641721  1
  O  O154  1  0.14801498  0.83422869  0.97811961  1
  O  O155  1  0.65206580  0.83333434  0.97646489  1
  O  O156  1  0.26454078  0.82997125  0.47535240  1
  O  O157  1  0.76483553  0.83098116  0.47522027  1
  O  O158  1  0.14824319  0.46194600  0.47771525  1
  O  O159  1  0.64843300  0.46272101  0.47787844  1
  O  O160  1  0.08329171  0.70064613  0.47786691  1
  O  O161  1  0.58309818  0.70044309  0.47750079  1
  O  O162  1  0.07285842  0.63301643  0.36019237  1
  O  O163  1  0.57253286  0.63233497  0.36000256  1
  O  O164  1  0.24905209  0.86624314  0.35514384  1
  O  O165  1  0.74917589  0.86645133  0.35499179  1
  O  O166  1  0.18574684  0.50469241  0.35975794  1
  O  O167  1  0.68587311  0.50481469  0.36000731  1
  O  O168  1  0.07172782  0.51151701  0.86020200  1
  O  O169  1  0.56870225  0.50097447  0.85670577  1
  O  O170  1  0.18562024  0.86631724  0.86036217  1
  O  O171  1  0.68211919  0.86393508  0.85661567  1
  O  O172  1  0.24948674  0.63214049  0.85498826  1
  O  O173  1  0.75004135  0.63607779  0.85652211  1
  O  O174  1  0.01467025  0.84016463  0.41067293  1
  O  O175  1  0.51467548  0.84028090  0.41050025  1
  O  O176  1  0.40505105  0.97257419  0.41202974  1
  O  O177  1  0.90531291  0.97294513  0.41201450  1
  O  O178  1  0.08141313  0.18378519  0.41095390  1
  O  O179  1  0.58149728  0.18406522  0.41091917  1
  O  O180  1  0.01498077  0.18893293  0.91068565  1
  O  O181  1  0.51321333  0.18810207  0.91299601  1
  O  O182  1  0.08211419  0.98007257  0.91114099  1
  O  O183  1  0.58001607  0.97252817  0.91298449  1
  O  O184  1  0.40521998  0.83954203  0.91219761  1
  O  O185  1  0.90628338  0.83733124  0.91271369  1
  O  O186  1  0.48668331  0.16021496  0.58612202  1
  O  O187  1  0.98927418  0.16340449  0.59021735  1
  O  O188  1  0.09431525  0.02863577  0.58863576  1
  O  O189  1  0.59406262  0.02742458  0.58738340  1
  O  O190  1  0.41919204  0.81125844  0.58763627  1
  O  O191  1  0.91908115  0.81114065  0.58724768  1
  O  O192  1  0.48956436  0.81620768  0.08934216  1
  O  O193  1  0.98940952  0.81593538  0.08909257  1
  O  O194  1  0.41871756  0.02721377  0.08787156  1
  O  O195  1  0.91887917  0.02721773  0.08788386  1
  O  O196  1  0.09446849  0.15994696  0.08950432  1
  O  O197  1  0.59457562  0.15988710  0.08937482  1
  O  O198  1  0.34698381  0.17459272  0.74492870  1
  O  O199  1  0.84453597  0.17089980  0.74668791  1
  O  O200  1  0.23156807  0.30598423  0.74810533  1
  O  O201  1  0.73930623  0.30689175  0.74727891  1
  O  O202  1  0.41158380  0.51835806  0.74684922  1
  O  O203  1  0.91257018  0.52698084  0.74641011  1
  O  O204  1  0.34464619  0.51708065  0.24515864  1
  O  O205  1  0.84464479  0.51708551  0.24524096  1
  O  O206  1  0.40977609  0.29658017  0.24710030  1
  O  O207  1  0.90979542  0.29660337  0.24707735  1
  O  O208  1  0.23048366  0.15504445  0.24889728  1
  O  O209  1  0.73062314  0.15518020  0.24889188  1
  O  O210  1  0.31976177  0.49412873  0.92038252  1
  O  O211  1  0.82005563  0.49352821  0.91993644  1
  O  O212  1  0.42737416  0.36096099  0.92052519  1
  O  O213  1  0.92719282  0.35751625  0.92082414  1
  O  O214  1  0.25356774  0.14770530  0.92157048  1
  O  O215  1  0.75311435  0.14515918  0.92079093  1
  O  O216  1  0.32028175  0.14593999  0.42060490  1
  O  O217  1  0.82038005  0.14614673  0.42032832  1
  O  O218  1  0.25322822  0.35905840  0.42111944  1
  O  O219  1  0.75313740  0.35819697  0.42183168  1
  O  O220  1  0.42738201  0.49684480  0.42046323  1
  O  O221  1  0.92792799  0.49627482  0.42061070  1
  O  O222  1  0.18005925  0.50412618  0.07954476  1
  O  O223  1  0.67973131  0.50357376  0.07935453  1
  O  O224  1  0.07385746  0.64116554  0.07886238  1
  O  O225  1  0.57410521  0.64201011  0.07861360  1
  O  O226  1  0.24763395  0.85373571  0.07885916  1
  O  O227  1  0.74737239  0.85363382  0.07970993  1
  O  O228  1  0.18002911  0.85487102  0.57940557  1
  O  O229  1  0.68056633  0.85566219  0.57894569  1
  O  O230  1  0.24680917  0.63947275  0.57966331  1
  O  O231  1  0.74761435  0.64182410  0.57902556  1
  O  O232  1  0.07319185  0.50638392  0.57952212  1
  O  O233  1  0.57349272  0.50668995  0.57946569  1
  O  O234  1  0.15272758  0.84489386  0.25110380  1
  O  O235  1  0.65284009  0.84486280  0.25110380  1
  O  O236  1  0.26144231  0.70336018  0.25299550  1
  O  O237  1  0.76141027  0.70330385  0.25298659  1
  O  O238  1  0.08607801  0.48316034  0.25469560  1
  O  O239  1  0.58613008  0.48320097  0.25472041  1
  O  O240  1  0.15346151  0.45988795  0.75111517  1
  O  O241  1  0.65264241  0.47893944  0.75362096  1
  O  O242  1  0.08788090  0.69137681  0.75468751  1
  O  O243  1  0.58500744  0.69169074  0.75353954  1
  O  O244  1  0.26092950  0.81919725  0.75403150  1
  O  O245  1  0.76149594  0.82752804  0.75264396  1
