# generated using pymatgen
data_NaAl2In2PS5O24
_symmetry_space_group_name_H-M   'P 1'
_cell_length_a   8.55410652
_cell_length_b   8.55355896
_cell_length_c   22.54032456
_cell_angle_alpha   89.91124882
_cell_angle_beta   90.20130233
_cell_angle_gamma   119.82097629
_symmetry_Int_Tables_number   1
_chemical_formula_structural   NaAl2In2PS5O24
_chemical_formula_sum   'Na3 Al6 In6 P3 S15 O72'
_cell_volume   1430.83725622
_cell_formula_units_Z   3
loop_
 _symmetry_equiv_pos_site_id
 _symmetry_equiv_pos_as_xyz
  1  'x, y, z'
loop_
 _atom_site_type_symbol
 _atom_site_label
 _atom_site_symmetry_multiplicity
 _atom_site_fract_x
 _atom_site_fract_y
 _atom_site_fract_z
 _atom_site_occupancy
  Na  Na0  1  0.99892170  0.98753193  0.99625484  1
  Na  Na1  1  0.65286799  0.33076035  0.83421306  1
  Na  Na2  1  0.67536022  0.33136492  0.33794732  1
  Al  Al3  1  0.99696594  0.00409920  0.35651002  1
  Al  Al4  1  0.00121771  0.00020803  0.64183243  1
  Al  Al5  1  0.66560669  0.33297188  0.67689714  1
  Al  Al6  1  0.66651780  0.33357447  0.48367699  1
  Al  Al7  1  0.33260798  0.66680456  0.51940134  1
  Al  Al8  1  0.32865470  0.66123121  0.31933030  1
  In  In9  1  0.99983609  0.99320373  0.84712853  1
  In  In10  1  0.00021310  0.00641131  0.15696056  1
  In  In11  1  0.67312735  0.33397298  0.19256731  1
  In  In12  1  0.66140478  0.33467013  0.97908531  1
  In  In13  1  0.33933072  0.67201732  0.01780678  1
  In  In14  1  0.34041704  0.67340212  0.80726910  1
  P  P15  1  0.00972596  0.29814149  0.26079177  1
  P  P16  1  0.63091069  0.66693481  0.91324284  1
  P  P17  1  0.33260373  0.96341197  0.91337400  1
  S  S18  1  0.28549349  0.98737073  0.26116285  1
  S  S19  1  0.69973373  0.71216961  0.26113642  1
  S  S20  1  0.29821163  0.28552154  0.73936450  1
  S  S21  1  0.98581434  0.69786873  0.73872315  1
  S  S22  1  0.71786483  0.01605642  0.73885414  1
  S  S23  1  0.95641857  0.33461945  0.57992075  1
  S  S24  1  0.37808375  0.04354771  0.58023537  1
  S  S25  1  0.66501512  0.62187330  0.58025481  1
  S  S26  1  0.96643486  0.63488004  0.08606444  1
  S  S27  1  0.66973673  0.03632067  0.08555039  1
  S  S28  1  0.36631232  0.33186117  0.08707489  1
  S  S29  1  0.03859257  0.37098617  0.91350340  1
  S  S30  1  0.61867092  0.95361491  0.41991267  1
  S  S31  1  0.33695805  0.38001738  0.42025194  1
  S  S32  1  0.04388395  0.66711603  0.42000520  1
  O  O33  1  0.18968554  0.01438629  0.31122022  1
  O  O34  1  0.82823483  0.80270897  0.31071039  1
  O  O35  1  0.97614742  0.16565224  0.31212649  1
  O  O36  1  0.23270149  0.18263565  0.79521617  1
  O  O37  1  0.94705024  0.76119342  0.79478370  1
  O  O38  1  0.82046149  0.05298098  0.79492874  1
  O  O39  1  0.81524032  0.99272652  0.68849988  1
  O  O40  1  0.17907757  0.18815595  0.68849513  1
  O  O41  1  0.01230881  0.82171887  0.68882625  1
  O  O42  1  0.76657739  0.80405735  0.20380443  1
  O  O43  1  0.03971391  0.23086517  0.20127029  1
  O  O44  1  0.18764947  0.95268897  0.20437484  1
  O  O45  1  0.87423471  0.37326317  0.63161926  1
  O  O46  1  0.49861500  0.12514421  0.63231586  1
  O  O47  1  0.62509340  0.50047421  0.63203970  1
  O  O48  1  0.87905579  0.53670226  0.14115429  1
  O  O49  1  0.65963957  0.12377892  0.14068897  1
  O  O50  1  0.46801087  0.34541443  0.14198433  1
  O  O51  1  0.45010127  0.31009326  0.03302031  1
  O  O52  1  0.85847273  0.55240955  0.03198408  1
  O  O53  1  0.69236530  0.14329416  0.03166860  1
  O  O54  1  0.45893278  0.16486690  0.52794483  1
  O  O55  1  0.70578159  0.54103328  0.52800203  1
  O  O56  1  0.83499811  0.29419551  0.52734113  1
  O  O57  1  0.54550873  0.67288710  0.97205147  1
  O  O58  1  0.13491648  0.44993494  0.96950600  1
  O  O59  1  0.30542306  0.85695443  0.97068419  1
  O  O60  1  0.53652094  0.83976300  0.47320431  1
  O  O61  1  0.30235192  0.46188317  0.47312863  1
  O  O62  1  0.15909904  0.69990763  0.47331536  1
  O  O63  1  0.12510895  0.62857657  0.36826362  1
  O  O64  1  0.49856943  0.87311467  0.36798581  1
  O  O65  1  0.37827364  0.50090122  0.36849855  1
  O  O66  1  0.12315973  0.47296387  0.85891218  1
  O  O67  1  0.33847999  0.87620442  0.85450783  1
  O  O68  1  0.52252052  0.63879469  0.85583549  1
  O  O69  1  0.02158988  0.82552068  0.40973240  1
  O  O70  1  0.79781645  0.97196932  0.41044408  1
  O  O71  1  0.17971727  0.19974757  0.41007816  1
  O  O72  1  0.02269429  0.19212854  0.91061077  1
  O  O73  1  0.17206082  0.99705748  0.91244019  1
  O  O74  1  0.80946763  0.84639791  0.91120016  1
  O  O75  1  0.97909759  0.17620973  0.59076099  1
  O  O76  1  0.19749881  0.02152824  0.59101590  1
  O  O77  1  0.82329650  0.80187135  0.59147436  1
  O  O78  1  0.98627666  0.81756160  0.08919825  1
  O  O79  1  0.83144087  0.01450780  0.08720841  1
  O  O80  1  0.18707827  0.16602482  0.08908025  1
  O  O81  1  0.69672356  0.17717351  0.72935884  1
  O  O82  1  0.48068911  0.30663101  0.73006511  1
  O  O83  1  0.82377036  0.51825162  0.72834178  1
  O  O84  1  0.67322492  0.52651881  0.25817693  1
  O  O85  1  0.83833592  0.31799317  0.25821907  1
  O  O86  1  0.46413096  0.15478202  0.25737196  1
  O  O87  1  0.66773333  0.50839395  0.91366488  1
  O  O88  1  0.85851315  0.35283784  0.91502756  1
  O  O89  1  0.51019460  0.14400202  0.91494450  1
  O  O90  1  0.63943488  0.13778333  0.42879128  1
  O  O91  1  0.50136292  0.36102463  0.42973196  1
  O  O92  1  0.86142976  0.50252594  0.42895334  1
  O  O93  1  0.34716801  0.49245476  0.08465330  1
  O  O94  1  0.14292330  0.64702040  0.08324348  1
  O  O95  1  0.50609686  0.85963627  0.08423617  1
  O  O96  1  0.36087244  0.86493064  0.56928520  1
  O  O97  1  0.50410645  0.64008608  0.56896521  1
  O  O98  1  0.13467109  0.49559820  0.56882532  1
  O  O99  1  0.31046690  0.83218494  0.27201095  1
  O  O100  1  0.52697458  0.70358765  0.27221418  1
  O  O101  1  0.17522711  0.48092029  0.27306769  1
  O  O102  1  0.31102801  0.46274216  0.74316989  1
  O  O103  1  0.14663602  0.67877192  0.74290099  1
  O  O104  1  0.53998762  0.85342756  0.74198455  1
