# generated using pymatgen
data_MgCd2(WO4)2
_symmetry_space_group_name_H-M   'P 1'
_cell_length_a   5.47769558
_cell_length_b   5.23873809
_cell_length_c   6.45461412
_cell_angle_alpha   90.00000000
_cell_angle_beta   90.00000000
_cell_angle_gamma   100.48603178
_symmetry_Int_Tables_number   1
_chemical_formula_structural   MgCd2(WO4)2
_chemical_formula_sum   'Mg1 Cd2 W2 O8'
_cell_volume   182.12962586
_cell_formula_units_Z   1
loop_
 _symmetry_equiv_pos_site_id
 _symmetry_equiv_pos_as_xyz
  1  'x, y, z'
loop_
 _atom_site_type_symbol
 _atom_site_label
 _atom_site_symmetry_multiplicity
 _atom_site_fract_x
 _atom_site_fract_y
 _atom_site_fract_z
 _atom_site_occupancy
  Mg  Mg0  1  -0.00000000  0.25000000  0.59327844  1
  Cd  Cd1  1  0.50000000  0.25000000  0.79924301  1
  Cd  Cd2  1  0.50000000  0.75000000  0.34490080  1
  W  W3  1  -0.00000000  0.25000000  0.13412842  1
  W  W4  1  -0.00000000  0.75000000  0.84606381  1
  O  O5  1  0.78346965  0.08229678  0.35626869  1
  O  O6  1  0.21653035  0.41770322  0.35626869  1
  O  O7  1  0.20505605  0.95712151  0.63839476  1
  O  O8  1  0.79494395  0.54287849  0.63839476  1
  O  O9  1  0.80229996  0.04084535  0.87831830  1
  O  O10  1  0.19770004  0.45915465  0.87831830  1
  O  O11  1  0.19438985  0.97512708  0.08071100  1
  O  O12  1  0.80561015  0.52487292  0.08071100  1
