# generated using pymatgen
data_Na5Hf3ZnSiP5O24
_symmetry_space_group_name_H-M   'P 1'
_cell_length_a   9.04732213
_cell_length_b   9.02104390
_cell_length_c   22.64115644
_cell_angle_alpha   89.99267616
_cell_angle_beta   90.22106883
_cell_angle_gamma   119.91919170
_symmetry_Int_Tables_number   1
_chemical_formula_structural   Na5Hf3ZnSiP5O24
_chemical_formula_sum   'Na15 Hf9 Zn3 Si3 P15 O72'
_cell_volume   1601.60340020
_cell_formula_units_Z   3
loop_
 _symmetry_equiv_pos_site_id
 _symmetry_equiv_pos_as_xyz
  1  'x, y, z'
loop_
 _atom_site_type_symbol
 _atom_site_label
 _atom_site_symmetry_multiplicity
 _atom_site_fract_x
 _atom_site_fract_y
 _atom_site_fract_z
 _atom_site_occupancy
  Na  Na0  1  0.64276053  0.01657025  0.24217999  1
  Na  Na1  1  0.37480915  0.35814984  0.24197468  1
  Na  Na2  1  0.98491669  0.62816334  0.24272048  1
  Na  Na3  1  0.63515266  0.62211504  0.74572478  1
  Na  Na4  1  0.98673908  0.36455999  0.74605335  1
  Na  Na5  1  0.38277848  0.01663715  0.74179881  1
  Na  Na6  1  0.66163587  0.97586178  0.58463646  1
  Na  Na7  1  0.33116842  0.30633313  0.92332120  1
  Na  Na8  1  0.32427416  0.03226440  0.41211282  1
  Na  Na9  1  0.00004577  0.00044934  0.49041568  1
  Na  Na10  1  0.98135626  0.98802241  0.00236750  1
  Na  Na11  1  0.68034325  0.33771154  0.83648763  1
  Na  Na12  1  0.67985366  0.34532974  0.32854650  1
  Na  Na13  1  0.33324887  0.66793682  0.15937552  1
  Na  Na14  1  0.32134106  0.66121277  0.66115672  1
  Hf  Hf15  1  0.99266283  0.99380976  0.85711496  1
  Hf  Hf16  1  0.00871882  0.00114453  0.64307549  1
  Hf  Hf17  1  0.99987799  0.00094997  0.14589305  1
  Hf  Hf18  1  0.67548728  0.33632406  0.98275864  1
  Hf  Hf19  1  0.66728248  0.33766309  0.48137483  1
  Hf  Hf20  1  0.33497627  0.66505470  0.01965295  1
  Hf  Hf21  1  0.32893985  0.66205809  0.51858554  1
  Hf  Hf22  1  0.33317833  0.66416621  0.31530691  1
  Hf  Hf23  1  0.33184393  0.66536523  0.81719400  1
  Zn  Zn24  1  0.99135497  0.99862900  0.35099631  1
  Zn  Zn25  1  0.66449762  0.33204266  0.67497955  1
  Zn  Zn26  1  0.66974797  0.33571508  0.17484924  1
  Si  Si27  1  0.37425593  0.03948746  0.58425462  1
  Si  Si28  1  0.62670085  0.66465660  0.91729302  1
  Si  Si29  1  0.03690014  0.37425581  0.91574360  1
  P  P30  1  0.29230094  0.00089860  0.25364285  1
  P  P31  1  0.71040756  0.70882082  0.25190950  1
  P  P32  1  0.99890062  0.29063867  0.25206437  1
  P  P33  1  0.29135291  0.29291448  0.75122329  1
  P  P34  1  0.00132581  0.70837127  0.74944011  1
  P  P35  1  0.70760052  -0.00047283  0.74883590  1
  P  P36  1  0.96025226  0.33686136  0.58643950  1
  P  P37  1  0.66523210  0.62590786  0.58627944  1
  P  P38  1  0.96340197  0.62870689  0.08669902  1
  P  P39  1  0.66470195  0.03807888  0.08715270  1
  P  P40  1  0.37218790  0.33273214  0.08528193  1
  P  P41  1  0.33555082  0.95947753  0.91689598  1
  P  P42  1  0.63103143  0.96113131  0.41788550  1
  P  P43  1  0.33271907  0.36952248  0.41603137  1
  P  P44  1  0.03759073  0.66625523  0.41548580  1
  O  O45  1  0.21698037  0.02685725  0.31046473  1
  O  O46  1  0.82032963  0.78608985  0.30658928  1
  O  O47  1  0.96980589  0.18179011  0.30659193  1
  O  O48  1  0.20429561  0.18629353  0.80685277  1
  O  O49  1  0.98359011  0.80002935  0.80406626  1
  O  O50  1  0.82170371  0.01365463  0.80225607  1
  O  O51  1  0.78853378  0.97318006  0.69221544  1
  O  O52  1  0.17437001  0.20068428  0.69702369  1
  O  O53  1  0.02501318  0.82250711  0.69476310  1
  O  O54  1  0.79416114  0.82652945  0.19707880  1
  O  O55  1  0.03061630  0.20603387  0.19690676  1
  O  O56  1  0.17112251  0.97085331  0.19998833  1
  O  O57  1  0.89431535  0.36803246  0.64455506  1
  O  O58  1  0.48750773  0.11138737  0.64416559  1
  O  O59  1  0.64095123  0.53105261  0.64448403  1
  O  O60  1  0.89148968  0.53161184  0.14451077  1
  O  O61  1  0.64385981  0.11279447  0.14517240  1
  O  O62  1  0.47226092  0.35528853  0.14242019  1
  O  O63  1  0.46018047  0.31148840  0.02966107  1
  O  O64  1  0.84574905  0.53321172  0.03318855  1
  O  O65  1  0.68498835  0.15376854  0.03367010  1
  O  O66  1  0.47124931  0.15814002  0.52640643  1
  O  O67  1  0.69093614  0.53478777  0.53289303  1
  O  O68  1  0.83940649  0.31005423  0.53372224  1
  O  O69  1  0.53049685  0.69294614  0.97223960  1
  O  O70  1  0.16641028  0.47112417  0.97006068  1
  O  O71  1  0.30809190  0.84470834  0.96973521  1
  O  O72  1  0.53412899  0.85247712  0.47301724  1
  O  O73  1  0.32090391  0.46895935  0.46952312  1
  O  O74  1  0.15530623  0.68283522  0.46856693  1
  O  O75  1  0.12484922  0.64345687  0.35894604  1
  O  O76  1  0.51194355  0.87066490  0.36277105  1
  O  O77  1  0.35310072  0.47731744  0.35926923  1
  O  O78  1  0.12234819  0.48572472  0.85457096  1
  O  O79  1  0.35929367  0.87832839  0.85906842  1
  O  O80  1  0.51124890  0.63726582  0.85651729  1
  O  O81  1  0.03009410  0.83075173  0.41339250  1
  O  O82  1  0.80519833  0.97889469  0.41436941  1
  O  O83  1  0.17907142  0.19019959  0.41408766  1
  O  O84  1  0.03101197  0.18954852  0.90984720  1
  O  O85  1  0.17807330  0.98384820  0.90978129  1
  O  O86  1  0.81742486  0.82912484  0.91137794  1
  O  O87  1  0.96642693  0.16640413  0.58950941  1
  O  O88  1  0.18461161  0.02084877  0.58791348  1
  O  O89  1  0.82246272  0.81181504  0.58878105  1
  O  O90  1  0.97826094  0.80891454  0.08963819  1
  O  O91  1  0.82848384  0.02041452  0.08964446  1
  O  O92  1  0.19088438  0.16930102  0.08936073  1
  O  O93  1  0.69135064  0.16067863  0.74827740  1
  O  O94  1  0.47038042  0.31558303  0.74678061  1
  O  O95  1  0.84379003  0.52961182  0.74575105  1
  O  O96  1  0.67912830  0.52563991  0.24373207  1
  O  O97  1  0.84719176  0.32191145  0.24462146  1
  O  O98  1  0.47338538  0.15398836  0.24556423  1
  O  O99  1  0.63157430  0.48671818  0.92377924  1
  O  O100  1  0.84756718  0.34799843  0.92328603  1
  O  O101  1  0.49186365  0.14007771  0.92358810  1
  O  O102  1  0.63595167  0.13737324  0.42218242  1
  O  O103  1  0.49949247  0.35737242  0.42086268  1
  O  O104  1  0.86123648  0.50360166  0.42199387  1
  O  O105  1  0.34846910  0.49152989  0.07837141  1
  O  O106  1  0.14348466  0.65317787  0.07730943  1
  O  O107  1  0.50656569  0.85819557  0.07868389  1
  O  O108  1  0.35465475  0.84826402  0.57557804  1
  O  O109  1  0.50828512  0.65109624  0.57668219  1
  O  O110  1  0.14248369  0.48670307  0.57560209  1
  O  O111  1  0.30587358  0.83146929  0.25620639  1
  O  O112  1  0.52849606  0.69634625  0.25689650  1
  O  O113  1  0.16836200  0.47275567  0.25617597  1
  O  O114  1  0.30302777  0.47300454  0.75317210  1
  O  O115  1  0.16918950  0.69806794  0.75267688  1
  O  O116  1  0.52657945  0.83572249  0.75404516  1
