# generated using pymatgen
data_Na42Ta4Zn20Si15(S7O48)3
_symmetry_space_group_name_H-M   'P 1'
_cell_length_a   18.41409638
_cell_length_b   9.10351521
_cell_length_c   22.10847955
_cell_angle_alpha   90.08650725
_cell_angle_beta   90.37233510
_cell_angle_gamma   119.64846198
_symmetry_Int_Tables_number   1
_chemical_formula_structural   Na42Ta4Zn20Si15(S7O48)3
_chemical_formula_sum   'Na42 Ta4 Zn20 Si15 S21 O144'
_cell_volume   3220.77951321
_cell_formula_units_Z   1
loop_
 _symmetry_equiv_pos_site_id
 _symmetry_equiv_pos_as_xyz
  1  'x, y, z'
loop_
 _atom_site_type_symbol
 _atom_site_label
 _atom_site_symmetry_multiplicity
 _atom_site_fract_x
 _atom_site_fract_y
 _atom_site_fract_z
 _atom_site_occupancy
  Na  Na0  1  0.30896425  0.99592262  0.23742297  1
  Na  Na1  1  0.80657573  0.99476444  0.23864191  1
  Na  Na2  1  0.19232738  0.37203297  0.25059689  1
  Na  Na3  1  0.69231707  0.37150384  0.24255909  1
  Na  Na4  1  0.99787247  0.63062609  0.24925879  1
  Na  Na5  1  0.49755118  0.63560940  0.24768804  1
  Na  Na6  1  0.30483309  0.61935566  0.74321150  1
  Na  Na7  1  0.81069627  0.62465897  0.74121609  1
  Na  Na8  1  0.00030543  0.35971087  0.75492295  1
  Na  Na9  1  0.49655781  0.36261519  0.75334812  1
  Na  Na10  1  0.18989429  0.01096667  0.75435262  1
  Na  Na11  1  0.69386185  0.01332979  0.75404539  1
  Na  Na12  1  0.16336833  0.34591297  0.58663190  1
  Na  Na13  1  0.66334515  0.35130477  0.58828764  1
  Na  Na14  1  0.31677845  0.95792074  0.58780618  1
  Na  Na15  1  0.16090262  0.96987655  0.07433455  1
  Na  Na16  1  0.66323500  0.97991669  0.08258484  1
  Na  Na17  1  0.81857874  0.67876938  0.08406912  1
  Na  Na18  1  0.48104396  0.66507248  0.92023511  1
  Na  Na19  1  0.99257991  0.67931232  0.91988737  1
  Na  Na20  1  0.34302552  0.03215602  0.91474239  1
  Na  Na21  1  0.85620818  0.04502150  0.91706034  1
  Na  Na22  1  0.16380680  0.28741010  0.90843248  1
  Na  Na23  1  0.66795620  0.29403305  0.91893116  1
  Na  Na24  1  0.48203614  0.29765748  0.41672042  1
  Na  Na25  1  0.98353195  0.29805253  0.41857000  1
  Na  Na26  1  0.16789231  0.04246090  0.41853105  1
  Na  Na27  1  0.66494218  0.03643010  0.40854437  1
  Na  Na28  1  0.35452589  0.66395186  0.41741228  1
  Na  Na29  1  0.85354312  0.66610905  0.41798629  1
  Na  Na30  1  0.99706226  0.97254393  0.50309842  1
  Na  Na31  1  0.49610082  0.97099829  0.49733364  1
  Na  Na32  1  0.00482959  0.01834600  0.99210586  1
  Na  Na33  1  0.49263830  0.01886192  0.00070829  1
  Na  Na34  1  0.31907883  0.30675435  0.83050210  1
  Na  Na35  1  0.83180533  0.32635153  0.82893195  1
  Na  Na36  1  0.32868989  0.33520201  0.32675619  1
  Na  Na37  1  0.82814707  0.33492546  0.32580725  1
  Na  Na38  1  0.17904150  0.67698129  0.16131505  1
  Na  Na39  1  0.66865800  0.66085330  0.16194907  1
  Na  Na40  1  0.16885930  0.67786261  0.66621151  1
  Na  Na41  1  0.67972397  0.68010950  0.66571217  1
  Ta  Ta42  1  0.99699147  0.99929384  0.64765583  1
  Ta  Ta43  1  0.49607249  0.00043998  0.64982619  1
  Ta  Ta44  1  0.99606369  0.99071113  0.14948778  1
  Ta  Ta45  1  0.49696860  0.99181877  0.14644443  1
  Zn  Zn46  1  0.00249012  0.98194139  0.33688361  1
  Zn  Zn47  1  0.49854659  0.97558267  0.33316965  1
  Zn  Zn48  1  0.00552871  0.01703703  0.84566305  1
  Zn  Zn49  1  0.50094311  0.02199982  0.83978073  1
  Zn  Zn50  1  0.31484305  0.31658275  0.68175317  1
  Zn  Zn51  1  0.82665162  0.32961366  0.68434474  1
  Zn  Zn52  1  0.32481167  0.32286889  0.18171077  1
  Zn  Zn53  1  0.81666699  0.31501163  0.17993136  1
  Zn  Zn54  1  0.32142124  0.29272324  0.98669445  1
  Zn  Zn55  1  0.82466844  0.31201262  0.00138823  1
  Zn  Zn56  1  0.32173256  0.33638771  0.50519949  1
  Zn  Zn57  1  0.83795738  0.34969465  0.49885069  1
  Zn  Zn58  1  0.17997012  0.69978012  0.01192908  1
  Zn  Zn59  1  0.66966669  0.66520350  0.02097850  1
  Zn  Zn60  1  0.17096084  0.67407062  0.52119407  1
  Zn  Zn61  1  0.67766956  0.67645967  0.51804564  1
  Zn  Zn62  1  0.17618972  0.68728642  0.30954635  1
  Zn  Zn63  1  0.67486415  0.68377643  0.30980962  1
  Zn  Zn64  1  0.17649670  0.68123148  0.81327323  1
  Zn  Zn65  1  0.67596336  0.66414143  0.81049577  1
  Si  Si66  1  0.14978484  0.00218352  0.25393655  1
  Si  Si67  1  0.64762900  0.99839937  0.25386380  1
  Si  Si68  1  0.35084425  0.69587058  0.25236681  1
  Si  Si69  1  0.85054404  0.69533299  0.25490618  1
  Si  Si70  1  0.14762258  0.30218524  0.75299007  1
  Si  Si71  1  0.64971888  0.29682894  0.75333895  1
  Si  Si72  1  0.35023677  0.00832238  0.75357436  1
  Si  Si73  1  0.85384210  0.00546571  0.75420869  1
  Si  Si74  1  0.17901235  0.02497870  0.58203822  1
  Si  Si75  1  0.33681560  0.63333738  0.58218577  1
  Si  Si76  1  0.83180585  0.63195024  0.58280415  1
  Si  Si77  1  0.33269459  0.03422576  0.08430982  1
  Si  Si78  1  0.83573659  0.03887537  0.08278495  1
  Si  Si79  1  0.67991806  0.33313824  0.08290079  1
  Si  Si80  1  0.16261310  0.96312109  0.91455499  1
  S  S81  1  0.00043073  0.28959661  0.25232637  1
  S  S82  1  0.50119575  0.28956019  0.25227997  1
  S  S83  1  0.99897863  0.70848192  0.75003997  1
  S  S84  1  0.50101215  0.71137312  0.75164933  1
  S  S85  1  0.48362993  0.33300309  0.58380955  1
  S  S86  1  0.98080623  0.32788263  0.58318341  1
  S  S87  1  0.68132123  0.03063916  0.58241254  1
  S  S88  1  0.48007275  0.62915764  0.08295919  1
  S  S89  1  0.98175128  0.62969826  0.08641184  1
  S  S90  1  0.17931907  0.33288664  0.08445949  1
  S  S91  1  0.31909404  0.66618780  0.91675416  1
  S  S92  1  0.81548891  0.66036588  0.91737847  1
  S  S93  1  0.01955043  0.38172747  0.91809481  1
  S  S94  1  0.52252645  0.38079309  0.91515911  1
  S  S95  1  0.66420307  0.95430363  0.91531872  1
  S  S96  1  0.31845625  0.97079780  0.41663905  1
  S  S97  1  0.81626487  0.97185984  0.41753403  1
  S  S98  1  0.16418194  0.37463124  0.41519175  1
  S  S99  1  0.66451920  0.37013586  0.41655933  1
  S  S100  1  0.02036247  0.66034925  0.41565556  1
  S  S101  1  0.52344469  0.66214661  0.41749641  1
  O  O102  1  0.11281413  0.04264681  0.31478044  1
  O  O103  1  0.61047098  0.03793793  0.31500088  1
  O  O104  1  0.40012042  0.76707727  0.31707561  1
  O  O105  1  0.90180943  0.78187330  0.31707474  1
  O  O106  1  0.48864255  0.19059851  0.30872592  1
  O  O107  1  0.98868889  0.19145516  0.30842282  1
  O  O108  1  0.11007197  0.18631406  0.81214185  1
  O  O109  1  0.61065678  0.17895106  0.81270050  1
  O  O110  1  0.48947048  0.78693821  0.80757384  1
  O  O111  1  0.98587733  0.78040071  0.80591359  1
  O  O112  1  0.40366016  0.02783750  0.81461662  1
  O  O113  1  0.90651815  0.02896922  0.81608862  1
  O  O114  1  0.40940551  0.99064564  0.69521287  1
  O  O115  1  0.90814762  0.98081393  0.69776824  1
  O  O116  1  0.08408015  0.19109087  0.69371620  1
  O  O117  1  0.58779772  0.18521886  0.69287651  1
  O  O118  1  0.00650076  0.82082134  0.69685136  1
  O  O119  1  0.50811561  0.82650969  0.69803696  1
  O  O120  1  0.40934479  0.83570106  0.19963975  1
  O  O121  1  0.90764700  0.83039680  0.19729781  1
  O  O122  1  0.00764130  0.19040245  0.19901711  1
  O  O123  1  0.50906790  0.19439217  0.19940133  1
  O  O124  1  0.08493339  0.98795054  0.19609091  1
  O  O125  1  0.58361945  0.98271951  0.19680382  1
  O  O126  1  0.44478525  0.34842465  0.63864509  1
  O  O127  1  0.93913014  0.34712471  0.63659102  1
  O  O128  1  0.24267174  0.10853700  0.63880398  1
  O  O129  1  0.73065497  0.10716572  0.63788179  1
  O  O130  1  0.32619098  0.51954771  0.64079474  1
  O  O131  1  0.81605769  0.50471069  0.63917116  1
  O  O132  1  0.44102286  0.53305863  0.13871110  1
  O  O133  1  0.93967415  0.53735463  0.14136394  1
  O  O134  1  0.31915811  0.12649488  0.14299610  1
  O  O135  1  0.82415242  0.12787736  0.14261698  1
  O  O136  1  0.22876895  0.35729812  0.14052644  1
  O  O137  1  0.74071796  0.37602273  0.14174266  1
  O  O138  1  0.21736896  0.29960479  0.03094420  1
  O  O139  1  0.71775454  0.28630589  0.02295054  1
  O  O140  1  0.43083316  0.55352855  0.02791714  1
  O  O141  1  0.92990169  0.56022384  0.03112599  1
  O  O142  1  0.35218038  0.13879185  0.02119810  1
  O  O143  1  0.85455702  0.14465668  0.02005241  1
  O  O144  1  0.21575729  0.14458224  0.52084223  1
  O  O145  1  0.72125075  0.13700476  0.52783213  1
  O  O146  1  0.35679206  0.56764418  0.51859351  1
  O  O147  1  0.84764884  0.56167318  0.51834456  1
  O  O148  1  0.43109211  0.29973330  0.52861797  1
  O  O149  1  0.93183422  0.30337859  0.52611230  1
  O  O150  1  0.27572168  0.68843108  0.96914870  1
  O  O151  1  0.77362572  0.68100617  0.97144499  1
  O  O152  1  0.07400139  0.47152472  0.97055174  1
  O  O153  1  0.57564802  0.47276884  0.96754860  1
  O  O154  1  0.14705556  0.85229272  0.97656314  1
  O  O155  1  0.65905833  0.85818328  0.97110951  1
  O  O156  1  0.27742879  0.86683607  0.47080271  1
  O  O157  1  0.77366670  0.86092552  0.46957484  1
  O  O158  1  0.15895730  0.46065949  0.47108125  1
  O  O159  1  0.65827419  0.45643678  0.47215539  1
  O  O160  1  0.07216864  0.67118641  0.46821573  1
  O  O161  1  0.57638402  0.67666296  0.47066152  1
  O  O162  1  0.05839850  0.64638128  0.35796450  1
  O  O163  1  0.56301165  0.64976663  0.36018907  1
  O  O164  1  0.26789655  0.89034730  0.36077005  1
  O  O165  1  0.76755157  0.89773216  0.36043346  1
  O  O166  1  0.16893925  0.47338715  0.36003119  1
  O  O167  1  0.67350341  0.47249951  0.36163233  1
  O  O168  1  0.05763212  0.46885672  0.86015675  1
  O  O169  1  0.56128511  0.47135264  0.85746896  1
  O  O170  1  0.18035430  0.87509804  0.85549876  1
  O  O171  1  0.66899761  0.86522663  0.86002016  1
  O  O172  1  0.27092467  0.64066925  0.85953345  1
  O  O173  1  0.76394276  0.63512576  0.86145652  1
  O  O174  1  0.01125485  0.81620900  0.41666141  1
  O  O175  1  0.51427846  0.81776074  0.41785113  1
  O  O176  1  0.40368171  0.98777046  0.41361607  1
  O  O177  1  0.90196502  0.99268449  0.41516194  1
  O  O178  1  0.08686977  0.20367763  0.41466507  1
  O  O179  1  0.58646722  0.20142633  0.41532167  1
  O  O180  1  0.00694336  0.20538466  0.91862766  1
  O  O181  1  0.51339743  0.20657931  0.91590487  1
  O  O182  1  0.07699187  0.98070898  0.91135154  1
  O  O183  1  0.58693504  0.97068186  0.91478135  1
  O  O184  1  0.40440196  0.82163084  0.91460073  1
  O  O185  1  0.89904038  0.81444106  0.91412043  1
  O  O186  1  0.49275868  0.16975052  0.58804503  1
  O  O187  1  0.98701209  0.16620291  0.58751272  1
  O  O188  1  0.08781176  0.02183169  0.59251324  1
  O  O189  1  0.59704387  0.02723273  0.58695992  1
  O  O190  1  0.42104779  0.83256419  0.59078041  1
  O  O191  1  0.91659826  0.82147680  0.59331368  1
  O  O192  1  0.48750776  0.80704754  0.08848486  1
  O  O193  1  0.99128238  0.81223512  0.09060925  1
  O  O194  1  0.41760906  0.01353604  0.09588541  1
  O  O195  1  0.91950363  0.00818461  0.09270676  1
  O  O196  1  0.09443690  0.16714303  0.09111682  1
  O  O197  1  0.58845418  0.15341178  0.09376529  1
  O  O198  1  0.34785393  0.18223882  0.74464712  1
  O  O199  1  0.84738165  0.17710661  0.74347922  1
  O  O200  1  0.24155658  0.32836814  0.74689559  1
  O  O201  1  0.74315413  0.32263585  0.74760816  1
  O  O202  1  0.42900243  0.54319167  0.74318875  1
  O  O203  1  0.92505930  0.53811662  0.74196869  1
  O  O204  1  0.34550973  0.51323237  0.24149117  1
  O  O205  1  0.84814914  0.51660178  0.24600715  1
  O  O206  1  0.42876913  0.31563842  0.24557014  1
  O  O207  1  0.92844990  0.31433706  0.24456615  1
  O  O208  1  0.24282137  0.16314217  0.24751136  1
  O  O209  1  0.74170159  0.15861716  0.24832555  1
  O  O210  1  0.32963828  0.51430451  0.92379847  1
  O  O211  1  0.82516287  0.50683490  0.92188869  1
  O  O212  1  0.43826651  0.36652722  0.91797023  1
  O  O213  1  0.93542165  0.37133185  0.92119681  1
  O  O214  1  0.24733650  0.15546541  0.91884876  1
  O  O215  1  0.74072204  0.12578140  0.91551149  1
  O  O216  1  0.32729872  0.14301755  0.42076898  1
  O  O217  1  0.82305553  0.14299475  0.42415952  1
  O  O218  1  0.24072309  0.35647934  0.41544617  1
  O  O219  1  0.73948747  0.34605308  0.41907111  1
  O  O220  1  0.43906420  0.50820258  0.41981791  1
  O  O221  1  0.93481868  0.50524992  0.41827812  1
  O  O222  1  0.16355076  0.47444728  0.07688431  1
  O  O223  1  0.66697547  0.49566795  0.07668482  1
  O  O224  1  0.06704422  0.65807708  0.08283579  1
  O  O225  1  0.56776020  0.66675801  0.07937973  1
  O  O226  1  0.24878588  0.84624560  0.08092921  1
  O  O227  1  0.75256506  0.84940061  0.07930344  1
  O  O228  1  0.16613462  0.83624917  0.57577931  1
  O  O229  1  0.66483062  0.85617520  0.57615481  1
  O  O230  1  0.25350952  0.65546559  0.57862532  1
  O  O231  1  0.74644169  0.64882739  0.58026201  1
  O  O232  1  0.06733265  0.46722541  0.57883754  1
  O  O233  1  0.57025210  0.47365047  0.57743864  1
  O  O234  1  0.14768879  0.82001375  0.25103506  1
  O  O235  1  0.64704383  0.81722213  0.25140866  1
  O  O236  1  0.25844912  0.68172125  0.25023451  1
  O  O237  1  0.75926346  0.68406331  0.25043240  1
  O  O238  1  0.07994105  0.45269689  0.25163912  1
  O  O239  1  0.58002353  0.45441272  0.25317367  1
  O  O240  1  0.14863239  0.48390257  0.75252496  1
  O  O241  1  0.64775104  0.47479288  0.75008346  1
  O  O242  1  0.07632397  0.69912306  0.74910064  1
  O  O243  1  0.58043250  0.70860362  0.75038608  1
  O  O244  1  0.26184372  0.83484999  0.74670272  1
  O  O245  1  0.76038170  0.83528626  0.75197855  1
