# generated using pymatgen
data_BSBr
_symmetry_space_group_name_H-M   'P 1'
_cell_length_a   4.19858983
_cell_length_b   14.19323983
_cell_length_c   18.24348447
_cell_angle_alpha   65.09405698
_cell_angle_beta   90.00000000
_cell_angle_gamma   90.00000000
_symmetry_Int_Tables_number   1
_chemical_formula_structural   BSBr
_chemical_formula_sum   'B12 S12 Br12'
_cell_volume   986.05293642
_cell_formula_units_Z   12
loop_
 _symmetry_equiv_pos_site_id
 _symmetry_equiv_pos_as_xyz
  1  'x, y, z'
loop_
 _atom_site_type_symbol
 _atom_site_label
 _atom_site_symmetry_multiplicity
 _atom_site_fract_x
 _atom_site_fract_y
 _atom_site_fract_z
 _atom_site_occupancy
  B  B0  1  0.74196190  0.37487633  0.16666245  1
  B  B1  1  0.24196190  0.62512367  0.33333755  1
  B  B2  1  0.25803810  0.62512367  0.83333755  1
  B  B3  1  0.75803810  0.37487633  0.66666245  1
  B  B4  1  0.98623584  0.16940226  0.27273997  1
  B  B5  1  0.48623584  0.83059774  0.22726003  1
  B  B6  1  0.01376416  0.83059774  0.72726003  1
  B  B7  1  0.51376416  0.16940226  0.77273997  1
  B  B8  1  0.97446168  0.23534908  0.09767340  1
  B  B9  1  0.47446168  0.76465092  0.40232660  1
  B  B10  1  0.02553832  0.76465092  0.90232660  1
  B  B11  1  0.52553832  0.23534908  0.59767340  1
  S  S12  1  0.68515418  0.28687941  0.77030015  1
  S  S13  1  0.18515418  0.71312059  0.72969985  1
  S  S14  1  0.31484582  0.71312059  0.22969985  1
  S  S15  1  0.81484582  0.28687941  0.27030015  1
  S  S16  1  0.69529497  0.36108370  0.57419066  1
  S  S17  1  0.19529497  0.63891630  0.92580934  1
  S  S18  1  0.30470503  0.63891630  0.42580934  1
  S  S19  1  0.80470503  0.36108370  0.07419066  1
  S  S20  1  0.41874063  0.13129367  0.69295002  1
  S  S21  1  0.91874063  0.86870633  0.80704998  1
  S  S22  1  0.58125937  0.86870633  0.30704998  1
  S  S23  1  0.08125937  0.13129367  0.19295002  1
  Br  Br24  1  0.55970372  0.50559428  0.15200473  1
  Br  Br25  1  0.05970372  0.49440572  0.34799527  1
  Br  Br26  1  0.44029628  0.49440572  0.84799527  1
  Br  Br27  1  0.94029628  0.50559428  0.65200473  1
  Br  Br28  1  0.08534199  0.06653766  0.37926796  1
  Br  Br29  1  0.58534199  0.93346234  0.12073204  1
  Br  Br30  1  0.91465801  0.93346234  0.62073204  1
  Br  Br31  1  0.41465801  0.06653766  0.87926796  1
  Br  Br32  1  0.05833958  0.20744319  0.00526035  1
  Br  Br33  1  0.55833958  0.79255681  0.49473965  1
  Br  Br34  1  0.94166042  0.79255681  0.99473965  1
  Br  Br35  1  0.44166042  0.20744319  0.50526035  1
