# generated using pymatgen
data_NaAlGaP(SO6)2
_symmetry_space_group_name_H-M   'P 1'
_cell_length_a   8.38807452
_cell_length_b   8.38970186
_cell_length_c   21.95630836
_cell_angle_alpha   90.02215429
_cell_angle_beta   89.95622022
_cell_angle_gamma   119.93511505
_symmetry_Int_Tables_number   1
_chemical_formula_structural   NaAlGaP(SO6)2
_chemical_formula_sum   'Na6 Al6 Ga6 P6 S12 O72'
_cell_volume   1339.00504950
_cell_formula_units_Z   6
loop_
 _symmetry_equiv_pos_site_id
 _symmetry_equiv_pos_as_xyz
  1  'x, y, z'
loop_
 _atom_site_type_symbol
 _atom_site_label
 _atom_site_symmetry_multiplicity
 _atom_site_fract_x
 _atom_site_fract_y
 _atom_site_fract_z
 _atom_site_occupancy
  Na  Na0  1  0.99085169  0.99409257  0.49969575  1
  Na  Na1  1  0.00356665  0.99372632  0.99989549  1
  Na  Na2  1  0.66294487  0.32417077  0.83357337  1
  Na  Na3  1  0.66068113  0.32404299  0.33287693  1
  Na  Na4  1  0.32682347  0.66962265  0.16660669  1
  Na  Na5  1  0.34287691  0.66977225  0.66697393  1
  Al  Al6  1  0.00037325  0.00209055  0.85238523  1
  Al  Al7  1  0.00533076  0.98908419  0.14697908  1
  Al  Al8  1  0.66672536  0.33212268  0.18565902  1
  Al  Al9  1  0.66587756  0.33372299  0.98082625  1
  Al  Al10  1  0.33860378  0.68321662  0.31345058  1
  Al  Al11  1  0.34392093  0.68277113  0.81489161  1
  Ga  Ga12  1  0.00175945  0.00169655  0.35074040  1
  Ga  Ga13  1  0.98354607  0.98863034  0.64848859  1
  Ga  Ga14  1  0.66565699  0.33127978  0.68616584  1
  Ga  Ga15  1  0.66715775  0.33276089  0.48059640  1
  Ga  Ga16  1  0.32006986  0.67287431  0.01871943  1
  Ga  Ga17  1  0.35106704  0.67235428  0.51834697  1
  P  P18  1  0.29182771  0.00252459  0.24926111  1
  P  P19  1  0.71034195  0.99968623  0.75198742  1
  P  P20  1  0.66682729  0.61908854  0.58348020  1
  P  P21  1  0.94727799  0.61654064  0.08374858  1
  P  P22  1  0.33339502  0.96201753  0.91588006  1
  P  P23  1  0.62591444  0.95876778  0.41543029  1
  S  S24  1  0.70843563  0.70826093  0.24891902  1
  S  S25  1  0.00119207  0.29098639  0.24851953  1
  S  S26  1  0.28646566  0.29102764  0.75130217  1
  S  S27  1  0.00319015  0.71149328  0.75180916  1
  S  S28  1  0.96086263  0.33563883  0.58305489  1
  S  S29  1  0.37258867  0.04145452  0.58382901  1
  S  S30  1  0.67114949  0.04741132  0.08412540  1
  S  S31  1  0.37840536  0.33309493  0.08357227  1
  S  S32  1  0.62202164  0.66654851  0.91661893  1
  S  S33  1  0.04459034  0.37712194  0.91540850  1
  S  S34  1  0.33234131  0.38015294  0.41486680  1
  S  S35  1  0.04744576  0.66649709  0.41624897  1
  O  O36  1  0.21285930  0.04084380  0.30733968  1
  O  O37  1  0.81965036  0.78235078  0.30467438  1
  O  O38  1  0.96134904  0.17917174  0.30449447  1
  O  O39  1  0.20333301  0.17401384  0.80527494  1
  O  O40  1  0.97186292  0.79700462  0.80549242  1
  O  O41  1  0.83295156  0.03166501  0.80757824  1
  O  O42  1  0.78586112  0.96224659  0.69321933  1
  O  O43  1  0.17910859  0.21433950  0.69487329  1
  O  O44  1  0.04247961  0.82222349  0.69559710  1
  O  O45  1  0.79010817  0.82704574  0.19505416  1
  O  O46  1  0.03125179  0.20533905  0.19437839  1
  O  O47  1  0.16895801  0.96731991  0.19338979  1
  O  O48  1  0.88232305  0.36748881  0.63866251  1
  O  O49  1  0.48686184  0.11743237  0.63876387  1
  O  O50  1  0.63286029  0.50352153  0.64134805  1
  O  O51  1  0.86031025  0.49878747  0.14060029  1
  O  O52  1  0.63544696  0.12764039  0.13862086  1
  O  O53  1  0.49057791  0.36261301  0.13850885  1
  O  O54  1  0.45743758  0.29812624  0.02837831  1
  O  O55  1  0.83212135  0.53050249  0.02593201  1
  O  O56  1  0.70018727  0.15763250  0.02847636  1
  O  O57  1  0.45067550  0.15178582  0.52810959  1
  O  O58  1  0.70079070  0.53760091  0.52540744  1
  O  O59  1  0.84640173  0.29731118  0.52800072  1
  O  O60  1  0.54501703  0.70076894  0.97228895  1
  O  O61  1  0.15685779  0.44900893  0.97131073  1
  O  O62  1  0.29205585  0.84420777  0.97375433  1
  O  O63  1  0.54928967  0.84549311  0.47386837  1
  O  O64  1  0.29656397  0.45304228  0.47137991  1
  O  O65  1  0.15513471  0.69612384  0.47233779  1
  O  O66  1  0.13008764  0.63525355  0.36135234  1
  O  O67  1  0.50503897  0.86983005  0.35944821  1
  O  O68  1  0.35916128  0.49362000  0.36046098  1
  O  O69  1  0.12956546  0.49312509  0.86132843  1
  O  O70  1  0.36869114  0.87301110  0.86034705  1
  O  O71  1  0.50550533  0.63111643  0.86211183  1
  O  O72  1  0.02862096  0.83215933  0.41047351  1
  O  O73  1  0.81817502  0.97843827  0.40812816  1
  O  O74  1  0.16869223  0.19452387  0.41008467  1
  O  O75  1  0.02216664  0.19154772  0.90794018  1
  O  O76  1  0.16184861  0.98191989  0.90581028  1
  O  O77  1  0.80641379  0.83107062  0.90825908  1
  O  O78  1  0.98284655  0.17179185  0.58913030  1
  O  O79  1  0.19118576  0.02801336  0.59092446  1
  O  O80  1  0.84050434  0.81131113  0.58833737  1
  O  O81  1  0.96826479  0.81012688  0.09084550  1
  O  O82  1  0.83841919  0.03206629  0.09217854  1
  O  O83  1  0.19240626  0.16892043  0.09088303  1
  O  O84  1  0.69119728  0.17330086  0.74474470  1
  O  O85  1  0.47128860  0.30944990  0.74626067  1
  O  O86  1  0.83572228  0.52924313  0.74600706  1
  O  O87  1  0.68963112  0.52461937  0.24074392  1
  O  O88  1  0.83701685  0.31246771  0.24105461  1
  O  O89  1  0.48452082  0.17255022  0.23958812  1
  O  O90  1  0.64150187  0.50102706  0.92340067  1
  O  O91  1  0.86116344  0.36064551  0.92312343  1
  O  O92  1  0.50720467  0.15247617  0.92589779  1
  O  O93  1  0.64210547  0.15009426  0.42250702  1
  O  O94  1  0.50016646  0.36478451  0.42010112  1
  O  O95  1  0.86278903  0.50065456  0.42051871  1
  O  O96  1  0.36281726  0.50019181  0.07673845  1
  O  O97  1  0.14143675  0.63647978  0.07888229  1
  O  O98  1  0.50755015  0.86105340  0.07817728  1
  O  O99  1  0.35038734  0.85583501  0.57764090  1
  O  O100  1  0.49317869  0.63793076  0.57867686  1
  O  O101  1  0.14197995  0.50300966  0.57607723  1
  O  O102  1  0.30791665  0.82767247  0.25725457  1
  O  O103  1  0.52319894  0.68734425  0.25662992  1
  O  O104  1  0.16805486  0.47350812  0.25699228  1
  O  O105  1  0.30430255  0.47449385  0.75985582  1
  O  O106  1  0.16545803  0.68754484  0.75956288  1
  O  O107  1  0.51902339  0.82677978  0.75947076  1
