# generated using pymatgen
data_Na8NbAl3Si4(PO12)2
_symmetry_space_group_name_H-M   'P 1'
_cell_length_a   8.85479801
_cell_length_b   8.86070854
_cell_length_c   21.76206697
_cell_angle_alpha   89.81742149
_cell_angle_beta   89.90592242
_cell_angle_gamma   119.95636477
_symmetry_Int_Tables_number   1
_chemical_formula_structural   Na8NbAl3Si4(PO12)2
_chemical_formula_sum   'Na24 Nb3 Al9 Si12 P6 O72'
_cell_volume   1479.32448649
_cell_formula_units_Z   3
loop_
 _symmetry_equiv_pos_site_id
 _symmetry_equiv_pos_as_xyz
  1  'x, y, z'
loop_
 _atom_site_type_symbol
 _atom_site_label
 _atom_site_symmetry_multiplicity
 _atom_site_fract_x
 _atom_site_fract_y
 _atom_site_fract_z
 _atom_site_occupancy
  Na  Na0  1  0.63156163  0.99767338  0.25318406  1
  Na  Na1  1  0.36726870  0.36900057  0.25201097  1
  Na  Na2  1  0.00197502  0.63246530  0.25195639  1
  Na  Na3  1  0.63699053  0.63233816  0.74463946  1
  Na  Na4  1  0.99416909  0.35944919  0.74597811  1
  Na  Na5  1  0.37021439  0.00840039  0.74804901  1
  Na  Na6  1  0.29857877  0.33669755  0.58382859  1
  Na  Na7  1  0.03362735  0.69891802  0.58263508  1
  Na  Na8  1  0.66818119  0.96326097  0.58261032  1
  Na  Na9  1  0.29597115  0.96349788  0.08277431  1
  Na  Na10  1  0.66464001  0.69889460  0.08409931  1
  Na  Na11  1  0.03841071  0.33798290  0.08405254  1
  Na  Na12  1  0.97187449  0.67388503  0.91468094  1
  Na  Na13  1  0.70419042  0.03064368  0.91328356  1
  Na  Na14  1  0.32454052  0.29437603  0.91347696  1
  Na  Na15  1  0.97250490  0.29913362  0.41593622  1
  Na  Na16  1  0.32883630  0.02887320  0.41592246  1
  Na  Na17  1  0.69898204  0.67236112  0.41603185  1
  Na  Na18  1  0.99790456  0.99993312  0.49999780  1
  Na  Na19  1  0.00213035  0.00014170  0.99917182  1
  Na  Na20  1  0.66423174  0.32963280  0.82822753  1
  Na  Na21  1  0.66592755  0.33247077  0.33252912  1
  Na  Na22  1  0.33132342  0.66412144  0.16657434  1
  Na  Na23  1  0.33418149  0.66395456  0.66110369  1
  Nb  Nb24  1  0.66442947  0.33716649  0.98109689  1
  Nb  Nb25  1  0.67303707  0.33830529  0.47962376  1
  Nb  Nb26  1  0.33639370  0.66555409  0.81163603  1
  Al  Al27  1  0.99942242  0.00011249  0.35541859  1
  Al  Al28  1  0.00218906  0.00614472  0.85239543  1
  Al  Al29  1  0.99330890  0.00307545  0.64669730  1
  Al  Al30  1  0.00409453  0.99947211  0.14829961  1
  Al  Al31  1  0.66429428  0.33219491  0.68481452  1
  Al  Al32  1  0.66852860  0.33817694  0.18338679  1
  Al  Al33  1  0.32746086  0.66048539  0.01906623  1
  Al  Al34  1  0.33266653  0.65989328  0.51718076  1
  Al  Al35  1  0.33448938  0.66736307  0.31990735  1
  Si  Si36  1  0.28665786  0.27787650  0.74812797  1
  Si  Si37  1  0.72031658  0.00875870  0.74876736  1
  Si  Si38  1  0.96384812  0.33552900  0.58762509  1
  Si  Si39  1  0.66701803  0.63026318  0.58779625  1
  Si  Si40  1  0.96447892  0.63066814  0.08804883  1
  Si  Si41  1  0.36922736  0.33432048  0.08831513  1
  Si  Si42  1  0.62774818  0.67613977  0.91972517  1
  Si  Si43  1  0.04571580  0.37195961  0.91882872  1
  Si  Si44  1  0.32595250  0.95202892  0.91918914  1
  Si  Si45  1  0.61924268  0.94698915  0.41536495  1
  Si  Si46  1  0.32643648  0.37772785  0.41474822  1
  Si  Si47  1  0.05576390  0.67508108  0.41525753  1
  P  P48  1  0.28929214  0.00041629  0.24947370  1
  P  P49  1  0.71328659  0.71314632  0.24943171  1
  P  P50  1  0.99833947  0.28611536  0.24902657  1
  P  P51  1  0.99552339  0.71601179  0.74931965  1
  P  P52  1  0.37361817  0.03998446  0.58633469  1
  P  P53  1  0.66683922  0.04110191  0.08722959  1
  O  O54  1  0.20514188  0.03416148  0.30616771  1
  O  O55  1  0.82988235  0.79699029  0.30622818  1
  O  O56  1  0.96656479  0.16983223  0.30625232  1
  O  O57  1  0.20271093  0.16501455  0.81054037  1
  O  O58  1  0.96818399  0.79659003  0.80788677  1
  O  O59  1  0.83297546  0.03472034  0.81068735  1
  O  O60  1  0.79654884  0.95809950  0.68988579  1
  O  O61  1  0.16151597  0.19556058  0.68927210  1
  O  O62  1  0.03426977  0.83221907  0.69241406  1
  O  O63  1  0.79904230  0.83045143  0.19217504  1
  O  O64  1  0.02892569  0.20008772  0.19195557  1
  O  O65  1  0.17235643  0.96861758  0.19239993  1
  O  O66  1  0.86528628  0.36891208  0.64428343  1
  O  O67  1  0.49396663  0.12749874  0.64154754  1
  O  O68  1  0.62975959  0.49677241  0.64433858  1
  O  O69  1  0.86812114  0.49519939  0.14406166  1
  O  O70  1  0.63369735  0.13050094  0.14190976  1
  O  O71  1  0.50283438  0.36782634  0.14411736  1
  O  O72  1  0.45848596  0.29352886  0.02645941  1
  O  O73  1  0.83524354  0.53809856  0.02638453  1
  O  O74  1  0.70282425  0.15879949  0.02822233  1
  O  O75  1  0.45662865  0.15815028  0.52760735  1
  O  O76  1  0.70025555  0.53587888  0.52592505  1
  O  O77  1  0.83451997  0.29694961  0.52592978  1
  O  O78  1  0.53444994  0.70537792  0.97802609  1
  O  O79  1  0.16797655  0.46371023  0.97722596  1
  O  O80  1  0.29882544  0.83069157  0.97804246  1
  O  O81  1  0.53336532  0.82970340  0.47646553  1
  O  O82  1  0.29303085  0.46095824  0.47584221  1
  O  O83  1  0.17106909  0.70601656  0.47650029  1
  O  O84  1  0.13155301  0.62764804  0.35465530  1
  O  O85  1  0.49713972  0.86902098  0.35464255  1
  O  O86  1  0.37274983  0.50262029  0.35435565  1
  O  O87  1  0.12627726  0.50022991  0.85778361  1
  O  O88  1  0.36984487  0.86996383  0.85783512  1
  O  O89  1  0.49972251  0.62810099  0.85853704  1
  O  O90  1  0.02332613  0.84012106  0.40719505  1
  O  O91  1  0.81588549  0.97594605  0.40730752  1
  O  O92  1  0.15872732  0.18196648  0.40685165  1
  O  O93  1  0.02297331  0.18083558  0.91121603  1
  O  O94  1  0.15725653  0.97415855  0.91040874  1
  O  O95  1  0.81993775  0.83976266  0.90959683  1
  O  O96  1  0.97872652  0.15934736  0.58945404  1
  O  O97  1  0.19201119  0.02337915  0.59130456  1
  O  O98  1  0.84745977  0.81764035  0.59069875  1
  O  O99  1  0.97408522  0.81916442  0.09255266  1
  O  O100  1  0.83250990  0.02534906  0.09247959  1
  O  O101  1  0.17778755  0.15917299  0.09270569  1
  O  O102  1  0.69047039  0.17635848  0.74269018  1
  O  O103  1  0.48565854  0.31081084  0.74322125  1
  O  O104  1  0.83617374  0.52990587  0.74495175  1
  O  O105  1  0.69343741  0.52676078  0.24388661  1
  O  O106  1  0.83086325  0.30453992  0.24324964  1
  O  O107  1  0.47597459  0.16571184  0.24269892  1
  O  O108  1  0.64121127  0.49580259  0.92207102  1
  O  O109  1  0.85108802  0.35435855  0.92305244  1
  O  O110  1  0.50492334  0.14553210  0.92268213  1
  O  O111  1  0.64077719  0.14475779  0.42146659  1
  O  O112  1  0.50147819  0.35454755  0.42165255  1
  O  O113  1  0.85612777  0.49784024  0.42093722  1
  O  O114  1  0.35923143  0.51082819  0.07791058  1
  O  O115  1  0.15410719  0.64738670  0.07804478  1
  O  O116  1  0.50328051  0.86188286  0.07939475  1
  O  O117  1  0.35860641  0.86063309  0.57885754  1
  O  O118  1  0.49365839  0.64690469  0.57779343  1
  O  O119  1  0.15161508  0.51172943  0.57763643  1
  O  O120  1  0.30874184  0.83481013  0.25427774  1
  O  O121  1  0.52747349  0.69237584  0.25392962  1
  O  O122  1  0.16306057  0.47144773  0.25358580  1
  O  O123  1  0.30640457  0.47722555  0.75414586  1
  O  O124  1  0.16224215  0.69433451  0.75420056  1
  O  O125  1  0.51912539  0.83199995  0.75443971  1
