# generated using pymatgen
data_Na5NbGa3SiP5O24
_symmetry_space_group_name_H-M   'P 1'
_cell_length_a   8.76498160
_cell_length_b   8.76552073
_cell_length_c   22.01939961
_cell_angle_alpha   90.04507383
_cell_angle_beta   90.17104553
_cell_angle_gamma   119.87153668
_symmetry_Int_Tables_number   1
_chemical_formula_structural   Na5NbGa3SiP5O24
_chemical_formula_sum   'Na15 Nb3 Ga9 Si3 P15 O72'
_cell_volume   1466.97306034
_cell_formula_units_Z   3
loop_
 _symmetry_equiv_pos_site_id
 _symmetry_equiv_pos_as_xyz
  1  'x, y, z'
loop_
 _atom_site_type_symbol
 _atom_site_label
 _atom_site_symmetry_multiplicity
 _atom_site_fract_x
 _atom_site_fract_y
 _atom_site_fract_z
 _atom_site_occupancy
  Na  Na0  1  0.63391636  0.99931320  0.25116522  1
  Na  Na1  1  0.36587109  0.36582343  0.25019044  1
  Na  Na2  1  0.00090786  0.63416780  0.25059557  1
  Na  Na3  1  0.30322830  0.33741025  0.58727126  1
  Na  Na4  1  0.03449012  0.70271801  0.58521883  1
  Na  Na5  1  0.66661342  0.96550161  0.58531928  1
  Na  Na6  1  0.29807808  0.96285693  0.08165742  1
  Na  Na7  1  0.97018472  0.67026609  0.91307012  1
  Na  Na8  1  0.70019794  0.02563288  0.91066772  1
  Na  Na9  1  0.99794179  0.99845478  0.49583293  1
  Na  Na10  1  0.00532898  0.01473172  0.99894588  1
  Na  Na11  1  0.65534061  0.33062388  0.82429569  1
  Na  Na12  1  0.66713845  0.33188827  0.33271751  1
  Na  Na13  1  0.33400201  0.65582165  0.16236619  1
  Na  Na14  1  0.33761818  0.66653449  0.66553341  1
  Nb  Nb15  1  0.66506167  0.33176243  0.97954160  1
  Nb  Nb16  1  0.66885036  0.33889831  0.47709399  1
  Nb  Nb17  1  0.33054463  0.66608362  0.80977197  1
  Ga  Ga18  1  0.99885731  0.99905790  0.35274549  1
  Ga  Ga19  1  0.01151564  0.01079239  0.85073720  1
  Ga  Ga20  1  0.99658604  0.99751963  0.65032976  1
  Ga  Ga21  1  0.99504165  0.00010433  0.14783718  1
  Ga  Ga22  1  0.66432811  0.33543623  0.68659873  1
  Ga  Ga23  1  0.66782716  0.33586428  0.18240199  1
  Ga  Ga24  1  0.32724820  0.65855802  0.01838619  1
  Ga  Ga25  1  0.33923883  0.66724787  0.51547059  1
  Ga  Ga26  1  0.33455741  0.66735064  0.31763832  1
  Si  Si27  1  0.66489702  0.62682051  0.58624470  1
  Si  Si28  1  0.05174629  0.37304703  0.91860753  1
  Si  Si29  1  0.32544249  0.95258386  0.91900300  1
  P  P30  1  0.28893113  -0.00019023  0.24964819  1
  P  P31  1  0.71137326  0.71161031  0.25018311  1
  P  P32  1  -0.00001413  0.28802793  0.25002733  1
  P  P33  1  0.29185195  0.28389602  0.74803937  1
  P  P34  1  0.99150559  0.70848317  0.74942802  1
  P  P35  1  0.71413098  0.00729361  0.74899444  1
  P  P36  1  0.95810497  0.33571834  0.58519527  1
  P  P37  1  0.37802873  0.04268885  0.58466098  1
  P  P38  1  0.96179296  0.62935891  0.08673195  1
  P  P39  1  0.66916530  0.03689969  0.08599994  1
  P  P40  1  0.37245424  0.33838933  0.08686726  1
  P  P41  1  0.61882485  0.66823356  0.91816689  1
  P  P42  1  0.62790760  0.95400035  0.41550440  1
  P  P43  1  0.32362603  0.37165631  0.41535869  1
  P  P44  1  0.05021716  0.67484616  0.41584858  1
  O  O45  1  0.20519295  0.03812588  0.30440901  1
  O  O46  1  0.83113118  0.79089250  0.30609020  1
  O  O47  1  0.95951634  0.16899946  0.30589619  1
  O  O48  1  0.20420200  0.17506183  0.80450545  1
  O  O49  1  0.97164449  0.79484726  0.80730938  1
  O  O50  1  0.81958843  0.02559000  0.80727009  1
  O  O51  1  0.79217729  0.97561677  0.69041011  1
  O  O52  1  0.18260879  0.20836279  0.68874169  1
  O  O53  1  0.02515024  0.81853978  0.69093574  1
  O  O54  1  0.78952366  0.82997313  0.19402864  1
  O  O55  1  0.04048516  0.20934562  0.19381053  1
  O  O56  1  0.17608272  0.96340564  0.19122085  1
  O  O57  1  0.87392364  0.37086974  0.63987141  1
  O  O58  1  0.49999439  0.12096388  0.63946530  1
  O  O59  1  0.61886936  0.49163261  0.64128890  1
  O  O60  1  0.87385288  0.51678679  0.14418190  1
  O  O61  1  0.63477470  0.12420331  0.14242319  1
  O  O62  1  0.48193867  0.36022243  0.14564724  1
  O  O63  1  0.47130694  0.30972761  0.03157362  1
  O  O64  1  0.84597145  0.53487246  0.02917896  1
  O  O65  1  0.68973854  0.15495167  0.02841506  1
  O  O66  1  0.46893998  0.16329771  0.52777978  1
  O  O67  1  0.70035556  0.53121742  0.52610293  1
  O  O68  1  0.83688337  0.30120007  0.52775428  1
  O  O69  1  0.54009138  0.70604875  0.97355807  1
  O  O70  1  0.16571286  0.45813266  0.97798206  1
  O  O71  1  0.29622827  0.83878943  0.97992831  1
  O  O72  1  0.54268853  0.84716905  0.47360398  1
  O  O73  1  0.30261668  0.45705983  0.47364810  1
  O  O74  1  0.15634861  0.69398222  0.47416902  1
  O  O75  1  0.12709549  0.64059476  0.35762827  1
  O  O76  1  0.51503106  0.87527051  0.35728597  1
  O  O77  1  0.35940837  0.48434752  0.35739131  1
  O  O78  1  0.13624716  0.50345626  0.85949677  1
  O  O79  1  0.37249498  0.86436529  0.86099452  1
  O  O80  1  0.50347220  0.63221503  0.86065406  1
  O  O81  1  0.02531932  0.83473933  0.41097854  1
  O  O82  1  0.81122737  0.97498095  0.41041983  1
  O  O83  1  0.16400660  0.18803444  0.40996924  1
  O  O84  1  0.00608454  0.17335632  0.90974455  1
  O  O85  1  0.15240164  0.96775752  0.90956934  1
  O  O86  1  0.80433312  0.82477780  0.90988231  1
  O  O87  1  0.97800996  0.17005270  0.58869354  1
  O  O88  1  0.19620917  0.03061324  0.58855860  1
  O  O89  1  0.84335987  0.82041404  0.58944230  1
  O  O90  1  0.97880716  0.81354491  0.08916536  1
  O  O91  1  0.83786335  0.02752046  0.08929917  1
  O  O92  1  0.19354395  0.16473351  0.08875489  1
  O  O93  1  0.69134829  0.16953776  0.74444275  1
  O  O94  1  0.47539378  0.30441243  0.74420499  1
  O  O95  1  0.83250274  0.52264333  0.74510822  1
  O  O96  1  0.68926987  0.52240670  0.24415673  1
  O  O97  1  0.83324309  0.31098254  0.24330068  1
  O  O98  1  0.47856563  0.16573640  0.24430551  1
  O  O99  1  0.64029219  0.50143597  0.92489348  1
  O  O100  1  0.85427972  0.36228852  0.92457709  1
  O  O101  1  0.50717117  0.14793921  0.92415670  1
  O  O102  1  0.64524492  0.14172465  0.42212766  1
  O  O103  1  0.49499493  0.35355887  0.42216972  1
  O  O104  1  0.86157601  0.50232095  0.42198242  1
  O  O105  1  0.35901602  0.50301838  0.07986564  1
  O  O106  1  0.14642192  0.65085582  0.08232412  1
  O  O107  1  0.50125690  0.85753546  0.07926415  1
  O  O108  1  0.35173247  0.85540632  0.57582483  1
  O  O109  1  0.49104128  0.64880711  0.57652592  1
  O  O110  1  0.14151478  0.50158605  0.57657048  1
  O  O111  1  0.31078320  0.83327598  0.25619759  1
  O  O112  1  0.52222228  0.68806507  0.25664948  1
  O  O113  1  0.16534042  0.47692084  0.25679089  1
  O  O114  1  0.31125822  0.47353472  0.75446765  1
  O  O115  1  0.16475340  0.69237148  0.75513273  1
  O  O116  1  0.52585509  0.83585417  0.75458790  1
