# generated using pymatgen
data_Na3ZrSi2SnPO12
_symmetry_space_group_name_H-M   'P 1'
_cell_length_a   9.11839198
_cell_length_b   9.12421958
_cell_length_c   22.80168856
_cell_angle_alpha   89.92830251
_cell_angle_beta   90.08746981
_cell_angle_gamma   120.02270617
_symmetry_Int_Tables_number   1
_chemical_formula_structural   Na3ZrSi2SnPO12
_chemical_formula_sum   'Na18 Zr6 Si12 Sn6 P6 O72'
_cell_volume   1642.52368016
_cell_formula_units_Z   6
loop_
 _symmetry_equiv_pos_site_id
 _symmetry_equiv_pos_as_xyz
  1  'x, y, z'
loop_
 _atom_site_type_symbol
 _atom_site_label
 _atom_site_symmetry_multiplicity
 _atom_site_fract_x
 _atom_site_fract_y
 _atom_site_fract_z
 _atom_site_occupancy
  Na  Na0  1  0.99828416  0.99136844  0.50051894  1
  Na  Na1  1  0.00903466  0.00303988  0.99962864  1
  Na  Na2  1  0.66424712  0.32435553  0.83458646  1
  Na  Na3  1  0.67431606  0.33595662  0.33284764  1
  Na  Na4  1  0.33014670  0.65872484  0.16689643  1
  Na  Na5  1  0.34196426  0.66881858  0.66804469  1
  Na  Na6  1  0.63950879  0.00061398  0.25097889  1
  Na  Na7  1  0.99837206  0.63235921  0.25156875  1
  Na  Na8  1  0.99686618  0.35937168  0.75182747  1
  Na  Na9  1  0.36925827  0.00164951  0.75300888  1
  Na  Na10  1  0.30705939  0.33513485  0.58439090  1
  Na  Na11  1  0.66487060  0.96492831  0.58534857  1
  Na  Na12  1  0.66586066  0.69426020  0.08418713  1
  Na  Na13  1  0.03683742  0.33567338  0.08435063  1
  Na  Na14  1  0.97214171  0.66783563  0.91813289  1
  Na  Na15  1  0.33183103  0.29708200  0.91859872  1
  Na  Na16  1  0.33189822  0.02774868  0.41740450  1
  Na  Na17  1  0.70205723  0.66731795  0.41828434  1
  Zr  Zr18  1  0.99273976  0.00183365  0.35106138  1
  Zr  Zr19  1  0.99661997  0.99342905  0.64927514  1
  Zr  Zr20  1  0.00695020  0.00232857  0.14753942  1
  Zr  Zr21  1  0.65931194  0.33477265  0.68680446  1
  Zr  Zr22  1  0.67513530  0.33628587  0.48059254  1
  Zr  Zr23  1  0.33093700  0.67292272  0.51904826  1
  Si  Si24  1  0.69998739  0.70119670  0.24934976  1
  Si  Si25  1  0.00039495  0.29875341  0.24744046  1
  Si  Si26  1  0.29202379  0.29673606  0.75205580  1
  Si  Si27  1  0.70374066  0.99506500  0.75108985  1
  Si  Si28  1  0.37135010  0.04024864  0.58295499  1
  Si  Si29  1  0.66807476  0.62945473  0.58147985  1
  Si  Si30  1  0.95890607  0.62374579  0.08183325  1
  Si  Si31  1  0.37664811  0.33524393  0.08021208  1
  Si  Si32  1  0.03904544  0.37303328  0.91665752  1
  Si  Si33  1  0.33488544  0.95976193  0.91524260  1
  Si  Si34  1  0.62409489  0.95884203  0.41507477  1
  Si  Si35  1  0.03975225  0.66621483  0.41312478  1
  Sn  Sn36  1  0.99964845  0.00501134  0.85285588  1
  Sn  Sn37  1  0.66552207  0.33874817  0.18420469  1
  Sn  Sn38  1  0.66452140  0.32634735  0.98080005  1
  Sn  Sn39  1  0.32840487  0.66747596  0.01806981  1
  Sn  Sn40  1  0.33023687  0.65907283  0.31452579  1
  Sn  Sn41  1  0.33841610  0.66907375  0.81607998  1
  P  P42  1  0.29759646  0.00198925  0.25108195  1
  P  P43  1  0.00139103  0.70802737  0.75366804  1
  P  P44  1  0.96026022  0.33315527  0.58565227  1
  P  P45  1  0.66308200  0.04034538  0.08382889  1
  P  P46  1  0.62669948  0.66825720  0.91796949  1
  P  P47  1  0.33331772  0.37417341  0.41743253  1
  O  O48  1  0.21893995  0.02851406  0.30683003  1
  O  O49  1  0.82293951  0.78972664  0.30690430  1
  O  O50  1  0.96732757  0.17355906  0.30338736  1
  O  O51  1  0.21327896  0.17312487  0.80983974  1
  O  O52  1  0.97141764  0.78405537  0.80994731  1
  O  O53  1  0.83125862  0.03518046  0.80687541  1
  O  O54  1  0.78811277  0.96913070  0.69154668  1
  O  O55  1  0.17346347  0.20974062  0.69382209  1
  O  O56  1  0.03040519  0.82477669  0.70046324  1
  O  O57  1  0.79060623  0.82326786  0.19217008  1
  O  O58  1  0.02706749  0.21121821  0.18923256  1
  O  O59  1  0.17981071  0.97288195  0.19802504  1
  O  O60  1  0.88080754  0.35882757  0.64128853  1
  O  O61  1  0.49226026  0.12722043  0.64089846  1
  O  O62  1  0.63908839  0.50485820  0.63723399  1
  O  O63  1  0.88032171  0.50322000  0.14070209  1
  O  O64  1  0.63229539  0.11560739  0.14061884  1
  O  O65  1  0.50049281  0.37455900  0.13739622  1
  O  O66  1  0.45571533  0.30311719  0.02078694  1
  O  O67  1  0.83781442  0.53988998  0.02384987  1
  O  O68  1  0.70114688  0.15755340  0.03048552  1
  O  O69  1  0.46154897  0.15770755  0.52503450  1
  O  O70  1  0.69294541  0.54280074  0.52255067  1
  O  O71  1  0.84507916  0.30482880  0.53189481  1
  O  O72  1  0.55121645  0.69920205  0.97450931  1
  O  O73  1  0.16140799  0.45303769  0.97482857  1
  O  O74  1  0.29490381  0.83423316  0.97164046  1
  O  O75  1  0.53940542  0.83897631  0.47320546  1
  O  O76  1  0.30671019  0.45313393  0.47316669  1
  O  O77  1  0.16311971  0.69637106  0.46928289  1
  O  O78  1  0.12101724  0.63635884  0.35355107  1
  O  O79  1  0.50434256  0.87348292  0.35681075  1
  O  O80  1  0.36962784  0.49092360  0.36332994  1
  O  O81  1  0.12172240  0.49425305  0.85837140  1
  O  O82  1  0.36547629  0.88071506  0.85536207  1
  O  O83  1  0.50905344  0.63175064  0.86452865  1
  O  O84  1  0.02959507  0.84148978  0.41057017  1
  O  O85  1  0.80868413  0.96953717  0.41092309  1
  O  O86  1  0.17991340  0.19404652  0.41023260  1
  O  O87  1  0.02891993  0.18802866  0.91232015  1
  O  O88  1  0.15735092  0.97054509  0.91131073  1
  O  O89  1  0.80855800  0.82234211  0.91100460  1
  O  O90  1  0.97432419  0.17086167  0.58892684  1
  O  O91  1  0.18988153  0.03300377  0.58893227  1
  O  O92  1  0.82860848  0.82136070  0.58689892  1
  O  O93  1  0.96716204  0.80653291  0.08849128  1
  O  O94  1  0.82399686  0.02330648  0.08930466  1
  O  O95  1  0.18346817  0.17535877  0.08689109  1
  O  O96  1  0.69141462  0.16945702  0.74626025  1
  O  O97  1  0.47714739  0.30906979  0.74628167  1
  O  O98  1  0.84925905  0.52749150  0.74588288  1
  O  O99  1  0.69312372  0.51802933  0.24537898  1
  O  O100  1  0.82188433  0.30587533  0.24365504  1
  O  O101  1  0.47880703  0.15651371  0.24330697  1
  O  O102  1  0.64278384  0.50595776  0.92191378  1
  O  O103  1  0.85548713  0.36649317  0.92239946  1
  O  O104  1  0.49642707  0.15384907  0.92070057  1
  O  O105  1  0.63344142  0.14131407  0.42080154  1
  O  O106  1  0.49448352  0.35768630  0.42171374  1
  O  O107  1  0.84774091  0.50564823  0.41881703  1
  O  O108  1  0.36656931  0.51301111  0.07651604  1
  O  O109  1  0.14473286  0.63494310  0.07770013  1
  O  O110  1  0.50885405  0.85858623  0.07658526  1
  O  O111  1  0.36135276  0.85625937  0.57911160  1
  O  O112  1  0.49250203  0.63880480  0.57897982  1
  O  O113  1  0.14078511  0.48558943  0.57825874  1
  O  O114  1  0.31167566  0.83883890  0.25400072  1
  O  O115  1  0.51834677  0.69697998  0.25551379  1
  O  O116  1  0.16287265  0.49091958  0.25336470  1
  O  O117  1  0.29742373  0.47896611  0.75752467  1
  O  O118  1  0.16530618  0.69542974  0.75612885  1
  O  O119  1  0.51071917  0.83228230  0.75541511  1
