# generated using pymatgen
data_NaNbIn3P3(SO8)3
_symmetry_space_group_name_H-M   'P 1'
_cell_length_a   8.87118983
_cell_length_b   8.84488385
_cell_length_c   23.21333244
_cell_angle_alpha   90.35319265
_cell_angle_beta   90.06505696
_cell_angle_gamma   120.11644877
_symmetry_Int_Tables_number   1
_chemical_formula_structural   NaNbIn3P3(SO8)3
_chemical_formula_sum   'Na3 Nb3 In9 P9 S9 O72'
_cell_volume   1575.49810209
_cell_formula_units_Z   3
loop_
 _symmetry_equiv_pos_site_id
 _symmetry_equiv_pos_as_xyz
  1  'x, y, z'
loop_
 _atom_site_type_symbol
 _atom_site_label
 _atom_site_symmetry_multiplicity
 _atom_site_fract_x
 _atom_site_fract_y
 _atom_site_fract_z
 _atom_site_occupancy
  Na  Na0  1  0.00092261  0.01790475  0.99969775  1
  Na  Na1  1  0.68437796  0.34295193  0.83438559  1
  Na  Na2  1  0.66322189  0.34219159  0.33733461  1
  Nb  Nb3  1  0.00221520  0.99356512  0.64523273  1
  Nb  Nb4  1  0.65938038  0.33253554  0.18269520  1
  Nb  Nb5  1  0.32961325  0.65562761  0.52219442  1
  In  In6  1  0.99822572  0.99846487  0.35562637  1
  In  In7  1  0.99936132  0.00393589  0.85277247  1
  In  In8  1  0.99560685  0.00289655  0.14881567  1
  In  In9  1  0.67122274  0.33768744  0.68098640  1
  In  In10  1  0.66838813  0.32860856  0.98045778  1
  In  In11  1  0.66334010  0.33371921  0.48635737  1
  In  In12  1  0.33457702  0.65999763  0.02322393  1
  In  In13  1  0.34289864  0.66376276  0.31269280  1
  In  In14  1  0.31868110  0.66165936  0.81105962  1
  P  P15  1  0.71311033  0.70806454  0.25032743  1
  P  P16  1  0.99549041  0.70853715  0.75114725  1
  P  P17  1  0.95662248  0.32756426  0.58334989  1
  P  P18  1  0.37509424  0.03806153  0.58330934  1
  P  P19  1  0.66625304  0.62666169  0.58333419  1
  P  P20  1  0.66647054  0.03998053  0.08163337  1
  P  P21  1  0.37101252  0.32773977  0.08107989  1
  P  P22  1  0.03898373  0.37333043  0.91693122  1
  P  P23  1  0.33608474  0.37347513  0.41561386  1
  S  S24  1  0.29642423  0.00217913  0.25018862  1
  S  S25  1  0.99412525  0.29565893  0.25053056  1
  S  S26  1  0.29415417  0.28965741  0.74912424  1
  S  S27  1  0.70807136  0.00047802  0.74939386  1
  S  S28  1  0.95663622  0.62515980  0.08371066  1
  S  S29  1  0.62613822  0.66623326  0.91574029  1
  S  S30  1  0.33255602  0.95910557  0.91670677  1
  S  S31  1  0.62033988  0.95815417  0.41751603  1
  S  S32  1  0.04483419  0.66335424  0.41632486  1
  O  O33  1  0.22748325  0.04449346  0.30196442  1
  O  O34  1  0.82728262  0.77812329  0.30523380  1
  O  O35  1  0.95773583  0.18571864  0.30216472  1
  O  O36  1  0.21769131  0.18789069  0.80177754  1
  O  O37  1  0.96792681  0.79231111  0.80473272  1
  O  O38  1  0.81383398  0.03420137  0.80217016  1
  O  O39  1  0.80265144  0.98605628  0.69785200  1
  O  O40  1  0.18201050  0.19560166  0.69753169  1
  O  O41  1  0.00795872  0.82568667  0.69687539  1
  O  O42  1  0.79574059  0.81621410  0.19689010  1
  O  O43  1  0.02757654  0.22066942  0.19890742  1
  O  O44  1  0.19291597  0.97668015  0.19801690  1
  O  O45  1  0.89297762  0.38017174  0.63601133  1
  O  O46  1  0.48882290  0.10681738  0.63674238  1
  O  O47  1  0.61669978  0.51191332  0.63592868  1
  O  O48  1  0.86046315  0.51455152  0.13595244  1
  O  O49  1  0.65411867  0.14695529  0.13654655  1
  O  O50  1  0.49160598  0.34610489  0.13671904  1
  O  O51  1  0.45468721  0.29988590  0.02821829  1
  O  O52  1  0.85121917  0.55127248  0.03152212  1
  O  O53  1  0.70309771  0.15343285  0.02883087  1
  O  O54  1  0.43994392  0.15271115  0.53051914  1
  O  O55  1  0.71605966  0.56303958  0.52994283  1
  O  O56  1  0.84443325  0.28356105  0.52952088  1
  O  O57  1  0.54860848  0.69197363  0.96846575  1
  O  O58  1  0.14582274  0.45693938  0.97213046  1
  O  O59  1  0.31503587  0.85882741  0.96914238  1
  O  O60  1  0.52633331  0.84983096  0.46850732  1
  O  O61  1  0.32126083  0.47737897  0.46982583  1
  O  O62  1  0.15261971  0.67885289  0.46834660  1
  O  O63  1  0.12372425  0.64042587  0.36350202  1
  O  O64  1  0.51648733  0.88575919  0.36423063  1
  O  O65  1  0.36554630  0.48392675  0.36219706  1
  O  O66  1  0.12010685  0.47592195  0.86122380  1
  O  O67  1  0.35741894  0.88028111  0.86373192  1
  O  O68  1  0.52507218  0.64730287  0.86270339  1
  O  O69  1  0.03538298  0.82488394  0.41456708  1
  O  O70  1  0.78873263  0.96330052  0.41412041  1
  O  O71  1  0.16451028  0.19852603  0.41277492  1
  O  O72  1  0.01934937  0.18776348  0.91361770  1
  O  O73  1  0.17275104  0.97381780  0.91298275  1
  O  O74  1  0.80450313  0.82229133  0.91285417  1
  O  O75  1  0.98861601  0.17453061  0.59809801  1
  O  O76  1  0.18827703  0.00939403  0.59765535  1
  O  O77  1  0.82220275  0.81375177  0.59726634  1
  O  O78  1  0.97792931  0.80012255  0.09121231  1
  O  O79  1  0.82709005  0.01998631  0.08974580  1
  O  O80  1  0.19496453  0.16232304  0.09100279  1
  O  O81  1  0.68540503  0.15461536  0.74302763  1
  O  O82  1  0.46648243  0.30410712  0.74247433  1
  O  O83  1  0.83253128  0.52696137  0.74381052  1
  O  O84  1  0.69152152  0.51928647  0.23871901  1
  O  O85  1  0.83397498  0.31120093  0.24132045  1
  O  O86  1  0.47735002  0.16228319  0.24180256  1
  O  O87  1  0.64142109  0.50633762  0.91957335  1
  O  O88  1  0.85522926  0.35479845  0.91939630  1
  O  O89  1  0.48726288  0.13824065  0.91905506  1
  O  O90  1  0.64483465  0.13603923  0.42336998  1
  O  O91  1  0.49904250  0.35587365  0.42315047  1
  O  O92  1  0.87010732  0.50535837  0.42188660  1
  O  O93  1  0.36610878  0.49627326  0.08191632  1
  O  O94  1  0.12314019  0.62979631  0.08238162  1
  O  O95  1  0.49415255  0.86864070  0.08002488  1
  O  O96  1  0.34368824  0.85186083  0.56809678  1
  O  O97  1  0.51017118  0.65721324  0.56922612  1
  O  O98  1  0.14401335  0.48742380  0.56906378  1
  O  O99  1  0.31905481  0.85076506  0.25787356  1
  O  O100  1  0.53032836  0.67996563  0.25674791  1
  O  O101  1  0.14205902  0.47326638  0.25782612  1
  O  O102  1  0.30661754  0.46142989  0.75135415  1
  O  O103  1  0.16685700  0.70720839  0.75131775  1
  O  O104  1  0.54026307  0.83663932  0.75327950  1
