# generated using pymatgen
data_MgGe3P2(SO6)4
_symmetry_space_group_name_H-M   'P 1'
_cell_length_a   8.38852929
_cell_length_b   8.39796783
_cell_length_c   21.75376604
_cell_angle_alpha   89.76959093
_cell_angle_beta   89.87815118
_cell_angle_gamma   120.07918243
_symmetry_Int_Tables_number   1
_chemical_formula_structural   MgGe3P2(SO6)4
_chemical_formula_sum   'Mg3 Ge9 P6 S12 O72'
_cell_volume   1326.07948099
_cell_formula_units_Z   3
loop_
 _symmetry_equiv_pos_site_id
 _symmetry_equiv_pos_as_xyz
  1  'x, y, z'
loop_
 _atom_site_type_symbol
 _atom_site_label
 _atom_site_symmetry_multiplicity
 _atom_site_fract_x
 _atom_site_fract_y
 _atom_site_fract_z
 _atom_site_occupancy
  Mg  Mg0  1  0.99591220  0.99973575  0.35574740  1
  Mg  Mg1  1  0.67113860  0.33483454  0.68798915  1
  Mg  Mg2  1  0.66401032  0.33433446  0.18654415  1
  Ge  Ge3  1  0.00122261  0.00057390  0.86042088  1
  Ge  Ge4  1  0.99873069  0.00595718  0.64560508  1
  Ge  Ge5  1  0.00731817  0.00679143  0.14600949  1
  Ge  Ge6  1  0.65766543  0.33078754  0.97789860  1
  Ge  Ge7  1  0.67239160  0.32379634  0.47915756  1
  Ge  Ge8  1  0.33336180  0.66047013  0.01896014  1
  Ge  Ge9  1  0.33319148  0.66468673  0.51936720  1
  Ge  Ge10  1  0.34087353  0.67548639  0.31117216  1
  Ge  Ge11  1  0.33293396  0.66712379  0.81862630  1
  P  P12  1  0.96056160  0.33656350  0.58384480  1
  P  P13  1  0.37678652  0.33570981  0.08349025  1
  P  P14  1  0.62132269  0.66513587  0.91686755  1
  P  P15  1  0.04088107  0.37786630  0.91733652  1
  P  P16  1  0.33495272  0.95448264  0.91760289  1
  P  P17  1  0.61986449  0.95377972  0.41754999  1
  S  S18  1  0.28952497  -0.00004069  0.25155322  1
  S  S19  1  0.71204369  0.71077041  0.25082941  1
  S  S20  1  0.00106702  0.29252872  0.25154806  1
  S  S21  1  0.28797803  0.29078844  0.75149222  1
  S  S22  1  0.00286971  0.71418892  0.75124769  1
  S  S23  1  0.70943542  0.99680263  0.75182010  1
  S  S24  1  0.37501089  0.04068650  0.58393991  1
  S  S25  1  0.66611017  0.62322528  0.58320229  1
  S  S26  1  0.95903005  0.62489478  0.08310602  1
  S  S27  1  0.66499145  0.04026362  0.08331041  1
  S  S28  1  0.33661429  0.37813673  0.41739282  1
  S  S29  1  0.04390517  0.66571914  0.41705168  1
  O  O30  1  0.20558323  0.02696521  0.30524126  1
  O  O31  1  0.82191656  0.79324805  0.30453812  1
  O  O32  1  0.97237573  0.18013842  0.30506792  1
  O  O33  1  0.20261319  0.16969323  0.80608525  1
  O  O34  1  0.96809953  0.79887085  0.80589429  1
  O  O35  1  0.83010124  0.03208821  0.80587343  1
  O  O36  1  0.78841559  0.95671505  0.69478261  1
  O  O37  1  0.16957464  0.21111331  0.69472521  1
  O  O38  1  0.04202993  0.83370071  0.69387561  1
  O  O39  1  0.78881148  0.83084008  0.19318737  1
  O  O40  1  0.04287815  0.21579914  0.19418433  1
  O  O41  1  0.17073815  0.95686727  0.19427093  1
  O  O42  1  0.88027313  0.37223954  0.63943208  1
  O  O43  1  0.48674170  0.11908803  0.63779126  1
  O  O44  1  0.62990646  0.51123563  0.63761459  1
  O  O45  1  0.88257775  0.51220200  0.13759213  1
  O  O46  1  0.63224778  0.11852356  0.13765214  1
  O  O47  1  0.49206755  0.37099788  0.13926292  1
  O  O48  1  0.45796773  0.29461830  0.02450160  1
  O  O49  1  0.84388776  0.54726269  0.02678338  1
  O  O50  1  0.70615389  0.15782314  0.02677677  1
  O  O51  1  0.45077159  0.15837033  0.52715208  1
  O  O52  1  0.70313859  0.54553073  0.52650254  1
  O  O53  1  0.83863240  0.29532600  0.52497735  1
  O  O54  1  0.54043251  0.70806184  0.97323197  1
  O  O55  1  0.16537920  0.45999330  0.97323740  1
  O  O56  1  0.29453128  0.83068704  0.97428129  1
  O  O57  1  0.52944020  0.83114909  0.47586070  1
  O  O58  1  0.29919120  0.45892285  0.47323620  1
  O  O59  1  0.15934720  0.69871433  0.47309557  1
  O  O60  1  0.12124397  0.62222753  0.36182819  1
  O  O61  1  0.49191909  0.87016700  0.36024119  1
  O  O62  1  0.37550453  0.49780081  0.36178967  1
  O  O63  1  0.12293576  0.49782616  0.85817869  1
  O  O64  1  0.37364724  0.87502019  0.85837813  1
  O  O65  1  0.50150132  0.62610633  0.85818855  1
  O  O66  1  0.02732848  0.82615666  0.41022314  1
  O  O67  1  0.80396311  0.97336471  0.41066958  1
  O  O68  1  0.17693263  0.20001485  0.41049301  1
  O  O69  1  0.02508887  0.18958109  0.90678619  1
  O  O70  1  0.16385991  0.97308166  0.90723178  1
  O  O71  1  0.81072059  0.83706411  0.90673940  1
  O  O72  1  0.98094356  0.16179938  0.59117618  1
  O  O73  1  0.18793835  0.02043237  0.59055298  1
  O  O74  1  0.83367487  0.80988206  0.59020644  1
  O  O75  1  0.97689607  0.81051436  0.09034607  1
  O  O76  1  0.83173872  0.02002095  0.09033095  1
  O  O77  1  0.18085355  0.16087642  0.09101204  1
  O  O78  1  0.69145044  0.15681830  0.74363462  1
  O  O79  1  0.46565549  0.30711001  0.74291127  1
  O  O80  1  0.84123347  0.53654634  0.74385495  1
  O  O81  1  0.68966046  0.53082321  0.24214342  1
  O  O82  1  0.84277454  0.31344367  0.24138115  1
  O  O83  1  0.47058201  0.15650503  0.24226872  1
  O  O84  1  0.64401899  0.49744062  0.92527927  1
  O  O85  1  0.85136892  0.35737120  0.92706915  1
  O  O86  1  0.50489818  0.14410979  0.92515635  1
  O  O87  1  0.63148256  0.14387769  0.42565518  1
  O  O88  1  0.50706472  0.36692751  0.42635496  1
  O  O89  1  0.85876721  0.49749699  0.42507727  1
  O  O90  1  0.35418639  0.50550697  0.07254506  1
  O  O91  1  0.14418699  0.64591578  0.07412699  1
  O  O92  1  0.49944260  0.85718831  0.07419451  1
  O  O93  1  0.35508108  0.85702461  0.57466559  1
  O  O94  1  0.50158202  0.64394000  0.57470032  1
  O  O95  1  0.15345408  0.50681192  0.57172873  1
  O  O96  1  0.30296308  0.82669067  0.25671961  1
  O  O97  1  0.52324191  0.69335736  0.25664415  1
  O  O98  1  0.17312406  0.48036906  0.25824983  1
  O  O99  1  0.30193919  0.47361166  0.75803808  1
  O  O100  1  0.17186765  0.69940305  0.75770001  1
  O  O101  1  0.52575769  0.82690730  0.75813636  1
