# generated using pymatgen
data_MgV4O5F7
_symmetry_space_group_name_H-M   'P 1'
_cell_length_a   5.04871872
_cell_length_b   7.73124818
_cell_length_c   5.36946429
_cell_angle_alpha   93.53301370
_cell_angle_beta   90.05140814
_cell_angle_gamma   90.78039185
_symmetry_Int_Tables_number   1
_chemical_formula_structural   MgV4O5F7
_chemical_formula_sum   'Mg1 V4 O5 F7'
_cell_volume   209.16770204
_cell_formula_units_Z   1
loop_
 _symmetry_equiv_pos_site_id
 _symmetry_equiv_pos_as_xyz
  1  'x, y, z'
loop_
 _atom_site_type_symbol
 _atom_site_label
 _atom_site_symmetry_multiplicity
 _atom_site_fract_x
 _atom_site_fract_y
 _atom_site_fract_z
 _atom_site_occupancy
  Mg  Mg0  1  0.01511700  0.21318700  0.59502300  1
  V  V1  1  0.50534700  0.50980100  0.48672000  1
  V  V2  1  0.50667200  0.99158900  0.49715000  1
  V  V3  1  0.00629300  0.50952500  0.98705900  1
  V  V4  1  0.01744100  0.97304200  0.01513100  1
  O  O5  1  0.77570300  0.54078400  0.29283800  1
  O  O6  1  0.79129100  0.97559000  0.68626100  1
  O  O7  1  0.19928000  0.06033100  0.32757000  1
  O  O8  1  0.19972000  0.44210300  0.67625000  1
  O  O9  1  0.09993300  0.76380600  0.00031700  1
  F  F10  1  0.90544900  0.24509100  0.96724300  1
  F  F11  1  0.67846800  0.94472100  0.17950800  1
  F  F12  1  0.68874100  0.56776800  0.80044500  1
  F  F13  1  0.63791600  0.25212500  0.49198100  1
  F  F14  1  0.38172700  0.75341000  0.50092600  1
  F  F15  1  0.29175500  0.43526100  0.19206900  1
  F  F16  1  0.29914800  0.07186400  0.80350900  1
