# generated using pymatgen
data_Na8ZnSi4Sn3(PO12)2
_symmetry_space_group_name_H-M   'P 1'
_cell_length_a   9.13421024
_cell_length_b   9.13339332
_cell_length_c   22.35284195
_cell_angle_alpha   89.82261590
_cell_angle_beta   90.27745345
_cell_angle_gamma   120.07019414
_symmetry_Int_Tables_number   1
_chemical_formula_structural   Na8ZnSi4Sn3(PO12)2
_chemical_formula_sum   'Na24 Zn3 Si12 Sn9 P6 O72'
_cell_volume   1613.81482250
_cell_formula_units_Z   3
loop_
 _symmetry_equiv_pos_site_id
 _symmetry_equiv_pos_as_xyz
  1  'x, y, z'
loop_
 _atom_site_type_symbol
 _atom_site_label
 _atom_site_symmetry_multiplicity
 _atom_site_fract_x
 _atom_site_fract_y
 _atom_site_fract_z
 _atom_site_occupancy
  Na  Na0  1  0.63800485  0.01362794  0.24370445  1
  Na  Na1  1  0.37639520  0.36302751  0.24504169  1
  Na  Na2  1  0.98656670  0.62356785  0.24507489  1
  Na  Na3  1  0.63711412  0.62498227  0.74713250  1
  Na  Na4  1  0.98408471  0.36617004  0.75007487  1
  Na  Na5  1  0.37921221  0.00833427  0.74610960  1
  Na  Na6  1  0.30986807  0.33457600  0.58482437  1
  Na  Na7  1  0.03013462  0.70004837  0.58465272  1
  Na  Na8  1  0.66319805  0.96839045  0.58853525  1
  Na  Na9  1  0.30591747  0.96987216  0.08259138  1
  Na  Na10  1  0.66386714  0.69397469  0.08259812  1
  Na  Na11  1  0.03015178  0.33610655  0.08252083  1
  Na  Na12  1  0.96532589  0.66535545  0.91722752  1
  Na  Na13  1  0.69973876  0.03488070  0.91714934  1
  Na  Na14  1  0.33484786  0.30111065  0.91864099  1
  Na  Na15  1  0.97132598  0.29432551  0.41385926  1
  Na  Na16  1  0.31889434  0.03392692  0.41619737  1
  Na  Na17  1  0.71047360  0.67355368  0.41429871  1
  Na  Na18  1  0.00461903  0.99778188  0.49627668  1
  Na  Na19  1  0.99979585  0.00002279  -0.00002775  1
  Na  Na20  1  0.67083624  0.33367730  0.82966268  1
  Na  Na21  1  0.66709440  0.33664931  0.32950225  1
  Na  Na22  1  0.33339036  0.66638520  0.16189338  1
  Na  Na23  1  0.33784090  0.67328483  0.66834587  1
  Zn  Zn24  1  0.00734172  0.00072787  0.35137243  1
  Zn  Zn25  1  0.66541746  0.33216482  0.68372236  1
  Zn  Zn26  1  0.66708697  0.33317056  0.17252887  1
  Si  Si27  1  0.00060950  0.70278262  0.75081980  1
  Si  Si28  1  0.70509172  0.00068721  0.75002736  1
  Si  Si29  1  0.37350075  0.03976878  0.58464506  1
  Si  Si30  1  0.66586550  0.62846115  0.58487750  1
  Si  Si31  1  0.96173277  0.62694222  0.08540197  1
  Si  Si32  1  0.66522523  0.03842478  0.08532041  1
  Si  Si33  1  0.37326989  0.33462693  0.08532734  1
  Si  Si34  1  0.62563855  0.66508354  0.91659283  1
  Si  Si35  1  0.03975189  0.37293826  0.91606564  1
  Si  Si36  1  0.33435696  0.96290897  0.91662537  1
  Si  Si37  1  0.33321054  0.37140312  0.41689691  1
  Si  Si38  1  0.03620284  0.66431131  0.41702691  1
  Sn  Sn39  1  0.99577281  0.99691537  0.85233059  1
  Sn  Sn40  1  0.99887410  0.99324716  0.64939784  1
  Sn  Sn41  1  0.99993861  0.99958211  0.14872268  1
  Sn  Sn42  1  0.66709947  0.33375368  0.98285226  1
  Sn  Sn43  1  0.66469185  0.33833271  0.48339078  1
  Sn  Sn44  1  0.33275662  0.66671150  0.01778560  1
  Sn  Sn45  1  0.33284513  0.66729697  0.51766069  1
  Sn  Sn46  1  0.33085762  0.66318056  0.31682353  1
  Sn  Sn47  1  0.33491561  0.67068798  0.81571946  1
  P  P48  1  0.29557448  0.99913706  0.25255834  1
  P  P49  1  0.70546001  0.70812310  0.25311816  1
  P  P50  1  0.00012366  0.29305523  0.25262942  1
  P  P51  1  0.28966298  0.29268093  0.75055199  1
  P  P52  1  0.96089012  0.33293415  0.58365580  1
  P  P53  1  0.62634509  0.96211393  0.41678084  1
  O  O54  1  0.21190431  0.02489048  0.30763761  1
  O  O55  1  0.81541515  0.79368711  0.30834759  1
  O  O56  1  0.97470812  0.18280886  0.30782866  1
  O  O57  1  0.20658814  0.17942370  0.80636167  1
  O  O58  1  0.96789860  0.79108213  0.80932690  1
  O  O59  1  0.82710164  0.03758254  0.80892293  1
  O  O60  1  0.78818981  0.96176300  0.69035517  1
  O  O61  1  0.17522173  0.21463522  0.69352558  1
  O  O62  1  0.04868205  0.82769010  0.69127239  1
  O  O63  1  0.78340537  0.82156958  0.19531071  1
  O  O64  1  0.03658065  0.21469468  0.19532314  1
  O  O65  1  0.17925999  0.96070086  0.19527774  1
  O  O66  1  0.88572248  0.36906539  0.63857196  1
  O  O67  1  0.49268197  0.11556649  0.64239287  1
  O  O68  1  0.62363789  0.50884153  0.64243960  1
  O  O69  1  0.88935820  0.51361073  0.14489480  1
  O  O70  1  0.62437236  0.11073024  0.14465298  1
  O  O71  1  0.48683370  0.37542854  0.14494944  1
  O  O72  1  0.44946268  0.29142916  0.02514146  1
  O  O73  1  0.84187479  0.55082866  0.02498262  1
  O  O74  1  0.70882557  0.15844987  0.02506465  1
  O  O75  1  0.45203489  0.15471984  0.52280140  1
  O  O76  1  0.71132009  0.55501022  0.52394910  1
  O  O77  1  0.84827453  0.29577400  0.52597701  1
  O  O78  1  0.54619552  0.70701809  0.97510129  1
  O  O79  1  0.16010198  0.45199699  0.97525881  1
  O  O80  1  0.29047660  0.84039337  0.97526215  1
  O  O81  1  0.54511649  0.84807516  0.47259075  1
  O  O82  1  0.29926493  0.45833431  0.47547908  1
  O  O83  1  0.15924852  0.70300355  0.47555785  1
  O  O84  1  0.11830985  0.62372322  0.35762903  1
  O  O85  1  0.50959540  0.88406667  0.36046586  1
  O  O86  1  0.38126418  0.49822180  0.35798866  1
  O  O87  1  0.12023265  0.49283988  0.85674397  1
  O  O88  1  0.37656534  0.88487357  0.85751309  1
  O  O89  1  0.50467034  0.62297721  0.85712072  1
  O  O90  1  0.01400157  0.82884354  0.41286190  1
  O  O91  1  0.80094062  0.97892686  0.41152718  1
  O  O92  1  0.16369838  0.18787251  0.41271710  1
  O  O93  1  0.02505732  0.18619183  0.91155526  1
  O  O94  1  0.16508319  0.98210973  0.91117887  1
  O  O95  1  0.81345779  0.83611878  0.91286720  1
  O  O96  1  0.98114157  0.17312984  0.58816231  1
  O  O97  1  0.18512571  0.02765741  0.58755042  1
  O  O98  1  0.83613552  0.82071792  0.58677329  1
  O  O99  1  0.97920779  0.81686567  0.08997424  1
  O  O100  1  0.83747117  0.02067017  0.08989606  1
  O  O101  1  0.18291152  0.16216307  0.08998577  1
  O  O102  1  0.68505620  0.16633336  0.74700313  1
  O  O103  1  0.46432890  0.30957721  0.74693153  1
  O  O104  1  0.83160599  0.51944371  0.74646855  1
  O  O105  1  0.68321880  0.53127918  0.24790747  1
  O  O106  1  0.84555640  0.31560147  0.24727898  1
  O  O107  1  0.47209181  0.15433863  0.24722170  1
  O  O108  1  0.64303738  0.49506422  0.92146878  1
  O  O109  1  0.85251561  0.35615176  0.92128389  1
  O  O110  1  0.50495573  0.14985427  0.92189500  1
  O  O111  1  0.63973260  0.13831800  0.42257916  1
  O  O112  1  0.50693067  0.35696989  0.42043812  1
  O  O113  1  0.85283762  0.48444276  0.42209381  1
  O  O114  1  0.35206275  0.50285319  0.07827279  1
  O  O115  1  0.15092816  0.64797522  0.07826777  1
  O  O116  1  0.49688771  0.84891895  0.07816111  1
  O  O117  1  0.34836823  0.84709106  0.57748383  1
  O  O118  1  0.49568659  0.64882454  0.57692652  1
  O  O119  1  0.14045432  0.49289613  0.57675164  1
  O  O120  1  0.30883989  0.83122492  0.25561374  1
  O  O121  1  0.52514934  0.69758031  0.25510012  1
  O  O122  1  0.16918819  0.47382682  0.25420403  1
  O  O123  1  0.30118508  0.46864695  0.75454881  1
  O  O124  1  0.17504986  0.68921834  0.75412872  1
  O  O125  1  0.52089495  0.82100815  0.75378625  1
