# generated using pymatgen
data_Na5HfSc3(PO4)6
_symmetry_space_group_name_H-M   'P 1'
_cell_length_a   8.98870848
_cell_length_b   8.97104685
_cell_length_c   22.71406685
_cell_angle_alpha   89.94327714
_cell_angle_beta   90.03122797
_cell_angle_gamma   119.99003185
_symmetry_Int_Tables_number   1
_chemical_formula_structural   Na5HfSc3(PO4)6
_chemical_formula_sum   'Na15 Hf3 Sc9 P18 O72'
_cell_volume   1586.38776751
_cell_formula_units_Z   3
loop_
 _symmetry_equiv_pos_site_id
 _symmetry_equiv_pos_as_xyz
  1  'x, y, z'
loop_
 _atom_site_type_symbol
 _atom_site_label
 _atom_site_symmetry_multiplicity
 _atom_site_fract_x
 _atom_site_fract_y
 _atom_site_fract_z
 _atom_site_occupancy
  Na  Na0  1  0.63690811  0.99983897  0.25318909  1
  Na  Na1  1  0.36337394  0.36430274  0.25380519  1
  Na  Na2  1  -0.00029169  0.63664705  0.25339804  1
  Na  Na3  1  0.64383004  0.63702405  0.74840435  1
  Na  Na4  1  0.99597533  0.35839090  0.74870464  1
  Na  Na5  1  0.03210644  0.70047360  0.58147457  1
  Na  Na6  1  0.66545508  0.96638495  0.58117489  1
  Na  Na7  1  0.66522284  0.69967045  0.08159888  1
  Na  Na8  1  0.03313268  0.33166893  0.08163424  1
  Na  Na9  1  0.01135495  0.01236327  0.49535267  1
  Na  Na10  1  0.01091606  0.99909656  0.99451531  1
  Na  Na11  1  0.65465318  0.32048912  0.83305685  1
  Na  Na12  1  0.66685527  0.33355444  0.33773147  1
  Na  Na13  1  0.33255837  0.67769499  0.16520612  1
  Na  Na14  1  0.33316944  0.66518267  0.66245167  1
  Hf  Hf15  1  0.66470695  0.33201452  0.97815376  1
  Hf  Hf16  1  0.66395632  0.33311658  0.47928362  1
  Hf  Hf17  1  0.33365022  0.67246402  0.81718176  1
  Sc  Sc18  1  -0.00091017  0.99901279  0.35497003  1
  Sc  Sc19  1  0.00168104  0.00049055  0.85359422  1
  Sc  Sc20  1  0.00863798  0.00640807  0.64839263  1
  Sc  Sc21  1  0.00577395  0.99938320  0.14765697  1
  Sc  Sc22  1  0.65832877  0.32717511  0.68444449  1
  Sc  Sc23  1  0.66420279  0.33042577  0.18347169  1
  Sc  Sc24  1  0.33291115  0.67232219  0.01588623  1
  Sc  Sc25  1  0.33277820  0.65979183  0.51511866  1
  Sc  Sc26  1  0.33331546  0.66652310  0.32045507  1
  P  P27  1  0.29262524  0.99962132  0.25060315  1
  P  P28  1  0.70665658  0.70706102  0.24884339  1
  P  P29  1  0.00036009  0.29332128  0.24898916  1
  P  P30  1  0.29333001  0.29318303  0.75160374  1
  P  P31  1  0.00111574  0.70730641  0.74919537  1
  P  P32  1  0.70791102  -0.00049866  0.74936602  1
  P  P33  1  0.95909767  0.33362283  0.58475307  1
  P  P34  1  0.37238955  0.03930021  0.58275672  1
  P  P35  1  0.66579938  0.62710824  0.58502670  1
  P  P36  1  0.95974273  0.62587248  0.08383725  1
  P  P37  1  0.66567768  0.03877105  0.08425733  1
  P  P38  1  0.37260588  0.33276117  0.08343780  1
  P  P39  1  0.62854317  0.66819222  0.91759883  1
  P  P40  1  0.03911378  0.37147744  0.91794489  1
  P  P41  1  0.33157611  0.96150568  0.91762287  1
  P  P42  1  0.62965031  0.96222577  0.41724486  1
  P  P43  1  0.33242929  0.36976838  0.41545987  1
  P  P44  1  0.03806558  0.66735686  0.41738731  1
  O  O45  1  0.20930067  0.03130203  0.30412122  1
  O  O46  1  0.82519478  0.79467770  0.30140292  1
  O  O47  1  0.97023808  0.17484321  0.30154552  1
  O  O48  1  0.20806165  0.18494035  0.80603245  1
  O  O49  1  0.97136931  0.79533476  0.80184409  1
  O  O50  1  0.82551538  0.02831824  0.80215205  1
  O  O51  1  0.78436095  0.96620744  0.69283294  1
  O  O52  1  0.17900913  0.21474076  0.69650462  1
  O  O53  1  0.02779049  0.81075729  0.69186501  1
  O  O54  1  0.78576817  0.81482491  0.19187975  1
  O  O55  1  0.02929295  0.21447677  0.19205506  1
  O  O56  1  0.17939062  0.96862837  0.19534398  1
  O  O57  1  0.87796118  0.36130520  0.64120618  1
  O  O58  1  0.48655159  0.12351745  0.63733870  1
  O  O59  1  0.64342121  0.52356306  0.64204649  1
  O  O60  1  0.87828298  0.51720271  0.14034411  1
  O  O61  1  0.64320311  0.11914580  0.14136853  1
  O  O62  1  0.48051004  0.36069781  0.13997231  1
  O  O63  1  0.46801909  0.31370963  0.03001511  1
  O  O64  1  0.83990207  0.53104816  0.03085174  1
  O  O65  1  0.69080814  0.15836712  0.03129699  1
  O  O66  1  0.46262187  0.15073970  0.52818905  1
  O  O67  1  0.69085740  0.53306866  0.53203248  1
  O  O68  1  0.83912043  0.30813594  0.53177584  1
  O  O69  1  0.54159248  0.68780063  0.97328750  1
  O  O70  1  0.14591047  0.45828957  0.97364204  1
  O  O71  1  0.31072755  0.85202930  0.97227221  1
  O  O72  1  0.54102007  0.85444585  0.47268177  1
  O  O73  1  0.31252278  0.46321863  0.46887462  1
  O  O74  1  0.14562673  0.68657137  0.47285390  1
  O  O75  1  0.12021216  0.64063860  0.36096987  1
  O  O76  1  0.52109163  0.87948505  0.36083206  1
  O  O77  1  0.35964500  0.47504176  0.35799951  1
  O  O78  1  0.12825454  0.48518647  0.86244111  1
  O  O79  1  0.35761815  0.87380357  0.86248414  1
  O  O80  1  0.51555682  0.64441134  0.86206152  1
  O  O81  1  0.01745929  0.82680364  0.41204822  1
  O  O82  1  0.80921730  0.98246182  0.41199328  1
  O  O83  1  0.17313604  0.19003585  0.41124963  1
  O  O84  1  0.01884162  0.19249717  0.91162530  1
  O  O85  1  0.17342054  0.98149630  0.91121515  1
  O  O86  1  0.80729726  0.82661056  0.91120185  1
  O  O87  1  0.96961968  0.16701774  0.58896220  1
  O  O88  1  0.19034554  0.01561831  0.58766037  1
  O  O89  1  0.83269659  0.80729608  0.58798530  1
  O  O90  1  0.96971117  0.80257455  0.08767339  1
  O  O91  1  0.83233883  0.02561655  0.08720922  1
  O  O92  1  0.19012072  0.17474250  0.08704799  1
  O  O93  1  0.69000770  0.16170412  0.74381079  1
  O  O94  1  0.47850233  0.32525711  0.74526859  1
  O  O95  1  0.83938411  0.52329017  0.74479640  1
  O  O96  1  0.68502435  0.52347723  0.24365069  1
  O  O97  1  0.83842892  0.31454958  0.24392833  1
  O  O98  1  0.47551245  0.16114204  0.24412899  1
  O  O99  1  0.64203910  0.50175337  0.92204606  1
  O  O100  1  0.85941866  0.35774120  0.92254324  1
  O  O101  1  0.49742736  0.14085430  0.92231922  1
  O  O102  1  0.64682874  0.14377681  0.42298022  1
  O  O103  1  0.49712264  0.35460775  0.42254438  1
  O  O104  1  0.85698049  0.50307009  0.42345915  1
  O  O105  1  0.35657469  0.49737599  0.07773932  1
  O  O106  1  0.13609837  0.63790173  0.07734095  1
  O  O107  1  0.51020534  0.85562174  0.07808948  1
  O  O108  1  0.35520080  0.85810939  0.57734097  1
  O  O109  1  0.51011786  0.65427998  0.57833550  1
  O  O110  1  0.13575033  0.49786837  0.57759387  1
  O  O111  1  0.31363593  0.83810735  0.25637706  1
  O  O112  1  0.52557727  0.68824158  0.25534890  1
  O  O113  1  0.16180313  0.47553660  0.25533136  1
  O  O114  1  0.31150974  0.47785498  0.75762269  1
  O  O115  1  0.15920860  0.67981700  0.75680538  1
  O  O116  1  0.52813232  0.83358002  0.75740569  1
