# generated using pymatgen
data_Na10Mg6Ti2Si3(S3O16)3
_symmetry_space_group_name_H-M   'P 1'
_cell_length_a   17.72433434
_cell_length_b   8.89530024
_cell_length_c   22.29064605
_cell_angle_alpha   90.12771870
_cell_angle_beta   89.95115670
_cell_angle_gamma   120.03289985
_symmetry_Int_Tables_number   1
_chemical_formula_structural   Na10Mg6Ti2Si3(S3O16)3
_chemical_formula_sum   'Na30 Mg18 Ti6 Si9 S27 O144'
_cell_volume   3042.55656254
_cell_formula_units_Z   3
loop_
 _symmetry_equiv_pos_site_id
 _symmetry_equiv_pos_as_xyz
  1  'x, y, z'
loop_
 _atom_site_type_symbol
 _atom_site_label
 _atom_site_symmetry_multiplicity
 _atom_site_fract_x
 _atom_site_fract_y
 _atom_site_fract_z
 _atom_site_occupancy
  Na  Na0  1  0.31587387  0.00069499  0.24865311  1
  Na  Na1  1  0.18662421  0.35908552  0.24964144  1
  Na  Na2  1  0.49698366  0.63567717  0.25261820  1
  Na  Na3  1  0.31092367  0.62040187  0.74231489  1
  Na  Na4  1  0.81559415  0.63213919  0.74752358  1
  Na  Na5  1  0.99989522  0.35560806  0.75291899  1
  Na  Na6  1  0.18317549  0.01352809  0.75298475  1
  Na  Na7  1  0.68777359  0.01548203  0.74963945  1
  Na  Na8  1  0.16114560  0.34777358  0.58617521  1
  Na  Na9  1  0.83008246  0.69857986  0.08359284  1
  Na  Na10  1  0.48343468  0.65808420  0.91819289  1
  Na  Na11  1  0.35238112  0.04012786  0.91678284  1
  Na  Na12  1  0.85344371  0.03881319  0.91939670  1
  Na  Na13  1  0.66015552  0.30070641  0.91649560  1
  Na  Na14  1  0.98172976  0.30601588  0.41711076  1
  Na  Na15  1  0.15975669  0.01872772  0.41560806  1
  Na  Na16  1  0.35341112  0.66800002  0.42056702  1
  Na  Na17  1  0.85167408  0.66427753  0.41610621  1
  Na  Na18  1  0.99547084  0.97733600  0.50031967  1
  Na  Na19  1  0.50348477  0.00211736  0.50029611  1
  Na  Na20  1  0.00828266  0.01590422  0.99975424  1
  Na  Na21  1  0.50155987  0.01346578  0.00111703  1
  Na  Na22  1  0.32915622  0.32884252  0.83374761  1
  Na  Na23  1  0.83461866  0.33356603  0.83001919  1
  Na  Na24  1  0.33450285  0.33364003  0.33018487  1
  Na  Na25  1  0.82981685  0.33139511  0.33302850  1
  Na  Na26  1  0.16291940  0.66592893  0.16312125  1
  Na  Na27  1  0.67487555  0.68503056  0.16266763  1
  Na  Na28  1  0.17354109  0.66893169  0.66172374  1
  Na  Na29  1  0.66432392  0.65953625  0.66224670  1
  Mg  Mg30  1  0.99979297  0.98934101  0.34867279  1
  Mg  Mg31  1  0.50449189  0.00313543  0.35135341  1
  Mg  Mg32  1  0.00495234  0.01073109  0.85061877  1
  Mg  Mg33  1  0.50205377  0.01173087  0.85001159  1
  Mg  Mg34  1  0.33273903  0.34012435  0.68108687  1
  Mg  Mg35  1  0.82932625  0.32769849  0.68337340  1
  Mg  Mg36  1  0.32957182  0.33152349  0.18379051  1
  Mg  Mg37  1  0.83176984  0.32453949  0.18206725  1
  Mg  Mg38  1  0.33104714  0.33021751  0.98194469  1
  Mg  Mg39  1  0.84014969  0.32931273  0.98883295  1
  Mg  Mg40  1  0.34258888  0.34954412  0.48825971  1
  Mg  Mg41  1  0.83037812  0.33262550  0.48167937  1
  Mg  Mg42  1  0.16422779  0.66278678  0.01720887  1
  Mg  Mg43  1  0.66486896  0.66588701  0.02101735  1
  Mg  Mg44  1  0.16986691  0.67942445  0.52017339  1
  Mg  Mg45  1  0.66475617  0.66404533  0.51733118  1
  Mg  Mg46  1  0.67090420  0.66769585  0.31674009  1
  Mg  Mg47  1  0.16479344  0.65635271  0.81706213  1
  Ti  Ti48  1  0.99520382  0.00803433  0.65288803  1
  Ti  Ti49  1  0.50192278  0.01179428  0.64241943  1
  Ti  Ti50  1  0.00034846  0.99796864  0.14570077  1
  Ti  Ti51  1  0.49467758  0.98893174  0.14989936  1
  Ti  Ti52  1  0.15723629  0.67161471  0.30990044  1
  Ti  Ti53  1  0.65887455  0.64385916  0.81069258  1
  Si  Si54  1  0.14507899  0.00421148  0.25114844  1
  Si  Si55  1  0.35272993  0.70350879  0.25466287  1
  Si  Si56  1  0.15079968  0.29646699  0.75196515  1
  Si  Si57  1  0.64491298  0.28598215  0.75112789  1
  Si  Si58  1  0.85132938  0.00137981  0.75528997  1
  Si  Si59  1  0.33309392  0.63317430  0.58319340  1
  Si  Si60  1  0.83033386  0.03599635  0.08306376  1
  Si  Si61  1  0.51816456  0.37004789  0.92010577  1
  Si  Si62  1  0.01773645  0.66641013  0.42020245  1
  S  S63  1  0.64661198  0.00429468  0.25020199  1
  S  S64  1  0.85184585  0.70314067  0.24912710  1
  S  S65  1  0.99663238  0.28744807  0.25180586  1
  S  S66  1  0.50370496  0.29217066  0.24930931  1
  S  S67  1  0.00076648  0.71300855  0.74982340  1
  S  S68  1  0.49965741  0.70967297  0.75118848  1
  S  S69  1  0.35509652  0.00275866  0.74969735  1
  S  S70  1  0.48116162  0.33657071  0.58409353  1
  S  S71  1  0.97784531  0.32957568  0.58353357  1
  S  S72  1  0.18451724  0.03659106  0.58393904  1
  S  S73  1  0.68669768  0.03764250  0.58328960  1
  S  S74  1  0.83435718  0.63073995  0.58342589  1
  S  S75  1  0.47927983  0.62840373  0.08483026  1
  S  S76  1  0.98147759  0.62664306  0.08463911  1
  S  S77  1  0.33425354  0.03746377  0.08381042  1
  S  S78  1  0.18649584  0.33559171  0.08362714  1
  S  S79  1  0.68440526  0.32743116  0.08404742  1
  S  S80  1  0.31206444  0.66475540  0.91661775  1
  S  S81  1  0.81442152  0.66560722  0.91654810  1
  S  S82  1  0.01935727  0.37472121  0.91682555  1
  S  S83  1  0.16418102  0.95503649  0.91703029  1
  S  S84  1  0.66642172  0.95738590  0.91596306  1
  S  S85  1  0.31389003  0.96140747  0.41596803  1
  S  S86  1  0.81087582  0.95808614  0.41679236  1
  S  S87  1  0.16611491  0.37421629  0.41629937  1
  S  S88  1  0.66443654  0.37280666  0.41707634  1
  S  S89  1  0.52119608  0.66601124  0.41550397  1
  O  O90  1  0.10938726  0.04765434  0.31080326  1
  O  O91  1  0.60560914  0.02667691  0.30396684  1
  O  O92  1  0.41424100  0.79596403  0.31092285  1
  O  O93  1  0.90321935  0.78479537  0.30396506  1
  O  O94  1  0.48852517  0.18422061  0.30245629  1
  O  O95  1  0.98600075  0.18920087  0.30720602  1
  O  O96  1  0.10458081  0.16232847  0.80506577  1
  O  O97  1  0.60932170  0.17090990  0.81059453  1
  O  O98  1  0.48450356  0.78343111  0.80668570  1
  O  O99  1  0.98254821  0.78490518  0.80333711  1
  O  O100  1  0.40397201  0.02167723  0.80551359  1
  O  O101  1  0.90958542  0.02959179  0.81325461  1
  O  O102  1  0.39718100  0.96972974  0.69721240  1
  O  O103  1  0.90070325  0.96259796  0.69579532  1
  O  O104  1  0.08215916  0.19147156  0.69097984  1
  O  O105  1  0.58076340  0.18714680  0.69329923  1
  O  O106  1  0.01571414  0.82570694  0.69581987  1
  O  O107  1  0.51453835  0.82354471  0.69877532  1
  O  O108  1  0.40571103  0.84299049  0.19542253  1
  O  O109  1  0.89558985  0.81484810  0.19465343  1
  O  O110  1  0.01262306  0.20353240  0.19894106  1
  O  O111  1  0.51581777  0.20630368  0.19481787  1
  O  O112  1  0.08128135  0.97570517  0.19334230  1
  O  O113  1  0.58726325  0.97620283  0.19621180  1
  O  O114  1  0.43965021  0.35535055  0.63833461  1
  O  O115  1  0.93736631  0.35023590  0.63791946  1
  O  O116  1  0.23706608  0.12009007  0.63835784  1
  O  O117  1  0.73683503  0.11392515  0.63901001  1
  O  O118  1  0.31728426  0.51580104  0.64241929  1
  O  O119  1  0.82416752  0.52772632  0.63797489  1
  O  O120  1  0.43725822  0.52376426  0.13866454  1
  O  O121  1  0.94072268  0.52567433  0.13850985  1
  O  O122  1  0.32453584  0.12044602  0.13832895  1
  O  O123  1  0.81935782  0.12860775  0.14057748  1
  O  O124  1  0.23735972  0.36031918  0.13908710  1
  O  O125  1  0.74171563  0.35887231  0.13575905  1
  O  O126  1  0.22731815  0.30599517  0.03093051  1
  O  O127  1  0.72231299  0.30175953  0.02762234  1
  O  O128  1  0.42583154  0.55469336  0.03004535  1
  O  O129  1  0.92586650  0.55340756  0.03064622  1
  O  O130  1  0.34782732  0.14273401  0.02930923  1
  O  O131  1  0.85324372  0.14098673  0.01997234  1
  O  O132  1  0.22521213  0.14610851  0.52945144  1
  O  O133  1  0.72717159  0.14748372  0.53086270  1
  O  O134  1  0.35275080  0.56069738  0.52151739  1
  O  O135  1  0.84619327  0.54926202  0.52882887  1
  O  O136  1  0.42823306  0.30282003  0.52989832  1
  O  O137  1  0.92562868  0.30284010  0.52912297  1
  O  O138  1  0.27108355  0.69738044  0.96874074  1
  O  O139  1  0.77478864  0.69544095  0.97021354  1
  O  O140  1  0.07326114  0.46363207  0.96922364  1
  O  O141  1  0.58587102  0.46823649  0.97276716  1
  O  O142  1  0.15603195  0.84793378  0.96960002  1
  O  O143  1  0.65583884  0.85095461  0.96873305  1
  O  O144  1  0.27418685  0.84988022  0.46804084  1
  O  O145  1  0.77168535  0.84572907  0.46988797  1
  O  O146  1  0.15582152  0.45734656  0.47031060  1
  O  O147  1  0.65297454  0.45551100  0.47094222  1
  O  O148  1  0.08591132  0.70397657  0.47256187  1
  O  O149  1  0.57391765  0.68401909  0.46823393  1
  O  O150  1  0.07169158  0.64028866  0.35922085  1
  O  O151  1  0.56142411  0.64773857  0.35910733  1
  O  O152  1  0.25890771  0.87829535  0.35996870  1
  O  O153  1  0.75949666  0.87804718  0.36234984  1
  O  O154  1  0.18167399  0.48450668  0.36161507  1
  O  O155  1  0.68048871  0.48333525  0.36324055  1
  O  O156  1  0.05901222  0.47274211  0.86050345  1
  O  O157  1  0.57167102  0.50381062  0.85954914  1
  O  O158  1  0.17985576  0.87917761  0.86111909  1
  O  O159  1  0.68166925  0.88015678  0.86046804  1
  O  O160  1  0.26265077  0.64370432  0.86067041  1
  O  O161  1  0.75833132  0.63994868  0.86136381  1
  O  O162  1  0.00509188  0.83488401  0.41238760  1
  O  O163  1  0.51006141  0.82244673  0.41307691  1
  O  O164  1  0.40180719  0.98253986  0.40869183  1
  O  O165  1  0.90111091  0.98199776  0.41080038  1
  O  O166  1  0.08476837  0.20228764  0.41102937  1
  O  O167  1  0.58647168  0.19787413  0.41015404  1
  O  O168  1  0.00877507  0.19717574  0.91464135  1
  O  O169  1  0.50507528  0.17563679  0.91272327  1
  O  O170  1  0.08540173  0.97042473  0.91257592  1
  O  O171  1  0.58460666  0.96669579  0.91119465  1
  O  O172  1  0.40211843  0.82055824  0.91127876  1
  O  O173  1  0.90166307  0.82029563  0.90943678  1
  O  O174  1  0.49005755  0.17445611  0.58969355  1
  O  O175  1  0.98787411  0.16759562  0.58850302  1
  O  O176  1  0.09648754  0.02635147  0.58923515  1
  O  O177  1  0.59706576  0.02020784  0.58955429  1
  O  O178  1  0.42278403  0.83158904  0.59663072  1
  O  O179  1  0.91556773  0.80703757  0.58908152  1
  O  O180  1  0.48859740  0.80928440  0.09242303  1
  O  O181  1  0.98849672  0.80540132  0.08993293  1
  O  O182  1  0.41666376  0.02371198  0.09012969  1
  O  O183  1  0.92181035  0.01211794  0.09683889  1
  O  O184  1  0.09712789  0.17549696  0.08997772  1
  O  O185  1  0.59610526  0.16772483  0.09213066  1
  O  O186  1  0.34577586  0.15723598  0.74184301  1
  O  O187  1  0.84486398  0.17318770  0.74273011  1
  O  O188  1  0.24669613  0.31575926  0.74489463  1
  O  O189  1  0.74445729  0.32915352  0.74178223  1
  O  O190  1  0.42539658  0.53335086  0.74404142  1
  O  O191  1  0.92508358  0.53617317  0.74037100  1
  O  O192  1  0.34555276  0.51794529  0.24269999  1
  O  O193  1  0.84404441  0.53101518  0.24156651  1
  O  O194  1  0.42433834  0.30884093  0.24125244  1
  O  O195  1  0.92398063  0.31887736  0.24480759  1
  O  O196  1  0.24475072  0.16033678  0.24191364  1
  O  O197  1  0.73243609  0.15734614  0.24307910  1
  O  O198  1  0.32183890  0.50933674  0.92388442  1
  O  O199  1  0.81825290  0.50260274  0.92134477  1
  O  O200  1  0.42298646  0.35879749  0.91986504  1
  O  O201  1  0.93056406  0.35672997  0.92005950  1
  O  O202  1  0.24460720  0.13063241  0.92316376  1
  O  O203  1  0.74286504  0.13754119  0.92021533  1
  O  O204  1  0.31792429  0.13258912  0.42163088  1
  O  O205  1  0.82133472  0.13374720  0.42406810  1
  O  O206  1  0.24317112  0.34755968  0.42019992  1
  O  O207  1  0.74459162  0.35733471  0.42298453  1
  O  O208  1  0.43170224  0.50721128  0.41870381  1
  O  O209  1  0.92307535  0.48772492  0.41939508  1
  O  O210  1  0.17544133  0.48922091  0.07678314  1
  O  O211  1  0.67449569  0.48298418  0.07919601  1
  O  O212  1  0.06959857  0.65070252  0.07722998  1
  O  O213  1  0.56695851  0.65299324  0.07915852  1
  O  O214  1  0.25783527  0.86108509  0.07812923  1
  O  O215  1  0.75262165  0.83321721  0.07825555  1
  O  O216  1  0.17320422  0.86304407  0.57933994  1
  O  O217  1  0.67466415  0.86103209  0.57662131  1
  O  O218  1  0.24525446  0.64801080  0.57778857  1
  O  O219  1  0.75649727  0.65163687  0.57805291  1
  O  O220  1  0.06763724  0.47950687  0.57844220  1
  O  O221  1  0.56951048  0.48948430  0.57823059  1
  O  O222  1  0.15336593  0.82364112  0.25667170  1
  O  O223  1  0.64956750  0.83903424  0.25303337  1
  O  O224  1  0.25585739  0.68661764  0.25612526  1
  O  O225  1  0.76481742  0.68898520  0.25348823  1
  O  O226  1  0.08245892  0.46158706  0.25539129  1
  O  O227  1  0.58016565  0.46991920  0.25414715  1
  O  O228  1  0.15419202  0.48400681  0.75172894  1
  O  O229  1  0.65309585  0.48275681  0.75681032  1
  O  O230  1  0.08134031  0.69994277  0.75537378  1
  O  O231  1  0.58348742  0.70448413  0.75622730  1
  O  O232  1  0.26565985  0.84507049  0.75425996  1
  O  O233  1  0.75395060  0.82429061  0.75722476  1
