# generated using pymatgen
data_Na10Zr5Zn3Si6(SO8)6
_symmetry_space_group_name_H-M   'P 1'
_cell_length_a   18.26903524
_cell_length_b   9.14159123
_cell_length_c   22.86230100
_cell_angle_alpha   89.99979455
_cell_angle_beta   89.79861060
_cell_angle_gamma   120.05056554
_symmetry_Int_Tables_number   1
_chemical_formula_structural   Na10Zr5Zn3Si6(SO8)6
_chemical_formula_sum   'Na30 Zr15 Zn9 Si18 S18 O144'
_cell_volume   3304.93471180
_cell_formula_units_Z   3
loop_
 _symmetry_equiv_pos_site_id
 _symmetry_equiv_pos_as_xyz
  1  'x, y, z'
loop_
 _atom_site_type_symbol
 _atom_site_label
 _atom_site_symmetry_multiplicity
 _atom_site_fract_x
 _atom_site_fract_y
 _atom_site_fract_z
 _atom_site_occupancy
  Na  Na0  1  0.31869828  0.00431548  0.24329060  1
  Na  Na1  1  0.19583791  0.37117364  0.24430436  1
  Na  Na2  1  0.68935133  0.36695644  0.24278062  1
  Na  Na3  1  0.99748113  0.63938979  0.24943079  1
  Na  Na4  1  0.31809047  0.61693984  0.75289520  1
  Na  Na5  1  0.81916922  0.62661905  0.74686586  1
  Na  Na6  1  0.99360084  0.36076732  0.74856232  1
  Na  Na7  1  0.49542697  0.37196638  0.74090494  1
  Na  Na8  1  0.18324984  0.01050883  0.74579609  1
  Na  Na9  1  0.68690792  0.01197582  0.74800996  1
  Na  Na10  1  0.64747628  0.34691983  0.57560323  1
  Na  Na11  1  0.32424326  0.68768665  0.07862283  1
  Na  Na12  1  0.82649145  0.69092439  0.08667452  1
  Na  Na13  1  0.16427861  0.31674835  0.92287175  1
  Na  Na14  1  0.99332774  0.30801288  0.42107081  1
  Na  Na15  1  0.16468586  0.02905695  0.41969219  1
  Na  Na16  1  0.66121267  0.02598790  0.41251642  1
  Na  Na17  1  0.84135217  0.66741648  0.41817455  1
  Na  Na18  1  0.00220742  0.00465053  0.50007268  1
  Na  Na19  1  0.49168980  0.01147710  0.49321970  1
  Na  Na20  1  0.00628390  0.02471212  0.99942123  1
  Na  Na21  1  0.50269634  0.02514028  0.99575212  1
  Na  Na22  1  0.34429366  0.35604611  0.83291941  1
  Na  Na23  1  0.83864463  0.33543405  0.82777676  1
  Na  Na24  1  0.33881280  0.36345716  0.32610540  1
  Na  Na25  1  0.83169353  0.33052423  0.32760604  1
  Na  Na26  1  0.16775069  0.66483676  0.15643927  1
  Na  Na27  1  0.66357571  0.66605400  0.15844198  1
  Na  Na28  1  0.16140608  0.65939313  0.65833675  1
  Na  Na29  1  0.65972364  0.66831903  0.65852905  1
  Zr  Zr30  1  0.99961682  0.99234457  0.35292084  1
  Zr  Zr31  1  0.99951877  0.00564454  0.84911941  1
  Zr  Zr32  1  0.50283378  0.99826325  0.85631509  1
  Zr  Zr33  1  0.00137184  0.00170621  0.65037852  1
  Zr  Zr34  1  0.50209295  0.00618982  0.64576064  1
  Zr  Zr35  1  0.00514978  0.99803842  0.14719718  1
  Zr  Zr36  1  0.50068824  0.00198758  0.14613844  1
  Zr  Zr37  1  0.33393076  0.33816541  0.97917447  1
  Zr  Zr38  1  0.82962640  0.32680619  0.98100672  1
  Zr  Zr39  1  0.33769855  0.33827167  0.48406357  1
  Zr  Zr40  1  0.83275457  0.33421643  0.47805668  1
  Zr  Zr41  1  0.17209388  0.66529317  0.31631229  1
  Zr  Zr42  1  0.67236341  0.66927878  0.31605722  1
  Zr  Zr43  1  0.15969000  0.64818359  0.81835282  1
  Zr  Zr44  1  0.66009151  0.65722342  0.81273562  1
  Zn  Zn45  1  0.49821610  0.00025196  0.35028027  1
  Zn  Zn46  1  0.34199135  0.35554288  0.68193889  1
  Zn  Zn47  1  0.83605653  0.33576025  0.69061653  1
  Zn  Zn48  1  0.32746786  0.34792201  0.18586136  1
  Zn  Zn49  1  0.82868620  0.34354108  0.17872620  1
  Zn  Zn50  1  0.16757340  0.62787253  0.01279473  1
  Zn  Zn51  1  0.65583691  0.62713645  0.01821528  1
  Zn  Zn52  1  0.15915879  0.65179357  0.51026621  1
  Zn  Zn53  1  0.65966344  0.64384319  0.51282124  1
  Si  Si54  1  0.15143816  0.00071448  0.25126183  1
  Si  Si55  1  0.35918376  0.71112884  0.25302638  1
  Si  Si56  1  0.85099798  0.69875702  0.24737305  1
  Si  Si57  1  0.15142224  0.29685038  0.74864029  1
  Si  Si58  1  0.64786384  0.29211325  0.74885267  1
  Si  Si59  1  0.00264660  0.70840670  0.75001453  1
  Si  Si60  1  0.49780531  0.70639528  0.74916270  1
  Si  Si61  1  0.85227773  0.99967682  0.74853245  1
  Si  Si62  1  0.48437398  0.34200288  0.58712968  1
  Si  Si63  1  0.18422092  0.33549306  0.08521032  1
  Si  Si64  1  0.68498058  0.33962441  0.08645104  1
  Si  Si65  1  0.31557673  0.67190187  0.92005548  1
  Si  Si66  1  0.01425961  0.36305770  0.91862279  1
  Si  Si67  1  0.51785881  0.36984121  0.91749098  1
  Si  Si68  1  0.80892835  0.95070440  0.42152895  1
  Si  Si69  1  0.16916249  0.37239217  0.41838760  1
  Si  Si70  1  0.65788576  0.35698252  0.41804333  1
  Si  Si71  1  0.02397495  0.66966506  0.41792026  1
  S  S72  1  0.64761786  0.99801902  0.25082795  1
  S  S73  1  0.99799615  0.29168422  0.25004146  1
  S  S74  1  0.50064648  0.29511863  0.25073717  1
  S  S75  1  0.35371353  0.99756137  0.75098091  1
  S  S76  1  0.98116219  0.33443545  0.58436718  1
  S  S77  1  0.18615085  0.03470060  0.58409791  1
  S  S78  1  0.68755392  0.03772466  0.58472691  1
  S  S79  1  0.32949764  0.62975430  0.58452551  1
  S  S80  1  0.83579705  0.63009849  0.58518908  1
  S  S81  1  0.48053400  0.62412956  0.08572073  1
  S  S82  1  0.98098673  0.62449823  0.08432660  1
  S  S83  1  0.33293443  0.04239212  0.08670282  1
  S  S84  1  0.83242939  0.04216988  0.08533035  1
  S  S85  1  0.81424033  0.66819548  0.91901223  1
  S  S86  1  0.16588771  0.95620141  0.91864887  1
  S  S87  1  0.66829813  0.95528654  0.91955659  1
  S  S88  1  0.31476475  0.96105429  0.41969502  1
  S  S89  1  0.52006120  0.66527840  0.41754814  1
  O  O90  1  0.10455612  0.02936683  0.30826193  1
  O  O91  1  0.61214189  0.02627594  0.30509255  1
  O  O92  1  0.41380978  0.81369816  0.30848329  1
  O  O93  1  0.90895216  0.79745387  0.30483889  1
  O  O94  1  0.48954874  0.19567160  0.30372383  1
  O  O95  1  0.98785443  0.19576779  0.30487729  1
  O  O96  1  0.10728705  0.18175389  0.80763990  1
  O  O97  1  0.59964224  0.16520766  0.80299455  1
  O  O98  1  0.48255019  0.79868803  0.80463165  1
  O  O99  1  0.98658390  0.79892059  0.80626576  1
  O  O100  1  0.40729828  0.02345452  0.80263921  1
  O  O101  1  0.91540940  0.03575760  0.80441356  1
  O  O102  1  0.39299430  0.96964419  0.69769341  1
  O  O103  1  0.89657623  0.95955976  0.69241871  1
  O  O104  1  0.08398287  0.20646262  0.69455838  1
  O  O105  1  0.58689936  0.21000258  0.69039632  1
  O  O106  1  0.02061410  0.83504743  0.69334652  1
  O  O107  1  0.51234326  0.82765181  0.69170419  1
  O  O108  1  0.40011343  0.83010768  0.19248163  1
  O  O109  1  0.89573542  0.81353093  0.18897668  1
  O  O110  1  0.01034707  0.20443379  0.19930236  1
  O  O111  1  0.51803674  0.21346860  0.19873535  1
  O  O112  1  0.08610676  0.97109486  0.19620858  1
  O  O113  1  0.59301152  0.98231052  0.19933988  1
  O  O114  1  0.43935205  0.35137395  0.64721390  1
  O  O115  1  0.93789959  0.34533677  0.63740267  1
  O  O116  1  0.23361407  0.11901386  0.63755202  1
  O  O117  1  0.73621314  0.12233987  0.63783632  1
  O  O118  1  0.31818139  0.53395170  0.63930819  1
  O  O119  1  0.82821012  0.52716808  0.63742585  1
  O  O120  1  0.44142720  0.52140105  0.13779687  1
  O  O121  1  0.94432963  0.52999778  0.13969713  1
  O  O122  1  0.32963641  0.12462471  0.14120203  1
  O  O123  1  0.82664089  0.12835900  0.13792647  1
  O  O124  1  0.23895924  0.36086649  0.14385788  1
  O  O125  1  0.73864027  0.36846944  0.14657000  1
  O  O126  1  0.23114432  0.31199184  0.02598502  1
  O  O127  1  0.73625247  0.31518302  0.03025742  1
  O  O128  1  0.42652125  0.54408904  0.03258039  1
  O  O129  1  0.92341893  0.53233020  0.03410998  1
  O  O130  1  0.34544116  0.14991239  0.03461493  1
  O  O131  1  0.84526761  0.14863233  0.03161647  1
  O  O132  1  0.22994218  0.14253924  0.53041993  1
  O  O133  1  0.73027925  0.14918588  0.53179812  1
  O  O134  1  0.34037347  0.53756203  0.53337538  1
  O  O135  1  0.84275298  0.54234309  0.53078983  1
  O  O136  1  0.42232429  0.31958575  0.53027391  1
  O  O137  1  0.92964444  0.31849266  0.53054486  1
  O  O138  1  0.27847968  0.70361707  0.97922515  1
  O  O139  1  0.77679929  0.69340291  0.97202792  1
  O  O140  1  0.07699619  0.45162982  0.97162114  1
  O  O141  1  0.57467778  0.45489327  0.97310416  1
  O  O142  1  0.15582995  0.85418252  0.96944550  1
  O  O143  1  0.66070271  0.85512173  0.97030771  1
  O  O144  1  0.27323253  0.85748302  0.47096885  1
  O  O145  1  0.76550040  0.82451634  0.47516565  1
  O  O146  1  0.14639109  0.45291198  0.47278843  1
  O  O147  1  0.64709633  0.43287127  0.47836727  1
  O  O148  1  0.08719464  0.72212088  0.47197929  1
  O  O149  1  0.57235193  0.69104208  0.46948294  1
  O  O150  1  0.06206167  0.63038629  0.35830671  1
  O  O151  1  0.55920558  0.63817799  0.36395504  1
  O  O152  1  0.26106449  0.88345290  0.36512701  1
  O  O153  1  0.74925122  0.87301119  0.36203849  1
  O  O154  1  0.18254083  0.48206241  0.35721883  1
  O  O155  1  0.67884219  0.48820131  0.36129207  1
  O  O156  1  0.05554428  0.47065442  0.85611695  1
  O  O157  1  0.56020894  0.48411551  0.85695244  1
  O  O158  1  0.17572019  0.88028917  0.86256769  1
  O  O159  1  0.67936643  0.88215293  0.86361137  1
  O  O160  1  0.25430237  0.64122600  0.86194093  1
  O  O161  1  0.76288670  0.64671340  0.86531312  1
  O  O162  1  0.00550082  0.82764546  0.41034083  1
  O  O163  1  0.51140521  0.81667244  0.41152510  1
  O  O164  1  0.40031522  0.98929481  0.41258702  1
  O  O165  1  0.90494513  0.98326605  0.41056172  1
  O  O166  1  0.08284335  0.18340226  0.41026141  1
  O  O167  1  0.58251522  0.16405348  0.40709570  1
  O  O168  1  0.00977658  0.17763534  0.91298942  1
  O  O169  1  0.50842197  0.18278820  0.90880612  1
  O  O170  1  0.09135797  0.98365935  0.91331726  1
  O  O171  1  0.59276074  0.97731184  0.91458790  1
  O  O172  1  0.41070832  0.82925582  0.91091650  1
  O  O173  1  0.90099001  0.81640869  0.91228722  1
  O  O174  1  0.49246426  0.16527716  0.58567994  1
  O  O175  1  0.98723058  0.17606005  0.58467524  1
  O  O176  1  0.10040518  0.02237578  0.58420465  1
  O  O177  1  0.60293244  0.03313818  0.58591938  1
  O  O178  1  0.40964087  0.79824467  0.58617175  1
  O  O179  1  0.91462922  0.79900800  0.58549211  1
  O  O180  1  0.48207220  0.79361755  0.08983192  1
  O  O181  1  0.97916146  0.79045384  0.08587856  1
  O  O182  1  0.41141602  0.02010636  0.08779150  1
  O  O183  1  0.90941812  0.02027088  0.08725954  1
  O  O184  1  0.08788534  0.16168216  0.08814743  1
  O  O185  1  0.59059560  0.16596072  0.08949611  1
  O  O186  1  0.34260476  0.14575052  0.74585841  1
  O  O187  1  0.84233999  0.16487280  0.74338014  1
  O  O188  1  0.24262296  0.30980990  0.74085162  1
  O  O189  1  0.74130797  0.31549024  0.74322125  1
  O  O190  1  0.41655253  0.51706134  0.74677877  1
  O  O191  1  0.92096441  0.52140130  0.74433053  1
  O  O192  1  0.34371412  0.52126780  0.24788887  1
  O  O193  1  0.84561211  0.51347858  0.24704394  1
  O  O194  1  0.42477771  0.30801129  0.24146753  1
  O  O195  1  0.92519075  0.31717064  0.24393076  1
  O  O196  1  0.24583208  0.16089479  0.24646091  1
  O  O197  1  0.73354819  0.14708909  0.24365463  1
  O  O198  1  0.31680205  0.48980348  0.92198288  1
  O  O199  1  0.82200176  0.51134974  0.92265937  1
  O  O200  1  0.42220655  0.34645072  0.92284517  1
  O  O201  1  0.92027154  0.34407687  0.92385771  1
  O  O202  1  0.24305635  0.13128844  0.92080200  1
  O  O203  1  0.74514731  0.13108810  0.92211217  1
  O  O204  1  0.31764437  0.12999994  0.42337105  1
  O  O205  1  0.82110047  0.14281570  0.42674838  1
  O  O206  1  0.24940057  0.33835767  0.42455623  1
  O  O207  1  0.74977976  0.35112881  0.42225950  1
  O  O208  1  0.43333967  0.51016155  0.42253524  1
  O  O209  1  0.92899172  0.49858128  0.42554588  1
  O  O210  1  0.17724274  0.50672156  0.08200264  1
  O  O211  1  0.68179263  0.51499390  0.08137636  1
  O  O212  1  0.06667964  0.65816575  0.07674682  1
  O  O213  1  0.56746212  0.65975299  0.07854883  1
  O  O214  1  0.25839512  0.87287425  0.08209172  1
  O  O215  1  0.75742115  0.87296622  0.07948162  1
  O  O216  1  0.17783322  0.86666776  0.57886372  1
  O  O217  1  0.67599437  0.87035633  0.57812214  1
  O  O218  1  0.25604633  0.65298041  0.57685336  1
  O  O219  1  0.75957752  0.64517448  0.58214358  1
  O  O220  1  0.06583917  0.48619568  0.58079122  1
  O  O221  1  0.57976245  0.50464383  0.58064101  1
  O  O222  1  0.15229876  0.82207886  0.25590014  1
  O  O223  1  0.65062299  0.83801565  0.25291395  1
  O  O224  1  0.26183940  0.69470370  0.25536738  1
  O  O225  1  0.75463395  0.67385431  0.25414191  1
  O  O226  1  0.07841884  0.46142150  0.25279217  1
  O  O227  1  0.57866429  0.46685190  0.25419458  1
  O  O228  1  0.16063909  0.48605972  0.75443561  1
  O  O229  1  0.65604384  0.47953048  0.75591045  1
  O  O230  1  0.09127729  0.70200227  0.75514683  1
  O  O231  1  0.58703229  0.70076694  0.75501143  1
  O  O232  1  0.26881947  0.84151472  0.75633940  1
  O  O233  1  0.76072462  0.82893510  0.75790780  1
