# generated using pymatgen
data_Rb2MgFe4O7
_symmetry_space_group_name_H-M   'P 1'
_cell_length_a   5.52550615
_cell_length_b   5.52202962
_cell_length_c   7.47068530
_cell_angle_alpha   90.19723288
_cell_angle_beta   98.17750590
_cell_angle_gamma   112.65046482
_symmetry_Int_Tables_number   1
_chemical_formula_structural   Rb2MgFe4O7
_chemical_formula_sum   'Rb2 Mg1 Fe4 O7'
_cell_volume   207.80218981
_cell_formula_units_Z   1
loop_
 _symmetry_equiv_pos_site_id
 _symmetry_equiv_pos_as_xyz
  1  'x, y, z'
loop_
 _atom_site_type_symbol
 _atom_site_label
 _atom_site_symmetry_multiplicity
 _atom_site_fract_x
 _atom_site_fract_y
 _atom_site_fract_z
 _atom_site_occupancy
  Rb  Rb0  1  0.36266846  0.73388582  0.99507266  1
  Rb  Rb1  1  0.71437402  0.37399173  0.93684387  1
  Mg  Mg2  1  0.11467482  0.11653359  0.22374304  1
  Fe  Fe3  1  0.77219996  0.71226738  0.38543216  1
  Fe  Fe4  1  0.03876931  0.06541186  0.71630781  1
  Fe  Fe5  1  0.28832551  0.64721688  0.51415685  1
  Fe  Fe6  1  0.61354408  0.16310617  0.47873212  1
  O  O7  1  0.10715873  0.75037408  0.29806673  1
  O  O8  1  0.00827935  0.38881865  0.62656594  1
  O  O9  1  0.12514966  0.13824185  0.96632739  1
  O  O10  1  0.41361915  0.40434793  0.36847088  1
  O  O11  1  0.68550085  0.79384083  0.63743440  1
  O  O12  1  0.32904833  -0.00229970  0.64856709  1
  O  O13  1  0.75168678  0.03906494  0.27835205  1
