# generated using pymatgen
data_MgTi2(Fe2O5)2
_symmetry_space_group_name_H-M   'P 1'
_cell_length_a   3.79167545
_cell_length_b   5.49336927
_cell_length_c   10.20202900
_cell_angle_alpha   90.00000000
_cell_angle_beta   90.00000000
_cell_angle_gamma   110.40620458
_symmetry_Int_Tables_number   1
_chemical_formula_structural   MgTi2(Fe2O5)2
_chemical_formula_sum   'Mg1 Ti2 Fe4 O10'
_cell_volume   199.16328583
_cell_formula_units_Z   1
loop_
 _symmetry_equiv_pos_site_id
 _symmetry_equiv_pos_as_xyz
  1  'x, y, z'
loop_
 _atom_site_type_symbol
 _atom_site_label
 _atom_site_symmetry_multiplicity
 _atom_site_fract_x
 _atom_site_fract_y
 _atom_site_fract_z
 _atom_site_occupancy
  Mg  Mg0  1  0.48182900  0.00008600  0.25000000  1
  Ti  Ti1  1  0.19686500  0.38527400  0.75000000  1
  Ti  Ti2  1  0.78318300  0.58861100  0.25000000  1
  Fe  Fe3  1  0.13737100  0.28658800  0.44867400  1
  Fe  Fe4  1  0.88514400  0.76259600  0.56842400  1
  Fe  Fe5  1  0.88514400  0.76259600  0.93157600  1
  Fe  Fe6  1  0.13737100  0.28658800  0.05132700  1
  O  O7  1  0.31983800  0.63235300  0.57893800  1
  O  O8  1  0.65254300  0.31185200  0.38395800  1
  O  O9  1  0.65254300  0.31185200  0.11604300  1
  O  O10  1  0.31983800  0.63235300  0.92106200  1
  O  O11  1  0.06146600  0.11212100  0.62805400  1
  O  O12  1  0.94437200  0.87865100  0.37884200  1
  O  O13  1  0.76263500  0.51716500  0.75000000  1
  O  O14  1  0.29187800  0.59054300  0.25000000  1
  O  O15  1  0.94437200  0.87865100  0.12115800  1
  O  O16  1  0.06146600  0.11212100  0.87194600  1
