# generated using pymatgen
data_P3Se4I
_symmetry_space_group_name_H-M   'P 1'
_cell_length_a   6.72784174
_cell_length_b   11.65449991
_cell_length_c   14.61033965
_cell_angle_alpha   61.75477696
_cell_angle_beta   90.00000000
_cell_angle_gamma   90.00000000
_symmetry_Int_Tables_number   1
_chemical_formula_structural   P3Se4I
_chemical_formula_sum   'P12 Se16 I4'
_cell_volume   1009.18600540
_cell_formula_units_Z   4
loop_
 _symmetry_equiv_pos_site_id
 _symmetry_equiv_pos_as_xyz
  1  'x, y, z'
loop_
 _atom_site_type_symbol
 _atom_site_label
 _atom_site_symmetry_multiplicity
 _atom_site_fract_x
 _atom_site_fract_y
 _atom_site_fract_z
 _atom_site_occupancy
  P  P0  1  0.15166639  0.82074250  0.12743812  1
  P  P1  1  0.65166639  0.17925750  0.37256188  1
  P  P2  1  0.84833361  0.17925750  0.87256188  1
  P  P3  1  0.34833361  0.82074250  0.62743812  1
  P  P4  1  0.90628075  0.67373817  0.99080261  1
  P  P5  1  0.40628075  0.32626183  0.50919739  1
  P  P6  1  0.09371925  0.32626183  0.00919739  1
  P  P7  1  0.59371925  0.67373817  0.49080261  1
  P  P8  1  0.22386628  0.71086935  0.95436974  1
  P  P9  1  0.72386628  0.28913065  0.54563026  1
  P  P10  1  0.77613372  0.28913065  0.04563026  1
  P  P11  1  0.27613372  0.71086935  0.45436974  1
  Se  Se12  1  0.28915465  0.89076715  0.96821622  1
  Se  Se13  1  0.78915465  0.10923285  0.53178378  1
  Se  Se14  1  0.71084535  0.10923285  0.03178378  1
  Se  Se15  1  0.21084535  0.89076715  0.46821622  1
  Se  Se16  1  0.85042977  0.74536241  0.10785177  1
  Se  Se17  1  0.35042977  0.25463759  0.39214823  1
  Se  Se18  1  0.14957023  0.25463759  0.89214823  1
  Se  Se19  1  0.64957023  0.74536241  0.60785177  1
  Se  Se20  1  0.32618989  0.54452929  0.10635530  1
  Se  Se21  1  0.82618989  0.45547071  0.39364470  1
  Se  Se22  1  0.67381011  0.45547071  0.89364470  1
  Se  Se23  1  0.17381011  0.54452929  0.60635530  1
  Se  Se24  1  0.32166315  0.63912934  0.22144167  1
  Se  Se25  1  0.82166315  0.36087066  0.27855833  1
  Se  Se26  1  0.67833685  0.36087066  0.77855833  1
  Se  Se27  1  0.17833685  0.63912934  0.72144167  1
  I  I28  1  0.77542601  0.84988134  0.82044328  1
  I  I29  1  0.27542601  0.15011866  0.67955672  1
  I  I30  1  0.22457399  0.15011866  0.17955672  1
  I  I31  1  0.72457399  0.84988134  0.32044328  1
