# generated using pymatgen
data_Na6La3TaSi2(PO6)4
_symmetry_space_group_name_H-M   'P 1'
_cell_length_a   9.51786566
_cell_length_b   9.55153044
_cell_length_c   23.38792914
_cell_angle_alpha   90.37452855
_cell_angle_beta   89.88433374
_cell_angle_gamma   120.46038006
_symmetry_Int_Tables_number   1
_chemical_formula_structural   Na6La3TaSi2(PO6)4
_chemical_formula_sum   'Na18 La9 Ta3 Si6 P12 O72'
_cell_volume   1832.70127620
_cell_formula_units_Z   3
loop_
 _symmetry_equiv_pos_site_id
 _symmetry_equiv_pos_as_xyz
  1  'x, y, z'
loop_
 _atom_site_type_symbol
 _atom_site_label
 _atom_site_symmetry_multiplicity
 _atom_site_fract_x
 _atom_site_fract_y
 _atom_site_fract_z
 _atom_site_occupancy
  Na  Na0  1  0.98985025  0.98808980  0.50643586  1
  Na  Na1  1  0.97253105  0.98726807  0.99651876  1
  Na  Na2  1  0.66043505  0.33387251  0.83102069  1
  Na  Na3  1  0.65769507  0.32942944  0.32855620  1
  Na  Na4  1  0.32883979  0.65050298  0.16780694  1
  Na  Na5  1  0.33469950  0.66426297  0.66983360  1
  Na  Na6  1  0.65283967  0.00646646  0.24746395  1
  Na  Na7  1  0.01294242  0.35273628  0.74835145  1
  Na  Na8  1  0.35671169  0.00412974  0.75433289  1
  Na  Na9  1  0.30223073  0.33290701  0.58979103  1
  Na  Na10  1  0.66588325  0.96769744  0.58481832  1
  Na  Na11  1  0.29652836  0.95747047  0.07631899  1
  Na  Na12  1  0.04061907  0.34376125  0.07537924  1
  Na  Na13  1  0.99207763  0.68223557  0.91694960  1
  Na  Na14  1  0.31452518  0.29003648  0.91392219  1
  Na  Na15  1  0.96193434  0.28564266  0.41054320  1
  Na  Na16  1  0.33497209  0.03533442  0.40664943  1
  Na  Na17  1  0.70092335  0.68140589  0.41496166  1
  La  La18  1  0.00603965  0.00113258  0.33978474  1
  La  La19  1  0.98825875  0.99622455  0.84938316  1
  La  La20  1  0.99627495  0.99099605  0.65948693  1
  La  La21  1  0.00115898  0.99034376  0.15000686  1
  La  La22  1  0.67279773  0.35234910  0.68417655  1
  La  La23  1  0.66235760  0.34495038  0.18666662  1
  La  La24  1  0.67160776  0.33599814  0.48242450  1
  La  La25  1  0.35065216  0.67346382  0.01352052  1
  La  La26  1  0.32411070  0.66911823  0.51655343  1
  Ta  Ta27  1  0.66562990  0.33148062  0.97517807  1
  Ta  Ta28  1  0.33119857  0.67119441  0.31457903  1
  Ta  Ta29  1  0.34144631  0.66505943  0.82420459  1
  Si  Si30  1  0.31202434  0.98987517  0.25336355  1
  Si  Si31  1  0.30856061  0.32076580  0.75460393  1
  Si  Si32  1  0.63169846  0.64998897  0.91836717  1
  Si  Si33  1  0.02979681  0.37533871  0.92038600  1
  Si  Si34  1  0.34360205  0.96823354  0.91944797  1
  Si  Si35  1  0.62984365  0.96398010  0.41533915  1
  P  P36  1  0.67471627  0.69453750  0.25831676  1
  P  P37  1  0.01185632  0.31886142  0.25240247  1
  P  P38  1  0.02349626  0.69067649  0.75896137  1
  P  P39  1  0.67273385  0.98703526  0.74946467  1
  P  P40  1  0.97283743  0.32086163  0.58469579  1
  P  P41  1  0.35922558  0.03406470  0.58424378  1
  P  P42  1  0.66800856  0.64715872  0.57824364  1
  P  P43  1  0.95291089  0.62546848  0.07639664  1
  P  P44  1  0.67825292  0.06184026  0.08078137  1
  P  P45  1  0.36865387  0.31942567  0.07625763  1
  P  P46  1  0.33631229  0.37904080  0.41332546  1
  P  P47  1  0.03581494  0.66231111  0.41032692  1
  O  O48  1  0.23855802  0.01403682  0.31263341  1
  O  O49  1  0.76143161  0.76542513  0.31511114  1
  O  O50  1  0.98021415  0.21447382  0.30636949  1
  O  O51  1  0.21743076  0.20092244  0.80760631  1
  O  O52  1  0.99397878  0.76033211  0.81299195  1
  O  O53  1  0.80071058  0.02705598  0.79559426  1
  O  O54  1  0.73259907  0.95638869  0.69165026  1
  O  O55  1  0.19282438  0.24608886  0.69658692  1
  O  O56  1  0.04736742  0.79986670  0.70671064  1
  O  O57  1  0.76466020  0.81665385  0.20901376  1
  O  O58  1  0.03618169  0.23567896  0.19933209  1
  O  O59  1  0.19689331  0.96606964  0.19756773  1
  O  O60  1  0.88241423  0.32651313  0.63823408  1
  O  O61  1  0.46053443  0.12918585  0.63680497  1
  O  O62  1  0.66191683  0.53977085  0.62765573  1
  O  O63  1  0.86596514  0.53388312  0.13015766  1
  O  O64  1  0.67753630  0.13847400  0.13795498  1
  O  O65  1  0.45872735  0.32633366  0.13044421  1
  O  O66  1  0.47571513  0.32287464  0.02269587  1
  O  O67  1  0.84460734  0.52562613  0.02224308  1
  O  O68  1  0.67939905  0.17641890  0.03008690  1
  O  O69  1  0.44555702  0.12945087  0.52862173  1
  O  O70  1  0.67649555  0.57070580  0.52036302  1
  O  O71  1  0.88100719  0.32000274  0.52919383  1
  O  O72  1  0.56531587  0.68133493  0.97598368  1
  O  O73  1  0.12447111  0.44493036  0.97943546  1
  O  O74  1  0.29914723  0.86657635  0.97767021  1
  O  O75  1  0.55366846  0.87107175  0.47516490  1
  O  O76  1  0.32058416  0.44568051  0.47131327  1
  O  O77  1  0.12256642  0.67854209  0.46646486  1
  O  O78  1  0.14828860  0.66029004  0.36065660  1
  O  O79  1  0.50120639  0.84024959  0.36206349  1
  O  O80  1  0.33240064  0.49192947  0.36483251  1
  O  O81  1  0.14434628  0.51225054  0.86782112  1
  O  O82  1  0.36634267  0.85913206  0.86646175  1
  O  O83  1  0.50000467  0.63638246  0.86573452  1
  O  O84  1  0.00891345  0.80735789  0.40647852  1
  O  O85  1  0.81367120  0.99206040  0.41030584  1
  O  O86  1  0.19023390  0.20360144  0.40866550  1
  O  O87  1  0.00896854  0.19942086  0.90965272  1
  O  O88  1  0.19955080  0.00701118  0.90759277  1
  O  O89  1  0.81996766  0.78685858  0.91028889  1
  O  O90  1  0.97729995  0.15975186  0.58326160  1
  O  O91  1  0.19068702  0.02254819  0.58546700  1
  O  O92  1  0.81702905  0.82168142  0.58228889  1
  O  O93  1  0.97501067  0.79839348  0.07519854  1
  O  O94  1  0.83761030  0.05586633  0.07473083  1
  O  O95  1  0.20416046  0.15282024  0.07325413  1
  O  O96  1  0.64135649  0.13125873  0.74737972  1
  O  O97  1  0.48834734  0.34053411  0.75030065  1
  O  O98  1  0.88625095  0.51128462  0.75138140  1
  O  O99  1  0.64929400  0.52525037  0.25143939  1
  O  O100  1  0.86463217  0.34218468  0.24755728  1
  O  O101  1  0.50226726  0.13249840  0.24986037  1
  O  O102  1  0.62140029  0.46788837  0.92054205  1
  O  O103  1  0.84996753  0.37131392  0.92327736  1
  O  O104  1  0.51800462  0.14925621  0.92627172  1
  O  O105  1  0.63119773  0.13690557  0.41054872  1
  O  O106  1  0.49973297  0.37926835  0.40867894  1
  O  O107  1  0.87169193  0.49852705  0.40654973  1
  O  O108  1  0.33092182  0.45832944  0.07738242  1
  O  O109  1  0.12265606  0.64025827  0.07707850  1
  O  O110  1  0.52037233  0.89552341  0.07843329  1
  O  O111  1  0.34933560  0.86723210  0.58556577  1
  O  O112  1  0.50976366  0.65637413  0.58372735  1
  O  O113  1  0.15033028  0.46641985  0.58661507  1
  O  O114  1  0.32240797  0.81748135  0.26029973  1
  O  O115  1  0.50077288  0.67919863  0.26033274  1
  O  O116  1  0.17139047  0.48869093  0.26162513  1
  O  O117  1  0.31475148  0.49823554  0.76693487  1
  O  O118  1  0.18830117  0.68889798  0.76357450  1
  O  O119  1  0.50529834  0.83025545  0.76435544  1
