# generated using pymatgen
data_Na5Ta3AlSi5PO24
_symmetry_space_group_name_H-M   'P 1'
_cell_length_a   8.94084687
_cell_length_b   8.92061406
_cell_length_c   22.44145665
_cell_angle_alpha   89.94103928
_cell_angle_beta   89.89631542
_cell_angle_gamma   120.12969578
_symmetry_Int_Tables_number   1
_chemical_formula_structural   Na5Ta3AlSi5PO24
_chemical_formula_sum   'Na15 Ta9 Al3 Si15 P3 O72'
_cell_volume   1548.04726660
_cell_formula_units_Z   3
loop_
 _symmetry_equiv_pos_site_id
 _symmetry_equiv_pos_as_xyz
  1  'x, y, z'
loop_
 _atom_site_type_symbol
 _atom_site_label
 _atom_site_symmetry_multiplicity
 _atom_site_fract_x
 _atom_site_fract_y
 _atom_site_fract_z
 _atom_site_occupancy
  Na  Na0  1  0.99412295  0.63099173  0.24601724  1
  Na  Na1  1  0.63579791  0.62803916  0.74744531  1
  Na  Na2  1  0.99242285  0.36401620  0.74731155  1
  Na  Na3  1  0.37069471  0.00701911  0.74822708  1
  Na  Na4  1  0.30855464  0.97130843  0.08399422  1
  Na  Na5  1  0.66667035  0.69454931  0.08370729  1
  Na  Na6  1  0.96884508  0.29548432  0.41436755  1
  Na  Na7  1  0.32615613  0.03110610  0.41325429  1
  Na  Na8  1  0.70393120  0.67333687  0.41474707  1
  Na  Na9  1  0.99865301  0.99965931  0.50011566  1
  Na  Na10  1  0.99981867  0.00631252  0.99719443  1
  Na  Na11  1  0.66646140  0.33366133  0.83354399  1
  Na  Na12  1  0.65645546  0.32421269  0.32584860  1
  Na  Na13  1  0.33398177  0.66170499  0.16573717  1
  Na  Na14  1  0.33274422  0.66489707  0.66474953  1
  Ta  Ta15  1  0.00028729  0.99966372  0.85507156  1
  Ta  Ta16  1  0.99657061  0.99970391  0.64440657  1
  Ta  Ta17  1  0.00335085  0.00392632  0.14627180  1
  Ta  Ta18  1  0.66688819  0.33217630  0.97824849  1
  Ta  Ta19  1  0.67038719  0.33565687  0.48184569  1
  Ta  Ta20  1  0.32874153  0.66241113  0.02084440  1
  Ta  Ta21  1  0.33349027  0.66264648  0.52253627  1
  Ta  Ta22  1  0.33737848  0.67083991  0.31110354  1
  Ta  Ta23  1  0.33332008  0.66616448  0.81431639  1
  Al  Al24  1  0.00634806  0.00303949  0.35171770  1
  Al  Al25  1  0.67110817  0.33947280  0.68666435  1
  Al  Al26  1  0.65361253  0.32237382  0.18338082  1
  Si  Si27  1  0.29828438  0.01503967  0.25205849  1
  Si  Si28  1  0.29485802  0.28876498  0.74831813  1
  Si  Si29  1  0.99583143  0.70646100  0.74868279  1
  Si  Si30  1  0.71036139  0.00580714  0.74902982  1
  Si  Si31  1  0.95220432  0.33390256  0.58725618  1
  Si  Si32  1  0.66670777  0.61890289  0.58719565  1
  Si  Si33  1  0.94830144  0.60998705  0.08787270  1
  Si  Si34  1  0.66957444  0.05215000  0.08586139  1
  Si  Si35  1  0.38464971  0.33582949  0.08600558  1
  Si  Si36  1  0.62411652  0.66621973  0.91734499  1
  Si  Si37  1  0.04045683  0.37421546  0.91668165  1
  Si  Si38  1  0.33350793  0.95853983  0.91703336  1
  Si  Si39  1  0.62867059  0.95635765  0.41576693  1
  Si  Si40  1  0.32831039  0.37191681  0.41535836  1
  Si  Si41  1  0.04532700  0.67230360  0.41573326  1
  P  P42  1  0.71400439  0.71052862  0.25195607  1
  P  P43  1  0.99425487  0.28364564  0.25271161  1
  P  P44  1  0.38124135  0.04723058  0.58596328  1
  O  O45  1  0.19653332  0.02636662  0.31041235  1
  O  O46  1  0.82732367  0.80051214  0.30703852  1
  O  O47  1  0.97343049  0.17443301  0.30843701  1
  O  O48  1  0.19956799  0.16345672  0.80607521  1
  O  O49  1  0.96441276  0.80116378  0.80611034  1
  O  O50  1  0.83706377  0.03743642  0.80600424  1
  O  O51  1  0.80114833  0.96226009  0.69260937  1
  O  O52  1  0.16173356  0.19886640  0.69221527  1
  O  O53  1  0.03897560  0.83968225  0.69233280  1
  O  O54  1  0.79605626  0.82545843  0.19490720  1
  O  O55  1  0.02471842  0.19638837  0.19680873  1
  O  O56  1  0.16603851  0.96822576  0.19332367  1
  O  O57  1  0.86099499  0.36066220  0.64435518  1
  O  O58  1  0.49205902  0.13059413  0.64072332  1
  O  O59  1  0.63576786  0.49958303  0.64445266  1
  O  O60  1  0.86109540  0.49900927  0.14719671  1
  O  O61  1  0.62731706  0.13543474  0.14174263  1
  O  O62  1  0.50830126  0.37444671  0.14216418  1
  O  O63  1  0.46442491  0.29399981  0.02657583  1
  O  O64  1  0.82740848  0.53157887  0.02830122  1
  O  O65  1  0.69970284  0.16723260  0.02554402  1
  O  O66  1  0.46580943  0.15812978  0.52769775  1
  O  O67  1  0.69248172  0.52975153  0.52525725  1
  O  O68  1  0.83638121  0.30442155  0.52528330  1
  O  O69  1  0.53184361  0.69562389  0.97588309  1
  O  O70  1  0.16652327  0.47134623  0.97366358  1
  O  O71  1  0.30486899  0.83751020  0.97581616  1
  O  O72  1  0.53297526  0.82956286  0.47286975  1
  O  O73  1  0.29775802  0.46819579  0.47293711  1
  O  O74  1  0.17240851  0.70384621  0.47240182  1
  O  O75  1  0.13129321  0.62789994  0.35790349  1
  O  O76  1  0.49473169  0.86449279  0.35924260  1
  O  O77  1  0.37115797  0.50621288  0.35938444  1
  O  O78  1  0.13281148  0.49501162  0.85721272  1
  O  O79  1  0.36183639  0.86580583  0.85773962  1
  O  O80  1  0.50353016  0.63810774  0.85799730  1
  O  O81  1  0.01921031  0.83809285  0.40771144  1
  O  O82  1  0.81767652  0.97752049  0.40612229  1
  O  O83  1  0.15738909  0.18299431  0.40843305  1
  O  O84  1  0.02579133  0.18682079  0.90973265  1
  O  O85  1  0.16086950  0.97354960  0.90965198  1
  O  O86  1  0.81238947  0.83897021  0.90961988  1
  O  O87  1  0.97753627  0.16373610  0.58956719  1
  O  O88  1  0.19923696  0.02817962  0.58921343  1
  O  O89  1  0.84072788  0.81202889  0.58950090  1
  O  O90  1  0.97328759  0.81046293  0.09298946  1
  O  O91  1  0.83386265  0.01688000  0.09240810  1
  O  O92  1  0.18940748  0.16131443  0.09259396  1
  O  O93  1  0.68663598  0.17264093  0.74096707  1
  O  O94  1  0.48392715  0.30798954  0.74137842  1
  O  O95  1  0.82621000  0.51600480  0.74286421  1
  O  O96  1  0.69934048  0.53284376  0.24511435  1
  O  O97  1  0.84160514  0.31439300  0.24526148  1
  O  O98  1  0.48874495  0.17969149  0.24230712  1
  O  O99  1  0.64067615  0.49450447  0.92342751  1
  O  O100  1  0.85400192  0.36039446  0.92310100  1
  O  O101  1  0.50566976  0.14701905  0.92268718  1
  O  O102  1  0.64021266  0.14548097  0.42330531  1
  O  O103  1  0.50190329  0.35471557  0.42407382  1
  O  O104  1  0.85354682  0.49485369  0.42340071  1
  O  O105  1  0.36223783  0.50651126  0.07714569  1
  O  O106  1  0.14828368  0.64974046  0.07836906  1
  O  O107  1  0.49843047  0.85450204  0.07698325  1
  O  O108  1  0.36077243  0.86499042  0.57616072  1
  O  O109  1  0.49743218  0.64397435  0.57609062  1
  O  O110  1  0.14475238  0.50665531  0.57608219  1
  O  O111  1  0.30286867  0.82651727  0.25718280  1
  O  O112  1  0.53037224  0.69299105  0.25713296  1
  O  O113  1  0.16358091  0.46964029  0.25685382  1
  O  O114  1  0.30970347  0.48019444  0.75572503  1
  O  O115  1  0.17192868  0.69148174  0.75578624  1
  O  O116  1  0.51986898  0.82819919  0.75560290  1
