# generated using pymatgen
data_Na3YSi2GeSO12
_symmetry_space_group_name_H-M   'P 1'
_cell_length_a   9.19041710
_cell_length_b   9.19041675
_cell_length_c   22.57757325
_cell_angle_alpha   85.82160467
_cell_angle_beta   94.17839534
_cell_angle_gamma   118.08029417
_symmetry_Int_Tables_number   1
_chemical_formula_structural   Na3YSi2GeSO12
_chemical_formula_sum   'Na18 Y6 Si12 Ge6 S6 O72'
_cell_volume   1676.42866186
_cell_formula_units_Z   6
loop_
 _symmetry_equiv_pos_site_id
 _symmetry_equiv_pos_as_xyz
  1  'x, y, z'
loop_
 _atom_site_type_symbol
 _atom_site_label
 _atom_site_symmetry_multiplicity
 _atom_site_fract_x
 _atom_site_fract_y
 _atom_site_fract_z
 _atom_site_occupancy
  Na  Na0  1  0.64757162  0.00408765  0.24144870  1
  Na  Na1  1  0.99651745  0.62913302  0.25207509  1
  Na  Na2  1  0.99591235  0.35242838  0.74144870  1
  Na  Na3  1  0.37086698  0.00348255  0.75207509  1
  Na  Na4  1  0.31423862  0.33742065  0.57478170  1
  Na  Na5  1  0.66318445  0.96246602  0.58540809  1
  Na  Na6  1  0.66257935  0.68576138  0.07478170  1
  Na  Na7  1  0.03753398  0.33681555  0.08540809  1
  Na  Na8  1  0.98090462  0.67075465  0.90811570  1
  Na  Na9  1  0.32985045  0.29580002  0.91874209  1
  Na  Na10  1  0.32924535  0.01909538  0.40811570  1
  Na  Na11  1  0.70419998  0.67014955  0.41874209  1
  Na  Na12  1  0.99486676  0.01718085  0.50202911  1
  Na  Na13  1  0.98281915  0.00513324  0.00202911  1
  Na  Na14  1  0.66153376  0.35051385  0.83536211  1
  Na  Na15  1  0.64948615  0.33846624  0.33536211  1
  Na  Na16  1  0.32819976  0.68384785  0.16869611  1
  Na  Na17  1  0.31615215  0.67180024  0.66869611  1
  Y  Y18  1  0.00601748  0.01303102  0.35337528  1
  Y  Y19  1  0.98696898  0.99398252  0.85337528  1
  Y  Y20  1  0.67268448  0.34636402  0.68670828  1
  Y  Y21  1  0.65363598  0.32731552  0.18670828  1
  Y  Y22  1  0.33935048  0.67969802  0.02004228  1
  Y  Y23  1  0.32030198  0.66064952  0.52004228  1
  Si  Si24  1  0.28184059  0.97932494  0.25410984  1
  Si  Si25  1  0.70149579  0.70224900  0.25291699  1
  Si  Si26  1  0.29775100  0.29850421  0.75291699  1
  Si  Si27  1  0.02067506  0.71815941  0.75410984  1
  Si  Si28  1  0.94850759  0.31265794  0.58744284  1
  Si  Si29  1  0.36816279  0.03558200  0.58624999  1
  Si  Si30  1  0.96441800  0.63183721  0.08624999  1
  Si  Si31  1  0.68734206  0.05149241  0.08744284  1
  Si  Si32  1  0.61517359  0.64599194  0.92077684  1
  Si  Si33  1  0.03482879  0.36891600  0.91958399  1
  Si  Si34  1  0.63108400  0.96517121  0.41958399  1
  Si  Si35  1  0.35400806  0.38482641  0.42077684  1
  Ge  Ge36  1  0.06407868  0.03590594  0.64724067  1
  Ge  Ge37  1  0.96409406  0.93592132  0.14724067  1
  Ge  Ge38  1  0.73074568  0.36923894  0.98057367  1
  Ge  Ge39  1  0.63076106  0.26925432  0.48057367  1
  Ge  Ge40  1  0.39741168  0.70257294  0.31390767  1
  Ge  Ge41  1  0.29742706  0.60258832  0.81390767  1
  S  S42  1  0.01932344  0.31700458  0.24492249  1
  S  S43  1  0.68299542  0.98067656  0.74492249  1
  S  S44  1  0.68599044  0.65033758  0.57825549  1
  S  S45  1  0.34966242  0.31400956  0.07825549  1
  S  S46  1  0.35265644  0.98367158  0.91158949  1
  S  S47  1  0.01632842  0.64734356  0.41158949  1
  O  O48  1  0.20944609  0.00219074  0.31297809  1
  O  O49  1  0.80808446  0.79859429  0.30973593  1
  O  O50  1  0.01157571  0.21544526  0.29938115  1
  O  O51  1  0.20140571  0.19191554  0.80973593  1
  O  O52  1  0.99780926  0.79055391  0.81297809  1
  O  O53  1  0.78455474  -0.01157571  0.79938115  1
  O  O54  1  0.76540692  0.97867067  0.69157693  1
  O  O55  1  0.18377908  0.21772623  0.68970177  1
  O  O56  1  0.05718132  0.86467916  0.69566734  1
  O  O57  1  0.78227377  0.81622092  0.18970177  1
  O  O58  1  0.02132933  0.23459308  0.19157693  1
  O  O59  1  0.13532084  0.94281868  0.19566734  1
  O  O60  1  0.87611309  0.33552374  0.64631109  1
  O  O61  1  0.47475146  0.13192729  0.64306893  1
  O  O62  1  0.67824271  0.54877826  0.63271415  1
  O  O63  1  0.86807271  0.52524854  0.14306893  1
  O  O64  1  0.66447626  0.12388691  0.14631109  1
  O  O65  1  0.45122174  0.32175729  0.13271415  1
  O  O66  1  0.43207392  0.31200367  0.02490993  1
  O  O67  1  0.85044608  0.55105923  0.02303477  1
  O  O68  1  0.72384832  0.19801216  0.02900034  1
  O  O69  1  0.44894077  0.14955392  0.52303477  1
  O  O70  1  0.68799633  0.56792608  0.52490993  1
  O  O71  1  0.80198784  0.27615168  0.52900034  1
  O  O72  1  0.54277909  0.66885774  0.97964509  1
  O  O73  1  0.14141746  0.46526129  0.97640293  1
  O  O74  1  0.34490871  0.88211226  0.96604815  1
  O  O75  1  0.53473871  0.85858254  0.47640293  1
  O  O76  1  0.33114226  0.45722091  0.47964509  1
  O  O77  1  0.11788774  0.65509129  0.46604815  1
  O  O78  1  0.09873992  0.64533767  0.35824393  1
  O  O79  1  0.51711208  0.88439323  0.35636877  1
  O  O80  1  0.39051432  0.53134616  0.36233434  1
  O  O81  1  0.11560677  0.48288792  0.85636877  1
  O  O82  1  0.35466233  0.90126008  0.85824393  1
  O  O83  1  0.46865384  0.60948568  0.86233434  1
  O  O84  1  0.00209638  0.80391874  0.41431978  1
  O  O85  1  0.81365194  0.98422100  0.41719891  1
  O  O86  1  0.20998967  0.19930081  0.41009683  1
  O  O87  1  0.01577900  0.18634806  0.91719891  1
  O  O88  1  0.19608126  0.99790362  0.91431978  1
  O  O89  1  0.80069919  0.79001033  0.91009683  1
  O  O90  1  0.95943404  0.12921216  0.59405106  1
  O  O91  1  0.18628667  0.04075785  0.58604337  1
  O  O92  1  0.82933776  0.81534793  0.58113068  1
  O  O93  1  0.95924215  0.81371333  0.08604337  1
  O  O94  1  0.87078784  0.04056596  0.09405106  1
  O  O95  1  0.18465207  0.17066224  0.08113068  1
  O  O96  1  0.66876338  0.13725174  0.74765278  1
  O  O97  1  0.48031894  0.31755400  0.75053191  1
  O  O98  1  0.87665667  0.53263381  0.74342983  1
  O  O99  1  0.68244600  0.51968106  0.25053191  1
  O  O100  1  0.86274826  0.33123662  0.24765278  1
  O  O101  1  0.46736619  0.12334333  0.24342983  1
  O  O102  1  0.62610104  0.46254516  0.92738406  1
  O  O103  1  0.85295367  0.37409085  0.91937637  1
  O  O104  1  0.49600476  0.14868093  0.91446368  1
  O  O105  1  0.62590915  0.14704633  0.41937637  1
  O  O106  1  0.53745484  0.37389896  0.42738406  1
  O  O107  1  0.85131907  0.50399524  0.41446368  1
  O  O108  1  0.33542938  0.47058574  0.08098678  1
  O  O109  1  0.14698494  0.65088800  0.08386591  1
  O  O110  1  0.54332267  0.86596781  0.07676383  1
  O  O111  1  0.34911200  0.85301506  0.58386591  1
  O  O112  1  0.52941426  0.66457062  0.58098678  1
  O  O113  1  0.13403219  0.45667733  0.57676383  1
  O  O114  1  0.29276704  0.79587916  0.26071806  1
  O  O115  1  0.51961967  0.70742485  0.25271037  1
  O  O116  1  0.16267076  0.48201493  0.24779768  1
  O  O117  1  0.29257515  0.48038033  0.75271037  1
  O  O118  1  0.20412084  0.70723296  0.76071806  1
  O  O119  1  0.51798507  0.83732924  0.74779768  1
