# generated using pymatgen
data_Na3GaSi2SnSO12
_symmetry_space_group_name_H-M   'P 1'
_cell_length_a   8.95886669
_cell_length_b   8.95886639
_cell_length_c   22.35445118
_cell_angle_alpha   90.57866012
_cell_angle_beta   89.42133989
_cell_angle_gamma   120.13787089
_symmetry_Int_Tables_number   1
_chemical_formula_structural   Na3GaSi2SnSO12
_chemical_formula_sum   'Na18 Ga6 Si12 Sn6 S6 O72'
_cell_volume   1551.55170071
_cell_formula_units_Z   6
loop_
 _symmetry_equiv_pos_site_id
 _symmetry_equiv_pos_as_xyz
  1  'x, y, z'
loop_
 _atom_site_type_symbol
 _atom_site_label
 _atom_site_symmetry_multiplicity
 _atom_site_fract_x
 _atom_site_fract_y
 _atom_site_fract_z
 _atom_site_occupancy
  Na  Na0  1  0.62858756  0.99929204  0.24640128  1
  Na  Na1  1  0.99767933  0.64182287  0.24663446  1
  Na  Na2  1  0.00070796  0.37141244  0.74640128  1
  Na  Na3  1  0.35817713  0.00232067  0.74663446  1
  Na  Na4  1  0.29525456  0.33262504  0.57973428  1
  Na  Na5  1  0.66434633  0.97515587  0.57996746  1
  Na  Na6  1  0.66737496  0.70474544  0.07973428  1
  Na  Na7  1  0.02484413  0.33565367  0.07996746  1
  Na  Na8  1  0.96192056  0.66595904  0.91306828  1
  Na  Na9  1  0.33101233  0.30848987  0.91330146  1
  Na  Na10  1  0.33404096  0.03807944  0.41306828  1
  Na  Na11  1  0.69151013  0.66898767  0.41330146  1
  Na  Na12  1  0.00483465  0.01533243  0.49703840  1
  Na  Na13  1  0.98466757  0.99516535  0.99703840  1
  Na  Na14  1  0.67150165  0.34866543  0.83037140  1
  Na  Na15  1  0.65133457  0.32849835  0.33037140  1
  Na  Na16  1  0.33816765  0.68199943  0.16370540  1
  Na  Na17  1  0.31800057  0.66183235  0.66370540  1
  Ga  Ga18  1  0.00294791  0.00756146  0.35148912  1
  Ga  Ga19  1  0.99243854  0.99705209  0.85148912  1
  Ga  Ga20  1  0.66961491  0.34089446  0.68482212  1
  Ga  Ga21  1  0.65910554  0.33038509  0.18482212  1
  Ga  Ga22  1  0.33628091  0.67422846  0.01815612  1
  Ga  Ga23  1  0.32577154  0.66371909  0.51815612  1
  Si  Si24  1  0.29410675  0.00698322  0.25267234  1
  Si  Si25  1  0.70799361  0.70069834  0.25170658  1
  Si  Si26  1  0.29930166  0.29200639  0.75170658  1
  Si  Si27  1  0.99301678  0.70589325  0.75267234  1
  Si  Si28  1  0.96077375  0.34031622  0.58600534  1
  Si  Si29  1  0.37466061  0.03403134  0.58503958  1
  Si  Si30  1  0.96596866  0.62533939  0.08503958  1
  Si  Si31  1  0.65968378  0.03922625  0.08600534  1
  Si  Si32  1  0.62743975  0.67365022  0.91933934  1
  Si  Si33  1  0.04132661  0.36736534  0.91837358  1
  Si  Si34  1  0.63263466  0.95867339  0.41837358  1
  Si  Si35  1  0.32634978  0.37256025  0.41933934  1
  Sn  Sn36  1  0.01605136  0.00585251  0.64872393  1
  Sn  Sn37  1  0.99414749  0.98394864  0.14872393  1
  Sn  Sn38  1  0.68271836  0.33918551  0.98205693  1
  Sn  Sn39  1  0.66081449  0.31728164  0.48205693  1
  Sn  Sn40  1  0.34938436  0.67251951  0.31539093  1
  Sn  Sn41  1  0.32748049  0.65061564  0.81539093  1
  S  S42  1  0.00204598  0.29211252  0.25092927  1
  S  S43  1  0.70788748  0.99795402  0.75092927  1
  S  S44  1  0.66871298  0.62544552  0.58426227  1
  S  S45  1  0.37455448  0.33128702  0.08426227  1
  S  S46  1  0.33537898  0.95877952  0.91759627  1
  S  S47  1  0.04122048  0.66462102  0.41759627  1
  O  O48  1  0.20285114  0.03004462  0.31233369  1
  O  O49  1  0.83191908  0.79306919  0.30960524  1
  O  O50  1  0.97167405  0.18076323  0.30253747  1
  O  O51  1  0.20693081  0.16808092  0.80960524  1
  O  O52  1  0.96995538  0.79714886  0.81233369  1
  O  O53  1  0.81923677  0.02832595  0.80253747  1
  O  O54  1  0.77845433  0.96447819  0.69451651  1
  O  O55  1  0.17333059  0.22080157  0.69216178  1
  O  O56  1  0.03708327  0.82845317  0.69332626  1
  O  O57  1  0.77919843  0.82666941  0.19216178  1
  O  O58  1  0.03552181  0.22154567  0.19451651  1
  O  O59  1  0.17154683  0.96291673  0.19332626  1
  O  O60  1  0.86951814  0.36337762  0.64566669  1
  O  O61  1  0.49858608  0.12640219  0.64293824  1
  O  O62  1  0.63834105  0.51409623  0.63587047  1
  O  O63  1  0.87359781  0.50141392  0.14293824  1
  O  O64  1  0.63662238  0.13048186  0.14566669  1
  O  O65  1  0.48590377  0.36165895  0.13587047  1
  O  O66  1  0.44512133  0.29781119  0.02784951  1
  O  O67  1  0.83999759  0.55413457  0.02549478  1
  O  O68  1  0.70375027  0.16178617  0.02665926  1
  O  O69  1  0.44586543  0.16000241  0.52549478  1
  O  O70  1  0.70218881  0.55487867  0.52784951  1
  O  O71  1  0.83821383  0.29624973  0.52665926  1
  O  O72  1  0.53618414  0.69671162  0.97900069  1
  O  O73  1  0.16525208  0.45973619  0.97627224  1
  O  O74  1  0.30500705  0.84743023  0.96920447  1
  O  O75  1  0.54026381  0.83474792  0.47627224  1
  O  O76  1  0.30328838  0.46381586  0.47900069  1
  O  O77  1  0.15256977  0.69499295  0.46920447  1
  O  O78  1  0.11178733  0.63114519  0.36118351  1
  O  O79  1  0.50666359  0.88746857  0.35882878  1
  O  O80  1  0.37041627  0.49512017  0.35999326  1
  O  O81  1  0.11253143  0.49333641  0.85882878  1
  O  O82  1  0.36885481  0.88821267  0.86118351  1
  O  O83  1  0.50487983  0.62958373  0.85999326  1
  O  O84  1  0.02511372  0.82027832  0.41294234  1
  O  O85  1  0.81794391  0.96693230  0.40908493  1
  O  O86  1  0.16508845  0.17603507  0.41167945  1
  O  O87  1  0.03306770  0.18205609  0.90908493  1
  O  O88  1  0.17972168  0.97488628  0.91294234  1
  O  O89  1  0.82396493  0.83491155  0.91167945  1
  O  O90  1  0.96673550  0.15411430  0.59000561  1
  O  O91  1  0.18505847  0.02287160  0.58632299  1
  O  O92  1  0.82071774  0.80272049  0.58988835  1
  O  O93  1  0.97712840  0.81494153  0.08632299  1
  O  O94  1  0.84588570  0.03326450  0.09000561  1
  O  O95  1  0.19727951  0.17928226  0.08988835  1
  O  O96  1  0.69178072  0.15361132  0.74627534  1
  O  O97  1  0.48461091  0.30026530  0.74241793  1
  O  O98  1  0.83175545  0.50936807  0.74501245  1
  O  O99  1  0.69973470  0.51538909  0.24241793  1
  O  O100  1  0.84638868  0.30821928  0.24627534  1
  O  O101  1  0.49063193  0.16824455  0.24501245  1
  O  O102  1  0.63340250  0.48744730  0.92333861  1
  O  O103  1  0.85172547  0.35620460  0.91965599  1
  O  O104  1  0.48738474  0.13605349  0.92322135  1
  O  O105  1  0.64379540  0.14827453  0.41965599  1
  O  O106  1  0.51255270  0.36659750  0.42333861  1
  O  O107  1  0.86394651  0.51261526  0.42322135  1
  O  O108  1  0.35844672  0.48694532  0.07960934  1
  O  O109  1  0.15127691  0.63359930  0.07575193  1
  O  O110  1  0.49842145  0.84270207  0.07834645  1
  O  O111  1  0.36640070  0.84872309  0.57575193  1
  O  O112  1  0.51305468  0.64155328  0.57960934  1
  O  O113  1  0.15729793  0.50157855  0.57834645  1
  O  O114  1  0.30006850  0.82078130  0.25667261  1
  O  O115  1  0.51839147  0.68953860  0.25298999  1
  O  O116  1  0.15405074  0.46938749  0.25655535  1
  O  O117  1  0.31046140  0.48160853  0.75298999  1
  O  O118  1  0.17921870  0.69993150  0.75667261  1
  O  O119  1  0.53061251  0.84594926  0.75655535  1
