# generated using pymatgen
data_Na2Y3Ta5(PO4)12
_symmetry_space_group_name_H-M   'P 1'
_cell_length_a   17.78500951
_cell_length_b   8.90031811
_cell_length_c   23.17474696
_cell_angle_alpha   89.96365898
_cell_angle_beta   90.05304094
_cell_angle_gamma   119.99281417
_symmetry_Int_Tables_number   1
_chemical_formula_structural   Na2Y3Ta5(PO4)12
_chemical_formula_sum   'Na6 Y9 Ta15 P36 O144'
_cell_volume   3177.14116339
_cell_formula_units_Z   3
loop_
 _symmetry_equiv_pos_site_id
 _symmetry_equiv_pos_as_xyz
  1  'x, y, z'
loop_
 _atom_site_type_symbol
 _atom_site_label
 _atom_site_symmetry_multiplicity
 _atom_site_fract_x
 _atom_site_fract_y
 _atom_site_fract_z
 _atom_site_occupancy
  Na  Na0  1  0.33118942  0.32959315  0.82955238  1
  Na  Na1  1  0.83559001  0.33743415  0.83039648  1
  Na  Na2  1  0.33121551  0.32829445  0.32927457  1
  Na  Na3  1  0.83503646  0.33865633  0.32753860  1
  Na  Na4  1  0.66798132  0.66661255  0.16707234  1
  Na  Na5  1  0.16589243  0.66544067  0.66455341  1
  Y  Y6  1  0.99365834  0.99621063  0.36059985  1
  Y  Y7  1  0.33831191  0.33523532  0.69085389  1
  Y  Y8  1  0.82828087  0.33064020  0.68950426  1
  Y  Y9  1  0.33107878  0.33132110  0.18903828  1
  Y  Y10  1  0.83490365  0.33436960  0.18758390  1
  Y  Y11  1  0.66705543  0.66769556  0.01565689  1
  Y  Y12  1  0.17137569  0.67398259  0.51857946  1
  Y  Y13  1  0.66929388  0.66890987  0.31060774  1
  Y  Y14  1  0.16610038  0.66667478  0.81056291  1
  Ta  Ta15  1  0.50294751  0.00380292  0.35726475  1
  Ta  Ta16  1  0.00300142  0.00218359  0.85681649  1
  Ta  Ta17  1  0.49691157  0.99703842  0.85664050  1
  Ta  Ta18  1  0.99736485  0.99715523  0.64187815  1
  Ta  Ta19  1  0.50318837  0.00370687  0.64176234  1
  Ta  Ta20  1  0.00346562  0.00346775  0.14597505  1
  Ta  Ta21  1  0.49695108  0.99712152  0.14365111  1
  Ta  Ta22  1  0.33601128  0.33725683  0.98379355  1
  Ta  Ta23  1  0.83090094  0.32856363  0.98341337  1
  Ta  Ta24  1  0.33043446  0.33376609  0.48109151  1
  Ta  Ta25  1  0.83719897  0.33673402  0.48266711  1
  Ta  Ta26  1  0.16589559  0.66560577  0.01789432  1
  Ta  Ta27  1  0.66393384  0.66477818  0.51848013  1
  Ta  Ta28  1  0.16567327  0.66494671  0.31073966  1
  Ta  Ta29  1  0.66752609  0.66724629  0.81099442  1
  P  P30  1  0.14072154  0.98997862  0.25191177  1
  P  P31  1  0.63794286  0.99749636  0.24983210  1
  P  P32  1  0.35839280  0.72294738  0.25382545  1
  P  P33  1  0.85478785  0.71662228  0.24693420  1
  P  P34  1  0.00557038  0.29327756  0.25095418  1
  P  P35  1  0.50066243  0.27819420  0.24986584  1
  P  P36  1  0.13821386  0.27708643  0.74929064  1
  P  P37  1  0.63674572  0.28346335  0.75290737  1
  P  P38  1  0.99999644  0.72340567  0.74939203  1
  P  P39  1  0.50525732  0.72689882  0.75266273  1
  P  P40  1  0.36150629  0.99548651  0.74876220  1
  P  P41  1  0.85860133  0.99463065  0.75332347  1
  P  P42  1  0.47883795  0.33128345  0.58098997  1
  P  P43  1  0.97794629  0.33083211  0.58636521  1
  P  P44  1  0.18621172  0.04799826  0.58527845  1
  P  P45  1  0.68837282  0.03933834  0.58227286  1
  P  P46  1  0.33734769  0.62677916  0.58608685  1
  P  P47  1  0.83161358  0.62509825  0.58154947  1
  P  P48  1  0.47889339  0.62859385  0.08552393  1
  P  P49  1  0.98019326  0.63034037  0.08065760  1
  P  P50  1  0.33235531  0.03867475  0.08146325  1
  P  P51  1  0.83762617  0.04138429  0.08473400  1
  P  P52  1  0.18733211  0.33538054  0.08195883  1
  P  P53  1  0.68310639  0.32448509  0.08398307  1
  P  P54  1  0.31255310  0.66277037  0.91773322  1
  P  P55  1  0.81305757  0.66009083  0.91352219  1
  P  P56  1  0.01818584  0.37290961  0.91763050  1
  P  P57  1  0.51774025  0.37600051  0.91355532  1
  P  P58  1  0.16975526  0.96428544  0.91791160  1
  P  P59  1  0.66908948  0.96404164  0.91334922  1
  P  P60  1  0.31290932  0.96638695  0.41322178  1
  P  P61  1  0.80727652  0.96120044  0.42052506  1
  P  P62  1  0.17406117  0.38519164  0.41565951  1
  P  P63  1  0.66921217  0.37586118  0.41835258  1
  P  P64  1  0.01837847  0.64957402  0.41593872  1
  P  P65  1  0.51878733  0.66314415  0.41745497  1
  O  O66  1  0.09911538  0.01587644  0.30441249  1
  O  O67  1  0.58940327  0.00251461  0.30573490  1
  O  O68  1  0.41585004  0.81966063  0.30674100  1
  O  O69  1  0.90164450  0.79971659  0.30241960  1
  O  O70  1  0.50113049  0.17497187  0.30442589  1
  O  O71  1  0.99077168  0.18784404  0.30475863  1
  O  O72  1  0.08961273  0.17625288  0.80568616  1
  O  O73  1  0.58718851  0.17114509  0.80524708  1
  O  O74  1  0.49579883  0.81952211  0.80629012  1
  O  O75  1  0.00095991  0.82683285  0.80446066  1
  O  O76  1  0.41098399  0.99399176  0.80417562  1
  O  O77  1  0.91507540  0.01180783  0.80678030  1
  O  O78  1  0.41269899  0.99220883  0.69404319  1
  O  O79  1  0.89917827  0.97184635  0.69748376  1
  O  O80  1  0.08310089  0.17508423  0.69535392  1
  O  O81  1  0.58710631  0.20123175  0.69604450  1
  O  O82  1  0.00081575  0.82426759  0.69383988  1
  O  O83  1  0.51673508  0.83530750  0.69749095  1
  O  O84  1  0.40024747  0.82722694  0.19734628  1
  O  O85  1  0.91126646  0.83106428  0.19259101  1
  O  O86  1  0.01623391  0.19886169  0.19584065  1
  O  O87  1  0.50107545  0.17807668  0.19371168  1
  O  O88  1  0.08770100  0.97431554  0.19466315  1
  O  O89  1  0.58296658  0.99075309  0.19521073  1
  O  O90  1  0.44827860  0.37589159  0.63533970  1
  O  O91  1  0.93549697  0.35613688  0.63909054  1
  O  O92  1  0.24155322  0.13174746  0.63778739  1
  O  O93  1  0.74072354  0.10109317  0.63703340  1
  O  O94  1  0.32581369  0.52175463  0.63961888  1
  O  O95  1  0.80896644  0.51461668  0.63504208  1
  O  O96  1  0.43844696  0.51743646  0.13791472  1
  O  O97  1  0.94876609  0.51858643  0.13336058  1
  O  O98  1  0.30931552  0.10511573  0.13386207  1
  O  O99  1  0.82206315  0.11963241  0.13752237  1
  O  O100  1  0.24224030  0.38366874  0.13535196  1
  O  O101  1  0.73889950  0.35381934  0.13600949  1
  O  O102  1  0.23636906  0.30713960  0.02997501  1
  O  O103  1  0.73289388  0.30346469  0.02897753  1
  O  O104  1  0.41986636  0.52907913  0.03088559  1
  O  O105  1  0.91619795  0.53268586  0.02802759  1
  O  O106  1  0.34955149  0.16501739  0.02881089  1
  O  O107  1  0.84536414  0.16257172  0.03029145  1
  O  O108  1  0.23363348  0.16329798  0.52981549  1
  O  O109  1  0.73409515  0.16556586  0.53146584  1
  O  O110  1  0.34655395  0.52994470  0.53166551  1
  O  O111  1  0.85012041  0.53515340  0.52989993  1
  O  O112  1  0.41621402  0.29793063  0.52923945  1
  O  O113  1  0.91943671  0.30890971  0.53190630  1
  O  O114  1  0.26585499  0.69218264  0.96900571  1
  O  O115  1  0.78209888  0.70519790  0.96722725  1
  O  O116  1  0.08035975  0.46825007  0.96882370  1
  O  O117  1  0.57040017  0.43579353  0.96765501  1
  O  O118  1  0.15462211  0.84006176  0.96895517  1
  O  O119  1  0.64652392  0.85844373  0.96741701  1
  O  O120  1  0.28442160  0.86435249  0.46826835  1
  O  O121  1  0.75290512  0.83703666  0.47061641  1
  O  O122  1  0.16382192  0.46204796  0.47036528  1
  O  O123  1  0.65291548  0.46796738  0.46971711  1
  O  O124  1  0.06894698  0.67408216  0.47009320  1
  O  O125  1  0.57792829  0.69000095  0.47015251  1
  O  O126  1  0.06678736  0.62604390  0.36218359  1
  O  O127  1  0.55116187  0.61792191  0.36379958  1
  O  O128  1  0.25027784  0.87338163  0.36185243  1
  O  O129  1  0.75580339  0.89885965  0.36516330  1
  O  O130  1  0.18783791  0.50675693  0.36228714  1
  O  O131  1  0.69043970  0.48285192  0.36399930  1
  O  O132  1  0.05052456  0.48320300  0.86371875  1
  O  O133  1  0.56548030  0.50069693  0.86170294  1
  O  O134  1  0.19198424  0.90002142  0.86373965  1
  O  O135  1  0.68426565  0.86815807  0.86173893  1
  O  O136  1  0.25845243  0.61785579  0.86342714  1
  O  O137  1  0.74958331  0.63076510  0.86178824  1
  O  O138  1  -0.00006272  0.79454606  0.40702202  1
  O  O139  1  0.50887837  0.82642816  0.40893254  1
  O  O140  1  0.40493002  0.99666146  0.39789168  1
  O  O141  1  0.89613479  0.98006617  0.42314416  1
  O  O142  1  0.10153511  0.20324060  0.40650033  1
  O  O143  1  0.58764167  0.19251226  0.40955897  1
  O  O144  1  0.00898977  0.19062269  0.90900370  1
  O  O145  1  0.50182034  0.19200759  0.89827790  1
  O  O146  1  0.08771335  0.98268626  0.90919346  1
  O  O147  1  0.59268991  0.99509701  0.89795130  1
  O  O148  1  0.40432349  0.82606095  0.90944079  1
  O  O149  1  0.90442867  0.81365935  0.89773026  1
  O  O150  1  0.48976415  0.16845181  0.59123873  1
  O  O151  1  0.97837109  0.15542839  0.59401030  1
  O  O152  1  0.09546081  0.03797784  0.59234518  1
  O  O153  1  0.59812667  0.02620312  0.59274961  1
  O  O154  1  0.42426768  0.80800897  0.59394846  1
  O  O155  1  0.91390466  0.80554348  0.59142193  1
  O  O156  1  0.47834614  0.80248505  0.09269448  1
  O  O157  1  0.99063998  0.81180571  0.08959590  1
  O  O158  1  0.41396477  0.02169812  0.09026330  1
  O  O159  1  0.92434174  0.03904388  0.09228449  1
  O  O160  1  0.09836725  0.17094399  0.09061764  1
  O  O161  1  0.59386238  0.15223858  0.09138277  1
  O  O162  1  0.35974698  0.16423086  0.75188831  1
  O  O163  1  0.84613571  0.15140453  0.75272684  1
  O  O164  1  0.22592826  0.28578626  0.75128509  1
  O  O165  1  0.72663162  0.30395536  0.75318884  1
  O  O166  1  0.42585556  0.54728280  0.75264780  1
  O  O167  1  0.91636951  0.54835558  0.75151737  1
  O  O168  1  0.34792066  0.54269762  0.25227600  1
  O  O169  1  0.84549221  0.53763942  0.24373093  1
  O  O170  1  0.41713209  0.28584919  0.25118524  1
  O  O171  1  0.93120813  0.32888895  0.24460005  1
  O  O172  1  0.23277292  0.13959013  0.24526999  1
  O  O173  1  0.72578961  0.16280112  0.25104238  1
  O  O174  1  0.32814749  0.50982995  0.93315400  1
  O  O175  1  0.82225394  0.49529425  0.92150877  1
  O  O176  1  0.42544116  0.35594863  0.92169243  1
  O  O177  1  0.92666239  0.34398763  0.93344639  1
  O  O178  1  0.24632929  0.14842199  0.93343994  1
  O  O179  1  0.75168527  0.14696713  0.92174192  1
  O  O180  1  0.32302095  0.15140495  0.42236670  1
  O  O181  1  0.81618335  0.14110430  0.43535005  1
  O  O182  1  0.26072350  0.37333551  0.42349556  1
  O  O183  1  0.74657122  0.34841781  0.43433489  1
  O  O184  1  0.42788569  0.50819927  0.43393774  1
  O  O185  1  0.92589109  0.47644736  0.42303626  1
  O  O186  1  0.17223443  0.48714517  0.06313247  1
  O  O187  1  0.66770641  0.47439272  0.07464511  1
  O  O188  1  0.07087868  0.65629996  0.06217441  1
  O  O189  1  0.56993102  0.66344857  0.07597088  1
  O  O190  1  0.25623380  0.85732514  0.06313830  1
  O  O191  1  0.76290792  0.86069786  0.07462769  1
  O  O192  1  0.16969636  0.86565274  0.57853637  1
  O  O193  1  0.66914092  0.85388343  0.56641723  1
  O  O194  1  0.26429977  0.66504922  0.57990915  1
  O  O195  1  0.75602830  0.65539829  0.56395303  1
  O  O196  1  0.06988799  0.47651984  0.57872985  1
  O  O197  1  0.56976546  0.48270239  0.56458098  1
  O  O198  1  0.14546294  0.81840206  0.25973672  1
  O  O199  1  0.63997947  0.82901659  0.24887667  1
  O  O200  1  0.26977525  0.71464079  0.26365160  1
  O  O201  1  0.76750307  0.71088577  0.24183103  1
  O  O202  1  0.09266557  0.47273278  0.25868938  1
  O  O203  1  0.58405804  0.45215735  0.24902084  1
  O  O204  1  0.14198342  0.45186069  0.74902544  1
  O  O205  1  0.64283539  0.46401180  0.76307734  1
  O  O206  1  0.08352659  0.71519581  0.74892603  1
  O  O207  1  0.58948326  0.71515872  0.76303463  1
  O  O208  1  0.27331751  0.83077105  0.74781034  1
  O  O209  1  0.76861564  0.82390656  0.76394597  1
