# generated using pymatgen
data_Na8Ca2Ta2Si5SO24
_symmetry_space_group_name_H-M   'P 1'
_cell_length_a   9.37430611
_cell_length_b   9.34638486
_cell_length_c   22.66409276
_cell_angle_alpha   89.64314710
_cell_angle_beta   90.75290273
_cell_angle_gamma   120.01476664
_symmetry_Int_Tables_number   1
_chemical_formula_structural   Na8Ca2Ta2Si5SO24
_chemical_formula_sum   'Na24 Ca6 Ta6 Si15 S3 O72'
_cell_volume   1719.29178751
_cell_formula_units_Z   3
loop_
 _symmetry_equiv_pos_site_id
 _symmetry_equiv_pos_as_xyz
  1  'x, y, z'
loop_
 _atom_site_type_symbol
 _atom_site_label
 _atom_site_symmetry_multiplicity
 _atom_site_fract_x
 _atom_site_fract_y
 _atom_site_fract_z
 _atom_site_occupancy
  Na  Na0  1  0.65228896  0.03285236  0.24393622  1
  Na  Na1  1  0.36370358  0.33655392  0.25209289  1
  Na  Na2  1  0.98354252  0.62594170  0.24345657  1
  Na  Na3  1  0.62583345  0.64067897  0.76125621  1
  Na  Na4  1  0.01056425  0.37225496  0.76042190  1
  Na  Na5  1  0.36080978  0.98680595  0.75114340  1
  Na  Na6  1  0.29307105  0.35408439  0.57949439  1
  Na  Na7  1  0.05153939  0.70078814  0.58867180  1
  Na  Na8  1  0.64466199  0.94275558  0.57852392  1
  Na  Na9  1  0.32194601  0.96350646  0.08556394  1
  Na  Na10  1  0.66497770  0.70474478  0.06910363  1
  Na  Na11  1  0.02808584  0.35117612  0.07442603  1
  Na  Na12  1  0.98300151  0.67447551  0.89888826  1
  Na  Na13  1  0.71489230  0.00909422  0.90746424  1
  Na  Na14  1  0.32391964  0.31860667  0.90208217  1
  Na  Na15  1  0.97941249  0.28481373  0.40984708  1
  Na  Na16  1  0.32693744  0.03302321  0.40414482  1
  Na  Na17  1  0.69756924  0.68658186  0.41069058  1
  Na  Na18  1  0.00064302  0.01915286  0.49694971  1
  Na  Na19  1  0.98411543  0.99648580  0.99167135  1
  Na  Na20  1  0.67172105  0.34570070  0.82987833  1
  Na  Na21  1  0.66654567  0.33086541  0.32242568  1
  Na  Na22  1  0.33256230  0.68484869  0.15989079  1
  Na  Na23  1  0.33304579  0.66490511  0.67056704  1
  Ca  Ca24  1  0.99875788  0.00076834  0.34977813  1
  Ca  Ca25  1  0.99805912  0.99942020  0.84373970  1
  Ca  Ca26  1  0.67144267  0.33396231  0.18194849  1
  Ca  Ca27  1  0.33601254  0.66710069  0.01193876  1
  Ca  Ca28  1  0.33423206  0.66556220  0.52275870  1
  Ca  Ca29  1  0.33217572  0.65639468  0.81435909  1
  Ta  Ta30  1  0.99618760  -0.00001744  0.64644125  1
  Ta  Ta31  1  0.98841177  0.99348894  0.15390210  1
  Ta  Ta32  1  0.66708668  0.33442864  0.68455868  1
  Ta  Ta33  1  0.69216687  0.34449192  0.98544125  1
  Ta  Ta34  1  0.65280640  0.32403836  0.48156045  1
  Ta  Ta35  1  0.35246497  0.67248612  0.31139860  1
  Si  Si36  1  0.29189474  0.98912346  0.25356398  1
  Si  Si37  1  0.69719813  0.70127365  0.25449377  1
  Si  Si38  1  0.01184848  0.30608305  0.25376137  1
  Si  Si39  1  0.30170597  0.29182125  0.74700652  1
  Si  Si40  1  0.99456915  0.69923700  0.74643367  1
  Si  Si41  1  0.70430827  0.00673115  0.74679309  1
  Si  Si42  1  0.94436156  0.32110193  0.58312192  1
  Si  Si43  1  0.36537481  0.04917767  0.58475040  1
  Si  Si44  1  0.68019142  0.62805061  0.58242139  1
  Si  Si45  1  0.97286616  0.64897119  0.08914516  1
  Si  Si46  1  0.67163588  0.03260275  0.08897264  1
  Si  Si47  1  0.64238660  0.65831781  0.91984895  1
  Si  Si48  1  0.02635797  0.35940310  0.92012359  1
  Si  Si49  1  0.62625059  0.96964095  0.42109718  1
  Si  Si50  1  0.34129094  0.37469305  0.42028316  1
  S  S51  1  0.36005698  0.31913505  0.08447673  1
  S  S52  1  0.34712491  0.98636807  0.92019918  1
  S  S53  1  0.03205595  0.65156513  0.41694169  1
  O  O54  1  0.21817398  0.01389318  0.31260016  1
  O  O55  1  0.79750520  0.76610702  0.31423978  1
  O  O56  1  0.98297362  0.20440999  0.31300438  1
  O  O57  1  0.24578184  0.18681887  0.80704403  1
  O  O58  1  0.95194717  0.75910379  0.80626302  1
  O  O59  1  0.80788070  0.05059181  0.80729368  1
  O  O60  1  0.81898085  0.99347034  0.69122162  1
  O  O61  1  0.17215690  0.17533697  0.69137738  1
  O  O62  1  0.00320074  0.82489041  0.69018854  1
  O  O63  1  0.80577810  0.83591345  0.19796942  1
  O  O64  1  0.03169392  0.19386056  0.19645539  1
  O  O65  1  0.16112883  0.96996548  0.19534689  1
  O  O66  1  0.83817679  0.32871987  0.63819638  1
  O  O67  1  0.48674152  0.15648300  0.63888309  1
  O  O68  1  0.67255019  0.51089787  0.63746225  1
  O  O69  1  0.89303307  0.54731998  0.14736495  1
  O  O70  1  0.63865140  0.10201642  0.14794289  1
  O  O71  1  0.44952655  0.33737063  0.13973099  1
  O  O72  1  0.45255985  0.30470198  0.03319393  1
  O  O73  1  0.84154327  0.52873003  0.03208954  1
  O  O74  1  0.68806373  0.16566315  0.03346391  1
  O  O75  1  0.46714952  0.16825971  0.52467359  1
  O  O76  1  0.69743099  0.52646881  0.52347643  1
  O  O77  1  0.82472397  0.30228194  0.52345408  1
  O  O78  1  0.56109771  0.69026322  0.97691312  1
  O  O79  1  0.11994652  0.44332095  0.98091083  1
  O  O80  1  0.32766720  0.88727615  0.97394534  1
  O  O81  1  0.54241983  0.87181049  0.47994300  1
  O  O82  1  0.30923275  0.44829928  0.47852250  1
  O  O83  1  0.12342501  0.66945332  0.47171982  1
  O  O84  1  0.12230333  0.63945568  0.36443548  1
  O  O85  1  0.49820171  0.85979889  0.36183805  1
  O  O86  1  0.36340394  0.50692414  0.36177464  1
  O  O87  1  0.09167474  0.47658156  0.86197108  1
  O  O88  1  0.37433117  0.91176627  0.86722446  1
  O  O89  1  0.52901283  0.61583437  0.86011391  1
  O  O90  1  0.00366579  0.79263542  0.41264064  1
  O  O91  1  0.80927908  0.99500736  0.41651295  1
  O  O92  1  0.19497267  0.18562851  0.41406696  1
  O  O93  1  0.00294108  0.17609918  0.91639709  1
  O  O94  1  0.20183277  0.00717869  0.91492360  1
  O  O95  1  0.83286803  0.80730931  0.91672811  1
  O  O96  1  0.95707158  0.15006132  0.58623643  1
  O  O97  1  0.18603201  0.04283724  0.58609421  1
  O  O98  1  0.85098823  0.81140866  0.58538280  1
  O  O99  1  0.96918450  0.82686532  0.08994612  1
  O  O100  1  0.85597269  0.03927368  0.09173356  1
  O  O101  1  0.19538716  0.15995367  0.08541450  1
  O  O102  1  0.67704009  0.16828277  0.73681958  1
  O  O103  1  0.49186522  0.32424938  0.73635741  1
  O  O104  1  0.83412407  0.50859557  0.73724783  1
  O  O105  1  0.64509467  0.51323087  0.24275268  1
  O  O106  1  0.86086163  0.34068954  0.24603346  1
  O  O107  1  0.47504925  0.14282508  0.24530378  1
  O  O108  1  0.64265277  0.47676361  0.93268323  1
  O  O109  1  0.83154459  0.33629267  0.92835234  1
  O  O110  1  0.49941878  0.15496644  0.92758889  1
  O  O111  1  0.63094497  0.15401971  0.42025746  1
  O  O112  1  0.52509031  0.37924921  0.42134369  1
  O  O113  1  0.86819172  0.49212921  0.41713686  1
  O  O114  1  0.33312890  0.46107287  0.07825369  1
  O  O115  1  0.15649270  0.68083418  0.08027240  1
  O  O116  1  0.52289426  0.84545373  0.08007934  1
  O  O117  1  0.34279163  0.86772641  0.58499753  1
  O  O118  1  0.51874289  0.64568994  0.58521565  1
  O  O119  1  0.12276405  0.48427438  0.58462247  1
  O  O120  1  0.29029736  0.80767437  0.25704273  1
  O  O121  1  0.52431806  0.71579248  0.25610887  1
  O  O122  1  0.19332084  0.48509421  0.25703030  1
  O  O123  1  0.30505829  0.46586057  0.74396879  1
  O  O124  1  0.16397077  0.69488334  0.74365526  1
  O  O125  1  0.52740397  0.83991260  0.74469968  1
