# generated using pymatgen
data_Na2ScTa3Si4(SO12)2
_symmetry_space_group_name_H-M   'P 1'
_cell_length_a   8.87882569
_cell_length_b   8.89659629
_cell_length_c   23.02280982
_cell_angle_alpha   90.19041802
_cell_angle_beta   90.22030672
_cell_angle_gamma   120.01836759
_symmetry_Int_Tables_number   1
_chemical_formula_structural   Na2ScTa3Si4(SO12)2
_chemical_formula_sum   'Na6 Sc3 Ta9 Si12 S6 O72'
_cell_volume   1574.62367098
_cell_formula_units_Z   3
loop_
 _symmetry_equiv_pos_site_id
 _symmetry_equiv_pos_as_xyz
  1  'x, y, z'
loop_
 _atom_site_type_symbol
 _atom_site_label
 _atom_site_symmetry_multiplicity
 _atom_site_fract_x
 _atom_site_fract_y
 _atom_site_fract_z
 _atom_site_occupancy
  Na  Na0  1  0.99140436  0.98829203  0.49927863  1
  Na  Na1  1  0.00136454  0.99608261  0.99897476  1
  Na  Na2  1  0.66024781  0.32428772  0.83198898  1
  Na  Na3  1  0.66859991  0.32361150  0.32668438  1
  Na  Na4  1  0.32489931  0.65825447  0.16360116  1
  Na  Na5  1  0.34469030  0.66464325  0.66696341  1
  Sc  Sc6  1  0.65255423  0.33316865  0.69042057  1
  Sc  Sc7  1  0.67160935  0.33648704  0.18593147  1
  Sc  Sc8  1  0.34790001  0.68043163  0.51816680  1
  Ta  Ta9  1  0.99812735  0.00203257  0.35247151  1
  Ta  Ta10  1  0.00509752  0.01449974  0.85779497  1
  Ta  Ta11  1  0.98735812  0.99600424  0.64915187  1
  Ta  Ta12  1  0.02126031  0.01092363  0.14331624  1
  Ta  Ta13  1  0.66264597  0.34362110  0.97652442  1
  Ta  Ta14  1  0.67836624  0.34403570  0.47783082  1
  Ta  Ta15  1  0.32420647  0.65957464  0.01877791  1
  Ta  Ta16  1  0.32062637  0.67608465  0.31085619  1
  Ta  Ta17  1  0.34216497  0.66534900  0.81439036  1
  Si  Si18  1  0.29390787  0.00987055  0.25044704  1
  Si  Si19  1  0.99859674  0.28939572  0.24961019  1
  Si  Si20  1  0.28670333  0.29018047  0.75063903  1
  Si  Si21  1  0.70704243  0.00191432  0.75232781  1
  Si  Si22  1  0.66377975  0.62354998  0.58511533  1
  Si  Si23  1  0.95449218  0.62124133  0.08451628  1
  Si  Si24  1  0.38652213  0.34231672  0.08397516  1
  Si  Si25  1  0.62387226  0.67213660  0.91802300  1
  Si  Si26  1  0.04257280  0.38329925  0.91542195  1
  Si  Si27  1  0.33460245  0.95314501  0.91638820  1
  Si  Si28  1  0.62278318  0.95617061  0.41660777  1
  Si  Si29  1  0.04815824  0.67330307  0.41835416  1
  S  S30  1  0.71073475  0.71377430  0.25008778  1
  S  S31  1  0.00199914  0.71463152  0.75074413  1
  S  S32  1  0.95611158  0.33346124  0.58417114  1
  S  S33  1  0.37630683  0.04537967  0.58329798  1
  S  S34  1  0.66637295  0.04275300  0.08294692  1
  S  S35  1  0.33356175  0.37687519  0.41656680  1
  O  O36  1  0.18627219  0.01807779  0.30694313  1
  O  O37  1  0.82029111  0.79961084  0.30369615  1
  O  O38  1  0.97894044  0.16760095  0.30670614  1
  O  O39  1  0.18857128  0.16457773  0.80619625  1
  O  O40  1  0.97590328  0.79615858  0.80237572  1
  O  O41  1  0.83280075  0.01842184  0.80666928  1
  O  O42  1  0.80160803  0.96640838  0.69347917  1
  O  O43  1  0.16326494  0.18889189  0.69227846  1
  O  O44  1  0.02745568  0.82495854  0.69680095  1
  O  O45  1  0.78869232  0.82169323  0.19836554  1
  O  O46  1  0.02514542  0.18863740  0.19354929  1
  O  O47  1  0.16449181  0.96687482  0.19324453  1
  O  O48  1  0.87434285  0.35491711  0.63533702  1
  O  O49  1  0.48284677  0.12295687  0.63542252  1
  O  O50  1  0.64660426  0.50709565  0.63987642  1
  O  O51  1  0.87762771  0.50681709  0.14143231  1
  O  O52  1  0.63646037  0.11631787  0.13572808  1
  O  O53  1  0.49317857  0.36618218  0.14205405  1
  O  O54  1  0.46939849  0.30233933  0.02601042  1
  O  O55  1  0.83324646  0.52607954  0.02629437  1
  O  O56  1  0.69674991  0.15039309  0.03067061  1
  O  O57  1  0.46030894  0.15405911  0.53051890  1
  O  O58  1  0.69232844  0.52328957  0.52649723  1
  O  O59  1  0.84303747  0.30146202  0.52989232  1
  O  O60  1  0.53206981  0.70029014  0.97426760  1
  O  O61  1  0.16568476  0.46802958  0.97291197  1
  O  O62  1  0.30430853  0.83265438  0.97324070  1
  O  O63  1  0.54621822  0.84064834  0.47332341  1
  O  O64  1  0.30197128  0.44866537  0.46907596  1
  O  O65  1  0.15835174  0.69671603  0.47521917  1
  O  O66  1  0.13334942  0.63435779  0.35979703  1
  O  O67  1  0.49943290  0.85814153  0.35915920  1
  O  O68  1  0.36499553  0.48316549  0.36426480  1
  O  O69  1  0.13512247  0.50172320  0.85853407  1
  O  O70  1  0.36242603  0.86031096  0.85880466  1
  O  O71  1  0.50088913  0.63441201  0.85980402  1
  O  O72  1  0.01743243  0.83627788  0.40606755  1
  O  O73  1  0.81863971  0.98550634  0.40589655  1
  O  O74  1  0.17895928  0.19835345  0.40887696  1
  O  O75  1  0.02657852  0.19158302  0.90957224  1
  O  O76  1  0.16227534  0.97217617  0.90685914  1
  O  O77  1  0.81598367  0.83659833  0.90717874  1
  O  O78  1  0.97007271  0.17001853  0.58836060  1
  O  O79  1  0.20063810  0.03048771  0.58886332  1
  O  O80  1  0.84772668  0.81825416  0.59046652  1
  O  O81  1  0.96856663  0.81461658  0.09177825  1
  O  O82  1  0.82322061  0.02163140  0.09030429  1
  O  O83  1  0.18576572  0.16606706  0.08971315  1
  O  O84  1  0.69859484  0.17464305  0.74314803  1
  O  O85  1  0.47625687  0.31063285  0.74656433  1
  O  O86  1  0.84945654  0.54233873  0.74327765  1
  O  O87  1  0.69571169  0.54316401  0.24725059  1
  O  O88  1  0.83316980  0.31361124  0.24723164  1
  O  O89  1  0.48187081  0.17410214  0.24685245  1
  O  O90  1  0.63967445  0.49686108  0.92387126  1
  O  O91  1  0.85009565  0.35439213  0.92589350  1
  O  O92  1  0.50609132  0.14390800  0.92599378  1
  O  O93  1  0.63991571  0.14885590  0.42721952  1
  O  O94  1  0.48975796  0.35317183  0.42428413  1
  O  O95  1  0.85079056  0.49533081  0.42518309  1
  O  O96  1  0.35711658  0.50808067  0.07395153  1
  O  O97  1  0.15294555  0.65481295  0.07378427  1
  O  O98  1  0.51139969  0.86631872  0.07558334  1
  O  O99  1  0.35258325  0.87000889  0.57714903  1
  O  O100  1  0.49574046  0.64559799  0.57758966  1
  O  O101  1  0.12894149  0.48321552  0.57539436  1
  O  O102  1  0.30440265  0.82747317  0.25748981  1
  O  O103  1  0.53613319  0.69637108  0.25888847  1
  O  O104  1  0.18323753  0.47614000  0.26037348  1
  O  O105  1  0.29612856  0.47834437  0.75682747  1
  O  O106  1  0.16185445  0.70234382  0.75434537  1
  O  O107  1  0.51664020  0.82499143  0.75710940  1
