# generated using pymatgen
data_NaTa3AlSiP5O24
_symmetry_space_group_name_H-M   'P 1'
_cell_length_a   8.67956804
_cell_length_b   8.68140799
_cell_length_c   22.46290399
_cell_angle_alpha   89.79016704
_cell_angle_beta   90.10162268
_cell_angle_gamma   120.02574599
_symmetry_Int_Tables_number   1
_chemical_formula_structural   NaTa3AlSiP5O24
_chemical_formula_sum   'Na3 Ta9 Al3 Si3 P15 O72'
_cell_volume   1465.44380355
_cell_formula_units_Z   3
loop_
 _symmetry_equiv_pos_site_id
 _symmetry_equiv_pos_as_xyz
  1  'x, y, z'
loop_
 _atom_site_type_symbol
 _atom_site_label
 _atom_site_symmetry_multiplicity
 _atom_site_fract_x
 _atom_site_fract_y
 _atom_site_fract_z
 _atom_site_occupancy
  Na  Na0  1  0.00095123  0.00017952  0.99242284  1
  Na  Na1  1  0.66414347  0.33221105  0.83929012  1
  Na  Na2  1  0.66806238  0.33441109  0.33833381  1
  Ta  Ta3  1  0.99453450  0.99798098  0.36006918  1
  Ta  Ta4  1  0.00317595  0.00480822  0.64305011  1
  Ta  Ta5  1  0.99760554  0.00180774  0.14288231  1
  Ta  Ta6  1  0.66501025  0.33365103  0.69031781  1
  Ta  Ta7  1  0.66830992  0.33528824  0.18800757  1
  Ta  Ta8  1  0.33364082  0.66652049  0.01990866  1
  Ta  Ta9  1  0.33308704  0.66588784  0.52473963  1
  Ta  Ta10  1  0.33308279  0.66504817  0.31042148  1
  Ta  Ta11  1  0.33322664  0.66509049  0.81104939  1
  Al  Al12  1  0.00346390  0.00124256  0.85506259  1
  Al  Al13  1  0.66618426  0.33339607  0.97734348  1
  Al  Al14  1  0.66708952  0.33434194  0.48003454  1
  Si  Si15  1  0.71621650  0.71508726  0.25080257  1
  Si  Si16  1  0.99855177  0.28338947  0.25042796  1
  Si  Si17  1  0.27746652  0.27673254  0.75451115  1
  P  P18  1  0.28268730  0.00079319  0.25072931  1
  P  P19  1  0.99930616  0.72190543  0.75320233  1
  P  P20  1  0.72272904  0.00069645  0.75307641  1
  P  P21  1  0.94259244  0.33053384  0.58024824  1
  P  P22  1  0.38727363  0.05570227  0.58020909  1
  P  P23  1  0.67046511  0.61382823  0.58008409  1
  P  P24  1  0.94755843  0.61468258  0.07862466  1
  P  P25  1  0.66623954  0.05342658  0.07890530  1
  P  P26  1  0.38623211  0.33207641  0.07867128  1
  P  P27  1  0.63182176  0.66725595  0.91637402  1
  P  P28  1  0.03446441  0.36914863  0.91665414  1
  P  P29  1  0.33369406  0.96477789  0.91638636  1
  P  P30  1  0.61678326  0.96309467  0.41874865  1
  P  P31  1  0.34465700  0.38137216  0.41870163  1
  P  P32  1  0.03790288  0.65613003  0.41865002  1
  O  O33  1  0.20214350  0.03533745  0.30628317  1
  O  O34  1  0.84036642  0.80159476  0.30909655  1
  O  O35  1  0.96738769  0.16128731  0.30881419  1
  O  O36  1  0.19181476  0.15448080  0.81077517  1
  O  O37  1  0.96056936  0.79856174  0.80746897  1
  O  O38  1  0.83618936  0.03240581  0.80747062  1
  O  O39  1  0.80022984  0.96982172  0.69485972  1
  O  O40  1  0.16539316  0.19335056  0.69219300  1
  O  O41  1  0.02569702  0.82917036  0.69494315  1
  O  O42  1  0.80661883  0.83343318  0.19120347  1
  O  O43  1  0.03313784  0.19763342  0.19100411  1
  O  O44  1  0.17123023  0.97026605  0.19396277  1
  O  O45  1  0.86596690  0.36399202  0.63754503  1
  O  O46  1  0.49985436  0.13510882  0.63751539  1
  O  O47  1  0.63629229  0.49979875  0.63742684  1
  O  O48  1  0.86550719  0.50480830  0.13720799  1
  O  O49  1  0.63908772  0.13271144  0.13724424  1
  O  O50  1  0.49357662  0.35957358  0.13716536  1
  O  O51  1  0.47380134  0.30306104  0.02551767  1
  O  O52  1  0.82959729  0.52812854  0.02567929  1
  O  O53  1  0.69807600  0.17077214  0.02561994  1
  O  O54  1  0.47151429  0.17003151  0.52594635  1
  O  O55  1  0.69782697  0.52798990  0.52592094  1
  O  O56  1  0.82981833  0.30295140  0.52579742  1
  O  O57  1  0.53571324  0.69522286  0.97162848  1
  O  O58  1  0.16006573  0.46581063  0.97170552  1
  O  O59  1  0.30740395  0.83997520  0.97188026  1
  O  O60  1  0.52979381  0.83974250  0.47300631  1
  O  O61  1  0.30908197  0.46899392  0.47268983  1
  O  O62  1  0.16042797  0.68937203  0.47301831  1
  O  O63  1  0.12841909  0.63164628  0.36291475  1
  O  O64  1  0.50276255  0.87374100  0.36285713  1
  O  O65  1  0.36950697  0.49904990  0.36288113  1
  O  O66  1  0.13057129  0.49459283  0.86220479  1
  O  O67  1  0.36333829  0.87127997  0.86207543  1
  O  O68  1  0.50677632  0.63847564  0.86198207  1
  O  O69  1  0.02881732  0.82867686  0.41006440  1
  O  O70  1  0.80053068  0.97371649  0.41069467  1
  O  O71  1  0.17563313  0.19809407  0.40903442  1
  O  O72  1  0.02214436  0.18849074  0.90997484  1
  O  O73  1  0.16168632  0.97163222  0.91084627  1
  O  O74  1  0.81172056  0.83641455  0.90856951  1
  O  O75  1  0.96650120  0.16680910  0.59044882  1
  O  O76  1  0.19850549  0.02722316  0.59113003  1
  O  O77  1  0.83027635  0.80027794  0.59169396  1
  O  O78  1  0.97404912  0.80426999  0.08813483  1
  O  O79  1  0.83305026  0.02937378  0.08742417  1
  O  O80  1  0.19748784  0.16568603  0.08746363  1
  O  O81  1  0.70023211  0.16707182  0.74212480  1
  O  O82  1  0.47932251  0.30640554  0.74217943  1
  O  O83  1  0.83744059  0.53001371  0.74213888  1
  O  O84  1  0.68772959  0.51644802  0.24228771  1
  O  O85  1  0.82220398  0.30138481  0.24218845  1
  O  O86  1  0.46938618  0.16452241  0.24178573  1
  O  O87  1  0.64217588  0.49813556  0.92517419  1
  O  O88  1  0.85533522  0.35956572  0.92532264  1
  O  O89  1  0.50193627  0.14499077  0.92558762  1
  O  O90  1  0.64037439  0.14748553  0.42635094  1
  O  O91  1  0.50827789  0.36204881  0.42603596  1
  O  O92  1  0.85381777  0.49406968  0.42625630  1
  O  O93  1  0.36216587  0.49643321  0.07212628  1
  O  O94  1  0.13483255  0.63590201  0.07244852  1
  O  O95  1  0.50323620  0.86434448  0.07240311  1
  O  O96  1  0.36388371  0.86680758  0.57285345  1
  O  O97  1  0.50362348  0.63555647  0.57264305  1
  O  O98  1  0.13307827  0.49425828  0.57261248  1
  O  O99  1  0.30344340  0.83745585  0.26058945  1
  O  O100  1  0.52476899  0.69919993  0.26101578  1
  O  O101  1  0.16801654  0.47922106  0.26083066  1
  O  O102  1  0.30688785  0.47770981  0.76118115  1
  O  O103  1  0.16438998  0.70003250  0.76083492  1
  O  O104  1  0.53260355  0.84026515  0.76076889  1
