# generated using pymatgen
data_MgZn2(FeO2)4
_symmetry_space_group_name_H-M   'P 1'
_cell_length_a   6.58547796
_cell_length_b   6.58547840
_cell_length_c   5.85922700
_cell_angle_alpha   63.58563671
_cell_angle_beta   63.58563483
_cell_angle_gamma   54.18860554
_symmetry_Int_Tables_number   1
_chemical_formula_structural   MgZn2(FeO2)4
_chemical_formula_sum   'Mg1 Zn2 Fe4 O8'
_cell_volume   178.49491830
_cell_formula_units_Z   1
loop_
 _symmetry_equiv_pos_site_id
 _symmetry_equiv_pos_as_xyz
  1  'x, y, z'
loop_
 _atom_site_type_symbol
 _atom_site_label
 _atom_site_symmetry_multiplicity
 _atom_site_fract_x
 _atom_site_fract_y
 _atom_site_fract_z
 _atom_site_occupancy
  Mg  Mg0  1  0.46390900  0.46390900  0.03609100  1
  Zn  Zn1  1  0.16559400  0.64015500  0.59712600  1
  Zn  Zn2  1  0.64015500  0.16559400  0.59712600  1
  Fe  Fe3  1  0.00821300  0.00821200  0.99178800  1
  Fe  Fe4  1  0.20379900  0.20380000  0.29620000  1
  Fe  Fe5  1  0.68838400  0.68838400  0.07163400  1
  Fe  Fe6  1  0.68838400  0.68838400  0.55159700  1
  O  O7  1  0.33747400  0.33747400  0.41251600  1
  O  O8  1  0.33747400  0.33747400  0.91253500  1
  O  O9  1  0.37752400  0.83727800  0.39259900  1
  O  O10  1  0.83727700  0.37752700  0.39259800  1
  O  O11  1  0.37614400  0.82786900  0.89799400  1
  O  O12  1  0.82787200  0.37614300  0.89799300  1
  O  O13  1  0.88501000  0.88501000  0.37432100  1
  O  O14  1  0.88501000  0.88501000  0.85566000  1
