# generated using pymatgen
data_Ba2HoMgSbO6
_symmetry_space_group_name_H-M   'P 1'
_cell_length_a   7.25130585
_cell_length_b   6.31678626
_cell_length_c   6.31678640
_cell_angle_alpha   59.92663887
_cell_angle_beta   63.69228151
_cell_angle_gamma   63.69227844
_symmetry_Int_Tables_number   1
_chemical_formula_structural   Ba2HoMgSbO6
_chemical_formula_sum   'Ba2 Ho1 Mg1 Sb1 O6'
_cell_volume   215.14660555
_cell_formula_units_Z   1
loop_
 _symmetry_equiv_pos_site_id
 _symmetry_equiv_pos_as_xyz
  1  'x, y, z'
loop_
 _atom_site_type_symbol
 _atom_site_label
 _atom_site_symmetry_multiplicity
 _atom_site_fract_x
 _atom_site_fract_y
 _atom_site_fract_z
 _atom_site_occupancy
  Ba  Ba0  1  0.83510538  0.72180523  0.72180523  1
  Ba  Ba1  1  0.04871386  0.31844600  0.31844600  1
  Ho  Ho2  1  0.08160575  0.97277828  0.97277828  1
  Mg  Mg3  1  0.65047004  0.12048760  0.12048760  1
  Sb  Sb4  1  0.41150500  0.52872182  0.52872182  1
  O  O5  1  0.21905705  0.74159676  0.74159676  1
  O  O6  1  0.23277277  0.73661832  0.28305092  1
  O  O7  1  0.80642514  0.22043805  0.76481811  1
  O  O8  1  0.23277277  0.28305092  0.73661832  1
  O  O9  1  0.81056410  0.21623892  0.21623892  1
  O  O10  1  0.80642514  0.76481811  0.22043805  1
