# generated using pymatgen
data_Mg2Ta4Si3(SO6)6
_symmetry_space_group_name_H-M   'P 1'
_cell_length_a   8.83214328
_cell_length_b   8.81214928
_cell_length_c   22.71820554
_cell_angle_alpha   90.15351752
_cell_angle_beta   90.00000000
_cell_angle_gamma   120.07508345
_symmetry_Int_Tables_number   1
_chemical_formula_structural   Mg2Ta4Si3(SO6)6
_chemical_formula_sum   'Mg4 Ta8 Si6 S12 O72'
_cell_volume   1530.10574340
_cell_formula_units_Z   2
loop_
 _symmetry_equiv_pos_site_id
 _symmetry_equiv_pos_as_xyz
  1  'x, y, z'
loop_
 _atom_site_type_symbol
 _atom_site_label
 _atom_site_symmetry_multiplicity
 _atom_site_fract_x
 _atom_site_fract_y
 _atom_site_fract_z
 _atom_site_occupancy
  Mg  Mg0  1  0.99461380  0.00184689  0.35635950  1
  Mg  Mg1  1  0.00723310  0.00184689  0.85635950  1
  Mg  Mg2  1  0.67191037  0.34246203  0.68746245  1
  Mg  Mg3  1  0.67055266  0.34246203  0.18746245  1
  Ta  Ta4  1  0.99704950  0.00265576  0.64146667  1
  Ta  Ta5  1  0.00560626  0.00265576  0.14146667  1
  Ta  Ta6  1  0.65526752  0.33814311  0.97749881  1
  Ta  Ta7  1  0.68287658  0.33814311  0.47749881  1
  Ta  Ta8  1  0.32296835  0.66946144  0.02461764  1
  Ta  Ta9  1  0.34649209  0.66946144  0.52461764  1
  Ta  Ta10  1  0.34049175  0.67524208  0.30902111  1
  Ta  Ta11  1  0.33474932  0.67524208  0.80902111  1
  Si  Si12  1  0.95389802  0.34095742  0.58673030  1
  Si  Si13  1  0.66740081  0.60998481  0.58657060  1
  Si  Si14  1  0.94258501  0.60998481  0.08657060  1
  Si  Si15  1  0.38706040  0.34095742  0.08673030  1
  Si  Si16  1  0.33072709  0.95859972  0.91626572  1
  Si  Si17  1  0.62787163  0.95859972  0.41626572  1
  S  S18  1  0.28740542  0.00389110  0.25139471  1
  S  S19  1  0.71647442  0.71155606  0.25148007  1
  S  S20  1  0.99545926  0.28498144  0.25161173  1
  S  S21  1  0.28952218  0.28498144  0.75161173  1
  S  S22  1  0.99508164  0.71155606  0.75148007  1
  S  S23  1  0.71648567  0.00389110  0.75139471  1
  S  S24  1  0.38139833  0.04835262  0.58416959  1
  S  S25  1  0.66695529  0.04835262  0.08416959  1
  S  S26  1  0.61994749  0.67066654  0.91534247  1
  S  S27  1  0.04683540  0.37993281  0.91580922  1
  S  S28  1  0.33309640  0.37993281  0.41580922  1
  S  S29  1  0.05071805  0.67066654  0.41534247  1
  O  O30  1  0.20452784  0.02458369  0.30324206  1
  O  O31  1  0.82052134  0.79646123  0.30308586  1
  O  O32  1  0.97814035  0.18070947  0.30302567  1
  O  O33  1  0.20256912  0.18070947  0.80302567  1
  O  O34  1  0.97593989  0.79646123  0.80308586  1
  O  O35  1  0.82005584  0.02458369  0.80324206  1
  O  O36  1  0.79769843  0.96883383  0.69765154  1
  O  O37  1  0.17446928  0.20462207  0.69762320  1
  O  O38  1  0.03654567  0.82572332  0.69807197  1
  O  O39  1  0.78917765  0.82572332  0.19807197  1
  O  O40  1  0.03015279  0.20462207  0.19762320  1
  O  O41  1  0.17113540  0.96883383  0.19765154  1
  O  O42  1  0.87044412  0.36474208  0.64347325  1
  O  O43  1  0.48504787  0.11539674  0.63677560  1
  O  O44  1  0.62150921  0.49776951  0.64322093  1
  O  O45  1  0.87626129  0.49776951  0.14322093  1
  O  O46  1  0.63034987  0.11539674  0.13677560  1
  O  O47  1  0.49429896  0.36474208  0.14347325  1
  O  O48  1  0.46885929  0.29876374  0.02568848  1
  O  O49  1  0.83080085  0.52548155  0.02513301  1
  O  O50  1  0.70114617  0.15740489  0.03074594  1
  O  O51  1  0.45625972  0.15740489  0.53074594  1
  O  O52  1  0.69468170  0.52548155  0.52513301  1
  O  O53  1  0.82990545  0.29876374  0.52568848  1
  O  O54  1  0.53552605  0.68955100  0.96844966  1
  O  O55  1  0.16004059  0.46483723  0.96878457  1
  O  O56  1  0.31927367  0.83240826  0.97129441  1
  O  O57  1  0.51313359  0.83240826  0.47129441  1
  O  O58  1  0.30479565  0.46483723  0.46878457  1
  O  O59  1  0.15402395  0.68955100  0.46844966  1
  O  O60  1  0.12887023  0.63156770  0.36234669  1
  O  O61  1  0.48949615  0.85392110  0.35891442  1
  O  O62  1  0.36140355  0.49633768  0.36315493  1
  O  O63  1  0.13493313  0.49633768  0.86315493  1
  O  O64  1  0.36442395  0.85392110  0.85891442  1
  O  O65  1  0.50269647  0.63156770  0.86234669  1
  O  O66  1  0.03160869  0.82111369  0.40622455  1
  O  O67  1  0.81050456  0.97603927  0.40777874  1
  O  O68  1  0.18233963  0.20952241  0.40735660  1
  O  O69  1  0.02718278  0.20952241  0.90735660  1
  O  O70  1  0.16553472  0.97603927  0.90777874  1
  O  O71  1  0.78950499  0.82111369  0.90622455  1
  O  O72  1  0.98300581  0.16781888  0.59552570  1
  O  O73  1  0.20222393  0.02655778  0.59266578  1
  O  O74  1  0.84152145  0.81097788  0.59633114  1
  O  O75  1  0.96945643  0.81097788  0.09633114  1
  O  O76  1  0.82433385  0.02655778  0.09266578  1
  O  O77  1  0.18481307  0.16781888  0.09552570  1
  O  O78  1  0.68205529  0.14501017  0.74149127  1
  O  O79  1  0.46076830  0.30673854  0.74229722  1
  O  O80  1  0.85081022  0.53633198  0.74383580  1
  O  O81  1  0.68552276  0.53633198  0.24383580  1
  O  O82  1  0.84597124  0.30673854  0.24229722  1
  O  O83  1  0.46295587  0.14501017  0.24149127  1
  O  O84  1  0.63345772  0.50647064  0.92219611  1
  O  O85  1  0.87676308  0.37155410  0.92426272  1
  O  O86  1  0.51838368  0.14260419  0.92670672  1
  O  O87  1  0.62422152  0.14260419  0.42670672  1
  O  O88  1  0.49479202  0.37155410  0.42426272  1
  O  O89  1  0.87301392  0.50647064  0.42219611  1
  O  O90  1  0.35771004  0.50187117  0.06658457  1
  O  O91  1  0.14378500  0.65164561  0.07071466  1
  O  O92  1  0.51772963  0.86671503  0.07241949  1
  O  O93  1  0.34898441  0.86671503  0.57241949  1
  O  O94  1  0.50785961  0.65164561  0.57071466  1
  O  O95  1  0.14416013  0.50187117  0.56658457  1
  O  O96  1  0.29437917  0.83182240  0.25796394  1
  O  O97  1  0.53141299  0.69413933  0.25948227  1
  O  O98  1  0.16033383  0.46521802  0.25967993  1
  O  O99  1  0.30488319  0.46521802  0.75967993  1
  O  O100  1  0.16272534  0.69413933  0.75948227  1
  O  O101  1  0.53744222  0.83182240  0.75796394  1
