# generated using pymatgen
data_Na4MgIn(PO4)3
_symmetry_space_group_name_H-M   'P 1'
_cell_length_a   9.13254338
_cell_length_b   9.13254306
_cell_length_c   22.06304831
_cell_angle_alpha   90.00000000
_cell_angle_beta   90.00000000
_cell_angle_gamma   120.00000116
_symmetry_Int_Tables_number   1
_chemical_formula_structural   Na4MgIn(PO4)3
_chemical_formula_sum   'Na24 Mg6 In6 P18 O72'
_cell_volume   1593.60107861
_cell_formula_units_Z   6
loop_
 _symmetry_equiv_pos_site_id
 _symmetry_equiv_pos_as_xyz
  1  'x, y, z'
loop_
 _atom_site_type_symbol
 _atom_site_label
 _atom_site_symmetry_multiplicity
 _atom_site_fract_x
 _atom_site_fract_y
 _atom_site_fract_z
 _atom_site_occupancy
  Na  Na0  1  0.63656272  0.00668621  0.24839937  1
  Na  Na1  1  0.37012349  0.36343728  0.24839937  1
  Na  Na2  1  0.99331379  0.62987651  0.24839937  1
  Na  Na3  1  0.63656272  0.62987651  0.74839937  1
  Na  Na4  1  0.99331379  0.36343728  0.74839937  1
  Na  Na5  1  0.37012349  0.00668621  0.74839937  1
  Na  Na6  1  0.30322972  0.34001921  0.58173237  1
  Na  Na7  1  0.03679049  0.69677028  0.58173237  1
  Na  Na8  1  0.65998079  0.96320951  0.58173237  1
  Na  Na9  1  0.30322972  0.96320951  0.08173237  1
  Na  Na10  1  0.65998079  0.69677028  0.08173237  1
  Na  Na11  1  0.03679049  0.34001921  0.08173237  1
  Na  Na12  1  0.96989572  0.67335321  0.91506637  1
  Na  Na13  1  0.70345649  0.03010428  0.91506637  1
  Na  Na14  1  0.32664679  0.29654351  0.91506637  1
  Na  Na15  1  0.96989572  0.29654351  0.41506637  1
  Na  Na16  1  0.32664679  0.03010428  0.41506637  1
  Na  Na17  1  0.70345649  0.67335321  0.41506637  1
  Na  Na18  1  0.00000000  0.00000000  0.49678968  1
  Na  Na19  1  0.00000000  0.00000000  0.99678968  1
  Na  Na20  1  0.66666700  0.33333300  0.83012268  1
  Na  Na21  1  0.66666700  0.33333300  0.33012268  1
  Na  Na22  1  0.33333300  0.66666700  0.16345668  1
  Na  Na23  1  0.33333300  0.66666700  0.66345668  1
  Mg  Mg24  1  0.00000000  0.00000000  0.34862557  1
  Mg  Mg25  1  0.00000000  0.00000000  0.84862557  1
  Mg  Mg26  1  0.66666700  0.33333300  0.68195857  1
  Mg  Mg27  1  0.66666700  0.33333300  0.18195857  1
  Mg  Mg28  1  0.33333300  0.66666700  0.01529257  1
  Mg  Mg29  1  0.33333300  0.66666700  0.51529257  1
  In  In30  1  0.00000000  0.00000000  0.65454285  1
  In  In31  1  0.00000000  0.00000000  0.15454285  1
  In  In32  1  0.66666700  0.33333300  0.98787585  1
  In  In33  1  0.66666700  0.33333300  0.48787585  1
  In  In34  1  0.33333300  0.66666700  0.32120985  1
  In  In35  1  0.33333300  0.66666700  0.82120985  1
  P  P36  1  0.30139053  0.00045076  0.25153553  1
  P  P37  1  0.69906023  0.69860947  0.25153553  1
  P  P38  1  0.99954924  0.30093977  0.25153553  1
  P  P39  1  0.30139053  0.30093977  0.75153553  1
  P  P40  1  0.99954924  0.69860947  0.75153553  1
  P  P41  1  0.69906023  0.00045076  0.75153553  1
  P  P42  1  0.96805753  0.33378376  0.58486853  1
  P  P43  1  0.36572723  0.03194247  0.58486853  1
  P  P44  1  0.66621624  0.63427277  0.58486853  1
  P  P45  1  0.96805753  0.63427277  0.08486853  1
  P  P46  1  0.66621624  0.03194247  0.08486853  1
  P  P47  1  0.36572723  0.33378376  0.08486853  1
  P  P48  1  0.63472353  0.66711776  0.91820253  1
  P  P49  1  0.03239323  0.36527647  0.91820253  1
  P  P50  1  0.33288224  0.96760677  0.91820253  1
  P  P51  1  0.63472353  0.96760677  0.41820253  1
  P  P52  1  0.33288224  0.36527647  0.41820253  1
  P  P53  1  0.03239323  0.66711776  0.41820253  1
  O  O54  1  0.21089931  0.02224673  0.30644945  1
  O  O55  1  0.81134742  0.78910069  0.30644945  1
  O  O56  1  0.97775327  0.18865258  0.30644945  1
  O  O57  1  0.21089931  0.18865258  0.80644945  1
  O  O58  1  0.97775327  0.78910069  0.80644945  1
  O  O59  1  0.81134742  0.02224673  0.80644945  1
  O  O60  1  0.77179528  0.96695471  0.69243297  1
  O  O61  1  0.19515943  0.22820472  0.69243297  1
  O  O62  1  0.03304529  0.80484057  0.69243297  1
  O  O63  1  0.77179528  0.80484057  0.19243297  1
  O  O64  1  0.03304529  0.22820472  0.19243297  1
  O  O65  1  0.19515943  0.96695471  0.19243297  1
  O  O66  1  0.87756631  0.35557973  0.63978245  1
  O  O67  1  0.47801442  0.12243369  0.63978245  1
  O  O68  1  0.64442027  0.52198558  0.63978245  1
  O  O69  1  0.87756631  0.52198558  0.13978245  1
  O  O70  1  0.64442027  0.12243369  0.13978245  1
  O  O71  1  0.47801442  0.35557973  0.13978245  1
  O  O72  1  0.43846228  0.30028771  0.02576597  1
  O  O73  1  0.86182643  0.56153772  0.02576597  1
  O  O74  1  0.69971229  0.13817357  0.02576597  1
  O  O75  1  0.43846228  0.13817357  0.52576597  1
  O  O76  1  0.69971229  0.56153772  0.52576597  1
  O  O77  1  0.86182643  0.30028771  0.52576597  1
  O  O78  1  0.54423231  0.68891373  0.97311645  1
  O  O79  1  0.14468042  0.45576769  0.97311645  1
  O  O80  1  0.31108627  0.85531958  0.97311645  1
  O  O81  1  0.54423231  0.85531958  0.47311645  1
  O  O82  1  0.31108627  0.45576769  0.47311645  1
  O  O83  1  0.14468042  0.68891373  0.47311645  1
  O  O84  1  0.10512828  0.63362171  0.35909997  1
  O  O85  1  0.52849243  0.89487172  0.35909997  1
  O  O86  1  0.36637829  0.47150757  0.35909997  1
  O  O87  1  0.10512828  0.47150757  0.85909997  1
  O  O88  1  0.36637829  0.89487172  0.85909997  1
  O  O89  1  0.52849243  0.63362171  0.85909997  1
  O  O90  1  0.01612024  0.82811272  0.41301896  1
  O  O91  1  0.81199248  0.98387976  0.41301896  1
  O  O92  1  0.17188728  0.18800752  0.41301896  1
  O  O93  1  0.01612024  0.18800752  0.91301896  1
  O  O94  1  0.17188728  0.98387976  0.91301896  1
  O  O95  1  0.81199248  0.82811272  0.91301896  1
  O  O96  1  0.98837794  0.17366873  0.58817768  1
  O  O97  1  0.18529079  0.01162206  0.58817768  1
  O  O98  1  0.82633127  0.81470921  0.58817768  1
  O  O99  1  0.98837794  0.81470921  0.08817768  1
  O  O100  1  0.82633127  0.01162206  0.08817768  1
  O  O101  1  0.18529079  0.17366873  0.08817768  1
  O  O102  1  0.68278724  0.16144572  0.74635196  1
  O  O103  1  0.47865948  0.31721276  0.74635196  1
  O  O104  1  0.83855428  0.52134052  0.74635196  1
  O  O105  1  0.68278724  0.52134052  0.24635196  1
  O  O106  1  0.83855428  0.31721276  0.24635196  1
  O  O107  1  0.47865948  0.16144572  0.24635196  1
  O  O108  1  0.65504494  0.50700173  0.92151068  1
  O  O109  1  0.85195779  0.34495506  0.92151068  1
  O  O110  1  0.49299827  0.14804221  0.92151068  1
  O  O111  1  0.65504494  0.14804221  0.42151068  1
  O  O112  1  0.49299827  0.34495506  0.42151068  1
  O  O113  1  0.85195779  0.50700173  0.42151068  1
  O  O114  1  0.34945324  0.49477972  0.07968596  1
  O  O115  1  0.14532548  0.65054676  0.07968596  1
  O  O116  1  0.50522028  0.85467452  0.07968596  1
  O  O117  1  0.34945324  0.85467452  0.57968596  1
  O  O118  1  0.50522028  0.65054676  0.57968596  1
  O  O119  1  0.14532548  0.49477972  0.57968596  1
  O  O120  1  0.32171094  0.84033573  0.25484468  1
  O  O121  1  0.51862379  0.67828906  0.25484468  1
  O  O122  1  0.15966427  0.48137621  0.25484468  1
  O  O123  1  0.32171094  0.48137621  0.75484468  1
  O  O124  1  0.15966427  0.67828906  0.75484468  1
  O  O125  1  0.51862379  0.84033573  0.75484468  1
