# generated using pymatgen
data_Na3Ca4Nb8P15(SO24)3
_symmetry_space_group_name_H-M   'P 1'
_cell_length_a   8.91682093
_cell_length_b   8.91075675
_cell_length_c   23.04980167
_cell_angle_alpha   90.18519555
_cell_angle_beta   89.88170953
_cell_angle_gamma   119.85207714
_symmetry_Int_Tables_number   1
_chemical_formula_structural   Na3Ca4Nb8P15(SO24)3
_chemical_formula_sum   'Na3 Ca4 Nb8 P15 S3 O72'
_cell_volume   1588.42073460
_cell_formula_units_Z   1
loop_
 _symmetry_equiv_pos_site_id
 _symmetry_equiv_pos_as_xyz
  1  'x, y, z'
loop_
 _atom_site_type_symbol
 _atom_site_label
 _atom_site_symmetry_multiplicity
 _atom_site_fract_x
 _atom_site_fract_y
 _atom_site_fract_z
 _atom_site_occupancy
  Na  Na0  1  0.99808969  0.99088344  0.99050561  1
  Na  Na1  1  0.65751625  0.33131517  0.84238929  1
  Na  Na2  1  0.65578018  0.33513746  0.34012304  1
  Ca  Ca3  1  0.99797445  0.99389153  0.85424732  1
  Ca  Ca4  1  0.66095433  0.33155514  0.97791818  1
  Ca  Ca5  1  0.66440390  0.33301827  0.48507871  1
  Ca  Ca6  1  0.33414243  0.66504600  0.30109201  1
  Nb  Nb7  1  0.00412311  0.00650434  0.35652519  1
  Nb  Nb8  1  0.00268905  0.99996994  0.65083426  1
  Nb  Nb9  1  0.00039196  0.99933819  0.14649702  1
  Nb  Nb10  1  0.66462784  0.33187493  0.68138262  1
  Nb  Nb11  1  0.66707895  0.33542518  0.18582356  1
  Nb  Nb12  1  0.34097340  0.67398923  0.02538317  1
  Nb  Nb13  1  0.33156247  0.65626611  0.52330635  1
  Nb  Nb14  1  0.34076615  0.67474333  0.80781165  1
  P  P15  1  0.29227960  0.02157695  0.24968549  1
  P  P16  1  0.73057520  0.71106260  0.25005878  1
  P  P17  1  0.97777835  0.27124980  0.24966080  1
  P  P18  1  0.29796390  0.29223608  0.75137127  1
  P  P19  1  0.99287972  0.69897128  0.75044821  1
  P  P20  1  0.71082491  0.00964402  0.75073763  1
  P  P21  1  0.96067729  0.32668186  0.58268817  1
  P  P22  1  0.36725909  0.03442868  0.58234736  1
  P  P23  1  0.67258092  0.63375742  0.58304887  1
  P  P24  1  0.95878788  0.62502880  0.08292524  1
  P  P25  1  0.67057731  0.04429450  0.08353912  1
  P  P26  1  0.37268849  0.33252409  0.08376899  1
  P  P27  1  0.61317768  0.66698200  0.91657343  1
  P  P28  1  0.33266839  0.94634861  0.91688451  1
  P  P29  1  0.33064082  0.37651556  0.41388327  1
  S  S30  1  0.05783968  0.39091153  0.91653397  1
  S  S31  1  0.62570351  0.95044966  0.41534229  1
  S  S32  1  0.04936239  0.67553228  0.41539105  1
  O  O33  1  0.20226162  0.04656261  0.30539446  1
  O  O34  1  0.84384652  0.79837668  0.30505730  1
  O  O35  1  0.95346773  0.15737652  0.30527923  1
  O  O36  1  0.24116859  0.18570805  0.80527122  1
  O  O37  1  0.94139453  0.75397233  0.80462827  1
  O  O38  1  0.81397035  0.05612894  0.80531997  1
  O  O39  1  0.80357172  0.97710086  0.69912049  1
  O  O40  1  0.17388633  0.19753350  0.69929628  1
  O  O41  1  0.02505145  0.82596838  0.69914570  1
  O  O42  1  0.83058004  0.81675007  0.19582333  1
  O  O43  1  0.98695319  0.17067084  0.19620492  1
  O  O44  1  0.18393873  0.01205797  0.19608006  1
  O  O45  1  0.86777811  0.36384291  0.63369722  1
  O  O46  1  0.49664300  0.12851604  0.63384858  1
  O  O47  1  0.63291254  0.50317843  0.63389835  1
  O  O48  1  0.86443282  0.50293791  0.13678406  1
  O  O49  1  0.63930463  0.13646191  0.13692078  1
  O  O50  1  0.49716862  0.36284345  0.13706197  1
  O  O51  1  0.43004489  0.27930483  0.03059964  1
  O  O52  1  0.84824834  0.56522101  0.02999103  1
  O  O53  1  0.71796908  0.15143876  0.03001114  1
  O  O54  1  0.42260946  0.14214011  0.52909993  1
  O  O55  1  0.72175602  0.57872254  0.52883646  1
  O  O56  1  0.85856317  0.28030105  0.52824879  1
  O  O57  1  0.50402484  0.65792478  0.97268478  1
  O  O58  1  0.15101467  0.48788884  0.97068146  1
  O  O59  1  0.33745615  0.84340213  0.97275457  1
  O  O60  1  0.54011484  0.84500640  0.46917751  1
  O  O61  1  0.31019170  0.47158636  0.47121685  1
  O  O62  1  0.15502049  0.69525172  0.46951674  1
  O  O63  1  0.13069229  0.65520196  0.36408486  1
  O  O64  1  0.52292795  0.87311330  0.36404186  1
  O  O65  1  0.34955333  0.48409035  0.36237185  1
  O  O66  1  0.15501681  0.48407232  0.86266799  1
  O  O67  1  0.32327502  0.83655759  0.86073490  1
  O  O68  1  0.50990385  0.67197406  0.86070047  1
  O  O69  1  0.04403145  0.84409198  0.41026590  1
  O  O70  1  0.79751672  0.95150591  0.40939827  1
  O  O71  1  0.15099022  0.19703969  0.40765993  1
  O  O72  1  0.04873960  0.22264089  0.91931455  1
  O  O73  1  0.16744981  0.95347469  0.92150263  1
  O  O74  1  0.78146692  0.83577786  0.92116666  1
  O  O75  1  0.99859036  0.18308826  0.60288274  1
  O  O76  1  0.18654385  0.00090558  0.60326545  1
  O  O77  1  0.81700536  0.81433277  0.60345815  1
  O  O78  1  0.99882856  0.81334343  0.09789225  1
  O  O79  1  0.81651641  0.00211541  0.09794518  1
  O  O80  1  0.18575037  0.18451705  0.09893690  1
  O  O81  1  0.67478845  0.15843920  0.73305766  1
  O  O82  1  0.48219329  0.32506520  0.73282367  1
  O  O83  1  0.84142386  0.51608626  0.73167065  1
  O  O84  1  0.71785115  0.52897368  0.24234914  1
  O  O85  1  0.80785925  0.28073302  0.24267988  1
  O  O86  1  0.47108840  0.19109483  0.24265562  1
  O  O87  1  0.61991673  0.50156422  0.91177657  1
  O  O88  1  0.89003058  0.38212185  0.91387034  1
  O  O89  1  0.50154873  0.11419591  0.91214866  1
  O  O90  1  0.66543570  0.12951474  0.42194617  1
  O  O91  1  0.47379197  0.33486523  0.42103828  1
  O  O92  1  0.87252693  0.53253492  0.42154109  1
  O  O93  1  0.35863468  0.49842001  0.07640564  1
  O  O94  1  0.13834949  0.63784978  0.07549612  1
  O  O95  1  0.50346829  0.86258545  0.07678033  1
  O  O96  1  0.35312071  0.85405510  0.57188125  1
  O  O97  1  0.50442303  0.64828732  0.57319807  1
  O  O98  1  0.14290978  0.49613585  0.57331785  1
  O  O99  1  0.30925823  0.86447556  0.25249293  1
  O  O100  1  0.55709899  0.69561792  0.25097643  1
  O  O101  1  0.13351242  0.44572042  0.25158745  1
  O  O102  1  0.31410273  0.47370554  0.75850027  1
  O  O103  1  0.15733471  0.68163880  0.75750973  1
  O  O104  1  0.52718362  0.84381218  0.75721416  1
