# generated using pymatgen
data_Na6Zn2Si5Ge6S7O48
_symmetry_space_group_name_H-M   'P 1'
_cell_length_a   17.14532943
_cell_length_b   8.75385880
_cell_length_c   22.07548778
_cell_angle_alpha   89.48322656
_cell_angle_beta   89.86382255
_cell_angle_gamma   120.65864791
_symmetry_Int_Tables_number   1
_chemical_formula_structural   Na6Zn2Si5Ge6S7O48
_chemical_formula_sum   'Na18 Zn6 Si15 Ge18 S21 O144'
_cell_volume   2849.92566320
_cell_formula_units_Z   3
loop_
 _symmetry_equiv_pos_site_id
 _symmetry_equiv_pos_as_xyz
  1  'x, y, z'
loop_
 _atom_site_type_symbol
 _atom_site_label
 _atom_site_symmetry_multiplicity
 _atom_site_fract_x
 _atom_site_fract_y
 _atom_site_fract_z
 _atom_site_occupancy
  Na  Na0  1  0.65789770  0.35695350  0.58288943  1
  Na  Na1  1  0.51214678  0.68065604  0.58764456  1
  Na  Na2  1  0.82798267  0.97520545  0.58412704  1
  Na  Na3  1  0.15782639  0.96038448  0.08717321  1
  Na  Na4  1  0.32715351  0.68298199  0.09025033  1
  Na  Na5  1  0.01117488  0.34560875  0.09407537  1
  Na  Na6  1  0.00924601  0.99405125  0.49764434  1
  Na  Na7  1  0.48819389  0.00489272  0.49651878  1
  Na  Na8  1  0.98992665  0.97455566  0.00030537  1
  Na  Na9  1  0.50813798  0.01532153  0.99945138  1
  Na  Na10  1  0.32717208  0.32104613  0.82721873  1
  Na  Na11  1  0.82872893  0.33017393  0.83132855  1
  Na  Na12  1  0.32559941  0.32836666  0.33132066  1
  Na  Na13  1  0.83418918  0.33614759  0.32941715  1
  Na  Na14  1  0.16227652  0.66306569  0.16379983  1
  Na  Na15  1  0.67565486  0.68281967  0.16899864  1
  Na  Na16  1  0.17417676  0.66699662  0.66518795  1
  Na  Na17  1  0.66434694  0.66260844  0.65911375  1
  Zn  Zn18  1  0.33015204  0.30839032  0.69490073  1
  Zn  Zn19  1  0.83073377  0.33277823  0.68038155  1
  Zn  Zn20  1  0.32890898  0.32574842  0.18235479  1
  Zn  Zn21  1  0.83221762  0.35418815  0.19684743  1
  Zn  Zn22  1  0.16456862  0.66635172  0.02146213  1
  Zn  Zn23  1  0.66556634  0.66527694  0.51976032  1
  Si  Si24  1  0.64007956  0.99901470  0.25029320  1
  Si  Si25  1  0.85936337  0.72791747  0.25651146  1
  Si  Si26  1  0.14037361  0.28094960  0.75040942  1
  Si  Si27  1  0.36139033  0.99147622  0.75626648  1
  Si  Si28  1  0.46552800  0.32935915  0.58357725  1
  Si  Si29  1  0.68806981  0.05374059  0.58562694  1
  Si  Si30  1  0.84129582  0.64082972  0.58966472  1
  Si  Si31  1  0.96540336  0.60683571  0.08419548  1
  Si  Si32  1  0.34232502  0.04561360  0.08691150  1
  Si  Si33  1  0.18591920  0.32467373  0.08663120  1
  Si  Si34  1  0.81194554  0.67415850  0.91231376  1
  Si  Si35  1  0.66837152  0.96531655  0.91601623  1
  Si  Si36  1  0.30992023  0.94383611  0.41032962  1
  Si  Si37  1  0.16793195  0.37090668  0.41642880  1
  Si  Si38  1  0.01887394  0.65499364  0.41766647  1
  Ge  Ge39  1  0.00470827  0.98747217  0.35984288  1
  Ge  Ge40  1  0.49918106  0.00138685  0.35190747  1
  Ge  Ge41  1  0.99945801  0.99370070  0.85224148  1
  Ge  Ge42  1  0.50679227  0.99540699  0.85146898  1
  Ge  Ge43  1  0.00853044  0.00376462  0.64706775  1
  Ge  Ge44  1  0.48581036  0.00391365  0.63882727  1
  Ge  Ge45  1  0.99230747  0.97317323  0.14563641  1
  Ge  Ge46  1  0.50382444  0.02267088  0.15377649  1
  Ge  Ge47  1  0.33102858  0.30492583  0.98880110  1
  Ge  Ge48  1  0.82401283  0.35362882  0.97455174  1
  Ge  Ge49  1  0.32384078  0.28818871  0.47182077  1
  Ge  Ge50  1  0.83630446  0.37386767  0.48733398  1
  Ge  Ge51  1  0.67142269  0.68695303  0.01085525  1
  Ge  Ge52  1  0.16820142  0.65753901  0.50673456  1
  Ge  Ge53  1  0.16044501  0.64560501  0.32173753  1
  Ge  Ge54  1  0.67260236  0.69609269  0.30904648  1
  Ge  Ge55  1  0.17056625  0.64530757  0.80712200  1
  Ge  Ge56  1  0.67229101  0.68652060  0.81695706  1
  S  S57  1  0.14454070  0.98422934  0.25327281  1
  S  S58  1  0.35164513  0.71291111  0.25045651  1
  S  S59  1  0.01125198  0.29153663  0.25321290  1
  S  S60  1  0.50122396  0.29690188  0.25480657  1
  S  S61  1  0.64514721  0.30681169  0.75418686  1
  S  S62  1  0.00314768  0.71062977  0.75478512  1
  S  S63  1  0.51040640  0.71740564  0.75264211  1
  S  S64  1  0.85213821  0.99332312  0.75090171  1
  S  S65  1  0.98798667  0.34299110  0.58383692  1
  S  S66  1  0.18647663  0.02545524  0.58195395  1
  S  S67  1  0.32430435  0.61948415  0.58229682  1
  S  S68  1  0.48546060  0.62328799  0.07905908  1
  S  S69  1  0.82491338  0.03449468  0.08143280  1
  S  S70  1  0.68481082  0.34787039  0.07974163  1
  S  S71  1  0.31558970  0.65327991  0.91712125  1
  S  S72  1  0.02066193  0.37508458  0.91325351  1
  S  S73  1  0.52001908  0.38417756  0.91738000  1
  S  S74  1  0.17120511  0.96636005  0.91531898  1
  S  S75  1  0.81299457  0.96888424  0.41630056  1
  S  S76  1  0.66690650  0.37708289  0.41378420  1
  S  S77  1  0.51970906  0.66457132  0.41321244  1
  O  O78  1  0.10097061  0.00057032  0.30885349  1
  O  O79  1  0.59106642  0.03349102  0.30837128  1
  O  O80  1  0.40554671  0.81266098  0.30382955  1
  O  O81  1  0.91591434  0.83419073  0.31555954  1
  O  O82  1  0.48316775  0.17939083  0.30809043  1
  O  O83  1  0.01482135  0.19191247  0.30600999  1
  O  O84  1  0.09121913  0.15177751  0.80946072  1
  O  O85  1  0.60237830  0.19897555  0.81156639  1
  O  O86  1  0.51189172  0.81673894  0.80839938  1
  O  O87  1  0.98458437  0.78675554  0.80979878  1
  O  O88  1  0.41852261  0.00508114  0.81746562  1
  O  O89  1  0.90232526  0.99424263  0.80592736  1
  O  O90  1  0.40470394  0.94449390  0.69669122  1
  O  O91  1  0.89350324  0.97752444  0.69378511  1
  O  O92  1  0.07820083  0.18965301  0.68912143  1
  O  O93  1  0.59471014  0.21767809  0.69866267  1
  O  O94  1  0.01306680  0.81783962  0.69871386  1
  O  O95  1  0.52561331  0.81870217  0.69609545  1
  O  O96  1  0.39409221  0.81659122  0.19196847  1
  O  O97  1  0.89976555  0.85615063  0.19460519  1
  O  O98  1  0.02382114  0.22319290  0.19388016  1
  O  O99  1  0.51278815  0.21484843  0.19741765  1
  O  O100  1  0.09451229  0.97589863  0.19583631  1
  O  O101  1  0.57746441  0.96743965  0.18783771  1
  O  O102  1  0.42756371  0.39131971  0.63807951  1
  O  O103  1  0.95380243  0.36377663  0.64172837  1
  O  O104  1  0.23819762  0.10631308  0.63595429  1
  O  O105  1  0.75506703  0.11182580  0.64213316  1
  O  O106  1  0.30799156  0.52893604  0.63986226  1
  O  O107  1  0.81938622  0.51988650  0.64800165  1
  O  O108  1  0.45128936  0.53201936  0.13662390  1
  O  O109  1  0.92494411  0.45987193  0.13684901  1
  O  O110  1  0.32009963  0.12523860  0.14377046  1
  O  O111  1  0.80709577  0.09182460  0.13779256  1
  O  O112  1  0.25735966  0.40091971  0.14051235  1
  O  O113  1  0.74031712  0.38461111  0.13277071  1
  O  O114  1  0.23019042  0.26275588  0.02861978  1
  O  O115  1  0.71827078  0.30877852  0.02194959  1
  O  O116  1  0.42098933  0.53225558  0.02609938  1
  O  O117  1  0.90859327  0.52173401  0.01909053  1
  O  O118  1  0.36943859  0.17234502  0.02402524  1
  O  O119  1  0.83400364  0.13955385  0.02662710  1
  O  O120  1  0.22162425  0.13149942  0.52395060  1
  O  O121  1  0.73626004  0.20708638  0.52810743  1
  O  O122  1  0.33726161  0.53769754  0.52903556  1
  O  O123  1  0.86828322  0.56973157  0.52832946  1
  O  O124  1  0.40880429  0.30450323  0.51927339  1
  O  O125  1  0.92484780  0.30899807  0.53180114  1
  O  O126  1  0.27629264  0.67820366  0.97183730  1
  O  O127  1  0.76822342  0.70980502  0.97217072  1
  O  O128  1  0.06958331  0.44752593  0.96903243  1
  O  O129  1  0.57749182  0.46955599  0.97114983  1
  O  O130  1  0.16248909  0.87547808  0.97264526  1
  O  O131  1  0.64124657  0.83122115  0.97378080  1
  O  O132  1  0.27121719  0.83031318  0.47299155  1
  O  O133  1  0.77477646  0.85773216  0.47031989  1
  O  O134  1  0.14465060  0.45205293  0.47510873  1
  O  O135  1  0.65683671  0.44657785  0.47130827  1
  O  O136  1  0.08498765  0.69797047  0.47576591  1
  O  O137  1  0.56748775  0.68814391  0.46964029  1
  O  O138  1  0.05849530  0.60994283  0.35731296  1
  O  O139  1  0.56677188  0.63767842  0.35993893  1
  O  O140  1  0.24525877  0.85482230  0.35229006  1
  O  O141  1  0.75562947  0.87959366  0.36045275  1
  O  O142  1  0.19366662  0.50121460  0.35739835  1
  O  O143  1  0.67425679  0.48551103  0.36013786  1
  O  O144  1  0.06790295  0.50038607  0.85941009  1
  O  O145  1  0.56032452  0.49205511  0.86098880  1
  O  O146  1  0.18023586  0.87951337  0.86148151  1
  O  O147  1  0.68807983  0.88002271  0.85660663  1
  O  O148  1  0.25805199  0.62496117  0.86165543  1
  O  O149  1  0.74780412  0.63567218  0.85356624  1
  O  O150  1  0.00587213  0.82733584  0.41273591  1
  O  O151  1  0.51236597  0.82761650  0.40537312  1
  O  O152  1  0.41315682  0.97241587  0.40514093  1
  O  O153  1  0.90640059  0.00006638  0.40940891  1
  O  O154  1  0.08130030  0.16915710  0.40857432  1
  O  O155  1  0.58398055  0.19231463  0.40932166  1
  O  O156  1  0.01263531  0.19825734  0.90503522  1
  O  O157  1  0.50858860  0.20630139  0.91476401  1
  O  O158  1  0.08936643  0.98827802  0.91133594  1
  O  O159  1  0.58126100  0.99906966  0.90880653  1
  O  O160  1  0.40832608  0.81467578  0.91020400  1
  O  O161  1  0.91524218  0.85245257  0.90736271  1
  O  O162  1  0.46484904  0.13926646  0.58890499  1
  O  O163  1  0.99705305  0.18079533  0.58366745  1
  O  O164  1  0.09438177  0.01010948  0.58688454  1
  O  O165  1  0.58724008  0.04714905  0.59565505  1
  O  O166  1  0.41650042  0.80126472  0.58477007  1
  O  O167  1  0.92919057  0.84963587  0.59615860  1
  O  O168  1  0.49774153  0.80240081  0.07744977  1
  O  O169  1  0.96843602  0.79846544  0.09214651  1
  O  O170  1  0.43032674  0.01074868  0.09517943  1
  O  O171  1  0.91313026  0.03163359  0.08332479  1
  O  O172  1  0.08575298  0.13245367  0.09598078  1
  O  O173  1  0.59392469  0.18101478  0.08797382  1
  O  O174  1  0.35509349  0.16474082  0.75284586  1
  O  O175  1  0.84320719  0.14982789  0.75261006  1
  O  O176  1  0.24011447  0.31766317  0.74659724  1
  O  O177  1  0.73707123  0.33701974  0.75387823  1
  O  O178  1  0.42908289  0.54563770  0.75527180  1
  O  O179  1  0.92893579  0.52840934  0.75078611  1
  O  O180  1  0.34752563  0.54232659  0.25058335  1
  O  O181  1  0.85379002  0.54253551  0.25354294  1
  O  O182  1  0.42543438  0.32587819  0.24970172  1
  O  O183  1  0.92987510  0.30221723  0.25467619  1
  O  O184  1  0.23553757  0.14198574  0.25164902  1
  O  O185  1  0.74005918  0.16166164  0.24600913  1
  O  O186  1  0.32504250  0.49358392  0.92070333  1
  O  O187  1  0.82055241  0.49723774  0.91676354  1
  O  O188  1  0.43012907  0.37337265  0.92281576  1
  O  O189  1  0.92924258  0.35210384  0.91334894  1
  O  O190  1  0.25671961  0.15146922  0.91724668  1
  O  O191  1  0.75717947  0.16196597  0.92690681  1
  O  O192  1  0.32199349  0.14175173  0.41520003  1
  O  O193  1  0.81561777  0.13785202  0.42006216  1
  O  O194  1  0.25760713  0.35148509  0.42772546  1
  O  O195  1  0.75023175  0.36178916  0.41538955  1
  O  O196  1  0.42803264  0.50604493  0.41345377  1
  O  O197  1  0.91865383  0.47329990  0.42761064  1
  O  O198  1  0.16263453  0.47529399  0.07181055  1
  O  O199  1  0.67006867  0.49928756  0.06906524  1
  O  O200  1  0.07014064  0.66077860  0.07553901  1
  O  O201  1  0.57414944  0.62984560  0.07040155  1
  O  O202  1  0.25826569  0.84894063  0.07555558  1
  O  O203  1  0.74632622  0.84175363  0.07428664  1
  O  O204  1  0.17505377  0.84852375  0.57516127  1
  O  O205  1  0.66340609  0.85656569  0.56973304  1
  O  O206  1  0.24906570  0.66016600  0.57396893  1
  O  O207  1  0.75677405  0.66863710  0.57762540  1
  O  O208  1  0.07907560  0.50631464  0.57506795  1
  O  O209  1  0.57073478  0.48301251  0.57526298  1
  O  O210  1  0.14536680  0.81525791  0.25399024  1
  O  O211  1  0.63409990  0.80389691  0.25716107  1
  O  O212  1  0.26202735  0.69860416  0.25176625  1
  O  O213  1  0.75739426  0.71025987  0.25923654  1
  O  O214  1  0.09621374  0.47913614  0.25492370  1
  O  O215  1  0.58930537  0.46471797  0.25898574  1
  O  O216  1  0.13482691  0.46484455  0.75601540  1
  O  O217  1  0.64291703  0.47565383  0.75764551  1
  O  O218  1  0.09265339  0.72120865  0.76000459  1
  O  O219  1  0.59419247  0.69843200  0.75715924  1
  O  O220  1  0.26024723  0.80454917  0.76043581  1
  O  O221  1  0.76057556  0.82325904  0.75203214  1
