# generated using pymatgen
data_Na5Hf2Mg2P5SO24
_symmetry_space_group_name_H-M   'P 1'
_cell_length_a   8.92458492
_cell_length_b   8.94224934
_cell_length_c   22.48763737
_cell_angle_alpha   90.12547735
_cell_angle_beta   89.98927130
_cell_angle_gamma   120.07427627
_symmetry_Int_Tables_number   1
_chemical_formula_structural   Na5Hf2Mg2P5SO24
_chemical_formula_sum   'Na15 Hf6 Mg6 P15 S3 O72'
_cell_volume   1553.03929234
_cell_formula_units_Z   3
loop_
 _symmetry_equiv_pos_site_id
 _symmetry_equiv_pos_as_xyz
  1  'x, y, z'
loop_
 _atom_site_type_symbol
 _atom_site_label
 _atom_site_symmetry_multiplicity
 _atom_site_fract_x
 _atom_site_fract_y
 _atom_site_fract_z
 _atom_site_occupancy
  Na  Na0  1  0.64140861  0.00006896  0.25383705  1
  Na  Na1  1  0.37028916  0.37638562  0.24519922  1
  Na  Na2  1  0.99136579  0.61967395  0.25361098  1
  Na  Na3  1  0.64361490  0.63058606  0.74475097  1
  Na  Na4  1  0.98520341  0.35332364  0.74658923  1
  Na  Na5  1  0.37038727  0.01663411  0.74648137  1
  Na  Na6  1  0.30454837  0.96353373  0.07178438  1
  Na  Na7  1  0.03927239  0.34910726  0.07406945  1
  Na  Na8  1  0.70982463  0.68088658  0.41558971  1
  Na  Na9  1  0.00644541  0.00525964  0.49718942  1
  Na  Na10  1  0.99940308  0.99811407  0.98476755  1
  Na  Na11  1  0.66712205  0.32661059  0.83172340  1
  Na  Na12  1  0.68482971  0.32679031  0.33393261  1
  Na  Na13  1  0.34910228  0.66051991  0.15911109  1
  Na  Na14  1  0.33532125  0.66533918  0.66200166  1
  Hf  Hf15  1  0.99845676  0.99812701  0.64581635  1
  Hf  Hf16  1  0.98863396  0.99644534  0.14598037  1
  Hf  Hf17  1  0.66766024  0.33312380  0.98028417  1
  Hf  Hf18  1  0.67300498  0.32809952  0.48356235  1
  Hf  Hf19  1  0.33050423  0.67382959  0.51931015  1
  Hf  Hf20  1  0.32739598  0.66785485  0.81881460  1
  Mg  Mg21  1  0.99183963  0.99938653  0.35282653  1
  Mg  Mg22  1  0.00858495  0.00825968  0.85213339  1
  Mg  Mg23  1  0.66812383  0.33524467  0.68137275  1
  Mg  Mg24  1  0.67124209  0.33923895  0.18076357  1
  Mg  Mg25  1  0.33376383  0.66592330  0.01630174  1
  Mg  Mg26  1  0.32793290  0.66568924  0.31810604  1
  P  P27  1  0.70217390  0.69972083  0.25388603  1
  P  P28  1  0.00002665  0.29433328  0.25125401  1
  P  P29  1  0.29500731  0.29377022  0.75117404  1
  P  P30  1  0.99727599  0.70799530  0.75226561  1
  P  P31  1  0.70819498  0.99966745  0.75246901  1
  P  P32  1  0.96479022  0.33409505  0.58722314  1
  P  P33  1  0.37361785  0.04241661  0.58649300  1
  P  P34  1  0.66435118  0.62590697  0.58394743  1
  P  P35  1  0.96416706  0.62794710  0.08596765  1
  P  P36  1  0.65988078  0.03765782  0.08617357  1
  P  P37  1  0.37441416  0.33651087  0.08735165  1
  P  P38  1  0.03632879  0.36499080  0.92019786  1
  P  P39  1  0.32792861  0.96308260  0.92040872  1
  P  P40  1  0.62693683  0.96163475  0.41269923  1
  P  P41  1  0.03676336  0.66953364  0.41299105  1
  S  S42  1  0.29239662  0.00090328  0.25071676  1
  S  S43  1  0.62868938  0.66956732  0.91770600  1
  S  S44  1  0.33272985  0.37128683  0.41503440  1
  O  O45  1  0.20454090  0.02348487  0.30226651  1
  O  O46  1  0.81249062  0.78049491  0.30966423  1
  O  O47  1  0.97725480  0.17633892  0.30324586  1
  O  O48  1  0.21248719  0.17958306  0.80489695  1
  O  O49  1  0.96801856  0.79284994  0.80579726  1
  O  O50  1  0.82278888  0.02806723  0.80584631  1
  O  O51  1  0.79108080  0.96638455  0.69584489  1
  O  O52  1  0.17579825  0.20966178  0.69537702  1
  O  O53  1  0.03271462  0.82452303  0.69600195  1
  O  O54  1  0.80162153  0.82133441  0.19923059  1
  O  O55  1  0.02422492  0.20822280  0.19281495  1
  O  O56  1  0.18830183  0.98011972  0.19514164  1
  O  O57  1  0.89023716  0.35911257  0.64462572  1
  O  O58  1  0.47169297  0.11647851  0.64409309  1
  O  O59  1  0.64207219  0.52530322  0.64079567  1
  O  O60  1  0.88673984  0.52524738  0.14306271  1
  O  O61  1  0.63611901  0.11632713  0.14353374  1
  O  O62  1  0.47005823  0.35306344  0.14552469  1
  O  O63  1  0.46742156  0.30648675  0.03383792  1
  O  O64  1  0.84544227  0.53569714  0.03169708  1
  O  O65  1  0.69291962  0.16262508  0.03286343  1
  O  O66  1  0.46992878  0.15556958  0.53191831  1
  O  O67  1  0.68341932  0.53457489  0.52760938  1
  O  O68  1  0.84885000  0.31365494  0.53248289  1
  O  O69  1  0.53802560  0.68335215  0.96933575  1
  O  O70  1  0.14019915  0.45429030  0.97601305  1
  O  O71  1  0.31915122  0.86201560  0.97606164  1
  O  O72  1  0.52355172  0.83910265  0.46546057  1
  O  O73  1  0.31511022  0.46197543  0.46761073  1
  O  O74  1  0.14969138  0.67682441  0.46674870  1
  O  O75  1  0.10844854  0.64083497  0.35496486  1
  O  O76  1  0.52777547  0.88569821  0.35450532  1
  O  O77  1  0.36184884  0.47504140  0.36040691  1
  O  O78  1  0.13053056  0.47914402  0.86332568  1
  O  O79  1  0.35353615  0.87248802  0.86339453  1
  O  O80  1  0.52491774  0.64583892  0.86146575  1
  O  O81  1  0.01646752  0.83060435  0.41409151  1
  O  O82  1  0.80611886  0.97583502  0.41419975  1
  O  O83  1  0.18134457  0.19690396  0.41147234  1
  O  O84  1  0.01021287  0.18490772  0.91289916  1
  O  O85  1  0.16773856  0.97903139  0.91303291  1
  O  O86  1  0.80110034  0.81964148  0.91181180  1
  O  O87  1  0.98096208  0.16937770  0.58802213  1
  O  O88  1  0.19061943  0.02255375  0.58734567  1
  O  O89  1  0.82944518  0.80867607  0.58645840  1
  O  O90  1  0.98654290  0.81359269  0.08943485  1
  O  O91  1  0.83278615  0.03038308  0.08855743  1
  O  O92  1  0.19076231  0.16339605  0.08935337  1
  O  O93  1  0.67980845  0.15535311  0.74479579  1
  O  O94  1  0.47937281  0.32274597  0.74317707  1
  O  O95  1  0.84294922  0.52345270  0.74403488  1
  O  O96  1  0.67991304  0.51781212  0.24569560  1
  O  O97  1  0.83512944  0.31034528  0.24604741  1
  O  O98  1  0.46770603  0.15559732  0.24589652  1
  O  O99  1  0.64042592  0.50683489  0.92098946  1
  O  O100  1  0.85646028  0.35885069  0.92164653  1
  O  O101  1  0.49679958  0.14689082  0.92215341  1
  O  O102  1  0.64442995  0.14241841  0.42261594  1
  O  O103  1  0.49591772  0.36143348  0.42239461  1
  O  O104  1  0.84871546  0.50733139  0.42200774  1
  O  O105  1  0.34181974  0.48710817  0.07874262  1
  O  O106  1  0.14642776  0.65215693  0.07810419  1
  O  O107  1  0.50378371  0.85911992  0.07653596  1
  O  O108  1  0.35102262  0.85887335  0.57671694  1
  O  O109  1  0.50374914  0.64813729  0.57453617  1
  O  O110  1  0.14656286  0.49352700  0.57633312  1
  O  O111  1  0.30708404  0.84238024  0.25354743  1
  O  O112  1  0.52307559  0.68883502  0.25474468  1
  O  O113  1  0.16506277  0.47602672  0.25407564  1
  O  O114  1  0.31075822  0.47752125  0.75663311  1
  O  O115  1  0.16676043  0.69267556  0.75695102  1
  O  O116  1  0.52416577  0.83081337  0.75694231  1
