# generated using pymatgen
data_MgV2In2O8
_symmetry_space_group_name_H-M   'P 1'
_cell_length_a   5.24630365
_cell_length_b   5.01494199
_cell_length_c   6.26784199
_cell_angle_alpha   90.00000000
_cell_angle_beta   90.00000000
_cell_angle_gamma   100.59197637
_symmetry_Int_Tables_number   1
_chemical_formula_structural   MgV2In2O8
_chemical_formula_sum   'Mg1 V2 In2 O8'
_cell_volume   162.09652611
_cell_formula_units_Z   1
loop_
 _symmetry_equiv_pos_site_id
 _symmetry_equiv_pos_as_xyz
  1  'x, y, z'
loop_
 _atom_site_type_symbol
 _atom_site_label
 _atom_site_symmetry_multiplicity
 _atom_site_fract_x
 _atom_site_fract_y
 _atom_site_fract_z
 _atom_site_occupancy
  Mg  Mg0  1  0.00000000  0.25000000  0.58346398  1
  V  V1  1  0.00000000  0.25000000  0.12822225  1
  V  V2  1  0.00000000  0.75000000  0.85068796  1
  In  In3  1  0.50000000  0.25000000  0.85052437  1
  In  In4  1  0.50000000  0.75000000  0.42498994  1
  O  O5  1  0.81059388  0.02875323  0.85325259  1
  O  O6  1  0.18940612  0.47124677  0.85325259  1
  O  O7  1  0.21899618  0.99611903  0.06647516  1
  O  O8  1  0.78100382  0.50388097  0.06647516  1
  O  O9  1  0.78714643  0.06506773  0.34339719  1
  O  O10  1  0.21285357  0.43493227  0.34339719  1
  O  O11  1  0.25740722  0.95884553  0.63563930  1
  O  O12  1  0.74259278  0.54115447  0.63563930  1
