# generated using pymatgen
data_Na14Ta4Al4Si11SO48
_symmetry_space_group_name_H-M   'P 1'
_cell_length_a   17.88080131
_cell_length_b   8.93353695
_cell_length_c   21.99483023
_cell_angle_alpha   90.06473394
_cell_angle_beta   90.13443582
_cell_angle_gamma   120.00387343
_symmetry_Int_Tables_number   1
_chemical_formula_structural   Na14Ta4Al4Si11SO48
_chemical_formula_sum   'Na42 Ta12 Al12 Si33 S3 O144'
_cell_volume   3042.57979844
_cell_formula_units_Z   3
loop_
 _symmetry_equiv_pos_site_id
 _symmetry_equiv_pos_as_xyz
  1  'x, y, z'
loop_
 _atom_site_type_symbol
 _atom_site_label
 _atom_site_symmetry_multiplicity
 _atom_site_fract_x
 _atom_site_fract_y
 _atom_site_fract_z
 _atom_site_occupancy
  Na  Na0  1  0.32303153  0.99985304  0.25002630  1
  Na  Na1  1  0.82363496  0.00024249  0.24998644  1
  Na  Na2  1  0.31837209  0.62943438  0.74868281  1
  Na  Na3  1  0.82346885  0.64689864  0.74917611  1
  Na  Na4  1  0.49415762  0.36275368  0.74805546  1
  Na  Na5  1  0.68171796  0.00143345  0.75102964  1
  Na  Na6  1  0.14873930  0.32384761  0.58519463  1
  Na  Na7  1  0.65293025  0.33285978  0.58220435  1
  Na  Na8  1  0.01700145  0.70931768  0.58589201  1
  Na  Na9  1  0.51103567  0.68927095  0.58291989  1
  Na  Na10  1  0.33089333  0.97803842  0.58327494  1
  Na  Na11  1  0.83967550  0.97035367  0.58628582  1
  Na  Na12  1  0.14847097  0.96172395  0.08153290  1
  Na  Na13  1  0.64817479  0.96160240  0.08148335  1
  Na  Na14  1  0.33202853  0.70528459  0.08338245  1
  Na  Na15  1  0.83216097  0.70520633  0.08393914  1
  Na  Na16  1  0.02071250  0.33553932  0.08353360  1
  Na  Na17  1  0.52024260  0.33486786  0.08359294  1
  Na  Na18  1  0.48405184  0.67660456  0.91419763  1
  Na  Na19  1  0.98593649  0.67519698  0.91371531  1
  Na  Na20  1  0.35328015  0.02961437  0.91431209  1
  Na  Na21  1  0.85305385  0.03049211  0.91404932  1
  Na  Na22  1  0.16268562  0.29847980  0.91592670  1
  Na  Na23  1  0.66080661  0.29212388  0.91493089  1
  Na  Na24  1  0.47864984  0.29505210  0.41628459  1
  Na  Na25  1  0.98027760  0.29548640  0.41634748  1
  Na  Na26  1  0.16741284  0.03857746  0.42000844  1
  Na  Na27  1  0.66779018  0.03817933  0.41777444  1
  Na  Na28  1  0.35198226  0.66306175  0.41668839  1
  Na  Na29  1  0.85332890  0.66537429  0.41611344  1
  Na  Na30  1  0.00193014  0.00026628  0.50022529  1
  Na  Na31  1  0.49873111  0.99840650  0.49451746  1
  Na  Na32  1  0.00046673  0.00181192  0.00037429  1
  Na  Na33  1  0.49948072  0.00005736  0.99949533  1
  Na  Na34  1  0.33055481  0.32385160  0.82737906  1
  Na  Na35  1  0.83978630  0.33537477  0.83248879  1
  Na  Na36  1  0.33682090  0.34593735  0.33757042  1
  Na  Na37  1  0.83759127  0.34667052  0.33705838  1
  Na  Na38  1  0.16428190  0.65367179  0.16267603  1
  Na  Na39  1  0.66416646  0.65346492  0.16258916  1
  Na  Na40  1  0.16311790  0.67449544  0.66828047  1
  Na  Na41  1  0.66720080  0.66723570  0.66658559  1
  Ta  Ta42  1  0.49733169  0.99703862  0.64583847  1
  Ta  Ta43  1  0.83965754  0.33891401  0.68925662  1
  Ta  Ta44  1  0.33922594  0.34723518  0.18774675  1
  Ta  Ta45  1  0.83941140  0.34761399  0.18773963  1
  Ta  Ta46  1  0.33323060  0.33547307  0.98020122  1
  Ta  Ta47  1  0.83309727  0.33385026  0.98089050  1
  Ta  Ta48  1  0.16645597  0.66874416  0.52034038  1
  Ta  Ta49  1  0.66597343  0.66540796  0.51867674  1
  Ta  Ta50  1  0.16547847  0.65232087  0.31210767  1
  Ta  Ta51  1  0.66558984  0.65320201  0.31187610  1
  Ta  Ta52  1  0.16400323  0.67238726  0.81318158  1
  Ta  Ta53  1  0.66791109  0.66978479  0.81309464  1
  Al  Al54  1  0.99156738  0.99593540  0.35657207  1
  Al  Al55  1  0.49111532  0.99528858  0.35596651  1
  Al  Al56  1  0.99344058  0.99007600  0.85651186  1
  Al  Al57  1  0.49765014  0.99827986  0.85400142  1
  Al  Al58  1  0.99651587  0.98700120  0.64333869  1
  Al  Al59  1  0.99379799  0.00439106  0.14367652  1
  Al  Al60  1  0.49349368  0.00418548  0.14350062  1
  Al  Al61  1  0.33728207  0.32806402  0.68263089  1
  Al  Al62  1  0.33148346  0.33022225  0.48045251  1
  Al  Al63  1  0.83485120  0.33400486  0.47928760  1
  Al  Al64  1  0.16685301  0.66604888  0.01985313  1
  Al  Al65  1  0.66662271  0.66607575  0.02024462  1
  Si  Si66  1  0.36186141  0.72186608  0.25024982  1
  Si  Si67  1  0.86202051  0.72219746  0.25032802  1
  Si  Si68  1  0.00096171  0.27774001  0.24963161  1
  Si  Si69  1  0.50086484  0.27763378  0.24957091  1
  Si  Si70  1  0.64304496  0.28509938  0.75336335  1
  Si  Si71  1  0.00357833  0.72845995  0.74975484  1
  Si  Si72  1  0.49483112  0.70469062  0.75244457  1
  Si  Si73  1  0.35362493  0.00610164  0.75263858  1
  Si  Si74  1  0.86406344  0.00497827  0.75006325  1
  Si  Si75  1  0.47375984  0.33361370  0.58216884  1
  Si  Si76  1  0.97755070  0.32603035  0.58046505  1
  Si  Si77  1  0.19064958  0.05660868  0.58437164  1
  Si  Si78  1  0.69156725  0.05002711  0.58080365  1
  Si  Si79  1  0.33179659  0.60712528  0.58395421  1
  Si  Si80  1  0.83575867  0.62179543  0.58076725  1
  Si  Si81  1  0.48468662  0.63697427  0.08313391  1
  Si  Si82  1  0.98480638  0.63717995  0.08298335  1
  Si  Si83  1  0.33127896  0.03521595  0.08436911  1
  Si  Si84  1  0.83128511  0.03455471  0.08479174  1
  Si  Si85  1  0.18338402  0.33088614  0.08444073  1
  Si  Si86  1  0.68332391  0.33084508  0.08448514  1
  Si  Si87  1  0.31134134  0.67253137  0.91792217  1
  Si  Si88  1  0.81195291  0.67086374  0.92006097  1
  Si  Si89  1  0.02402152  0.37344347  0.91924411  1
  Si  Si90  1  0.52377205  0.37483351  0.91908751  1
  Si  Si91  1  0.16309143  0.95477402  0.91962511  1
  Si  Si92  1  0.66303241  0.95344252  0.91996734  1
  Si  Si93  1  0.31368740  0.96487810  0.41527247  1
  Si  Si94  1  0.81411539  0.96550767  0.41539037  1
  Si  Si95  1  0.16606368  0.36388383  0.41766448  1
  Si  Si96  1  0.66639456  0.36304383  0.41655061  1
  Si  Si97  1  0.01810455  0.66896869  0.41515139  1
  Si  Si98  1  0.51748849  0.66848707  0.41503820  1
  S  S99  1  0.14209616  0.00017061  0.24990433  1
  S  S100  1  0.64226542  0.00019032  0.24977769  1
  S  S101  1  0.14255201  0.28195036  0.75000498  1
  O  O102  1  0.10330085  0.02282373  0.30544322  1
  O  O103  1  0.60335190  0.02285543  0.30573379  1
  O  O104  1  0.41600551  0.80342080  0.31207212  1
  O  O105  1  0.91599011  0.80394826  0.31208299  1
  O  O106  1  0.48376227  0.16249888  0.31041082  1
  O  O107  1  0.98331447  0.16207973  0.31035673  1
  O  O108  1  0.10222380  0.18342454  0.80592574  1
  O  O109  1  0.59848615  0.16291088  0.81091119  1
  O  O110  1  0.48256848  0.80029722  0.81047670  1
  O  O111  1  0.98485932  0.80629873  0.81064284  1
  O  O112  1  0.41615369  0.03628270  0.81032149  1
  O  O113  1  0.91576624  0.02592822  0.81226990  1
  O  O114  1  0.39968678  0.96971561  0.69159554  1
  O  O115  1  0.90306182  0.96783855  0.68936719  1
  O  O116  1  0.09109442  0.20488363  0.69478908  1
  O  O117  1  0.58427164  0.20101986  0.69105553  1
  O  O118  1  0.01345785  0.83140796  0.68773044  1
  O  O119  1  0.51638874  0.83164958  0.69145506  1
  O  O120  1  0.40233566  0.83749133  0.18969183  1
  O  O121  1  0.90217245  0.83730859  0.18960071  1
  O  O122  1  0.01416254  0.19613841  0.18802638  1
  O  O123  1  0.51441176  0.19626762  0.18805637  1
  O  O124  1  0.09169427  0.97740264  0.19434437  1
  O  O125  1  0.59184604  0.97734124  0.19455533  1
  O  O126  1  0.43806082  0.37494464  0.64363146  1
  O  O127  1  0.93267921  0.36875602  0.63955002  1
  O  O128  1  0.25682719  0.13993145  0.64088741  1
  O  O129  1  0.74973306  0.13295585  0.64285805  1
  O  O130  1  0.31586018  0.49437448  0.64504190  1
  O  O131  1  0.81456257  0.49823795  0.64215128  1
  O  O132  1  0.43434075  0.49856915  0.13970302  1
  O  O133  1  0.93426621  0.49873483  0.13953715  1
  O  O134  1  0.31473820  0.13068348  0.14304021  1
  O  O135  1  0.81462612  0.13066169  0.14313168  1
  O  O136  1  0.25279252  0.36545247  0.13999180  1
  O  O137  1  0.75286147  0.36555250  0.13991094  1
  O  O138  1  0.23064059  0.29652291  0.02437740  1
  O  O139  1  0.73091818  0.29682723  0.02442130  1
  O  O140  1  0.41779053  0.54174027  0.02462817  1
  O  O141  1  0.91767249  0.54158721  0.02448325  1
  O  O142  1  0.34972372  0.16805598  0.02562068  1
  O  O143  1  0.84966435  0.16704787  0.02581758  1
  O  O144  1  0.23075414  0.16809858  0.52229087  1
  O  O145  1  0.73354093  0.17062587  0.52245956  1
  O  O146  1  0.35261197  0.53112398  0.52377078  1
  O  O147  1  0.85052997  0.52998481  0.52266151  1
  O  O148  1  0.41476444  0.29556467  0.52241500  1
  O  O149  1  0.91558676  0.29154585  0.52241364  1
  O  O150  1  0.26587548  0.70331267  0.97624339  1
  O  O151  1  0.76587048  0.70238069  0.97724774  1
  O  O152  1  0.08429935  0.46330388  0.97795428  1
  O  O153  1  0.58529646  0.46710513  0.97688572  1
  O  O154  1  0.14551010  0.83078216  0.97738709  1
  O  O155  1  0.64839653  0.83036133  0.97728573  1
  O  O156  1  0.26661749  0.83344722  0.47445433  1
  O  O157  1  0.76576663  0.83280243  0.47433358  1
  O  O158  1  0.14725131  0.45996001  0.47583751  1
  O  O159  1  0.64740250  0.45801635  0.47542730  1
  O  O160  1  0.08224216  0.70217051  0.47532370  1
  O  O161  1  0.58179211  0.70255282  0.47573546  1
  O  O162  1  0.06972399  0.63387694  0.35970255  1
  O  O163  1  0.57041997  0.63523821  0.36017414  1
  O  O164  1  0.24948673  0.86888494  0.35673467  1
  O  O165  1  0.74928561  0.86940403  0.35708578  1
  O  O166  1  0.18455741  0.50105376  0.36053599  1
  O  O167  1  0.68471912  0.50128609  0.36030456  1
  O  O168  1  0.06793205  0.50437334  0.86018090  1
  O  O169  1  0.56701091  0.50166249  0.85802206  1
  O  O170  1  0.18506631  0.86574000  0.86031771  1
  O  O171  1  0.68410961  0.86973488  0.85824105  1
  O  O172  1  0.24851216  0.62821988  0.85682979  1
  O  O173  1  0.75048862  0.63157531  0.85796457  1
  O  O174  1  0.01379332  0.84494975  0.40877249  1
  O  O175  1  0.51412692  0.84575303  0.40905473  1
  O  O176  1  0.40711122  0.97557848  0.41273882  1
  O  O177  1  0.90703174  0.97547416  0.41299497  1
  O  O178  1  0.07986836  0.17908690  0.40770234  1
  O  O179  1  0.57974498  0.17845319  0.40774512  1
  O  O180  1  0.01314625  0.18332116  0.90924822  1
  O  O181  1  0.51169051  0.18371368  0.91052708  1
  O  O182  1  0.08108314  0.98179523  0.90771161  1
  O  O183  1  0.57933851  0.97617764  0.91126936  1
  O  O184  1  0.40739998  0.83955451  0.91031169  1
  O  O185  1  0.90787860  0.83795573  0.91298582  1
  O  O186  1  0.48758466  0.16245852  0.58798821  1
  O  O187  1  0.99097933  0.16183043  0.59218199  1
  O  O188  1  0.09275883  0.02748659  0.59159824  1
  O  O189  1  0.59341347  0.02398626  0.58772344  1
  O  O190  1  0.41733359  0.80869591  0.58939441  1
  O  O191  1  0.91911623  0.81466977  0.58708059  1
  O  O192  1  0.49045527  0.82131409  0.09263969  1
  O  O193  1  0.99027262  0.82120529  0.09249084  1
  O  O194  1  0.41915218  0.02448628  0.08726177  1
  O  O195  1  0.91930628  0.02446654  0.08728239  1
  O  O196  1  0.09115300  0.15492867  0.09100522  1
  O  O197  1  0.59124845  0.15492831  0.09097899  1
  O  O198  1  0.34620791  0.17802326  0.74323268  1
  O  O199  1  0.84395038  0.16779187  0.74550528  1
  O  O200  1  0.23144802  0.30850335  0.74654182  1
  O  O201  1  0.74024156  0.30959673  0.74664740  1
  O  O202  1  0.40982818  0.51434236  0.74454585  1
  O  O203  1  0.91461023  0.52962656  0.74468729  1
  O  O204  1  0.34478459  0.52086208  0.24465161  1
  O  O205  1  0.84469468  0.52094486  0.24469687  1
  O  O206  1  0.41133114  0.29577615  0.24430317  1
  O  O207  1  0.91135073  0.29615085  0.24422083  1
  O  O208  1  0.23223436  0.15520048  0.24603507  1
  O  O209  1  0.73228137  0.15508706  0.24620426  1
  O  O210  1  0.31984971  0.49511654  0.92208159  1
  O  O211  1  0.82000631  0.49370707  0.92168650  1
  O  O212  1  0.42732033  0.36018493  0.92231056  1
  O  O213  1  0.92713120  0.35753053  0.92259396  1
  O  O214  1  0.25253925  0.14618729  0.92218553  1
  O  O215  1  0.75280630  0.14591744  0.92220073  1
  O  O216  1  0.32051013  0.15132759  0.42213668  1
  O  O217  1  0.82044104  0.15149252  0.42247738  1
  O  O218  1  0.25429869  0.35762347  0.42295685  1
  O  O219  1  0.75445829  0.35691900  0.42245260  1
  O  O220  1  0.42539373  0.49430349  0.42203206  1
  O  O221  1  0.92554065  0.49413837  0.42222984  1
  O  O222  1  0.17875854  0.50614022  0.07768855  1
  O  O223  1  0.67865789  0.50592149  0.07759558  1
  O  O224  1  0.07588220  0.64300069  0.07716318  1
  O  O225  1  0.57587619  0.64306285  0.07725320  1
  O  O226  1  0.24486736  0.84865686  0.07716474  1
  O  O227  1  0.74488327  0.84832144  0.07762965  1
  O  O228  1  0.17886324  0.85580585  0.57730568  1
  O  O229  1  0.67984218  0.85409724  0.57827578  1
  O  O230  1  0.24784420  0.63950222  0.57826024  1
  O  O231  1  0.74723004  0.64022563  0.57753457  1
  O  O232  1  0.07309949  0.50493293  0.57802457  1
  O  O233  1  0.57337405  0.50389944  0.57718610  1
  O  O234  1  0.15473395  0.84504296  0.25368815  1
  O  O235  1  0.65475823  0.84494208  0.25383562  1
  O  O236  1  0.26319456  0.70381316  0.25580486  1
  O  O237  1  0.76319836  0.70402551  0.25592759  1
  O  O238  1  0.08420197  0.47894460  0.25521063  1
  O  O239  1  0.58417185  0.47902055  0.25541335  1
  O  O240  1  0.15344384  0.46355190  0.75387938  1
  O  O241  1  0.65360486  0.47962608  0.75437004  1
  O  O242  1  0.08538813  0.69083313  0.75492168  1
  O  O243  1  0.58440053  0.69002552  0.75465335  1
  O  O244  1  0.26088421  0.81979981  0.75468860  1
  O  O245  1  0.76254624  0.83067104  0.75509101  1
