# generated using pymatgen
data_NaSb5O8
_symmetry_space_group_name_H-M   'P 1'
_cell_length_a   7.16978053
_cell_length_b   7.36619973
_cell_length_c   9.69637942
_cell_angle_alpha   106.19300693
_cell_angle_beta   106.35505078
_cell_angle_gamma   85.32354749
_symmetry_Int_Tables_number   1
_chemical_formula_structural   NaSb5O8
_chemical_formula_sum   'Na2 Sb10 O16'
_cell_volume   471.88592229
_cell_formula_units_Z   2
loop_
 _symmetry_equiv_pos_site_id
 _symmetry_equiv_pos_as_xyz
  1  'x, y, z'
loop_
 _atom_site_type_symbol
 _atom_site_label
 _atom_site_symmetry_multiplicity
 _atom_site_fract_x
 _atom_site_fract_y
 _atom_site_fract_z
 _atom_site_occupancy
  Na  Na0  1  0.25083231  0.56604075  0.96647315  1
  Na  Na1  1  0.74916769  0.43395925  0.03352685  1
  Sb  Sb2  1  0.54197029  0.82534543  0.27609303  1
  Sb  Sb3  1  0.45802971  0.17465457  0.72390697  1
  Sb  Sb4  1  0.74660194  0.93851023  0.02749716  1
  Sb  Sb5  1  0.25339806  0.06148977  0.97250284  1
  Sb  Sb6  1  0.53624914  0.39720413  0.33133356  1
  Sb  Sb7  1  0.46375086  0.60279587  0.66866644  1
  Sb  Sb8  1  0.10736970  0.76338735  0.33495284  1
  Sb  Sb9  1  0.89263030  0.23661265  0.66504716  1
  Sb  Sb10  1  0.96877149  0.69390736  0.65880539  1
  Sb  Sb11  1  0.03122851  0.30609264  0.34119461  1
  O  O12  1  0.06605768  0.48778303  0.23405758  1
  O  O13  1  0.93394232  0.51221697  0.76594242  1
  O  O14  1  0.82362119  0.45706364  0.42586866  1
  O  O15  1  0.17637881  0.54293636  0.57413134  1
  O  O16  1  0.81257772  0.19207539  0.16323058  1
  O  O17  1  0.18742228  0.80792461  0.83676942  1
  O  O18  1  0.85024090  0.80583907  0.19598598  1
  O  O19  1  0.14975910  0.19416093  0.80401402  1
  O  O20  1  0.54209533  0.55251552  0.18276418  1
  O  O21  1  0.45790467  0.44748448  0.81723582  1
  O  O22  1  0.44172777  0.64076024  0.44032019  1
  O  O23  1  0.55827223  0.35923976  0.55967981  1
  O  O24  1  0.75472341  0.18323138  0.79753256  1
  O  O25  1  0.24527659  0.81676862  0.20246744  1
  O  O26  1  0.49687909  0.10553238  0.92018064  1
  O  O27  1  0.50312091  0.89446762  0.07981936  1
