# generated using pymatgen
data_MgVFeP2(O4F)2
_symmetry_space_group_name_H-M   'P 1'
_cell_length_a   5.21571054
_cell_length_b   5.41534045
_cell_length_c   7.45468189
_cell_angle_alpha   110.17213554
_cell_angle_beta   106.32959436
_cell_angle_gamma   96.91875145
_symmetry_Int_Tables_number   1
_chemical_formula_structural   MgVFeP2(O4F)2
_chemical_formula_sum   'Mg1 V1 Fe1 P2 O8 F2'
_cell_volume   184.06067141
_cell_formula_units_Z   1
loop_
 _symmetry_equiv_pos_site_id
 _symmetry_equiv_pos_as_xyz
  1  'x, y, z'
loop_
 _atom_site_type_symbol
 _atom_site_label
 _atom_site_symmetry_multiplicity
 _atom_site_fract_x
 _atom_site_fract_y
 _atom_site_fract_z
 _atom_site_occupancy
  Mg  Mg0  1  0.08435614  0.43696067  0.83185191  1
  V  V1  1  0.00152711  0.00675662  0.01201887  1
  Fe  Fe2  1  0.48556112  0.49848808  0.48877619  1
  P  P3  1  0.44191156  0.11777417  0.76279794  1
  P  P4  1  0.56675289  0.87957813  0.24039964  1
  O  O5  1  0.29543092  0.17611513  0.92548779  1
  O  O6  1  0.35298760  0.81786071  0.62396750  1
  O  O7  1  0.33906934  0.31504898  0.66202198  1
  O  O8  1  0.25307223  0.78235723  0.09468892  1
  O  O9  1  0.76425223  0.20828497  0.86497320  1
  O  O10  1  0.63030990  0.68353494  0.34392340  1
  O  O11  1  0.62899161  0.17168281  0.39762401  1
  O  O12  1  0.72675959  0.85168409  0.09214638  1
  F  F13  1  0.13201838  0.32983559  0.27054935  1
  F  F14  1  0.85949936  0.66153788  0.73698791  1
