# generated using pymatgen
data_NaNbCl6
_symmetry_space_group_name_H-M   'P 1'
_cell_length_a   6.89697222
_cell_length_b   6.45110154
_cell_length_c   19.25484287
_cell_angle_alpha   88.46585036
_cell_angle_beta   89.99973613
_cell_angle_gamma   89.99942989
_symmetry_Int_Tables_number   1
_chemical_formula_structural   NaNbCl6
_chemical_formula_sum   'Na4 Nb4 Cl24'
_cell_volume   856.39994484
_cell_formula_units_Z   4
loop_
 _symmetry_equiv_pos_site_id
 _symmetry_equiv_pos_as_xyz
  1  'x, y, z'
loop_
 _atom_site_type_symbol
 _atom_site_label
 _atom_site_symmetry_multiplicity
 _atom_site_fract_x
 _atom_site_fract_y
 _atom_site_fract_z
 _atom_site_occupancy
  Na  Na0  1  0.80940909  0.20629156  0.74651711  1
  Na  Na1  1  0.30939673  0.79371037  0.75348861  1
  Na  Na2  1  0.19062902  0.79376006  0.25348737  1
  Na  Na3  1  0.69063562  0.20624490  0.24650809  1
  Nb  Nb4  1  0.71498152  0.74155970  0.61531237  1
  Nb  Nb5  1  0.21498050  0.25842138  0.88470400  1
  Nb  Nb6  1  0.28501499  0.25843699  0.38475074  1
  Nb  Nb7  1  0.78499561  0.74156782  0.11523654  1
  Cl  Cl8  1  0.82126104  0.61496982  0.23819528  1
  Cl  Cl9  1  0.32126945  0.38503416  0.26179344  1
  Cl  Cl10  1  0.17882682  0.38483595  0.76170053  1
  Cl  Cl11  1  0.67882569  0.61517681  0.73832052  1
  Cl  Cl12  1  0.60265128  0.44832804  0.09380407  1
  Cl  Cl13  1  0.10267440  0.55167708  0.40618310  1
  Cl  Cl14  1  0.39726180  0.55171966  0.90608535  1
  Cl  Cl15  1  0.89727487  0.44825534  0.59393747  1
  Cl  Cl16  1  0.49534838  0.91869220  0.15669977  1
  Cl  Cl17  1  0.99537381  0.08132375  0.34328507  1
  Cl  Cl18  1  0.50463347  0.08127846  0.84329463  1
  Cl  Cl19  1  0.00464664  0.91870854  0.65671054  1
  Cl  Cl20  1  0.74591015  0.89252316  0.00708864  1
  Cl  Cl21  1  0.24592648  0.10748735  0.49290385  1
  Cl  Cl22  1  0.25405683  0.10765239  0.99286331  1
  Cl  Cl23  1  0.75409153  0.89231000  0.50715213  1
  Cl  Cl24  1  0.96501101  0.04320592  0.15514371  1
  Cl  Cl25  1  0.46502916  0.95680571  0.34484714  1
  Cl  Cl26  1  0.03498429  0.95671113  0.84482556  1
  Cl  Cl27  1  0.53500298  0.04329706  0.65518114  1
  Cl  Cl28  1  0.07858541  0.58541124  0.09041392  1
  Cl  Cl29  1  0.57861379  0.41461508  0.40955914  1
  Cl  Cl30  1  0.92134309  0.41459490  0.90946397  1
  Cl  Cl31  1  0.42135455  0.58539047  0.59054487  1
