# generated using pymatgen
data_MgMn6(PO4)6
_symmetry_space_group_name_H-M   'P 1'
_cell_length_a   8.53784132
_cell_length_b   9.24516687
_cell_length_c   8.65368473
_cell_angle_alpha   108.63335542
_cell_angle_beta   107.41819156
_cell_angle_gamma   107.88105345
_symmetry_Int_Tables_number   1
_chemical_formula_structural   MgMn6(PO4)6
_chemical_formula_sum   'Mg1 Mn6 P6 O24'
_cell_volume   552.94680185
_cell_formula_units_Z   1
loop_
 _symmetry_equiv_pos_site_id
 _symmetry_equiv_pos_as_xyz
  1  'x, y, z'
loop_
 _atom_site_type_symbol
 _atom_site_label
 _atom_site_symmetry_multiplicity
 _atom_site_fract_x
 _atom_site_fract_y
 _atom_site_fract_z
 _atom_site_occupancy
  Mg  Mg0  1  0.50813500  0.60533200  0.10050100  1
  Mn  Mn1  1  0.04242100  0.44866300  0.27322200  1
  Mn  Mn2  1  0.27882100  0.06392500  0.44275200  1
  Mn  Mn3  1  0.78902100  0.92929400  0.56602200  1
  Mn  Mn4  1  0.53743900  0.80302100  0.87319100  1
  Mn  Mn5  1  0.44743100  0.22924800  0.04589300  1
  Mn  Mn6  1  0.92345300  0.53427900  0.76038500  1
  P  P7  1  0.55371300  0.39614100  0.79113200  1
  P  P8  1  0.09230600  0.29685000  0.90727500  1
  P  P9  1  0.89156000  0.08092600  0.26833300  1
  P  P10  1  0.30686300  0.86705700  0.06792000  1
  P  P11  1  0.77207700  0.56611900  0.40887500  1
  P  P12  1  0.36475800  0.78097300  0.55125400  1
  O  O13  1  0.35153200  0.27588900  0.64170700  1
  O  O14  1  0.85444700  0.64934300  0.62070900  1
  O  O15  1  0.93493800  0.58963400  0.35713500  1
  O  O16  1  0.42730200  0.76815600  0.04501000  1
  O  O17  1  0.30544100  0.38228100  0.01618000  1
  O  O18  1  0.76144500  0.98623800  0.06076500  1
  O  O19  1  0.57932600  0.84658200  0.65672600  1
  O  O20  1  0.36353900  0.96684600  0.27199800  1
  O  O21  1  0.02719200  0.11018100  0.78060000  1
  O  O22  1  0.27974500  0.64513000  0.35215200  1
  O  O23  1  0.80356400  0.01755000  0.37742400  1
  O  O24  1  0.06422500  0.05094000  0.27993500  1
  O  O25  1  0.29985300  0.69491800  0.66490400  1
  O  O26  1  0.32642900  0.93676100  0.57438000  1
  O  O27  1  0.94264300  0.27458100  0.33577700  1
  O  O28  1  0.68995800  0.68207500  0.35184000  1
  O  O29  1  0.67587600  0.38520200  0.69083400  1
  O  O30  1  0.10407100  0.73737700  0.97603900  1
  O  O31  1  0.03667300  0.39319000  0.79973700  1
  O  O32  1  0.62648500  0.38286400  0.31669700  1
  O  O33  1  0.57063800  0.58032900  0.88326000  1
  O  O34  1  0.35024300  0.98231700  0.97855600  1
  O  O35  1  0.60561700  0.34396400  0.94317500  1
  O  O36  1  0.00853200  0.30639500  0.04399000  1
