# generated using pymatgen
data_Na15Mg7Nb5(PO4)18
_symmetry_space_group_name_H-M   'P 1'
_cell_length_a   8.89781895
_cell_length_b   8.86664186
_cell_length_c   22.39168912
_cell_angle_alpha   89.96283686
_cell_angle_beta   90.16716017
_cell_angle_gamma   119.85397898
_symmetry_Int_Tables_number   1
_chemical_formula_structural   Na15Mg7Nb5(PO4)18
_chemical_formula_sum   'Na15 Mg7 Nb5 P18 O72'
_cell_volume   1532.12898379
_cell_formula_units_Z   1
loop_
 _symmetry_equiv_pos_site_id
 _symmetry_equiv_pos_as_xyz
  1  'x, y, z'
loop_
 _atom_site_type_symbol
 _atom_site_label
 _atom_site_symmetry_multiplicity
 _atom_site_fract_x
 _atom_site_fract_y
 _atom_site_fract_z
 _atom_site_occupancy
  Na  Na0  1  0.98968714  0.63163079  0.24618608  1
  Na  Na1  1  0.64537722  0.63585312  0.74863334  1
  Na  Na2  1  0.99024182  0.35386174  0.74870966  1
  Na  Na3  1  0.36429297  0.00954231  0.74858666  1
  Na  Na4  1  0.29692758  0.33332573  0.58489040  1
  Na  Na5  1  0.03738410  0.70410142  0.58540744  1
  Na  Na6  1  0.66581049  0.96349390  0.58495924  1
  Na  Na7  1  0.65712776  0.69157440  0.08013648  1
  Na  Na8  1  0.32304581  0.02602193  0.41286678  1
  Na  Na9  1  0.99102193  0.99941913  0.49601101  1
  Na  Na10  1  0.00830068  0.00700123  0.99069762  1
  Na  Na11  1  0.66687409  0.33336874  0.83273829  1
  Na  Na12  1  0.66492105  0.33111874  0.32535563  1
  Na  Na13  1  0.33130275  0.66741222  0.15812910  1
  Na  Na14  1  0.33359401  0.66702480  0.66390012  1
  Mg  Mg15  1  0.99452717  0.00020574  0.35208514  1
  Mg  Mg16  1  0.99975842  -0.00009564  0.85255969  1
  Mg  Mg17  1  0.00003334  0.00030035  0.65084452  1
  Mg  Mg18  1  0.66654714  0.33282402  0.68439341  1
  Mg  Mg19  1  0.66147293  0.32758690  0.18509299  1
  Mg  Mg20  1  0.32733334  0.66593848  0.01878838  1
  Mg  Mg21  1  0.33405800  0.66652681  0.51641586  1
  Nb  Nb22  1  0.00475031  0.00692093  0.14494742  1
  Nb  Nb23  1  0.66600538  0.33051519  0.97903718  1
  Nb  Nb24  1  0.67201092  0.33801868  0.47839449  1
  Nb  Nb25  1  0.33890018  0.66530499  0.31170215  1
  Nb  Nb26  1  0.33250649  0.66635139  0.81898926  1
  P  P27  1  0.29462960  0.00723631  0.25314017  1
  P  P28  1  0.71357666  0.71003651  0.25086549  1
  P  P29  1  0.99526103  0.28713356  0.25245885  1
  P  P30  1  0.29207102  0.29099665  0.74969683  1
  P  P31  1  0.99894764  0.70804382  0.74969702  1
  P  P32  1  0.70852859  0.00044752  0.74972256  1
  P  P33  1  0.96136365  0.33485977  0.58519841  1
  P  P34  1  0.37413230  0.03965640  0.58413767  1
  P  P35  1  0.66514149  0.62645302  0.58521854  1
  P  P36  1  0.96095136  0.62081871  0.08624904  1
  P  P37  1  0.66194817  0.04164109  0.08552915  1
  P  P38  1  0.37973690  0.33654028  0.08476771  1
  P  P39  1  0.63064218  0.67172467  0.92071549  1
  P  P40  1  0.04212356  0.37034944  0.92017855  1
  P  P41  1  0.32803232  0.95797384  0.92008343  1
  P  P42  1  0.62866973  0.95489103  0.41921280  1
  P  P43  1  0.32880512  0.37337294  0.41937450  1
  P  P44  1  0.04436382  0.66918526  0.41767693  1
  O  O45  1  0.20997362  0.02208776  0.30953058  1
  O  O46  1  0.82611415  0.79531596  0.30433808  1
  O  O47  1  0.97594984  0.18122985  0.30654063  1
  O  O48  1  0.20635118  0.17610737  0.80274996  1
  O  O49  1  0.97018399  0.79394973  0.80285179  1
  O  O50  1  0.82354942  0.02966644  0.80284452  1
  O  O51  1  0.77416756  0.95783864  0.69176703  1
  O  O52  1  0.18374039  0.22580327  0.69164844  1
  O  O53  1  0.04138964  0.81633878  0.69170651  1
  O  O54  1  0.79450592  0.82520437  0.19295735  1
  O  O55  1  0.02747749  0.20072594  0.19524333  1
  O  O56  1  0.16791234  0.96913041  0.19747683  1
  O  O57  1  0.87858992  0.36458816  0.63982917  1
  O  O58  1  0.48707142  0.12343176  0.63883979  1
  O  O59  1  0.63623959  0.51429063  0.63999041  1
  O  O60  1  0.87638067  0.52122334  0.14279122  1
  O  O61  1  0.64218156  0.12777700  0.13976065  1
  O  O62  1  0.49149481  0.36447347  0.13858479  1
  O  O63  1  0.46595456  0.30325509  0.02804568  1
  O  O64  1  0.83413988  0.53276567  0.03079888  1
  O  O65  1  0.69406928  0.15979990  0.02842941  1
  O  O66  1  0.46963538  0.15956769  0.52700093  1
  O  O67  1  0.68942963  0.52667839  0.52904985  1
  O  O68  1  0.83761913  0.31070642  0.52888691  1
  O  O69  1  0.54231569  0.68886232  0.97534999  1
  O  O70  1  0.15327589  0.46263646  0.97256578  1
  O  O71  1  0.31158928  0.84819324  0.97250507  1
  O  O72  1  0.54371003  0.85486661  0.47542435  1
  O  O73  1  0.30947055  0.45540964  0.47532758  1
  O  O74  1  0.15147758  0.69404407  0.47329947  1
  O  O75  1  0.13083746  0.63796162  0.36095994  1
  O  O76  1  0.50172034  0.86503117  0.36365718  1
  O  O77  1  0.35950858  0.49488152  0.36335341  1
  O  O78  1  0.12942548  0.49131780  0.86114515  1
  O  O79  1  0.36084123  0.87080285  0.86098583  1
  O  O80  1  0.50733294  0.63910706  0.86280075  1
  O  O81  1  0.02359640  0.82796936  0.40980679  1
  O  O82  1  0.80745609  0.98226967  0.41038747  1
  O  O83  1  0.17993832  0.18942899  0.41071211  1
  O  O84  1  0.01592775  0.19185141  0.90923845  1
  O  O85  1  0.17589816  0.98432149  0.90939521  1
  O  O86  1  0.80716371  0.82451343  0.90980608  1
  O  O87  1  0.97103408  0.16664219  0.58568185  1
  O  O88  1  0.19586133  0.02856636  0.58528197  1
  O  O89  1  0.83229576  0.80401957  0.58564714  1
  O  O90  1  0.96742775  0.80629345  0.09043708  1
  O  O91  1  0.83561485  0.02675801  0.09023858  1
  O  O92  1  0.19504972  0.16530400  0.09075604  1
  O  O93  1  0.67837926  0.15737709  0.74403489  1
  O  O94  1  0.47836677  0.32105300  0.74413608  1
  O  O95  1  0.84295693  0.52136684  0.74402802  1
  O  O96  1  0.68920812  0.52895726  0.24293355  1
  O  O97  1  0.84823150  0.32529737  0.24392215  1
  O  O98  1  0.47377570  0.15755300  0.24406335  1
  O  O99  1  0.63896761  0.49693948  0.92337236  1
  O  O100  1  0.85944253  0.36243659  0.92376293  1
  O  O101  1  0.50266077  0.14115343  0.92310139  1
  O  O102  1  0.63318292  0.13841563  0.42242536  1
  O  O103  1  0.50103675  0.35864495  0.42275249  1
  O  O104  1  0.85995293  0.49886421  0.42298096  1
  O  O105  1  0.35655628  0.49350432  0.07593261  1
  O  O106  1  0.14031727  0.64976984  0.07745926  1
  O  O107  1  0.51511778  0.85629667  0.07713872  1
  O  O108  1  0.35485721  0.85824523  0.57683582  1
  O  O109  1  0.50377872  0.64490656  0.57691279  1
  O  O110  1  0.14063952  0.49627648  0.57683887  1
  O  O111  1  0.30038899  0.82778716  0.25706336  1
  O  O112  1  0.52767477  0.69536303  0.25777148  1
  O  O113  1  0.16863135  0.47560843  0.25708853  1
  O  O114  1  0.31355920  0.48146411  0.75824189  1
  O  O115  1  0.16766061  0.68669017  0.75814441  1
  O  O116  1  0.51902899  0.83181098  0.75825024  1
