# generated using pymatgen
data_Na6Ca4Y4SiS11O48
_symmetry_space_group_name_H-M   'P 1'
_cell_length_a   18.49214461
_cell_length_b   9.24273603
_cell_length_c   24.26756113
_cell_angle_alpha   90.01961266
_cell_angle_beta   89.97760624
_cell_angle_gamma   120.03094092
_symmetry_Int_Tables_number   1
_chemical_formula_structural   Na6Ca4Y4SiS11O48
_chemical_formula_sum   'Na18 Ca12 Y12 Si3 S33 O144'
_cell_volume   3590.94758439
_cell_formula_units_Z   3
loop_
 _symmetry_equiv_pos_site_id
 _symmetry_equiv_pos_as_xyz
  1  'x, y, z'
loop_
 _atom_site_type_symbol
 _atom_site_label
 _atom_site_symmetry_multiplicity
 _atom_site_fract_x
 _atom_site_fract_y
 _atom_site_fract_z
 _atom_site_occupancy
  Na  Na0  1  0.81923949  0.99262864  0.24703849  1
  Na  Na1  1  0.99427728  0.63696219  0.25441422  1
  Na  Na2  1  0.31835455  0.65266518  0.74857328  1
  Na  Na3  1  0.81709866  0.64940304  0.74561223  1
  Na  Na4  1  0.99245903  0.35210294  0.75103533  1
  Na  Na5  1  0.69229838  0.00165307  0.74836335  1
  Na  Na6  1  0.99832156  0.99802744  0.49840356  1
  Na  Na7  1  0.50350123  0.00275969  0.49377534  1
  Na  Na8  1  0.00239974  0.00264910  0.00143083  1
  Na  Na9  1  0.50051925  0.00007957  0.00096336  1
  Na  Na10  1  0.33489338  0.30312190  0.83615129  1
  Na  Na11  1  0.83408738  0.31669181  0.83610725  1
  Na  Na12  1  0.33476710  0.33540424  0.32975650  1
  Na  Na13  1  0.82698173  0.35302095  0.33524035  1
  Na  Na14  1  0.17642339  0.66939926  0.16886714  1
  Na  Na15  1  0.66708437  0.65351675  0.17089292  1
  Na  Na16  1  0.17580703  0.69507503  0.66536507  1
  Na  Na17  1  0.67258023  0.67649879  0.66220586  1
  Ca  Ca18  1  0.49881648  0.99908362  0.35101412  1
  Ca  Ca19  1  0.83357734  0.32721623  0.67814623  1
  Ca  Ca20  1  0.33322869  0.33470769  0.18235622  1
  Ca  Ca21  1  0.82927097  0.34170804  0.18223878  1
  Ca  Ca22  1  0.33340393  0.33362598  0.98505363  1
  Ca  Ca23  1  0.83294930  0.33292977  0.98436361  1
  Ca  Ca24  1  0.83299550  0.33211821  0.48306021  1
  Ca  Ca25  1  0.16596432  0.66522249  0.51572615  1
  Ca  Ca26  1  0.66875209  0.66950965  0.51593758  1
  Ca  Ca27  1  0.17318879  0.67105405  0.31934049  1
  Ca  Ca28  1  0.17112773  0.68353417  0.81724667  1
  Ca  Ca29  1  0.66574936  0.66472754  0.81815117  1
  Y  Y30  1  0.99850239  0.99271097  0.35157438  1
  Y  Y31  1  0.99764139  0.00321502  0.85221063  1
  Y  Y32  1  0.49456747  0.00628858  0.85209386  1
  Y  Y33  1  0.99429933  0.99669705  0.64752634  1
  Y  Y34  1  0.49540403  0.00161625  0.64697642  1
  Y  Y35  1  0.99600916  0.99412342  0.14975548  1
  Y  Y36  1  0.49951058  0.99915295  0.15078312  1
  Y  Y37  1  0.33406441  0.31681787  0.68479644  1
  Y  Y38  1  0.33347289  0.33366832  0.48111804  1
  Y  Y39  1  0.16759433  0.66771380  0.01673045  1
  Y  Y40  1  0.66677797  0.66904550  0.01688962  1
  Y  Y41  1  0.66551518  0.65505970  0.31659767  1
  Si  Si42  1  0.85080672  0.70230856  0.25058206  1
  Si  Si43  1  0.34945253  0.99629539  0.74961937  1
  Si  Si44  1  0.85033366  0.00039739  0.75069028  1
  S  S45  1  0.14757933  0.99919026  0.25002582  1
  S  S46  1  0.64813704  0.99694924  0.25050422  1
  S  S47  1  0.35153572  0.70251847  0.24971699  1
  S  S48  1  0.00097704  0.29696587  0.24963223  1
  S  S49  1  0.49848204  0.29470812  0.25016947  1
  S  S50  1  0.14737102  0.29473431  0.74974979  1
  S  S51  1  0.64771524  0.29330164  0.74963611  1
  S  S52  1  0.99899898  0.70446734  0.74969275  1
  S  S53  1  0.49944295  0.70909222  0.74953764  1
  S  S54  1  0.48228876  0.33632643  0.58247930  1
  S  S55  1  0.98552592  0.33618260  0.58433296  1
  S  S56  1  0.18495257  0.03704389  0.58289168  1
  S  S57  1  0.68123817  0.02978527  0.58463280  1
  S  S58  1  0.33301007  0.62633432  0.58512685  1
  S  S59  1  0.83268904  0.63239822  0.58464152  1
  S  S60  1  0.48341272  0.63408121  0.08308346  1
  S  S61  1  0.98454392  0.63326711  0.08355945  1
  S  S62  1  0.33357245  0.03373771  0.08337542  1
  S  S63  1  0.83329880  0.03372667  0.08378514  1
  S  S64  1  0.18347398  0.33395536  0.08286013  1
  S  S65  1  0.68134898  0.33208349  0.08203574  1
  S  S66  1  0.31572484  0.66401228  0.91576455  1
  S  S67  1  0.81574396  0.66476991  0.91573865  1
  S  S68  1  0.01829382  0.37051429  0.91531917  1
  S  S69  1  0.51783597  0.37037343  0.91745282  1
  S  S70  1  0.16639380  0.96701958  0.91773753  1
  S  S71  1  0.66618461  0.96593315  0.91531693  1
  S  S72  1  0.31706756  0.96758503  0.41842197  1
  S  S73  1  0.81544986  0.96620172  0.41488036  1
  S  S74  1  0.16689580  0.36679261  0.41744422  1
  S  S75  1  0.66603778  0.36611291  0.41782327  1
  S  S76  1  0.01727274  0.66573766  0.41530694  1
  S  S77  1  0.51769624  0.66650265  0.41755616  1
  O  O78  1  0.10749048  0.02042187  0.29998333  1
  O  O79  1  0.60882492  0.01965131  0.29957129  1
  O  O80  1  0.39996091  0.78455541  0.29949938  1
  O  O81  1  0.91117962  0.80054110  0.30323487  1
  O  O82  1  0.49094328  0.19761039  0.29970376  1
  O  O83  1  0.99289399  0.19625109  0.29912795  1
  O  O84  1  0.11101263  0.19141653  0.79981140  1
  O  O85  1  0.60760154  0.18786137  0.79939040  1
  O  O86  1  0.48783188  0.78873260  0.79949818  1
  O  O87  1  0.99172539  0.79051403  0.79964566  1
  O  O88  1  0.40532369  0.01646960  0.80481798  1
  O  O89  1  0.91147612  0.02716959  0.80388673  1
  O  O90  1  0.39873140  0.97569732  0.69647842  1
  O  O91  1  0.89768590  0.97331966  0.69767643  1
  O  O92  1  0.09697098  0.20883844  0.70045451  1
  O  O93  1  0.59802743  0.21033855  0.69988753  1
  O  O94  1  0.01213067  0.80787507  0.70008111  1
  O  O95  1  0.51344738  0.81506956  0.70026285  1
  O  O96  1  0.39550565  0.80531964  0.19967238  1
  O  O97  1  0.89492495  0.82326639  0.19640867  1
  O  O98  1  0.01356368  0.21926528  0.19970154  1
  O  O99  1  0.50898314  0.21237025  0.19994552  1
  O  O100  1  0.09553540  0.98088363  0.20047070  1
  O  O101  1  0.59849539  0.98093092  0.19994374  1
  O  O102  1  0.43997075  0.35080454  0.63292822  1
  O  O103  1  0.94822955  0.35228161  0.63712608  1
  O  O104  1  0.23510836  0.12205150  0.63312405  1
  O  O105  1  0.72726170  0.10516426  0.63740881  1
  O  O106  1  0.32639657  0.53240070  0.63670412  1
  O  O107  1  0.82581512  0.54374262  0.63772409  1
  O  O108  1  0.44523913  0.53404493  0.13284807  1
  O  O109  1  0.94840732  0.53917185  0.13513040  1
  O  O110  1  0.32192549  0.11041575  0.13310127  1
  O  O111  1  0.82306289  0.10526428  0.13579846  1
  O  O112  1  0.23294531  0.35638606  0.13287361  1
  O  O113  1  0.73049561  0.35593304  0.13234520  1
  O  O114  1  0.22298073  0.31325577  0.03310014  1
  O  O115  1  0.72060570  0.30940521  0.03272509  1
  O  O116  1  0.43360911  0.55768864  0.03326643  1
  O  O117  1  0.93214320  0.54998867  0.03520143  1
  O  O118  1  0.34494112  0.13266221  0.03342235  1
  O  O119  1  0.84169542  0.13686035  0.03553864  1
  O  O120  1  0.22756107  0.14000221  0.53360971  1
  O  O121  1  0.72534143  0.13577539  0.53686166  1
  O  O122  1  0.34068917  0.53644601  0.53653819  1
  O  O123  1  0.84058122  0.54352953  0.53707174  1
  O  O124  1  0.43007146  0.31675621  0.53346216  1
  O  O125  1  0.93208812  0.31539247  0.53681922  1
  O  O126  1  0.27122781  0.68368490  0.96413430  1
  O  O127  1  0.77112286  0.68354689  0.96409820  1
  O  O128  1  0.07124867  0.46177041  0.96373965  1
  O  O129  1  0.56951582  0.45836101  0.96679553  1
  O  O130  1  0.15742030  0.86198574  0.96707362  1
  O  O131  1  0.65801917  0.85882558  0.96388234  1
  O  O132  1  0.27484708  0.86654928  0.46751770  1
  O  O133  1  0.77498541  0.86359161  0.46384368  1
  O  O134  1  0.15724234  0.44676953  0.46696529  1
  O  O135  1  0.65783199  0.44978575  0.46708487  1
  O  O136  1  0.06889991  0.68269969  0.46381925  1
  O  O137  1  0.56700867  0.68244212  0.46690168  1
  O  O138  1  0.05652230  0.65182815  0.36317706  1
  O  O139  1  0.55790202  0.64568920  0.36697468  1
  O  O140  1  0.26767817  0.89248440  0.36751919  1
  O  O141  1  0.76626011  0.88200389  0.36368751  1
  O  O142  1  0.17794045  0.46516237  0.36693788  1
  O  O143  1  0.67358522  0.46775170  0.36721552  1
  O  O144  1  0.05637943  0.46081098  0.86341247  1
  O  O145  1  0.55766822  0.46409979  0.86691534  1
  O  O146  1  0.17438429  0.88729824  0.86728780  1
  O  O147  1  0.67410126  0.88896706  0.86373730  1
  O  O148  1  0.26939598  0.64767883  0.86422630  1
  O  O149  1  0.76981404  0.64861813  0.86411539  1
  O  O150  1  0.01043808  0.82165465  0.41320764  1
  O  O151  1  0.50751900  0.81474746  0.41282696  1
  O  O152  1  0.40133770  0.98726167  0.41437125  1
  O  O153  1  0.90087031  0.98539542  0.41054554  1
  O  O154  1  0.09189684  0.19652310  0.41255124  1
  O  O155  1  0.59058913  0.19854109  0.41309618  1
  O  O156  1  0.01257388  0.20235397  0.91468324  1
  O  O157  1  0.51241264  0.20230088  0.91599488  1
  O  O158  1  0.08910253  0.98057872  0.91490925  1
  O  O159  1  0.58922306  0.97994997  0.91346706  1
  O  O160  1  0.40050318  0.81879618  0.91407384  1
  O  O161  1  0.90058891  0.81923708  0.91383952  1
  O  O162  1  0.48932642  0.18249461  0.58614863  1
  O  O163  1  0.99456563  0.18323306  0.58755887  1
  O  O164  1  0.10140912  0.02256030  0.58738893  1
  O  O165  1  0.59696905  0.01417120  0.58796677  1
  O  O166  1  0.41086267  0.79386814  0.58675923  1
  O  O167  1  0.91077203  0.80201488  0.58630824  1
  O  O168  1  0.49388617  0.80590473  0.08906985  1
  O  O169  1  0.99524551  0.80521174  0.08744676  1
  O  O170  1  0.40899109  0.01280419  0.08928511  1
  O  O171  1  0.90977150  0.01647855  0.08619545  1
  O  O172  1  0.09786643  0.18382036  0.08782640  1
  O  O173  1  0.59586105  0.18074727  0.08800381  1
  O  O174  1  0.33972631  0.16367208  0.74634635  1
  O  O175  1  0.84244162  0.17010205  0.74803033  1
  O  O176  1  0.23541826  0.33074091  0.74352465  1
  O  O177  1  0.73267922  0.31172197  0.74546186  1
  O  O178  1  0.42029375  0.54490516  0.74298521  1
  O  O179  1  0.91882207  0.54148029  0.74549023  1
  O  O180  1  0.34272016  0.53439150  0.24494120  1
  O  O181  1  0.84867377  0.52407277  0.24736036  1
  O  O182  1  0.42380985  0.31314392  0.24476506  1
  O  O183  1  0.92158032  0.30181110  0.24462068  1
  O  O184  1  0.23217083  0.14450568  0.24513251  1
  O  O185  1  0.73511865  0.14016581  0.24486597  1
  O  O186  1  0.32502688  0.51573087  0.92192727  1
  O  O187  1  0.82507305  0.51600866  0.92177053  1
  O  O188  1  0.43338858  0.34851587  0.92210068  1
  O  O189  1  0.93386476  0.34944978  0.92088198  1
  O  O190  1  0.24107795  0.13435373  0.92265787  1
  O  O191  1  0.74140775  0.13315871  0.92095324  1
  O  O192  1  0.32555011  0.13805012  0.42373286  1
  O  O193  1  0.82345094  0.13298393  0.41825045  1
  O  O194  1  0.24289742  0.34784742  0.42266707  1
  O  O195  1  0.74259638  0.35259642  0.41959547  1
  O  O196  1  0.43251694  0.51214310  0.42162779  1
  O  O197  1  0.93273152  0.51727525  0.41952594  1
  O  O198  1  0.17404509  0.48636059  0.07707149  1
  O  O199  1  0.67129525  0.48295875  0.07594402  1
  O  O200  1  0.06949644  0.65201737  0.07673683  1
  O  O201  1  0.56923930  0.65518120  0.07684626  1
  O  O202  1  0.25813445  0.86177251  0.07748470  1
  O  O203  1  0.75814342  0.86214372  0.07722249  1
  O  O204  1  0.17707747  0.87038045  0.57963959  1
  O  O205  1  0.67229254  0.86127168  0.58026409  1
  O  O206  1  0.25871796  0.64553513  0.58060447  1
  O  O207  1  0.75847892  0.65359255  0.58075633  1
  O  O208  1  0.06961946  0.48641403  0.57960096  1
  O  O209  1  0.56534874  0.48531424  0.57912589  1
  O  O210  1  0.14889620  0.83861057  0.25393580  1
  O  O211  1  0.65512980  0.84211027  0.25453279  1
  O  O212  1  0.26737101  0.68821247  0.25101600  1
  O  O213  1  0.75988625  0.69573705  0.25602825  1
  O  O214  1  0.07210181  0.47160607  0.25436449  1
  O  O215  1  0.57531567  0.46490048  0.25320812  1
  O  O216  1  0.14941068  0.45734573  0.75496872  1
  O  O217  1  0.65775957  0.46209559  0.75468866  1
  O  O218  1  0.06856930  0.66905817  0.75446988  1
  O  O219  1  0.57297048  0.68770352  0.75512255  1
  O  O220  1  0.25988637  0.82078216  0.75046452  1
  O  O221  1  0.75719930  0.83200795  0.75320947  1
