# generated using pymatgen
data_Na3Hf3AlSi3(SO8)3
_symmetry_space_group_name_H-M   'P 1'
_cell_length_a   8.86738145
_cell_length_b   8.92157532
_cell_length_c   22.85502142
_cell_angle_alpha   90.14888532
_cell_angle_beta   89.98116108
_cell_angle_gamma   120.02054551
_symmetry_Int_Tables_number   1
_chemical_formula_structural   Na3Hf3AlSi3(SO8)3
_chemical_formula_sum   'Na9 Hf9 Al3 Si9 S9 O72'
_cell_volume   1565.51600825
_cell_formula_units_Z   3
loop_
 _symmetry_equiv_pos_site_id
 _symmetry_equiv_pos_as_xyz
  1  'x, y, z'
loop_
 _atom_site_type_symbol
 _atom_site_label
 _atom_site_symmetry_multiplicity
 _atom_site_fract_x
 _atom_site_fract_y
 _atom_site_fract_z
 _atom_site_occupancy
  Na  Na0  1  0.35524719  0.35951150  0.24231585  1
  Na  Na1  1  0.64310392  0.62968152  0.75292428  1
  Na  Na2  1  0.97295872  0.29622666  0.41664999  1
  Na  Na3  1  0.99320185  0.00545962  0.49490334  1
  Na  Na4  1  0.99656193  0.98137920  0.00312693  1
  Na  Na5  1  0.66301572  0.33957250  0.82963274  1
  Na  Na6  1  0.66343863  0.31715107  0.32778978  1
  Na  Na7  1  0.29982106  0.65259187  0.16478573  1
  Na  Na8  1  0.29278503  0.64501200  0.66632243  1
  Hf  Hf9  1  0.00701024  0.99181201  0.85019686  1
  Hf  Hf10  1  0.01234560  0.01451575  0.64573412  1
  Hf  Hf11  1  0.00845729  0.00924927  0.14514375  1
  Hf  Hf12  1  0.66572996  0.35322982  0.98103552  1
  Hf  Hf13  1  0.66213090  0.32040305  0.47815085  1
  Hf  Hf14  1  0.34249980  0.65793865  0.02697172  1
  Hf  Hf15  1  0.33013770  0.65109348  0.51852525  1
  Hf  Hf16  1  0.33649739  0.66500230  0.31369738  1
  Hf  Hf17  1  0.32836537  0.65460354  0.81099928  1
  Al  Al18  1  0.98824427  0.02561698  0.35245929  1
  Al  Al19  1  0.68460151  0.34770674  0.68903598  1
  Al  Al20  1  0.69605550  0.34518330  0.17947016  1
  Si  Si21  1  0.98061453  0.29006763  0.25048817  1
  Si  Si22  1  0.30779998  0.28923075  0.74768383  1
  Si  Si23  1  0.99848052  0.70272525  0.74549842  1
  Si  Si24  1  0.95008576  0.33609117  0.58638502  1
  Si  Si25  1  0.95808027  0.62645198  0.08555975  1
  Si  Si26  1  0.39284106  0.33496332  0.09169109  1
  Si  Si27  1  0.63209405  0.67475934  0.91524776  1
  Si  Si28  1  0.62901181  0.95054406  0.41599810  1
  Si  Si29  1  0.32853396  0.36274715  0.41246843  1
  S  S30  1  0.28239710  -0.00042559  0.25329797  1
  S  S31  1  0.71896978  0.71401947  0.25307277  1
  S  S32  1  0.71107998  0.00896520  0.74941757  1
  S  S33  1  0.38212835  0.04448924  0.58593235  1
  S  S34  1  0.66598365  0.61885048  0.58566578  1
  S  S35  1  0.66649014  0.05184553  0.08418010  1
  S  S36  1  0.04236146  0.37232948  0.91765636  1
  S  S37  1  0.33737758  0.95456167  0.91740343  1
  S  S38  1  0.04403890  0.67615461  0.41626453  1
  O  O39  1  0.18794462  0.01690098  0.30391352  1
  O  O40  1  0.82421814  0.80382881  0.30518431  1
  O  O41  1  0.96333219  0.18198575  0.31057852  1
  O  O42  1  0.21164825  0.17547744  0.80595110  1
  O  O43  1  0.95883310  0.79220025  0.80300103  1
  O  O44  1  0.81935750  0.03482011  0.80230206  1
  O  O45  1  0.78839034  0.97234007  0.69763530  1
  O  O46  1  0.17611036  0.20671163  0.69229583  1
  O  O47  1  0.01827938  0.82464787  0.69029533  1
  O  O48  1  0.79681567  0.81229451  0.19907177  1
  O  O49  1  0.02629756  0.19555894  0.19729221  1
  O  O50  1  0.18181938  0.97336663  0.19812599  1
  O  O51  1  0.84183360  0.34914854  0.64117899  1
  O  O52  1  0.48300452  0.13151336  0.63792050  1
  O  O53  1  0.64286523  0.51932921  0.63968783  1
  O  O54  1  0.87293250  0.50473297  0.14165542  1
  O  O55  1  0.64250123  0.13396624  0.13675529  1
  O  O56  1  0.50496156  0.34873430  0.15020584  1
  O  O57  1  0.47228923  0.30710432  0.03080022  1
  O  O58  1  0.84699435  0.53582604  0.02566392  1
  O  O59  1  0.69209318  0.15023673  0.03012037  1
  O  O60  1  0.46064375  0.14756979  0.53151344  1
  O  O61  1  0.68276136  0.53206463  0.53299980  1
  O  O62  1  0.85039722  0.32081671  0.52407402  1
  O  O63  1  0.52647707  0.68856982  0.97136710  1
  O  O64  1  0.14625803  0.45987922  0.97017394  1
  O  O65  1  0.31140636  0.85097335  0.97001623  1
  O  O66  1  0.52983243  0.83660960  0.47399931  1
  O  O67  1  0.28442292  0.45396778  0.46860238  1
  O  O68  1  0.15030654  0.70049810  0.46953283  1
  O  O69  1  0.12215696  0.63619692  0.36493134  1
  O  O70  1  0.50242396  0.86614956  0.35965992  1
  O  O71  1  0.35623346  0.48397171  0.35519891  1
  O  O72  1  0.12319167  0.48087747  0.86443914  1
  O  O73  1  0.34893184  0.86667381  0.86392509  1
  O  O74  1  0.52190045  0.65614842  0.85539164  1
  O  O75  1  0.02573285  0.82734373  0.40714080  1
  O  O76  1  0.82125690  0.97145474  0.40815415  1
  O  O77  1  0.15563206  0.17339011  0.40426833  1
  O  O78  1  0.03377934  0.20405558  0.91117193  1
  O  O79  1  0.18224831  0.97860942  0.91203901  1
  O  O80  1  0.82476421  0.84910727  0.91188847  1
  O  O81  1  0.96918833  0.16103188  0.58905678  1
  O  O82  1  0.20316161  0.02372252  0.58728089  1
  O  O83  1  0.82055663  0.79475079  0.58831113  1
  O  O84  1  0.96757390  0.81333801  0.09128056  1
  O  O85  1  0.81909574  0.02669701  0.09072061  1
  O  O86  1  0.19354165  0.16978205  0.09291455  1
  O  O87  1  0.68880840  0.15952792  0.74243800  1
  O  O88  1  0.49918493  0.31308156  0.73600178  1
  O  O89  1  0.82491479  0.51287735  0.74131565  1
  O  O90  1  0.69010287  0.53591039  0.25000907  1
  O  O91  1  0.80556858  0.30371020  0.23921841  1
  O  O92  1  0.45453175  0.15810062  0.24919611  1
  O  O93  1  0.64699551  0.49775006  0.91839831  1
  O  O94  1  0.86448201  0.34606959  0.92149346  1
  O  O95  1  0.49746878  0.12671337  0.92058307  1
  O  O96  1  0.66302810  0.15101201  0.42227736  1
  O  O97  1  0.50471315  0.35590250  0.42335208  1
  O  O98  1  0.87014159  0.51542664  0.42321222  1
  O  O99  1  0.37377204  0.50966560  0.08412761  1
  O  O100  1  0.15389159  0.65421308  0.07602361  1
  O  O101  1  0.50787732  0.87720791  0.07968854  1
  O  O102  1  0.36382071  0.87107459  0.57963100  1
  O  O103  1  0.50655156  0.63609482  0.57993955  1
  O  O104  1  0.14592358  0.51071010  0.58074083  1
  O  O105  1  0.30387547  0.84515487  0.25741000  1
  O  O106  1  0.53797047  0.69473199  0.25570915  1
  O  O107  1  0.16232487  0.48328678  0.25517416  1
  O  O108  1  0.33460473  0.48693096  0.75522318  1
  O  O109  1  0.17334920  0.69057874  0.75547217  1
  O  O110  1  0.53715509  0.84934907  0.75656136  1
