# generated using pymatgen
data_Na9Nb7Zn5(PO4)18
_symmetry_space_group_name_H-M   'P 1'
_cell_length_a   8.86445204
_cell_length_b   8.83035896
_cell_length_c   22.54628644
_cell_angle_alpha   89.97521043
_cell_angle_beta   90.18003267
_cell_angle_gamma   119.94933665
_symmetry_Int_Tables_number   1
_chemical_formula_structural   Na9Nb7Zn5(PO4)18
_chemical_formula_sum   'Na9 Nb7 Zn5 P18 O72'
_cell_volume   1529.16685458
_cell_formula_units_Z   1
loop_
 _symmetry_equiv_pos_site_id
 _symmetry_equiv_pos_as_xyz
  1  'x, y, z'
loop_
 _atom_site_type_symbol
 _atom_site_label
 _atom_site_symmetry_multiplicity
 _atom_site_fract_x
 _atom_site_fract_y
 _atom_site_fract_z
 _atom_site_occupancy
  Na  Na0  1  0.98548676  0.63036073  0.24449056  1
  Na  Na1  1  0.65373912  0.68917926  0.07783160  1
  Na  Na2  1  0.32081857  0.29806572  0.91162427  1
  Na  Na3  1  0.00018836  0.99971303  0.49374542  1
  Na  Na4  1  0.99691670  0.99591571  0.98856858  1
  Na  Na5  1  0.67784087  0.33502532  0.82101325  1
  Na  Na6  1  0.65291412  0.32061628  0.32373628  1
  Na  Na7  1  0.33034395  0.66716295  0.15430315  1
  Na  Na8  1  0.33358460  0.66655923  0.67043907  1
  Nb  Nb9  1  0.99972062  0.00001652  0.64995705  1
  Nb  Nb10  1  0.00546110  0.00747088  0.14537565  1
  Nb  Nb11  1  0.67141293  0.33107683  0.97861808  1
  Nb  Nb12  1  0.66741843  0.33415324  0.47871303  1
  Nb  Nb13  1  0.33281339  0.66676708  0.52125042  1
  Nb  Nb14  1  0.33909636  0.66737747  0.30952907  1
  Nb  Nb15  1  0.33293047  0.66921434  0.81263105  1
  Zn  Zn16  1  0.00089162  0.00106385  0.35346414  1
  Zn  Zn17  1  0.99207836  0.99277051  0.84985328  1
  Zn  Zn18  1  0.66597322  0.33305745  0.68520129  1
  Zn  Zn19  1  0.65917405  0.32555582  0.18330337  1
  Zn  Zn20  1  0.32633712  0.66755360  0.01637924  1
  P  P21  1  0.29333751  0.00763161  0.25340592  1
  P  P22  1  0.71369666  0.71065226  0.25118900  1
  P  P23  1  0.99493654  0.28623526  0.25367103  1
  P  P24  1  0.29582815  0.29208853  0.75398938  1
  P  P25  1  0.99613388  0.70473225  0.75267054  1
  P  P26  1  0.70949823  0.00411595  0.75279501  1
  P  P27  1  0.95449462  0.33127121  0.58462356  1
  P  P28  1  0.37669060  0.04679568  0.58453822  1
  P  P29  1  0.66885169  0.62359737  0.58468866  1
  P  P30  1  0.96204492  0.62322537  0.08731089  1
  P  P31  1  0.66380856  0.04084153  0.08605279  1
  P  P32  1  0.37812307  0.33555990  0.08371095  1
  P  P33  1  0.62840645  0.67221112  0.92028521  1
  P  P34  1  0.04445106  0.37561280  0.91790666  1
  P  P35  1  0.33014103  0.95593544  0.91890448  1
  P  P36  1  0.62416647  0.95568000  0.41708447  1
  P  P37  1  0.33177800  0.37537714  0.41697922  1
  P  P38  1  0.04420759  0.66782347  0.41573509  1
  O  O39  1  0.20833187  0.02372360  0.30851907  1
  O  O40  1  0.82517003  0.79419702  0.30513470  1
  O  O41  1  0.97373000  0.18238405  0.30845696  1
  O  O42  1  0.21439750  0.19332626  0.81031746  1
  O  O43  1  0.97889999  0.79138510  0.80697253  1
  O  O44  1  0.81546755  0.02554198  0.80692937  1
  O  O45  1  0.80321360  0.97461090  0.69534285  1
  O  O46  1  0.16951874  0.19383817  0.69762515  1
  O  O47  1  0.02408517  0.82700592  0.69507831  1
  O  O48  1  0.79638161  0.82517037  0.19354390  1
  O  O49  1  0.02539333  0.19853378  0.19675040  1
  O  O50  1  0.16957966  0.97073276  0.19703530  1
  O  O51  1  0.88502351  0.37097866  0.63886523  1
  O  O52  1  0.48570852  0.11576801  0.63901747  1
  O  O53  1  0.62980317  0.51418415  0.63896670  1
  O  O54  1  0.88212322  0.52782896  0.14466384  1
  O  O55  1  0.64372429  0.12346240  0.14097969  1
  O  O56  1  0.49150502  0.36652086  0.13737920  1
  O  O57  1  0.46204742  0.30418177  0.02630783  1
  O  O58  1  0.83460032  0.52865991  0.03249682  1
  O  O59  1  0.69134356  0.15874515  0.02934511  1
  O  O60  1  0.46990786  0.16167982  0.52793864  1
  O  O61  1  0.69135112  0.53083847  0.52796193  1
  O  O62  1  0.83904294  0.30821795  0.52786355  1
  O  O63  1  0.54820927  0.68741476  0.97761112  1
  O  O64  1  0.15634027  0.45611263  0.97202548  1
  O  O65  1  0.30907268  0.85251898  0.97387835  1
  O  O66  1  0.52207440  0.84361274  0.47160358  1
  O  O67  1  0.32238264  0.47749187  0.47171434  1
  O  O68  1  0.15807629  0.67755689  0.47015581  1
  O  O69  1  0.12929141  0.63942732  0.35945755  1
  O  O70  1  0.50621930  0.86520838  0.36152716  1
  O  O71  1  0.35941315  0.49407471  0.36169704  1
  O  O72  1  0.13378871  0.49594167  0.86160884  1
  O  O73  1  0.35815755  0.86626733  0.86223785  1
  O  O74  1  0.50043008  0.63765305  0.86558826  1
  O  O75  1  0.02559054  0.82754101  0.41539637  1
  O  O76  1  0.80071727  0.97247872  0.41536813  1
  O  O77  1  0.17244514  0.19800345  0.41530026  1
  O  O78  1  0.01829098  0.19389406  0.90944389  1
  O  O79  1  0.18437547  0.99720511  0.91113923  1
  O  O80  1  0.80977138  0.82252140  0.91166758  1
  O  O81  1  0.97445507  0.16656802  0.58774286  1
  O  O82  1  0.19285167  0.02712942  0.58774601  1
  O  O83  1  0.83330590  0.80780281  0.58780273  1
  O  O84  1  0.96396326  0.80625646  0.08956097  1
  O  O85  1  0.83972046  0.03077398  0.08955960  1
  O  O86  1  0.19482584  0.16207703  0.09051856  1
  O  O87  1  0.67921597  0.15530289  0.74249961  1
  O  O88  1  0.47487184  0.31848975  0.74353332  1
  O  O89  1  0.84493606  0.52361664  0.74281735  1
  O  O90  1  0.68439568  0.52703517  0.24387423  1
  O  O91  1  0.85076078  0.32940563  0.24535949  1
  O  O92  1  0.47602242  0.15541484  0.24476512  1
  O  O93  1  0.63136329  0.49142799  0.92320726  1
  O  O94  1  0.86222846  0.36727495  0.92366347  1
  O  O95  1  0.50660956  0.14225372  0.92296788  1
  O  O96  1  0.63132566  0.13628223  0.42338647  1
  O  O97  1  0.50450734  0.36793715  0.42336464  1
  O  O98  1  0.86348450  0.49531866  0.42388692  1
  O  O99  1  0.35074357  0.49104242  0.07645384  1
  O  O100  1  0.14313793  0.65386230  0.07841050  1
  O  O101  1  0.51760538  0.85369690  0.07819400  1
  O  O102  1  0.34784705  0.85790377  0.57206536  1
  O  O103  1  0.50942462  0.65216009  0.57223701  1
  O  O104  1  0.14230488  0.49090092  0.57212312  1
  O  O105  1  0.29604262  0.82547389  0.25660493  1
  O  O106  1  0.52902811  0.69986573  0.25696647  1
  O  O107  1  0.17197552  0.47358560  0.25712560  1
  O  O108  1  0.30133943  0.47492748  0.75559387  1
  O  O109  1  0.17357096  0.69989346  0.75527641  1
  O  O110  1  0.52740385  0.82651722  0.75621059  1
