# generated using pymatgen
data_Na12Ca10Ta2Si3(S5O24)3
_symmetry_space_group_name_H-M   'P 1'
_cell_length_a   9.26416423
_cell_length_b   9.29741495
_cell_length_c   23.65531837
_cell_angle_alpha   90.17041612
_cell_angle_beta   89.98148147
_cell_angle_gamma   119.79506880
_symmetry_Int_Tables_number   1
_chemical_formula_structural   Na12Ca10Ta2Si3(S5O24)3
_chemical_formula_sum   'Na12 Ca10 Ta2 Si3 S15 O72'
_cell_volume   1768.14839879
_cell_formula_units_Z   1
loop_
 _symmetry_equiv_pos_site_id
 _symmetry_equiv_pos_as_xyz
  1  'x, y, z'
loop_
 _atom_site_type_symbol
 _atom_site_label
 _atom_site_symmetry_multiplicity
 _atom_site_fract_x
 _atom_site_fract_y
 _atom_site_fract_z
 _atom_site_occupancy
  Na  Na0  1  0.30351469  0.33713159  0.57646355  1
  Na  Na1  1  0.66999424  0.97014383  0.59510728  1
  Na  Na2  1  0.29994930  0.96984592  0.09409135  1
  Na  Na3  1  0.02835677  0.33261345  0.08371050  1
  Na  Na4  1  0.33015758  0.05032139  0.40460385  1
  Na  Na5  1  0.68888493  0.65434006  0.41386860  1
  Na  Na6  1  0.01868398  0.02457183  0.49575760  1
  Na  Na7  1  0.98605558  0.98837371  0.99624554  1
  Na  Na8  1  0.67153304  0.31275821  0.82686844  1
  Na  Na9  1  0.64029100  0.31580417  0.32666636  1
  Na  Na10  1  0.34275542  0.68147540  0.17001172  1
  Na  Na11  1  0.33109177  0.67522292  0.66882659  1
  Ca  Ca12  1  0.01318410  0.01610694  0.34679622  1
  Ca  Ca13  1  0.99478609  0.00459513  0.84847153  1
  Ca  Ca14  1  0.98753750  0.98908371  0.66077022  1
  Ca  Ca15  1  0.00448799  0.98763884  0.15983680  1
  Ca  Ca16  1  0.66978514  0.33147579  0.68802839  1
  Ca  Ca17  1  0.65617434  0.32820261  0.18758696  1
  Ca  Ca18  1  0.66610172  0.33599124  0.97679499  1
  Ca  Ca19  1  0.66942595  0.33554357  0.47978299  1
  Ca  Ca20  1  0.33997395  0.66764076  0.01510210  1
  Ca  Ca21  1  0.32168964  0.65798035  0.51604311  1
  Ta  Ta22  1  0.32964520  0.65769668  0.31470343  1
  Ta  Ta23  1  0.34095013  0.67290364  0.81451777  1
  Si  Si24  1  0.30960139  0.99664786  0.25289125  1
  Si  Si25  1  0.69803632  0.00492819  0.74987978  1
  Si  Si26  1  0.33237889  0.36859965  0.41899158  1
  S  S27  1  0.69031066  0.69908348  0.25536231  1
  S  S28  1  0.00811485  0.31207442  0.25064376  1
  S  S29  1  0.30098907  0.31182913  0.75273935  1
  S  S30  1  0.01042411  0.69982446  0.75478870  1
  S  S31  1  0.96586878  0.33026263  0.58423650  1
  S  S32  1  0.36884326  0.03836042  0.58222779  1
  S  S33  1  0.66965601  0.63621027  0.58204927  1
  S  S34  1  0.96439237  0.63081881  0.08232038  1
  S  S35  1  0.66992041  0.04014018  0.08247067  1
  S  S36  1  0.36387246  0.33050603  0.08274983  1
  S  S37  1  0.62219241  0.66527662  0.91356811  1
  S  S38  1  0.04483002  0.37753687  0.91589744  1
  S  S39  1  0.33248841  0.95383618  0.91493311  1
  S  S40  1  0.61772278  0.94910301  0.41492105  1
  S  S41  1  0.04299919  0.66616177  0.41279908  1
  O  O42  1  0.21774804  0.01134682  0.30866214  1
  O  O43  1  0.78443639  0.77729638  0.30701282  1
  O  O44  1  0.98326730  0.20617739  0.29901988  1
  O  O45  1  0.21914056  0.20341919  0.80037960  1
  O  O46  1  0.99209503  0.78383492  0.80369583  1
  O  O47  1  0.81044926  0.01454845  0.80186029  1
  O  O48  1  0.74512466  0.95576829  0.68901967  1
  O  O49  1  0.20612804  0.25157909  0.69935760  1
  O  O50  1  0.05132295  0.79826223  0.70257725  1
  O  O51  1  0.75844973  0.80266825  0.20486667  1
  O  O52  1  0.04105640  0.24849343  0.19772159  1
  O  O53  1  0.20782741  0.95535881  0.19272919  1
  O  O54  1  0.88243123  0.34489876  0.63444287  1
  O  O55  1  0.47481334  0.12527599  0.63115605  1
  O  O56  1  0.65068479  0.53104663  0.63087975  1
  O  O57  1  0.88513031  0.53225096  0.13320501  1
  O  O58  1  0.64876497  0.12033110  0.13313764  1
  O  O59  1  0.46123928  0.35041517  0.13350870  1
  O  O60  1  0.44538584  0.31147530  0.03172969  1
  O  O61  1  0.86834790  0.54837094  0.03110636  1
  O  O62  1  0.68974608  0.14045218  0.03138629  1
  O  O63  1  0.44529730  0.13201833  0.52902845  1
  O  O64  1  0.68297678  0.55866848  0.52871473  1
  O  O65  1  0.86877705  0.31266434  0.53243331  1
  O  O66  1  0.54689683  0.68187937  0.96557452  1
  O  O67  1  0.13008434  0.45241002  0.97002784  1
  O  O68  1  0.31885459  0.86674079  0.96820815  1
  O  O69  1  0.54559129  0.86080126  0.46803152  1
  O  O70  1  0.32474038  0.45247391  0.47772660  1
  O  O71  1  0.14187272  0.69519593  0.46372533  1
  O  O72  1  0.13916373  0.65473209  0.36256521  1
  O  O73  1  0.50411613  0.85341849  0.36553426  1
  O  O74  1  0.34009550  0.50035848  0.36527541  1
  O  O75  1  0.14719383  0.48824889  0.86746400  1
  O  O76  1  0.34102939  0.84747034  0.86603978  1
  O  O77  1  0.50894828  0.65597641  0.86406491  1
  O  O78  1  0.01421639  0.80902945  0.40649737  1
  O  O79  1  0.78027260  0.95907400  0.40743835  1
  O  O80  1  0.17534974  0.18063865  0.41580115  1
  O  O81  1  0.03070343  0.21337297  0.91134596  1
  O  O82  1  0.18442160  0.97012480  0.90785295  1
  O  O83  1  0.78796797  0.81077785  0.90789127  1
  O  O84  1  0.98508763  0.17768542  0.58711125  1
  O  O85  1  0.20236072  0.02605832  0.58749966  1
  O  O86  1  0.81775242  0.80598014  0.58595569  1
  O  O87  1  0.98949151  0.80287718  0.08529678  1
  O  O88  1  0.82303832  0.02510196  0.08739648  1
  O  O89  1  0.19324269  0.17642122  0.08634786  1
  O  O90  1  0.65538728  0.15281556  0.74929827  1
  O  O91  1  0.47284987  0.34725957  0.74713821  1
  O  O92  1  0.86680836  0.53335257  0.74809946  1
  O  O93  1  0.66838649  0.53308089  0.24819491  1
  O  O94  1  0.87205141  0.34771925  0.24555773  1
  O  O95  1  0.49716528  0.15149076  0.25003056  1
  O  O96  1  0.62688077  0.50908441  0.91156158  1
  O  O97  1  0.87962447  0.36656958  0.91404104  1
  O  O98  1  0.48763931  0.11492383  0.91275058  1
  O  O99  1  0.62854035  0.11345205  0.41480716  1
  O  O100  1  0.50968119  0.36683023  0.41152310  1
  O  O101  1  0.87979118  0.51202089  0.41412649  1
  O  O102  1  0.33440281  0.47509579  0.07861263  1
  O  O103  1  0.13647804  0.64808089  0.07916804  1
  O  O104  1  0.51581048  0.87323162  0.07821341  1
  O  O105  1  0.35597310  0.87157669  0.57945520  1
  O  O106  1  0.51647004  0.65529851  0.58068785  1
  O  O107  1  0.13762466  0.47767717  0.58221686  1
  O  O108  1  0.32257154  0.81808338  0.26711247  1
  O  O109  1  0.51448683  0.67908763  0.26279596  1
  O  O110  1  0.16863796  0.48182997  0.26131771  1
  O  O111  1  0.31070411  0.48221914  0.76475976  1
  O  O112  1  0.16404774  0.67649082  0.76564633  1
  O  O113  1  0.50053660  0.82196373  0.76712115  1
