# generated using pymatgen
data_MgTi(CoO3)2
_symmetry_space_group_name_H-M   'P 1'
_cell_length_a   6.73686587
_cell_length_b   3.01453807
_cell_length_c   5.80345896
_cell_angle_alpha   75.93404697
_cell_angle_beta   104.75206637
_cell_angle_gamma   89.44645409
_symmetry_Int_Tables_number   1
_chemical_formula_structural   MgTi(CoO3)2
_chemical_formula_sum   'Mg1 Ti1 Co2 O6'
_cell_volume   110.23532093
_cell_formula_units_Z   1
loop_
 _symmetry_equiv_pos_site_id
 _symmetry_equiv_pos_as_xyz
  1  'x, y, z'
loop_
 _atom_site_type_symbol
 _atom_site_label
 _atom_site_symmetry_multiplicity
 _atom_site_fract_x
 _atom_site_fract_y
 _atom_site_fract_z
 _atom_site_occupancy
  Mg  Mg0  1  0.82729995  -0.14546392  0.32294201  1
  Ti  Ti1  1  0.32688785  0.35915737  0.32558524  1
  Co  Co2  1  0.01306726  0.04736116  0.93800332  1
  Co  Co3  1  0.64501710  0.66221484  0.70800210  1
  O  O4  1  0.02693393  0.39752094  0.24200560  1
  O  O5  1  0.36013436  0.74146529  0.56510294  1
  O  O6  1  0.71787350  0.04950377  0.94238505  1
  O  O7  1  0.29700992  0.96948639  0.08556554  1
  O  O8  1  0.62982667  0.31084449  0.40859856  1
  O  O9  1  0.94144247  0.65887068  0.70456265  1
