# generated using pymatgen
data_NiPbF6
_symmetry_space_group_name_H-M   'P 1'
_cell_length_a   5.56435700
_cell_length_b   5.56436344
_cell_length_c   5.56436210
_cell_angle_alpha   54.31326055
_cell_angle_beta   54.31329318
_cell_angle_gamma   54.31330974
_symmetry_Int_Tables_number   1
_chemical_formula_structural   NiPbF6
_chemical_formula_sum   'Ni1 Pb1 F6'
_cell_volume   105.66088101
_cell_formula_units_Z   1
loop_
 _symmetry_equiv_pos_site_id
 _symmetry_equiv_pos_as_xyz
  1  'x, y, z'
loop_
 _atom_site_type_symbol
 _atom_site_label
 _atom_site_symmetry_multiplicity
 _atom_site_fract_x
 _atom_site_fract_y
 _atom_site_fract_z
 _atom_site_occupancy
  Ni  Ni0  1  -0.00000000  -0.00000000  0.00000000  1
  Pb  Pb1  1  0.50000000  0.50000000  0.50000000  1
  F  F2  1  0.39328486  0.08912210  0.76110814  1
  F  F3  1  0.08911965  0.76110819  0.39328750  1
  F  F4  1  0.23889616  0.60671215  0.91087770  1
  F  F5  1  0.91088035  0.23889181  0.60671250  1
  F  F6  1  0.60671514  0.91087890  0.23889186  1
  F  F7  1  0.76110384  0.39328785  0.08912230  1
