# generated using pymatgen
data_Na3AlSi3Ge3(SO8)3
_symmetry_space_group_name_H-M   'P 1'
_cell_length_a   8.50538817
_cell_length_b   8.54262302
_cell_length_c   21.90947545
_cell_angle_alpha   89.54568702
_cell_angle_beta   90.28970673
_cell_angle_gamma   120.05505962
_symmetry_Int_Tables_number   1
_chemical_formula_structural   Na3AlSi3Ge3(SO8)3
_chemical_formula_sum   'Na9 Al3 Si9 Ge9 S9 O72'
_cell_volume   1377.82092720
_cell_formula_units_Z   3
loop_
 _symmetry_equiv_pos_site_id
 _symmetry_equiv_pos_as_xyz
  1  'x, y, z'
loop_
 _atom_site_type_symbol
 _atom_site_label
 _atom_site_symmetry_multiplicity
 _atom_site_fract_x
 _atom_site_fract_y
 _atom_site_fract_z
 _atom_site_occupancy
  Na  Na0  1  0.36029891  0.36245231  0.24659925  1
  Na  Na1  1  0.63559889  0.62907730  0.75221247  1
  Na  Na2  1  0.96786141  0.29310108  0.41645639  1
  Na  Na3  1  0.99768689  0.00081787  0.49907662  1
  Na  Na4  1  0.00067662  0.99591951  0.00174353  1
  Na  Na5  1  0.66587659  0.33443950  0.83283551  1
  Na  Na6  1  0.66728464  0.32672111  0.33192399  1
  Na  Na7  1  0.32260732  0.66403344  0.16443261  1
  Na  Na8  1  0.31527655  0.65744857  0.66639882  1
  Al  Al9  1  0.99270982  0.01142087  0.35590200  1
  Al  Al10  1  0.68045699  0.34398348  0.68938141  1
  Al  Al11  1  0.68784597  0.34493530  0.18217984  1
  Si  Si12  1  0.98927998  0.28736467  0.25044260  1
  Si  Si13  1  0.28830276  0.28123627  0.75156293  1
  Si  Si14  1  0.00719107  0.71558599  0.74842866  1
  Si  Si15  1  0.95407167  0.33332103  0.58439831  1
  Si  Si16  1  0.96191377  0.62955152  0.08405874  1
  Si  Si17  1  0.38466487  0.33400097  0.08657729  1
  Si  Si18  1  0.62148029  0.67365212  0.91629609  1
  Si  Si19  1  0.61188039  0.94030380  0.41695483  1
  Si  Si20  1  0.34029368  0.37230213  0.41718278  1
  Ge  Ge21  1  0.00098760  0.98300284  0.85175989  1
  Ge  Ge22  1  0.01695964  0.01954936  0.64843218  1
  Ge  Ge23  1  0.01674939  0.01437167  0.14341324  1
  Ge  Ge24  1  0.66138392  0.36435673  0.98420885  1
  Ge  Ge25  1  0.65614979  0.30795202  0.47919762  1
  Ge  Ge26  1  0.34023645  0.66004621  0.02472406  1
  Ge  Ge27  1  0.33039364  0.64608396  0.51809422  1
  Ge  Ge28  1  0.33682124  0.65869635  0.31578105  1
  Ge  Ge29  1  0.32019640  0.64654289  0.81240717  1
  S  S30  1  0.28633639  0.99448138  0.25159405  1
  S  S31  1  0.71949440  0.71811400  0.25085536  1
  S  S32  1  0.71312938  0.00518332  0.74986750  1
  S  S33  1  0.37893141  0.04304471  0.58506200  1
  S  S34  1  0.66911489  0.62173686  0.58369118  1
  S  S35  1  0.66680276  0.05040977  0.08276101  1
  S  S36  1  0.03969260  0.37301680  0.91766648  1
  S  S37  1  0.33802140  0.95527449  0.91707028  1
  S  S38  1  0.04599554  0.67322918  0.41623676  1
  O  O39  1  0.20058861  0.02440344  0.30507870  1
  O  O40  1  0.82928993  0.79861580  0.30566781  1
  O  O41  1  0.96896102  0.17262701  0.31123974  1
  O  O42  1  0.19381030  0.16030844  0.81277245  1
  O  O43  1  0.94906986  0.79048180  0.80796979  1
  O  O44  1  0.82447237  0.03982866  0.80552515  1
  O  O45  1  0.78722478  0.96036125  0.69531003  1
  O  O46  1  0.16268995  0.21116564  0.69092583  1
  O  O47  1  0.03674003  0.84234102  0.68801270  1
  O  O48  1  0.79538855  0.82579348  0.19487782  1
  O  O49  1  0.04438207  0.19969708  0.19216091  1
  O  O50  1  0.17606007  0.95961340  0.19472504  1
  O  O51  1  0.85766108  0.36203618  0.64151629  1
  O  O52  1  0.48968924  0.13040896  0.63864159  1
  O  O53  1  0.63474720  0.51154240  0.63954850  1
  O  O54  1  0.87949045  0.50128653  0.14191370  1
  O  O55  1  0.63471054  0.12698571  0.13771893  1
  O  O56  1  0.50123099  0.36086404  0.14774935  1
  O  O57  1  0.45717624  0.28577455  0.02396501  1
  O  O58  1  0.84147778  0.54715347  0.02140905  1
  O  O59  1  0.70122801  0.15986350  0.02628843  1
  O  O60  1  0.45110936  0.15528974  0.52779184  1
  O  O61  1  0.69663100  0.54038984  0.52867343  1
  O  O62  1  0.83632246  0.30184816  0.52020103  1
  O  O63  1  0.52814399  0.70746084  0.97536091  1
  O  O64  1  0.15498734  0.45611482  0.97155238  1
  O  O65  1  0.30030589  0.84233230  0.97203419  1
  O  O66  1  0.52026335  0.82398473  0.47935545  1
  O  O67  1  0.27987908  0.45337687  0.47409990  1
  O  O68  1  0.15675950  0.70772061  0.47213114  1
  O  O69  1  0.12006929  0.62615310  0.36178741  1
  O  O70  1  0.48381801  0.86158878  0.35611046  1
  O  O71  1  0.37901192  0.49620858  0.35527250  1
  O  O72  1  0.11420561  0.48851798  0.86112132  1
  O  O73  1  0.36384750  0.87416863  0.86106044  1
  O  O74  1  0.49875339  0.63788310  0.85431710  1
  O  O75  1  0.02766726  0.83168766  0.40633144  1
  O  O76  1  0.81195432  0.96533406  0.41065733  1
  O  O77  1  0.16357885  0.17573408  0.40866030  1
  O  O78  1  0.02813543  0.19644767  0.91032264  1
  O  O79  1  0.17219386  0.97555434  0.91209018  1
  O  O80  1  0.82398853  0.85588543  0.90876983  1
  O  O81  1  0.97304369  0.14861780  0.58980650  1
  O  O82  1  0.19439341  0.02370880  0.58761418  1
  O  O83  1  0.83086162  0.80421229  0.58899091  1
  O  O84  1  0.97172572  0.82459092  0.09399521  1
  O  O85  1  0.82676243  0.02537140  0.08918300  1
  O  O86  1  0.18011119  0.15948081  0.08863093  1
  O  O87  1  0.69145016  0.16321173  0.74191984  1
  O  O88  1  0.48789668  0.30775180  0.74048579  1
  O  O89  1  0.82875613  0.51923296  0.74198914  1
  O  O90  1  0.68985986  0.53230721  0.24654557  1
  O  O91  1  0.81181794  0.30551598  0.24189419  1
  O  O92  1  0.46553033  0.15980115  0.24510797  1
  O  O93  1  0.63998694  0.49025408  0.92077871  1
  O  O94  1  0.85649096  0.35110453  0.92314915  1
  O  O95  1  0.50363797  0.13556498  0.92197749  1
  O  O96  1  0.64460655  0.14837677  0.42231495  1
  O  O97  1  0.52643238  0.36721872  0.42879840  1
  O  O98  1  0.86511375  0.50721055  0.42278346  1
  O  O99  1  0.36662408  0.51463746  0.07792258  1
  O  O100  1  0.16412396  0.65584871  0.07127499  1
  O  O101  1  0.50128111  0.86851313  0.07748189  1
  O  O102  1  0.36310408  0.86483300  0.57846452  1
  O  O103  1  0.50207249  0.63971916  0.57903344  1
  O  O104  1  0.15663808  0.51959350  0.57524824  1
  O  O105  1  0.30600007  0.83200508  0.25638483  1
  O  O106  1  0.53186877  0.69838575  0.25459120  1
  O  O107  1  0.18163179  0.49323386  0.25812635  1
  O  O108  1  0.31599830  0.48720194  0.75728635  1
  O  O109  1  0.19006469  0.70274886  0.76023122  1
  O  O110  1  0.53177688  0.83951901  0.75607033  1
