# generated using pymatgen
data_La4MgNiO8
_symmetry_space_group_name_H-M   'P 1'
_cell_length_a   5.53633500
_cell_length_b   6.85069384
_cell_length_c   6.85069274
_cell_angle_alpha   47.70501253
_cell_angle_beta   90.00000000
_cell_angle_gamma   90.00000000
_symmetry_Int_Tables_number   1
_chemical_formula_structural   La4MgNiO8
_chemical_formula_sum   'La4 Mg1 Ni1 O8'
_cell_volume   192.19458198
_cell_formula_units_Z   1
loop_
 _symmetry_equiv_pos_site_id
 _symmetry_equiv_pos_as_xyz
  1  'x, y, z'
loop_
 _atom_site_type_symbol
 _atom_site_label
 _atom_site_symmetry_multiplicity
 _atom_site_fract_x
 _atom_site_fract_y
 _atom_site_fract_z
 _atom_site_occupancy
  La  La0  1  0.00000000  0.13671500  0.13671500  1
  La  La1  1  0.00000000  0.86328500  0.86328500  1
  La  La2  1  0.50000000  0.36328500  0.36328500  1
  La  La3  1  0.50000000  0.63671500  0.63671500  1
  Mg  Mg4  1  0.00000000  0.50000000  0.50000000  1
  Ni  Ni5  1  0.50000000  0.00000000  0.00000000  1
  O  O6  1  0.00000000  0.32125800  0.32125800  1
  O  O7  1  0.00000000  0.67874200  0.67874200  1
  O  O8  1  0.24902000  0.25140900  0.74859100  1
  O  O9  1  0.24902000  0.74859100  0.25140900  1
  O  O10  1  0.50000000  0.82111300  0.82111300  1
  O  O11  1  0.50000000  0.17888700  0.17888700  1
  O  O12  1  0.75098000  0.74859100  0.25140900  1
  O  O13  1  0.75098000  0.25140900  0.74859100  1
