# generated using pymatgen
data_Na2Y6Nb2Si3(S3O16)3
_symmetry_space_group_name_H-M   'P 1'
_cell_length_a   18.23738313
_cell_length_b   9.13347011
_cell_length_c   23.99881881
_cell_angle_alpha   89.89516847
_cell_angle_beta   90.12961713
_cell_angle_gamma   120.16122574
_symmetry_Int_Tables_number   1
_chemical_formula_structural   Na2Y6Nb2Si3(S3O16)3
_chemical_formula_sum   'Na6 Y18 Nb6 Si9 S27 O144'
_cell_volume   3456.28641023
_cell_formula_units_Z   3
loop_
 _symmetry_equiv_pos_site_id
 _symmetry_equiv_pos_as_xyz
  1  'x, y, z'
loop_
 _atom_site_type_symbol
 _atom_site_label
 _atom_site_symmetry_multiplicity
 _atom_site_fract_x
 _atom_site_fract_y
 _atom_site_fract_z
 _atom_site_occupancy
  Na  Na0  1  0.99901070  0.98568825  0.49884059  1
  Na  Na1  1  0.50218004  0.01443865  0.99602411  1
  Na  Na2  1  0.34421653  0.33730951  0.83509448  1
  Na  Na3  1  0.83844354  0.36124514  0.83032799  1
  Na  Na4  1  0.33966758  0.31870084  0.33678824  1
  Na  Na5  1  0.84340761  0.34784945  0.34400729  1
  Y  Y6  1  0.00536162  0.98971243  0.35969885  1
  Y  Y7  1  0.50404229  0.01805412  0.85669341  1
  Y  Y8  1  0.00093775  0.99486379  0.64914918  1
  Y  Y9  1  0.50173869  0.00685940  0.14981830  1
  Y  Y10  1  0.32702115  0.33851521  0.68231147  1
  Y  Y11  1  0.83981114  0.33895476  0.68476148  1
  Y  Y12  1  0.34483217  0.33934863  0.18893147  1
  Y  Y13  1  0.82511928  0.31255196  0.18283212  1
  Y  Y14  1  0.33448640  0.33241084  0.98100903  1
  Y  Y15  1  0.83930489  0.33311991  0.98210151  1
  Y  Y16  1  0.33997351  0.34632992  0.48340841  1
  Y  Y17  1  0.82862809  0.32706801  0.48452780  1
  Y  Y18  1  0.16206912  0.66173079  0.01878772  1
  Y  Y19  1  0.66341705  0.67423653  0.52302254  1
  Y  Y20  1  0.16162655  0.67208591  0.31297227  1
  Y  Y21  1  0.66793546  0.66492636  0.30874716  1
  Y  Y22  1  0.16796514  0.67251364  0.80716012  1
  Y  Y23  1  0.66054567  0.64925186  0.81075800  1
  Nb  Nb24  1  0.49245022  0.00450609  0.35628365  1
  Nb  Nb25  1  0.99193975  0.97990410  0.85376753  1
  Nb  Nb26  1  0.49863819  0.99055782  0.64264616  1
  Nb  Nb27  1  0.99522112  0.00045617  0.14572949  1
  Nb  Nb28  1  0.67524242  0.66610379  0.01446295  1
  Nb  Nb29  1  0.17359959  0.68324645  0.51573566  1
  Si  Si30  1  0.49675504  0.28559810  0.25265568  1
  Si  Si31  1  0.99406398  0.70128566  0.75178633  1
  Si  Si32  1  0.68756030  0.04300477  0.58633369  1
  Si  Si33  1  0.32901453  0.62827302  0.58266474  1
  Si  Si34  1  0.82918974  0.03050831  0.08263496  1
  Si  Si35  1  0.81180508  0.66077632  0.91298249  1
  Si  Si36  1  0.52080265  0.37546446  0.91854535  1
  Si  Si37  1  0.31082500  0.96382372  0.41395366  1
  Si  Si38  1  0.01827290  0.65901199  0.41857704  1
  S  S39  1  0.14194219  0.00461965  0.24574097  1
  S  S40  1  0.64422945  0.00793274  0.25478175  1
  S  S41  1  0.35793323  0.71153781  0.25378075  1
  S  S42  1  0.86098753  0.71593332  0.24756173  1
  S  S43  1  0.99891638  0.27926261  0.24763251  1
  S  S44  1  0.14403196  0.27958393  0.75500072  1
  S  S45  1  0.64231278  0.28064995  0.74627898  1
  S  S46  1  0.49806966  0.71810129  0.74823043  1
  S  S47  1  0.36012291  0.00797599  0.74831046  1
  S  S48  1  0.85865296  0.00562179  0.75413024  1
  S  S49  1  0.47907356  0.32147291  0.58699950  1
  S  S50  1  0.98839157  0.34230955  0.57994086  1
  S  S51  1  0.18504934  0.03170179  0.57983451  1
  S  S52  1  0.83547207  0.63330230  0.58195838  1
  S  S53  1  0.48642075  0.63278191  0.08020694  1
  S  S54  1  0.98034384  0.63797705  0.08730951  1
  S  S55  1  0.33311161  0.03582060  0.08249272  1
  S  S56  1  0.18155648  0.32374534  0.08699575  1
  S  S57  1  0.68520552  0.33870899  0.07961564  1
  S  S58  1  0.31282539  0.66711619  0.91730403  1
  S  S59  1  0.02180874  0.36692007  0.91284550  1
  S  S60  1  0.16220421  0.96076122  0.91388236  1
  S  S61  1  0.66648038  0.95019984  0.91871064  1
  S  S62  1  0.81396391  0.96019705  0.41586763  1
  S  S63  1  0.16738016  0.38272295  0.41877517  1
  S  S64  1  0.66293881  0.36392092  0.41298313  1
  S  S65  1  0.52041121  0.67590299  0.41171332  1
  O  O66  1  0.10467821  0.02717719  0.29721364  1
  O  O67  1  0.59680683  0.01996858  0.30278277  1
  O  O68  1  0.41330891  0.80222445  0.30324421  1
  O  O69  1  0.91205756  0.79464241  0.29766725  1
  O  O70  1  0.48888895  0.15682470  0.30724637  1
  O  O71  1  0.98740177  0.17734672  0.29736461  1
  O  O72  1  0.09611964  0.17229706  0.80360441  1
  O  O73  1  0.60429374  0.18346587  0.79852825  1
  O  O74  1  0.48702773  0.79648385  0.79876639  1
  O  O75  1  0.98857651  0.81893036  0.80737495  1
  O  O76  1  0.40991420  0.03027101  0.79983027  1
  O  O77  1  0.91432221  0.02104928  0.80416893  1
  O  O78  1  0.40510817  0.99455106  0.69902329  1
  O  O79  1  0.89857535  0.99092373  0.70315113  1
  O  O80  1  0.09809482  0.20960520  0.70257148  1
  O  O81  1  0.58743013  0.18503335  0.69832209  1
  O  O82  1  0.00466749  0.81405096  0.69788220  1
  O  O83  1  0.50143734  0.81997523  0.69809637  1
  O  O84  1  0.39765244  0.80618344  0.20221684  1
  O  O85  1  0.90815234  0.82298603  0.19725773  1
  O  O86  1  0.00264549  0.18098068  0.19674217  1
  O  O87  1  0.50462650  0.19593138  0.19719344  1
  O  O88  1  0.08719336  0.99173917  0.19703801  1
  O  O89  1  0.59858527  0.98647607  0.20183367  1
  O  O90  1  0.43809276  0.35033129  0.63519764  1
  O  O91  1  0.95249438  0.37040927  0.63124350  1
  O  O92  1  0.23379280  0.10378456  0.63148131  1
  O  O93  1  0.74542057  0.13257885  0.64022894  1
  O  O94  1  0.31026600  0.51253205  0.63754742  1
  O  O95  1  0.82853414  0.53710467  0.63286748  1
  O  O96  1  0.44789427  0.53162517  0.13151659  1
  O  O97  1  0.93984091  0.52853647  0.13567379  1
  O  O98  1  0.32381132  0.11764030  0.13271776  1
  O  O99  1  0.81247933  0.10809110  0.13817575  1
  O  O100  1  0.23683060  0.35429110  0.13517007  1
  O  O101  1  0.73392964  0.36399187  0.13142879  1
  O  O102  1  0.21352319  0.28285196  0.03688405  1
  O  O103  1  0.72838627  0.31581579  0.03174981  1
  O  O104  1  0.42790971  0.54821227  0.03272031  1
  O  O105  1  0.92792265  0.57444092  0.03705321  1
  O  O106  1  0.34448506  0.14133412  0.03288052  1
  O  O107  1  0.85750387  0.15514871  0.03022052  1
  O  O108  1  0.22782101  0.14001306  0.53157501  1
  O  O109  1  0.72027062  0.15673064  0.53097899  1
  O  O110  1  0.35463241  0.55746153  0.52966015  1
  O  O111  1  0.84987678  0.55530139  0.53248109  1
  O  O112  1  0.42633890  0.28317492  0.53665867  1
  O  O113  1  0.93134751  0.31058311  0.53207815  1
  O  O114  1  0.27081032  0.68579791  0.96782905  1
  O  O115  1  0.76426345  0.68650748  0.97019305  1
  O  O116  1  0.07020618  0.44100628  0.96536782  1
  O  O117  1  0.58433928  0.49240736  0.97201050  1
  O  O118  1  0.14756900  0.85802597  0.96497000  1
  O  O119  1  0.66050268  0.84662736  0.96910729  1
  O  O120  1  0.26336153  0.84294592  0.47028349  1
  O  O121  1  0.77278655  0.85717511  0.46579753  1
  O  O122  1  0.16064881  0.47278295  0.46851588  1
  O  O123  1  0.64724392  0.43217374  0.46353386  1
  O  O124  1  0.08341029  0.67211234  0.47133820  1
  O  O125  1  0.56787863  0.70026824  0.46362600  1
  O  O126  1  0.06061745  0.64379556  0.36113434  1
  O  O127  1  0.56359680  0.65158281  0.36393748  1
  O  O128  1  0.25814509  0.87069020  0.35946892  1
  O  O129  1  0.76556878  0.87611361  0.36503504  1
  O  O130  1  0.17629743  0.47540712  0.36687699  1
  O  O131  1  0.67516141  0.47212579  0.36425754  1
  O  O132  1  0.06546025  0.47990152  0.86591733  1
  O  O133  1  0.56048682  0.47803400  0.86170766  1
  O  O134  1  0.17793060  0.88156841  0.86606407  1
  O  O135  1  0.67569474  0.87545344  0.86746299  1
  O  O136  1  0.26431733  0.65283142  0.86697831  1
  O  O137  1  0.75641601  0.64603021  0.86014735  1
  O  O138  1  0.01766337  0.83907078  0.42149286  1
  O  O139  1  0.51272626  0.82957315  0.40131666  1
  O  O140  1  0.40547149  0.96982738  0.40416141  1
  O  O141  1  0.90041611  0.98183639  0.41208425  1
  O  O142  1  0.08807871  0.21403128  0.41715612  1
  O  O143  1  0.58547156  0.18962658  0.40251086  1
  O  O144  1  0.01457055  0.19895273  0.90381618  1
  O  O145  1  0.51707441  0.19251595  0.92145963  1
  O  O146  1  0.08532417  0.97723613  0.90427161  1
  O  O147  1  0.58727121  0.95927183  0.91783200  1
  O  O148  1  0.39926271  0.81718687  0.91447769  1
  O  O149  1  0.90578712  0.84327706  0.90358716  1
  O  O150  1  0.48849243  0.17024036  0.59922138  1
  O  O151  1  0.99925707  0.19230077  0.58627532  1
  O  O152  1  0.09908766  0.00953003  0.58446072  1
  O  O153  1  0.58881435  0.01627841  0.60260883  1
  O  O154  1  0.41029073  0.81992567  0.60185638  1
  O  O155  1  0.90998455  0.80897705  0.58574641  1
  O  O156  1  0.49643510  0.80363868  0.08591854  1
  O  O157  1  0.99259345  0.81165952  0.10012329  1
  O  O158  1  0.40828182  0.01401616  0.08649249  1
  O  O159  1  0.91211073  0.00177043  0.10239303  1
  O  O160  1  0.09400617  0.17079987  0.09972324  1
  O  O161  1  0.59919090  0.18834006  0.08433296  1
  O  O162  1  0.34854000  0.15659915  0.74299356  1
  O  O163  1  0.85535486  0.16360680  0.75419352  1
  O  O164  1  0.22786925  0.28789321  0.75341055  1
  O  O165  1  0.72712299  0.30046799  0.74158680  1
  O  O166  1  0.42289780  0.54478002  0.74251826  1
  O  O167  1  0.90832799  0.52074322  0.75468687  1
  O  O168  1  0.35202715  0.54300243  0.25130323  1
  O  O169  1  0.85097896  0.54727378  0.23954627  1
  O  O170  1  0.40947563  0.29406659  0.25393737  1
  O  O171  1  0.92421224  0.30043026  0.23991789  1
  O  O172  1  0.22610637  0.15715433  0.23841888  1
  O  O173  1  0.72853654  0.16792863  0.25237417  1
  O  O174  1  0.31887565  0.51160838  0.92247286  1
  O  O175  1  0.83122947  0.51107308  0.92465660  1
  O  O176  1  0.42558146  0.34890609  0.92509683  1
  O  O177  1  0.93606415  0.34498855  0.91796656  1
  O  O178  1  0.23519419  0.13388298  0.92099499  1
  O  O179  1  0.74042306  0.12238625  0.92554647  1
  O  O180  1  0.33114746  0.15379695  0.42352092  1
  O  O181  1  0.82140275  0.12879754  0.41940129  1
  O  O182  1  0.24093605  0.35786747  0.42479056  1
  O  O183  1  0.73641774  0.33853164  0.41681270  1
  O  O184  1  0.43365175  0.52721866  0.41577727  1
  O  O185  1  0.92359640  0.49808344  0.42348338  1
  O  O186  1  0.16728953  0.46714094  0.07720847  1
  O  O187  1  0.67681649  0.49196681  0.07083511  1
  O  O188  1  0.06569675  0.66326828  0.07791599  1
  O  O189  1  0.56970911  0.64753531  0.07031253  1
  O  O190  1  0.25641160  0.86749715  0.07484437  1
  O  O191  1  0.74981077  0.84287268  0.06631539  1
  O  O192  1  0.17631825  0.86096050  0.57130601  1
  O  O193  1  0.66643673  0.85136218  0.57574913  1
  O  O194  1  0.24882021  0.65500691  0.56565913  1
  O  O195  1  0.75824546  0.64400721  0.57470943  1
  O  O196  1  0.07290664  0.49403901  0.56948586  1
  O  O197  1  0.56413953  0.46541907  0.57786296  1
  O  O198  1  0.14687008  0.84983297  0.24754954  1
  O  O199  1  0.65727019  0.86327488  0.26140919  1
  O  O200  1  0.27455322  0.69314641  0.26026475  1
  O  O201  1  0.77968656  0.71054610  0.24971703  1
  O  O202  1  0.07784576  0.44128780  0.24742067  1
  O  O203  1  0.57884095  0.46427187  0.26319205  1
  O  O204  1  0.15659153  0.44999160  0.76222675  1
  O  O205  1  0.64681732  0.44568693  0.74860632  1
  O  O206  1  0.07843379  0.69454528  0.76389874  1
  O  O207  1  0.57636977  0.71133977  0.74988481  1
  O  O208  1  0.27751924  0.85142801  0.75249352  1
  O  O209  1  0.77565790  0.85639863  0.76144968  1
