# generated using pymatgen
data_Na4YNb3Si4(PO12)2
_symmetry_space_group_name_H-M   'P 1'
_cell_length_a   9.05911882
_cell_length_b   9.08393258
_cell_length_c   22.89390883
_cell_angle_alpha   90.08821295
_cell_angle_beta   89.95630701
_cell_angle_gamma   120.08058611
_symmetry_Int_Tables_number   1
_chemical_formula_structural   Na4YNb3Si4(PO12)2
_chemical_formula_sum   'Na12 Y3 Nb9 Si12 P6 O72'
_cell_volume   1630.25930253
_cell_formula_units_Z   3
loop_
 _symmetry_equiv_pos_site_id
 _symmetry_equiv_pos_as_xyz
  1  'x, y, z'
loop_
 _atom_site_type_symbol
 _atom_site_label
 _atom_site_symmetry_multiplicity
 _atom_site_fract_x
 _atom_site_fract_y
 _atom_site_fract_z
 _atom_site_occupancy
  Na  Na0  1  0.63219709  0.62488647  0.74642255  1
  Na  Na1  1  0.99547089  0.37221419  0.74692873  1
  Na  Na2  1  0.31634557  0.97662866  0.08470929  1
  Na  Na3  1  0.02474237  0.34388981  0.08438077  1
  Na  Na4  1  0.96344273  0.29336230  0.41342823  1
  Na  Na5  1  0.70562394  0.67745373  0.41602119  1
  Na  Na6  1  0.00829102  0.99426725  0.50227159  1
  Na  Na7  1  0.98836313  0.98811068  0.99553554  1
  Na  Na8  1  0.64972199  0.31538424  0.83467778  1
  Na  Na9  1  0.65309620  0.32067949  0.32545921  1
  Na  Na10  1  0.34778964  0.66436383  0.16555577  1
  Na  Na11  1  0.33329541  0.67352957  0.66629056  1
  Y  Y12  1  0.00764489  0.99969478  0.35453365  1
  Y  Y13  1  0.65784226  0.32524026  0.68563094  1
  Y  Y14  1  0.66794846  0.33648490  0.18245737  1
  Nb  Nb15  1  0.00407565  0.00668924  0.85804328  1
  Nb  Nb16  1  0.99440884  0.00214564  0.64498187  1
  Nb  Nb17  1  0.99536083  0.99661636  0.14608269  1
  Nb  Nb18  1  0.66699706  0.33479129  0.97795452  1
  Nb  Nb19  1  0.67021488  0.33151774  0.48310693  1
  Nb  Nb20  1  0.33703387  0.66699806  0.01577522  1
  Nb  Nb21  1  0.33560977  0.66956880  0.52206490  1
  Nb  Nb22  1  0.33085446  0.67302236  0.31084688  1
  Nb  Nb23  1  0.33579725  0.66950511  0.81457141  1
  Si  Si24  1  0.28529664  0.28931415  0.75192823  1
  Si  Si25  1  0.71050823  0.99486610  0.75261058  1
  Si  Si26  1  0.96486899  0.33352615  0.58583978  1
  Si  Si27  1  0.66944636  0.63025152  0.58484113  1
  Si  Si28  1  0.96076296  0.62699898  0.08126722  1
  Si  Si29  1  0.66400731  0.03783386  0.08159799  1
  Si  Si30  1  0.37390782  0.33755175  0.08240401  1
  Si  Si31  1  0.62498099  0.66342101  0.91475258  1
  Si  Si32  1  0.03944982  0.37776044  0.91556301  1
  Si  Si33  1  0.33568885  0.95876207  0.91673450  1
  Si  Si34  1  0.61362200  0.96023221  0.41713924  1
  Si  Si35  1  0.04231468  0.66088488  0.41846500  1
  P  P36  1  0.29352875  0.99396540  0.24914274  1
  P  P37  1  0.70095949  0.70866784  0.25272779  1
  P  P38  1  0.00787881  0.29876094  0.25205158  1
  P  P39  1  0.01059617  0.72499527  0.75129645  1
  P  P40  1  0.36827010  0.03757240  0.58156572  1
  P  P41  1  0.34353936  0.39035664  0.41764020  1
  O  O42  1  0.20768197  0.00695699  0.30408937  1
  O  O43  1  0.79339804  0.78824754  0.31006413  1
  O  O44  1  0.99341361  0.20438219  0.30898492  1
  O  O45  1  0.18253087  0.17207388  0.80850229  1
  O  O46  1  0.99112328  0.81373513  0.80563422  1
  O  O47  1  0.82907083  0.00387663  0.80776036  1
  O  O48  1  0.80532003  0.96841703  0.69324160  1
  O  O49  1  0.16489018  0.18795421  0.69399322  1
  O  O50  1  0.02817573  0.82962272  0.69520783  1
  O  O51  1  0.80739806  0.82833786  0.19940478  1
  O  O52  1  0.02275214  0.19802790  0.19751569  1
  O  O53  1  0.18230746  0.97607219  0.19365371  1
  O  O54  1  0.89745092  0.36891583  0.64537933  1
  O  O55  1  0.47301969  0.10249827  0.63688747  1
  O  O56  1  0.62931484  0.52729354  0.64462477  1
  O  O57  1  0.90233167  0.50427775  0.13663126  1
  O  O58  1  0.60683984  0.10035274  0.13780109  1
  O  O59  1  0.48049583  0.37860046  0.14090966  1
  O  O60  1  0.46538990  0.29403577  0.02764421  1
  O  O61  1  0.83212091  0.53177874  0.02560890  1
  O  O62  1  0.70693538  0.17160889  0.02680384  1
  O  O63  1  0.46749149  0.15736774  0.52866690  1
  O  O64  1  0.68857936  0.52296983  0.52760479  1
  O  O65  1  0.83406127  0.30577411  0.52859184  1
  O  O66  1  0.52483299  0.68894239  0.96966813  1
  O  O67  1  0.15731780  0.47048583  0.97260280  1
  O  O68  1  0.30963902  0.84180430  0.97391100  1
  O  O69  1  0.51566835  0.83480596  0.47144296  1
  O  O70  1  0.32422403  0.48083536  0.47149577  1
  O  O71  1  0.16035428  0.67134953  0.47274881  1
  O  O72  1  0.13626887  0.63353434  0.35941139  1
  O  O73  1  0.49616625  0.85830280  0.35838111  1
  O  O74  1  0.36774006  0.50153166  0.36207923  1
  O  O75  1  0.13635540  0.49479402  0.85736915  1
  O  O76  1  0.35871313  0.85703491  0.86010628  1
  O  O77  1  0.50483678  0.63880252  0.85637867  1
  O  O78  1  0.00580798  0.81623081  0.41923513  1
  O  O79  1  0.80409387  0.98615970  0.41596443  1
  O  O80  1  0.18053800  0.21681306  0.41556485  1
  O  O81  1  0.02159001  0.18881670  0.91021099  1
  O  O82  1  0.16526738  0.97483269  0.90924343  1
  O  O83  1  0.81279386  0.83191294  0.90931513  1
  O  O84  1  0.97856200  0.15890302  0.58885362  1
  O  O85  1  0.19214415  0.02393860  0.58570994  1
  O  O86  1  0.84651470  0.81647322  0.58829602  1
  O  O87  1  0.98170982  0.81851345  0.09270553  1
  O  O88  1  0.84130943  0.02793273  0.09285472  1
  O  O89  1  0.18077931  0.15985204  0.09227352  1
  O  O90  1  0.70723200  0.16943724  0.75183615  1
  O  O91  1  0.47809203  0.32634015  0.75273630  1
  O  O92  1  0.85006998  0.54639294  0.74855276  1
  O  O93  1  0.67734090  0.53203277  0.24724424  1
  O  O94  1  0.85604735  0.32543554  0.24716010  1
  O  O95  1  0.47402419  0.14244514  0.24641687  1
  O  O96  1  0.63617101  0.49153963  0.92346383  1
  O  O97  1  0.85230105  0.35995831  0.92252471  1
  O  O98  1  0.50629467  0.14448802  0.92360045  1
  O  O99  1  0.62902041  0.14764281  0.42355187  1
  O  O100  1  0.50781793  0.37851743  0.42323168  1
  O  O101  1  0.85384915  0.48170136  0.42410206  1
  O  O102  1  0.32733158  0.48789791  0.07065954  1
  O  O103  1  0.15634918  0.66638625  0.06922332  1
  O  O104  1  0.50481238  0.84641660  0.06912548  1
  O  O105  1  0.34301839  0.85729994  0.57057381  1
  O  O106  1  0.50940828  0.66163319  0.57056902  1
  O  O107  1  0.15421674  0.49401100  0.57132290  1
  O  O108  1  0.29739146  0.82064911  0.25349357  1
  O  O109  1  0.52383822  0.70136986  0.25355297  1
  O  O110  1  0.17989694  0.47518338  0.25445017  1
  O  O111  1  0.28810664  0.47418873  0.75508429  1
  O  O112  1  0.17056065  0.70263287  0.75563152  1
  O  O113  1  0.52439255  0.81725291  0.75556491  1
