# generated using pymatgen
data_Na10Mg4Sc4Si3(S3O16)3
_symmetry_space_group_name_H-M   'P 1'
_cell_length_a   17.98974249
_cell_length_b   8.96108679
_cell_length_c   22.67931579
_cell_angle_alpha   89.97943650
_cell_angle_beta   89.39649027
_cell_angle_gamma   120.11034644
_symmetry_Int_Tables_number   1
_chemical_formula_structural   Na10Mg4Sc4Si3(S3O16)3
_chemical_formula_sum   'Na30 Mg12 Sc12 Si9 S27 O144'
_cell_volume   3162.48809316
_cell_formula_units_Z   3
loop_
 _symmetry_equiv_pos_site_id
 _symmetry_equiv_pos_as_xyz
  1  'x, y, z'
loop_
 _atom_site_type_symbol
 _atom_site_label
 _atom_site_symmetry_multiplicity
 _atom_site_fract_x
 _atom_site_fract_y
 _atom_site_fract_z
 _atom_site_occupancy
  Na  Na0  1  0.19113908  0.37220323  0.24370277  1
  Na  Na1  1  0.69192686  0.37689824  0.24381584  1
  Na  Na2  1  0.99051997  0.63916898  0.25442191  1
  Na  Na3  1  0.49255649  0.63418434  0.25905613  1
  Na  Na4  1  0.32349861  0.65459505  0.74657538  1
  Na  Na5  1  0.82062006  0.64905475  0.74586999  1
  Na  Na6  1  0.99216656  0.34630535  0.75230375  1
  Na  Na7  1  0.19210414  0.00891615  0.74063792  1
  Na  Na8  1  0.69160349  0.00948031  0.74200182  1
  Na  Na9  1  0.52422894  0.70769487  0.57362058  1
  Na  Na10  1  0.32567423  0.97176156  0.58861215  1
  Na  Na11  1  0.82584597  0.96743705  0.58813382  1
  Na  Na12  1  0.15394063  0.98235353  0.08075548  1
  Na  Na13  1  0.65395543  0.98184552  0.08062604  1
  Na  Na14  1  0.32761125  0.68367256  0.09012413  1
  Na  Na15  1  0.82730563  0.68399053  0.09071920  1
  Na  Na16  1  0.65895643  0.01207504  0.42325639  1
  Na  Na17  1  0.35863856  0.67294708  0.40967328  1
  Na  Na18  1  0.01328096  0.00040720  0.49859395  1
  Na  Na19  1  0.51061538  0.00991911  0.49668751  1
  Na  Na20  1  0.00686963  0.02532867  0.99780433  1
  Na  Na21  1  0.50714902  0.02594805  0.99714901  1
  Na  Na22  1  0.34393027  0.32022764  0.83155544  1
  Na  Na23  1  0.83445341  0.31810747  0.83430576  1
  Na  Na24  1  0.34043930  0.33816491  0.33391440  1
  Na  Na25  1  0.83960125  0.35084313  0.33128535  1
  Na  Na26  1  0.17214601  0.65502974  0.16365215  1
  Na  Na27  1  0.67365256  0.65565586  0.16554605  1
  Na  Na28  1  0.16732965  0.68198959  0.65785990  1
  Na  Na29  1  0.66700628  0.66792879  0.66132746  1
  Mg  Mg30  1  0.99411164  0.98478165  0.35114938  1
  Mg  Mg31  1  0.49604558  0.98814920  0.35116643  1
  Mg  Mg32  1  0.99529310  0.00606010  0.85231706  1
  Mg  Mg33  1  0.49594318  0.00774042  0.85189975  1
  Mg  Mg34  1  0.33359352  0.31121036  0.68219509  1
  Mg  Mg35  1  0.83140865  0.31769476  0.68050424  1
  Mg  Mg36  1  0.33088012  0.34152232  0.18340993  1
  Mg  Mg37  1  0.83050130  0.34200628  0.18323589  1
  Mg  Mg38  1  0.16216674  0.64605578  0.01637094  1
  Mg  Mg39  1  0.66214680  0.64609765  0.01642415  1
  Mg  Mg40  1  0.15967840  0.67158172  0.51790420  1
  Mg  Mg41  1  0.66403003  0.67194051  0.51509394  1
  Sc  Sc42  1  0.00146762  0.99869181  0.64604367  1
  Sc  Sc43  1  0.50079302  0.00578919  0.64957733  1
  Sc  Sc44  1  0.99623878  0.00473450  0.15041526  1
  Sc  Sc45  1  0.49653756  0.00468219  0.14970318  1
  Sc  Sc46  1  0.32663114  0.32899923  0.98213701  1
  Sc  Sc47  1  0.82614242  0.32857108  0.98225037  1
  Sc  Sc48  1  0.32819777  0.32419866  0.48103548  1
  Sc  Sc49  1  0.82938112  0.33088769  0.48456357  1
  Sc  Sc50  1  0.17330501  0.67349547  0.31512932  1
  Sc  Sc51  1  0.66923089  0.67097795  0.31828034  1
  Sc  Sc52  1  0.17392730  0.67801962  0.81820526  1
  Sc  Sc53  1  0.66763478  0.66925811  0.81701263  1
  Si  Si54  1  0.35248056  0.70208136  0.25074713  1
  Si  Si55  1  0.85202923  0.70282116  0.25045371  1
  Si  Si56  1  0.35528952  0.00813581  0.75150390  1
  Si  Si57  1  0.85394434  0.00393236  0.75039685  1
  Si  Si58  1  0.18362023  0.03220950  0.58496654  1
  Si  Si59  1  0.68320903  0.03153002  0.58508114  1
  Si  Si60  1  0.18297855  0.33429728  0.08575831  1
  Si  Si61  1  0.68280713  0.33452536  0.08561074  1
  Si  Si62  1  0.51741951  0.66655792  0.41742714  1
  S  S63  1  0.14660939  0.00089239  0.25075921  1
  S  S64  1  0.64797789  0.00174563  0.25006427  1
  S  S65  1  0.99811081  0.29192967  0.25261650  1
  S  S66  1  0.49809184  0.29058971  0.25180488  1
  S  S67  1  0.14643393  0.29282516  0.75177330  1
  S  S68  1  0.64694761  0.29405756  0.75198271  1
  S  S69  1  0.99945688  0.70711694  0.75193981  1
  S  S70  1  0.49902896  0.70595270  0.75121557  1
  S  S71  1  0.48124888  0.33654721  0.58317883  1
  S  S72  1  0.98154528  0.33866429  0.58399661  1
  S  S73  1  0.33144505  0.62318663  0.58473598  1
  S  S74  1  0.83175099  0.62463129  0.58484477  1
  S  S75  1  0.48157367  0.62439663  0.08352616  1
  S  S76  1  0.98172645  0.62454170  0.08335077  1
  S  S77  1  0.33292734  0.04353926  0.08315478  1
  S  S78  1  0.83308182  0.04390250  0.08310807  1
  S  S79  1  0.31685295  0.67029680  0.91782266  1
  S  S80  1  0.81587168  0.67012417  0.91705596  1
  S  S81  1  0.01945803  0.37095014  0.91611804  1
  S  S82  1  0.51962131  0.37089265  0.91742788  1
  S  S83  1  0.16413742  0.96019599  0.91796282  1
  S  S84  1  0.66409552  0.95891197  0.91756380  1
  S  S85  1  0.31352635  0.95866057  0.41816504  1
  S  S86  1  0.81795530  0.96394245  0.41859157  1
  S  S87  1  0.16214945  0.37039945  0.41741821  1
  S  S88  1  0.66680533  0.37317228  0.41712999  1
  S  S89  1  0.02001891  0.66901372  0.41623108  1
  O  O90  1  0.10648277  0.03403669  0.30186260  1
  O  O91  1  0.60850231  0.03253747  0.30271758  1
  O  O92  1  0.41021646  0.79198553  0.30767135  1
  O  O93  1  0.91780599  0.79733045  0.30296133  1
  O  O94  1  0.48932587  0.18876140  0.30426352  1
  O  O95  1  0.98930803  0.19016506  0.30476834  1
  O  O96  1  0.10782372  0.18005626  0.80389697  1
  O  O97  1  0.60767031  0.18174317  0.80380969  1
  O  O98  1  0.48825405  0.79136325  0.80324766  1
  O  O99  1  0.98786696  0.78922710  0.80475705  1
  O  O100  1  0.41120096  0.01626133  0.80632665  1
  O  O101  1  0.91728018  0.03576262  0.80409121  1
  O  O102  1  0.39231728  0.96326471  0.69008471  1
  O  O103  1  0.89200429  0.96055388  0.68992029  1
  O  O104  1  0.09251818  0.21445261  0.69896702  1
  O  O105  1  0.59588660  0.21572146  0.69824229  1
  O  O106  1  0.01800856  0.81788007  0.69880600  1
  O  O107  1  0.51709467  0.81525125  0.69671316  1
  O  O108  1  0.39461602  0.81431032  0.18921841  1
  O  O109  1  0.89434629  0.81266747  0.18766867  1
  O  O110  1  0.01747080  0.21932807  0.19875097  1
  O  O111  1  0.51466413  0.21370297  0.19797913  1
  O  O112  1  0.09440673  0.97218095  0.19601486  1
  O  O113  1  0.59400400  0.97553541  0.19659339  1
  O  O114  1  0.44254119  0.36929990  0.63598050  1
  O  O115  1  0.94458738  0.36532635  0.63916384  1
  O  O116  1  0.24002792  0.11367940  0.64428371  1
  O  O117  1  0.74112368  0.11914210  0.64261341  1
  O  O118  1  0.32388739  0.52519843  0.63902817  1
  O  O119  1  0.82423714  0.52837736  0.63986814  1
  O  O120  1  0.44439870  0.52279172  0.13789565  1
  O  O121  1  0.94471146  0.52302936  0.13786846  1
  O  O122  1  0.32267922  0.12618190  0.13602736  1
  O  O123  1  0.82292818  0.12671095  0.13599567  1
  O  O124  1  0.24068632  0.36273810  0.14372605  1
  O  O125  1  0.74060053  0.36236171  0.14333878  1
  O  O126  1  0.23265018  0.29956139  0.02898825  1
  O  O127  1  0.73207732  0.29881392  0.02865988  1
  O  O128  1  0.42612480  0.53940345  0.03187459  1
  O  O129  1  0.92617565  0.53881795  0.03179292  1
  O  O130  1  0.34730632  0.14988260  0.02934190  1
  O  O131  1  0.84734119  0.15039035  0.02928304  1
  O  O132  1  0.23393707  0.15711800  0.52765111  1
  O  O133  1  0.73058436  0.14971079  0.52482863  1
  O  O134  1  0.34712433  0.54471912  0.53152298  1
  O  O135  1  0.84517989  0.54012145  0.53268352  1
  O  O136  1  0.42713363  0.30823487  0.53069594  1
  O  O137  1  0.92483879  0.31276187  0.53295578  1
  O  O138  1  0.27284230  0.69016658  0.96993874  1
  O  O139  1  0.77283430  0.69002210  0.96968965  1
  O  O140  1  0.07257484  0.46223510  0.96711639  1
  O  O141  1  0.57105167  0.45781970  0.96963823  1
  O  O142  1  0.15525258  0.85675823  0.97110769  1
  O  O143  1  0.65563860  0.85671987  0.97100050  1
  O  O144  1  0.27298134  0.84944662  0.47086674  1
  O  O145  1  0.77802467  0.86188095  0.47265627  1
  O  O146  1  0.15340374  0.45936420  0.46902557  1
  O  O147  1  0.65899429  0.45993870  0.46918867  1
  O  O148  1  0.07288750  0.68395850  0.46714591  1
  O  O149  1  0.57668088  0.69680745  0.47450252  1
  O  O150  1  0.05929806  0.64627220  0.36039109  1
  O  O151  1  0.56408978  0.64608867  0.35657897  1
  O  O152  1  0.25985793  0.87359229  0.36508388  1
  O  O153  1  0.76153130  0.88071566  0.36665586  1
  O  O154  1  0.17630438  0.47784279  0.36220979  1
  O  O155  1  0.68012925  0.47522213  0.36191016  1
  O  O156  1  0.05943579  0.47209809  0.86045208  1
  O  O157  1  0.56176078  0.47709587  0.86345402  1
  O  O158  1  0.17489681  0.87583766  0.86369775  1
  O  O159  1  0.67507537  0.87439447  0.86350771  1
  O  O160  1  0.26422635  0.64477632  0.86344013  1
  O  O161  1  0.76336134  0.64546505  0.86291546  1
  O  O162  1  0.01331293  0.82671463  0.41234358  1
  O  O163  1  0.51057217  0.84442509  0.41355677  1
  O  O164  1  0.39970477  0.97799587  0.41100879  1
  O  O165  1  0.90417405  0.98815518  0.41071966  1
  O  O166  1  0.08699572  0.19762453  0.41045023  1
  O  O167  1  0.59052034  0.19842540  0.41128119  1
  O  O168  1  0.01281261  0.19957159  0.91268984  1
  O  O169  1  0.51282946  0.19978339  0.91271957  1
  O  O170  1  0.08785456  0.97961660  0.91151776  1
  O  O171  1  0.58823522  0.97916413  0.91120971  1
  O  O172  1  0.40324453  0.82248337  0.91205854  1
  O  O173  1  0.90247505  0.82271307  0.91107510  1
  O  O174  1  0.48484769  0.17356979  0.58976532  1
  O  O175  1  0.98371431  0.17339024  0.58839636  1
  O  O176  1  0.08742490  0.01388569  0.58904595  1
  O  O177  1  0.58499918  0.00425568  0.58851157  1
  O  O178  1  0.41093864  0.80135682  0.58762991  1
  O  O179  1  0.90897236  0.80308321  0.58649911  1
  O  O180  1  0.48723108  0.79845693  0.08788645  1
  O  O181  1  0.98757371  0.79856763  0.08755703  1
  O  O182  1  0.40769068  0.01403607  0.08651821  1
  O  O183  1  0.90808445  0.01515110  0.08641040  1
  O  O184  1  0.08925640  0.15192235  0.08839659  1
  O  O185  1  0.58913359  0.15194201  0.08828810  1
  O  O186  1  0.33776755  0.16896390  0.74829263  1
  O  O187  1  0.84247776  0.17502644  0.74634821  1
  O  O188  1  0.23543648  0.32749169  0.74403202  1
  O  O189  1  0.73611261  0.32345189  0.74495039  1
  O  O190  1  0.41982338  0.53750117  0.74333132  1
  O  O191  1  0.92057314  0.53603530  0.74410937  1
  O  O192  1  0.34305142  0.50922718  0.24708257  1
  O  O193  1  0.84293093  0.50907548  0.24667653  1
  O  O194  1  0.42233751  0.31136525  0.24388057  1
  O  O195  1  0.92214218  0.31159063  0.24395612  1
  O  O196  1  0.23452395  0.14852392  0.24320584  1
  O  O197  1  0.73511805  0.15224218  0.24277150  1
  O  O198  1  0.32389242  0.51095228  0.92210775  1
  O  O199  1  0.82363588  0.51111977  0.92141385  1
  O  O200  1  0.43265704  0.35318239  0.92214957  1
  O  O201  1  0.93254590  0.35308443  0.92150976  1
  O  O202  1  0.24480607  0.13265483  0.92023316  1
  O  O203  1  0.74507524  0.13217378  0.91970089  1
  O  O204  1  0.32101835  0.13087581  0.42156962  1
  O  O205  1  0.82276493  0.13765279  0.42240747  1
  O  O206  1  0.24361349  0.36238027  0.42077616  1
  O  O207  1  0.74490897  0.35014333  0.42052555  1
  O  O208  1  0.41846891  0.49962998  0.42129864  1
  O  O209  1  0.93262069  0.51169517  0.42197367  1
  O  O210  1  0.17992766  0.51150238  0.07704014  1
  O  O211  1  0.67992935  0.51172460  0.07700692  1
  O  O212  1  0.07059774  0.65800834  0.07501894  1
  O  O213  1  0.57052932  0.65856402  0.07512680  1
  O  O214  1  0.25302882  0.87122935  0.07678371  1
  O  O215  1  0.75328506  0.87172882  0.07668297  1
  O  O216  1  0.17952260  0.84611687  0.57730950  1
  O  O217  1  0.67627474  0.84130137  0.57997701  1
  O  O218  1  0.25574670  0.64425124  0.57796195  1
  O  O219  1  0.75465579  0.64160533  0.57805815  1
  O  O220  1  0.06853900  0.48515042  0.57551464  1
  O  O221  1  0.56870090  0.48538225  0.57627259  1
  O  O222  1  0.14899667  0.83642993  0.25753952  1
  O  O223  1  0.65208604  0.83991639  0.25508170  1
  O  O224  1  0.25266436  0.67215549  0.25530665  1
  O  O225  1  0.75310344  0.67293908  0.25549430  1
  O  O226  1  0.07601431  0.47239427  0.25690273  1
  O  O227  1  0.57726946  0.46834267  0.25464709  1
  O  O228  1  0.15078311  0.46485997  0.75877163  1
  O  O229  1  0.65593758  0.46900565  0.75819809  1
  O  O230  1  0.07506663  0.67935464  0.75757793  1
  O  O231  1  0.57685171  0.68624210  0.75691237  1
  O  O232  1  0.25498506  0.82552829  0.75688703  1
  O  O233  1  0.75519637  0.82787878  0.75808176  1
