# generated using pymatgen
data_Na4CaAl(PO4)3
_symmetry_space_group_name_H-M   'P 1'
_cell_length_a   9.17267315
_cell_length_b   9.17267282
_cell_length_c   21.53976929
_cell_angle_alpha   90.00000000
_cell_angle_beta   90.00000000
_cell_angle_gamma   120.00000121
_symmetry_Int_Tables_number   1
_chemical_formula_structural   Na4CaAl(PO4)3
_chemical_formula_sum   'Na24 Ca6 Al6 P18 O72'
_cell_volume   1569.50786171
_cell_formula_units_Z   6
loop_
 _symmetry_equiv_pos_site_id
 _symmetry_equiv_pos_as_xyz
  1  'x, y, z'
loop_
 _atom_site_type_symbol
 _atom_site_label
 _atom_site_symmetry_multiplicity
 _atom_site_fract_x
 _atom_site_fract_y
 _atom_site_fract_z
 _atom_site_occupancy
  Na  Na0  1  0.64565477  0.00890987  0.24728867  1
  Na  Na1  1  0.36325511  0.35434523  0.24728867  1
  Na  Na2  1  0.99109013  0.63674489  0.24728867  1
  Na  Na3  1  0.64565477  0.63674489  0.74728867  1
  Na  Na4  1  0.99109013  0.35434523  0.74728867  1
  Na  Na5  1  0.36325511  0.00890987  0.74728867  1
  Na  Na6  1  0.31232177  0.34224287  0.58062167  1
  Na  Na7  1  0.02992211  0.68767823  0.58062167  1
  Na  Na8  1  0.65775713  0.97007789  0.58062167  1
  Na  Na9  1  0.31232177  0.97007789  0.08062167  1
  Na  Na10  1  0.65775713  0.68767823  0.08062167  1
  Na  Na11  1  0.02992211  0.34224287  0.08062167  1
  Na  Na12  1  0.97898777  0.67557687  0.91395567  1
  Na  Na13  1  0.69658811  0.02101223  0.91395567  1
  Na  Na14  1  0.32442313  0.30341189  0.91395567  1
  Na  Na15  1  0.97898777  0.30341189  0.41395567  1
  Na  Na16  1  0.32442313  0.02101223  0.41395567  1
  Na  Na17  1  0.69658811  0.67557687  0.41395567  1
  Na  Na18  1  -0.00000000  0.00000000  0.49943803  1
  Na  Na19  1  -0.00000000  0.00000000  -0.00056197  1
  Na  Na20  1  0.66666700  0.33333300  0.83277103  1
  Na  Na21  1  0.66666700  0.33333300  0.33277103  1
  Na  Na22  1  0.33333300  0.66666700  0.16610503  1
  Na  Na23  1  0.33333300  0.66666700  0.66610503  1
  Ca  Ca24  1  -0.00000000  0.00000000  0.34758930  1
  Ca  Ca25  1  -0.00000000  0.00000000  0.84758930  1
  Ca  Ca26  1  0.66666700  0.33333300  0.68092230  1
  Ca  Ca27  1  0.66666700  0.33333300  0.18092230  1
  Ca  Ca28  1  0.33333300  0.66666700  0.01425630  1
  Ca  Ca29  1  0.33333300  0.66666700  0.51425630  1
  Al  Al30  1  -0.00000000  0.00000000  0.64722931  1
  Al  Al31  1  -0.00000000  0.00000000  0.14722931  1
  Al  Al32  1  0.66666700  0.33333300  0.98056231  1
  Al  Al33  1  0.66666700  0.33333300  0.48056231  1
  Al  Al34  1  0.33333300  0.66666700  0.31389631  1
  Al  Al35  1  0.33333300  0.66666700  0.81389631  1
  P  P36  1  0.28976736  0.98118048  0.25062663  1
  P  P37  1  0.69141312  0.71023264  0.25062663  1
  P  P38  1  0.01881952  0.30858688  0.25062663  1
  P  P39  1  0.28976736  0.30858688  0.75062663  1
  P  P40  1  0.01881952  0.71023264  0.75062663  1
  P  P41  1  0.69141312  0.98118048  0.75062663  1
  P  P42  1  0.95643436  0.31451348  0.58395963  1
  P  P43  1  0.35808012  0.04356564  0.58395963  1
  P  P44  1  0.68548652  0.64191988  0.58395963  1
  P  P45  1  0.95643436  0.64191988  0.08395963  1
  P  P46  1  0.68548652  0.04356564  0.08395963  1
  P  P47  1  0.35808012  0.31451348  0.08395963  1
  P  P48  1  0.62310036  0.64784748  0.91729363  1
  P  P49  1  0.02474612  0.37689964  0.91729363  1
  P  P50  1  0.35215252  0.97525388  0.91729363  1
  P  P51  1  0.62310036  0.97525388  0.41729363  1
  P  P52  1  0.35215252  0.37689964  0.41729363  1
  P  P53  1  0.02474612  0.64784748  0.41729363  1
  O  O54  1  0.22501585  0.00802125  0.31166800  1
  O  O55  1  0.78300541  0.77498415  0.31166800  1
  O  O56  1  0.99197875  0.21699459  0.31166800  1
  O  O57  1  0.22501585  0.21699459  0.81166800  1
  O  O58  1  0.99197875  0.77498415  0.81166800  1
  O  O59  1  0.78300541  0.00802125  0.81166800  1
  O  O60  1  0.79476726  0.96388266  0.69515598  1
  O  O61  1  0.16911539  0.20523274  0.69515598  1
  O  O62  1  0.03611734  0.83088461  0.69515598  1
  O  O63  1  0.79476726  0.83088461  0.19515598  1
  O  O64  1  0.03611734  0.20523274  0.19515598  1
  O  O65  1  0.16911539  0.96388266  0.19515598  1
  O  O66  1  0.89168285  0.34135425  0.64500100  1
  O  O67  1  0.44967241  0.10831715  0.64500100  1
  O  O68  1  0.65864575  0.55032759  0.64500100  1
  O  O69  1  0.89168285  0.55032759  0.14500100  1
  O  O70  1  0.65864575  0.10831715  0.14500100  1
  O  O71  1  0.44967241  0.34135425  0.14500100  1
  O  O72  1  0.46143426  0.29721566  0.02848898  1
  O  O73  1  0.83578239  0.53856574  0.02848898  1
  O  O74  1  0.70278434  0.16421761  0.02848898  1
  O  O75  1  0.46143426  0.16421761  0.52848898  1
  O  O76  1  0.70278434  0.53856574  0.52848898  1
  O  O77  1  0.83578239  0.29721566  0.52848898  1
  O  O78  1  0.55834885  0.67468825  0.97833500  1
  O  O79  1  0.11633841  0.44165115  0.97833500  1
  O  O80  1  0.32531175  0.88366159  0.97833500  1
  O  O81  1  0.55834885  0.88366159  0.47833500  1
  O  O82  1  0.32531175  0.44165115  0.47833500  1
  O  O83  1  0.11633841  0.67468825  0.47833500  1
  O  O84  1  0.12810026  0.63054966  0.36182298  1
  O  O85  1  0.50244839  0.87189974  0.36182298  1
  O  O86  1  0.36945034  0.49755161  0.36182298  1
  O  O87  1  0.12810026  0.49755161  0.86182298  1
  O  O88  1  0.36945034  0.87189974  0.86182298  1
  O  O89  1  0.50244839  0.63054966  0.86182298  1
  O  O90  1  0.99304393  0.79714106  0.41078085  1
  O  O91  1  0.80409713  0.00695607  0.41078085  1
  O  O92  1  0.20285894  0.19590287  0.41078085  1
  O  O93  1  0.99304393  0.19590287  0.91078085  1
  O  O94  1  0.20285894  0.00695607  0.91078085  1
  O  O95  1  0.80409713  0.79714106  0.91078085  1
  O  O96  1  0.96063012  0.14408485  0.58639433  1
  O  O97  1  0.18345473  0.03936988  0.58639433  1
  O  O98  1  0.85591515  0.81654527  0.58639433  1
  O  O99  1  0.96063012  0.81654527  0.08639433  1
  O  O100  1  0.85591515  0.03936988  0.08639433  1
  O  O101  1  0.18345473  0.14408485  0.08639433  1
  O  O102  1  0.65971093  0.13047406  0.74411385  1
  O  O103  1  0.47076413  0.34028907  0.74411385  1
  O  O104  1  0.86952594  0.52923587  0.74411385  1
  O  O105  1  0.65971093  0.52923587  0.24411385  1
  O  O106  1  0.86952594  0.34028907  0.24411385  1
  O  O107  1  0.47076413  0.13047406  0.24411385  1
  O  O108  1  0.62729712  0.47741785  0.91972733  1
  O  O109  1  0.85012173  0.37270288  0.91972733  1
  O  O110  1  0.52258215  0.14987827  0.91972733  1
  O  O111  1  0.62729712  0.14987827  0.41972733  1
  O  O112  1  0.52258215  0.37270288  0.41972733  1
  O  O113  1  0.85012173  0.47741785  0.41972733  1
  O  O114  1  0.32637693  0.46380806  0.07744785  1
  O  O115  1  0.13743013  0.67362307  0.07744785  1
  O  O116  1  0.53619194  0.86256987  0.07744785  1
  O  O117  1  0.32637693  0.86256987  0.57744785  1
  O  O118  1  0.53619194  0.67362307  0.57744785  1
  O  O119  1  0.13743013  0.46380806  0.57744785  1
  O  O120  1  0.29396312  0.81075185  0.25306133  1
  O  O121  1  0.51678773  0.70603688  0.25306133  1
  O  O122  1  0.18924815  0.48321227  0.25306133  1
  O  O123  1  0.29396312  0.48321227  0.75306133  1
  O  O124  1  0.18924815  0.70603688  0.75306133  1
  O  O125  1  0.51678773  0.81075185  0.75306133  1
