# generated using pymatgen
data_Ba2YMgMn2TlO7
_symmetry_space_group_name_H-M   'P 1'
_cell_length_a   3.98316700
_cell_length_b   3.98317200
_cell_length_c   14.85518500
_cell_angle_alpha   90.00060573
_cell_angle_beta   89.99889027
_cell_angle_gamma   90.00005754
_symmetry_Int_Tables_number   1
_chemical_formula_structural   Ba2YMgMn2TlO7
_chemical_formula_sum   'Ba2 Y1 Mg1 Mn2 Tl1 O7'
_cell_volume   235.68700641
_cell_formula_units_Z   1
loop_
 _symmetry_equiv_pos_site_id
 _symmetry_equiv_pos_as_xyz
  1  'x, y, z'
loop_
 _atom_site_type_symbol
 _atom_site_label
 _atom_site_symmetry_multiplicity
 _atom_site_fract_x
 _atom_site_fract_y
 _atom_site_fract_z
 _atom_site_occupancy
  Ba  Ba0  1  0.50000700  0.50000300  0.16848500  1
  Ba  Ba1  1  0.50001600  0.50000300  0.83150200  1
  Y  Y2  1  0.49999100  0.50001000  0.50000400  1
  Mg  Mg3  1  0.99998400  0.00001600  0.50000200  1
  Mn  Mn4  1  0.00001400  0.00000800  0.33192300  1
  Mn  Mn5  1  0.00005000  0.99996000  0.66808400  1
  Tl  Tl6  1  0.00002900  0.00001000  0.99999300  1
  O  O7  1  0.00000800  0.00000000  0.19801800  1
  O  O8  1  0.99999900  0.49999600  0.41178600  1
  O  O9  1  0.50000100  0.00000400  0.41176700  1
  O  O10  1  0.50000700  0.00000300  0.58821900  1
  O  O11  1  0.49987400  0.49998000  0.99998700  1
  O  O12  1  0.00000600  0.50000700  0.58824000  1
  O  O13  1  0.00001400  0.00000200  0.80199200  1
