# generated using pymatgen
data_Ba3(GaS3)2
_symmetry_space_group_name_H-M   'P 1'
_cell_length_a   8.58537267
_cell_length_b   8.58537267
_cell_length_c   9.16128226
_cell_angle_alpha   89.05588487
_cell_angle_beta   89.05588487
_cell_angle_gamma   115.69613449
_symmetry_Int_Tables_number   1
_chemical_formula_structural   Ba3(GaS3)2
_chemical_formula_sum   'Ba6 Ga4 S12'
_cell_volume   608.19424818
_cell_formula_units_Z   2
loop_
 _symmetry_equiv_pos_site_id
 _symmetry_equiv_pos_as_xyz
  1  'x, y, z'
loop_
 _atom_site_type_symbol
 _atom_site_label
 _atom_site_symmetry_multiplicity
 _atom_site_fract_x
 _atom_site_fract_y
 _atom_site_fract_z
 _atom_site_occupancy
  Ba  Ba0  1  0.03594651  0.96405349  0.75000000  1
  Ba  Ba1  1  0.96405349  0.03594651  0.25000000  1
  Ba  Ba2  1  0.26545042  0.54174760  0.50908981  1
  Ba  Ba3  1  0.45825240  0.73454958  0.99091019  1
  Ba  Ba4  1  0.73454958  0.45825240  0.49091019  1
  Ba  Ba5  1  0.54174760  0.26545042  0.00908981  1
  Ga  Ga6  1  0.98031379  0.65399320  0.06771486  1
  Ga  Ga7  1  0.34600680  0.01968621  0.43228514  1
  Ga  Ga8  1  0.01968621  0.34600680  0.93228514  1
  Ga  Ga9  1  0.65399320  0.98031379  0.56771486  1
  S  S10  1  0.53091913  0.91598058  0.33454055  1
  S  S11  1  0.08401942  0.46908087  0.16545945  1
  S  S12  1  0.46908087  0.08401942  0.66545945  1
  S  S13  1  0.91598058  0.53091913  0.83454055  1
  S  S14  1  0.26898514  0.36797475  0.83301122  1
  S  S15  1  0.63202525  0.73101486  0.66698878  1
  S  S16  1  0.73101486  0.63202525  0.16698878  1
  S  S17  1  0.36797475  0.26898514  0.33301122  1
  S  S18  1  0.20146505  0.91804806  0.04202773  1
  S  S19  1  0.08195194  0.79853495  0.45797227  1
  S  S20  1  0.91804806  0.20146505  0.54202773  1
  S  S21  1  0.79853495  0.08195194  0.95797227  1
