# generated using pymatgen
data_Na6La4Zr4Si5S7O48
_symmetry_space_group_name_H-M   'P 1'
_cell_length_a   18.64351318
_cell_length_b   9.26379226
_cell_length_c   24.16906297
_cell_angle_alpha   90.00257897
_cell_angle_beta   89.59564309
_cell_angle_gamma   119.80840896
_symmetry_Int_Tables_number   1
_chemical_formula_structural   Na6La4Zr4Si5S7O48
_chemical_formula_sum   'Na18 La12 Zr12 Si15 S21 O144'
_cell_volume   3621.82904001
_cell_formula_units_Z   3
loop_
 _symmetry_equiv_pos_site_id
 _symmetry_equiv_pos_as_xyz
  1  'x, y, z'
loop_
 _atom_site_type_symbol
 _atom_site_label
 _atom_site_symmetry_multiplicity
 _atom_site_fract_x
 _atom_site_fract_y
 _atom_site_fract_z
 _atom_site_occupancy
  Na  Na0  1  0.99758470  0.62568352  0.25577938  1
  Na  Na1  1  0.49824321  0.62280918  0.25131609  1
  Na  Na2  1  0.99770799  0.37829277  0.74993749  1
  Na  Na3  1  0.49988850  0.36111002  0.75262855  1
  Na  Na4  1  0.66311633  0.30746071  0.92132552  1
  Na  Na5  1  0.16449770  0.01358562  0.43328322  1
  Na  Na6  1  0.00407765  0.99514942  0.51041090  1
  Na  Na7  1  0.50471489  0.99125268  0.50298240  1
  Na  Na8  1  0.00645350  0.01513090  0.99400446  1
  Na  Na9  1  0.50457218  0.01724779  0.00342849  1
  Na  Na10  1  0.33064721  0.31943300  0.84103112  1
  Na  Na11  1  0.83026992  0.33114499  0.81766429  1
  Na  Na12  1  0.34515338  0.35262540  0.32576445  1
  Na  Na13  1  0.82562121  0.33686048  0.34620021  1
  Na  Na14  1  0.18867244  0.65583658  0.16435080  1
  Na  Na15  1  0.67187589  0.65067416  0.15914004  1
  Na  Na16  1  0.17366786  0.69634767  0.66280484  1
  Na  Na17  1  0.68430590  0.69425525  0.67360956  1
  La  La18  1  0.99287592  0.98834990  0.35976594  1
  La  La19  1  0.49885002  0.00713883  0.85532414  1
  La  La20  1  0.31936552  0.33210084  0.67536585  1
  La  La21  1  0.82288917  0.31183194  0.68554148  1
  La  La22  1  0.33061518  0.34613189  0.18228987  1
  La  La23  1  0.81758654  0.30733730  0.17496636  1
  La  La24  1  0.83234142  0.31989766  0.99232987  1
  La  La25  1  0.33382028  0.34895899  0.49518950  1
  La  La26  1  0.17044183  0.66389818  0.31466220  1
  La  La27  1  0.67060398  0.64414084  0.31527415  1
  La  La28  1  0.17222251  0.69813120  0.81513123  1
  La  La29  1  0.66805299  0.66162025  0.81136474  1
  Zr  Zr30  1  0.49879096  0.01687799  0.35202654  1
  Zr  Zr31  1  0.99874784  0.97990560  0.85109752  1
  Zr  Zr32  1  0.99747075  0.98161653  0.65045769  1
  Zr  Zr33  1  0.51156421  0.00034397  0.64327813  1
  Zr  Zr34  1  0.00511228  0.01979885  0.13967621  1
  Zr  Zr35  1  0.49658673  0.01288604  0.14924462  1
  Zr  Zr36  1  0.32672090  0.31880695  0.98260215  1
  Zr  Zr37  1  0.82766860  0.33680521  0.48365696  1
  Zr  Zr38  1  0.16220949  0.66437341  0.01471287  1
  Zr  Zr39  1  0.66521049  0.65734766  0.01977101  1
  Zr  Zr40  1  0.16422069  0.67222731  0.52184104  1
  Zr  Zr41  1  0.66137709  0.65674335  0.51600439  1
  Si  Si42  1  0.36041027  0.72169030  0.25123990  1
  Si  Si43  1  0.49829384  0.29406255  0.24977985  1
  Si  Si44  1  0.64250274  0.29048950  0.74955333  1
  Si  Si45  1  0.00091995  0.70403641  0.74956450  1
  Si  Si46  1  0.86101966  0.00041085  0.75142240  1
  Si  Si47  1  0.17156148  0.02161606  0.57881807  1
  Si  Si48  1  0.68553555  0.02706532  0.58013587  1
  Si  Si49  1  0.33428233  0.65886786  0.58373637  1
  Si  Si50  1  0.83092321  0.01183036  0.08351691  1
  Si  Si51  1  0.18584901  0.34526155  0.08147793  1
  Si  Si52  1  0.67196595  0.32491961  0.07945185  1
  Si  Si53  1  0.51641954  0.37683033  0.91883373  1
  Si  Si54  1  0.16248625  0.96782438  0.92031437  1
  Si  Si55  1  0.66390751  0.35818921  0.41960568  1
  Si  Si56  1  0.01794113  0.65404028  0.41689364  1
  S  S57  1  0.13996962  0.99540920  0.24793185  1
  S  S58  1  0.63847072  0.00062674  0.25178492  1
  S  S59  1  0.85964445  0.71207994  0.24385934  1
  S  S60  1  0.99888336  0.29285536  0.24586055  1
  S  S61  1  0.13845459  0.27670518  0.75189209  1
  S  S62  1  0.49718295  0.70240922  0.74597630  1
  S  S63  1  0.35700039  0.00499776  0.74364845  1
  S  S64  1  0.49273710  0.33569529  0.58529612  1
  S  S65  1  0.98290341  0.33001309  0.58005593  1
  S  S66  1  0.83155075  0.63738272  0.57903855  1
  S  S67  1  0.48444075  0.63881242  0.08019975  1
  S  S68  1  0.99316427  0.64910446  0.08709239  1
  S  S69  1  0.33062418  0.02601156  0.08009422  1
  S  S70  1  0.31115089  0.65531166  0.92264013  1
  S  S71  1  0.81762255  0.67368669  0.91978835  1
  S  S72  1  0.02123862  0.36738773  0.91634789  1
  S  S73  1  0.66689925  0.96215843  0.92039158  1
  S  S74  1  0.31700755  0.96315134  0.41887837  1
  S  S75  1  0.81006583  0.96717473  0.42231800  1
  S  S76  1  0.16807435  0.36753181  0.42007925  1
  S  S77  1  0.51988723  0.67364596  0.41578574  1
  O  O78  1  0.10237544  0.00547181  0.30110728  1
  O  O79  1  0.59470172  0.00908975  0.30252168  1
  O  O80  1  0.41476257  0.82374693  0.30645331  1
  O  O81  1  0.90088814  0.79064992  0.29692102  1
  O  O82  1  0.50005399  0.19081270  0.30548642  1
  O  O83  1  0.99584058  0.20431331  0.29726445  1
  O  O84  1  0.09510719  0.18077423  0.80266501  1
  O  O85  1  0.60222016  0.20474358  0.80996274  1
  O  O86  1  0.49063306  0.77969539  0.79743904  1
  O  O87  1  0.00257586  0.81133784  0.80531731  1
  O  O88  1  0.39642218  0.00693157  0.79708635  1
  O  O89  1  0.91562306  0.00328414  0.80651161  1
  O  O90  1  0.40603258  0.00102023  0.69599794  1
  O  O91  1  0.91301846  0.99968896  0.69535848  1
  O  O92  1  0.09355792  0.18945769  0.70067836  1
  O  O93  1  0.58293363  0.16756146  0.69944540  1
  O  O94  1  0.00517565  0.81549241  0.69481830  1
  O  O95  1  0.49691242  0.79910426  0.69655649  1
  O  O96  1  0.41149450  0.82268451  0.19485123  1
  O  O97  1  0.91042224  0.81550617  0.19661660  1
  O  O98  1  0.00069504  0.19502796  0.19686391  1
  O  O99  1  0.50277213  0.19230622  0.19495643  1
  O  O100  1  0.08879209  0.99541295  0.20083438  1
  O  O101  1  0.59303441  0.99702053  0.20060752  1
  O  O102  1  0.45604409  0.36427818  0.63549826  1
  O  O103  1  0.95597223  0.36766190  0.63316915  1
  O  O104  1  0.23413789  0.10791100  0.63012755  1
  O  O105  1  0.73566064  0.08390453  0.63697335  1
  O  O106  1  0.31197563  0.53534061  0.63680579  1
  O  O107  1  0.81535581  0.54236109  0.63018856  1
  O  O108  1  0.45728978  0.54651826  0.13379490  1
  O  O109  1  0.95713499  0.54806881  0.13739913  1
  O  O110  1  0.31442496  0.08945256  0.13144139  1
  O  O111  1  0.81395832  0.08995054  0.13873158  1
  O  O112  1  0.23423087  0.38052048  0.13957907  1
  O  O113  1  0.73288768  0.36450171  0.13216853  1
  O  O114  1  0.23748052  0.31414217  0.03253816  1
  O  O115  1  0.71241867  0.29987166  0.02261716  1
  O  O116  1  0.42663391  0.54140556  0.03558272  1
  O  O117  1  0.93992574  0.57719432  0.03839046  1
  O  O118  1  0.34396280  0.13922546  0.03267382  1
  O  O119  1  0.85787317  0.13864094  0.03139605  1
  O  O120  1  0.21065986  0.12196571  0.52062378  1
  O  O121  1  0.73869511  0.16258252  0.53089355  1
  O  O122  1  0.35821451  0.58243222  0.53030671  1
  O  O123  1  0.84500203  0.55047136  0.53137067  1
  O  O124  1  0.44081586  0.30751811  0.53619173  1
  O  O125  1  0.92639448  0.31383543  0.53443160  1
  O  O126  1  0.25938783  0.66659350  0.96824980  1
  O  O127  1  0.77524614  0.69315944  0.96923462  1
  O  O128  1  0.07413535  0.46348201  0.96514194  1
  O  O129  1  0.58666412  0.49754492  0.96463975  1
  O  O130  1  0.15346138  0.83793483  0.97076682  1
  O  O131  1  0.66938041  0.86791165  0.96915646  1
  O  O132  1  0.27464126  0.85868142  0.46786351  1
  O  O133  1  0.75993491  0.85213859  0.46758901  1
  O  O134  1  0.16731346  0.46423524  0.46793123  1
  O  O135  1  0.65332543  0.46838685  0.46933271  1
  O  O136  1  0.08931304  0.68032216  0.46215903  1
  O  O137  1  0.57216820  0.68215447  0.46404854  1
  O  O138  1  0.04826043  0.63533214  0.35421803  1
  O  O139  1  0.55935494  0.66149088  0.36346311  1
  O  O140  1  0.26741247  0.88756746  0.36847793  1
  O  O141  1  0.76983444  0.90443749  0.36839912  1
  O  O142  1  0.17207262  0.45204675  0.36727470  1
  O  O143  1  0.68640863  0.46571368  0.36236456  1
  O  O144  1  0.06094674  0.45848756  0.86460367  1
  O  O145  1  0.54546551  0.45895112  0.85718069  1
  O  O146  1  0.18434868  0.90386361  0.86358661  1
  O  O147  1  0.67021856  0.88356424  0.86834470  1
  O  O148  1  0.26938088  0.63397093  0.86924459  1
  O  O149  1  0.76823848  0.64918951  0.86978287  1
  O  O150  1  0.01741452  0.83426075  0.41954501  1
  O  O151  1  0.51381164  0.82760443  0.41506195  1
  O  O152  1  0.40004978  0.97649284  0.41317507  1
  O  O153  1  0.89252024  0.97991791  0.42380149  1
  O  O154  1  0.09159334  0.20017892  0.42126663  1
  O  O155  1  0.58016514  0.17578223  0.41259188  1
  O  O156  1  0.01508686  0.20137145  0.91617280  1
  O  O157  1  0.51552656  0.19732659  0.92367947  1
  O  O158  1  0.07883504  0.98269691  0.91473925  1
  O  O159  1  0.59005238  0.97464159  0.92377674  1
  O  O160  1  0.39248733  0.80629388  0.92449004  1
  O  O161  1  0.90079133  0.82686675  0.91476642  1
  O  O162  1  0.50497726  0.19030926  0.59159595  1
  O  O163  1  0.98977742  0.17728152  0.58396194  1
  O  O164  1  0.08167786  0.00945052  0.58955894  1
  O  O165  1  0.59300079  0.01216886  0.58602885  1
  O  O166  1  0.41384111  0.84285393  0.59581276  1
  O  O167  1  0.90715985  0.80520305  0.58367566  1
  O  O168  1  0.49084275  0.80446398  0.08524941  1
  O  O169  1  0.00662690  0.82059137  0.09520308  1
  O  O170  1  0.40614595  0.00934033  0.08521679  1
  O  O171  1  0.91254333  0.98776821  0.09512322  1
  O  O172  1  0.09233266  0.17513478  0.08861534  1
  O  O173  1  0.58212132  0.15655120  0.09093218  1
  O  O174  1  0.35292590  0.16188912  0.74287936  1
  O  O175  1  0.86176137  0.17709069  0.75223762  1
  O  O176  1  0.22253374  0.29832532  0.75212800  1
  O  O177  1  0.73517913  0.31885284  0.74768239  1
  O  O178  1  0.42636067  0.52928922  0.74371765  1
  O  O179  1  0.92060257  0.52209304  0.75052753  1
  O  O180  1  0.35776477  0.54149771  0.25197643  1
  O  O181  1  0.85529520  0.54775557  0.24301591  1
  O  O182  1  0.41630365  0.31284327  0.25060192  1
  O  O183  1  0.92677008  0.31828526  0.24388546  1
  O  O184  1  0.22459758  0.13532804  0.24485807  1
  O  O185  1  0.72219530  0.14661030  0.25203573  1
  O  O186  1  0.32100094  0.50686444  0.93139143  1
  O  O187  1  0.82714853  0.52513334  0.92554341  1
  O  O188  1  0.42456231  0.35283919  0.93464763  1
  O  O189  1  0.93954655  0.35405453  0.92224928  1
  O  O190  1  0.24493016  0.15081721  0.93216623  1
  O  O191  1  0.73860479  0.13608056  0.92069635  1
  O  O192  1  0.32597997  0.13066727  0.42386890  1
  O  O193  1  0.82137171  0.13588954  0.43032153  1
  O  O194  1  0.24006260  0.33849146  0.42024132  1
  O  O195  1  0.74637449  0.33987689  0.43122920  1
  O  O196  1  0.43744500  0.52365375  0.42046205  1
  O  O197  1  0.92588128  0.49635992  0.43152326  1
  O  O198  1  0.16835732  0.49891803  0.06722873  1
  O  O199  1  0.65864657  0.48748158  0.07328662  1
  O  O200  1  0.07613760  0.66557112  0.07685308  1
  O  O201  1  0.56894638  0.66454069  0.06870187  1
  O  O202  1  0.25856340  0.85703105  0.06876435  1
  O  O203  1  0.74963456  0.83256673  0.07195800  1
  O  O204  1  0.15803699  0.83153354  0.57322796  1
  O  O205  1  0.66794559  0.84010428  0.56254778  1
  O  O206  1  0.25061112  0.66891968  0.57013566  1
  O  O207  1  0.75949755  0.66124669  0.56681200  1
  O  O208  1  0.06792674  0.47318502  0.56775581  1
  O  O209  1  0.57574033  0.48656724  0.57583762  1
  O  O210  1  0.13938839  0.83326041  0.24565338  1
  O  O211  1  0.64143797  0.84329809  0.25307994  1
  O  O212  1  0.26802486  0.70149577  0.25041058  1
  O  O213  1  0.77681633  0.69614824  0.24204693  1
  O  O214  1  0.07509628  0.45998171  0.24302282  1
  O  O215  1  0.57953613  0.48280594  0.24893046  1
  O  O216  1  0.14122958  0.43940248  0.75307626  1
  O  O217  1  0.63860084  0.46359951  0.74309457  1
  O  O218  1  0.08360525  0.68263713  0.74823734  1
  O  O219  1  0.57474584  0.69384132  0.74368701  1
  O  O220  1  0.27330047  0.85665612  0.74164626  1
  O  O221  1  0.76941268  0.83789505  0.75060205  1
