# generated using pymatgen
data_Na4TaGa3Si3(SO8)3
_symmetry_space_group_name_H-M   'P 1'
_cell_length_a   8.82790346
_cell_length_b   8.83146204
_cell_length_c   22.35453606
_cell_angle_alpha   89.84617467
_cell_angle_beta   90.20239945
_cell_angle_gamma   119.87868695
_symmetry_Int_Tables_number   1
_chemical_formula_structural   Na4TaGa3Si3(SO8)3
_chemical_formula_sum   'Na12 Ta3 Ga9 Si9 S9 O72'
_cell_volume   1511.16927707
_cell_formula_units_Z   3
loop_
 _symmetry_equiv_pos_site_id
 _symmetry_equiv_pos_as_xyz
  1  'x, y, z'
loop_
 _atom_site_type_symbol
 _atom_site_label
 _atom_site_symmetry_multiplicity
 _atom_site_fract_x
 _atom_site_fract_y
 _atom_site_fract_z
 _atom_site_occupancy
  Na  Na0  1  0.63588250  0.00005115  0.25065369  1
  Na  Na1  1  0.36467566  0.36471708  0.25038745  1
  Na  Na2  1  0.99953360  0.63448842  0.25089395  1
  Na  Na3  1  0.30146943  0.33649841  0.58543473  1
  Na  Na4  1  0.66754878  0.96736998  0.58556893  1
  Na  Na5  1  0.29630824  0.96319438  0.08328271  1
  Na  Na6  1  0.00064880  0.99287540  0.50127567  1
  Na  Na7  1  0.99248588  0.00079467  0.99415335  1
  Na  Na8  1  0.66704189  0.33371000  0.82859245  1
  Na  Na9  1  0.66735027  0.33366336  0.33053696  1
  Na  Na10  1  0.33400854  0.65898259  0.16781013  1
  Na  Na11  1  0.32510381  0.66745439  0.66276554  1
  Ta  Ta12  1  0.66837901  0.33435347  0.97284087  1
  Ta  Ta13  1  0.66698763  0.33429862  0.48389127  1
  Ta  Ta14  1  0.33291425  0.66656994  0.81583011  1
  Ga  Ga15  1  0.99960728  0.99941927  0.34023163  1
  Ga  Ga16  1  0.99994351  0.99915289  0.85963554  1
  Ga  Ga17  1  0.00121770  0.99478706  0.64148391  1
  Ga  Ga18  1  0.99562689  0.00069252  0.16144468  1
  Ga  Ga19  1  0.66735494  0.33365744  0.67519446  1
  Ga  Ga20  1  0.66787994  0.33502838  0.19087521  1
  Ga  Ga21  1  0.33392409  0.66280023  0.00511505  1
  Ga  Ga22  1  0.32776479  0.66733584  0.52496959  1
  Ga  Ga23  1  0.33293562  0.66668357  0.30931866  1
  Si  Si24  1  0.28945795  0.00037811  0.24936076  1
  Si  Si25  1  0.71034484  0.71043473  0.25043804  1
  Si  Si26  1  0.00039336  0.28931765  0.25029889  1
  Si  Si27  1  0.96086682  0.33743659  0.58691247  1
  Si  Si28  1  0.37271637  0.03825746  0.58622151  1
  Si  Si29  1  0.66857607  0.62655836  0.58593280  1
  Si  Si30  1  0.62691062  0.67680483  0.91810282  1
  Si  Si31  1  0.04970307  0.37295954  0.91786041  1
  Si  Si32  1  0.32437155  0.95047440  0.91892223  1
  S  S33  1  0.29031694  0.28636125  0.74968422  1
  S  S34  1  0.99583602  0.71106346  0.74965713  1
  S  S35  1  0.71331105  0.00387507  0.74969291  1
  S  S36  1  0.95709205  0.62372423  0.08434241  1
  S  S37  1  0.66982422  0.04205215  0.08435107  1
  S  S38  1  0.37560914  0.33699602  0.08406227  1
  S  S39  1  0.62509855  0.95461582  0.41640955  1
  S  S40  1  0.32925406  0.37466082  0.41632225  1
  S  S41  1  0.04643263  0.67042729  0.41630730  1
  O  O42  1  0.21098247  0.04875097  0.30708684  1
  O  O43  1  0.83674099  0.78649797  0.30870407  1
  O  O44  1  0.95008042  0.16336610  0.30871577  1
  O  O45  1  0.20555029  0.18073256  0.80298231  1
  O  O46  1  0.97502515  0.79337937  0.80368060  1
  O  O47  1  0.81936309  0.02417107  0.80299316  1
  O  O48  1  0.78695724  0.97257958  0.69455111  1
  O  O49  1  0.18479898  0.21248972  0.69441577  1
  O  O50  1  0.02811920  0.81944371  0.69543255  1
  O  O51  1  0.78499780  0.83497202  0.19140751  1
  O  O52  1  0.05156448  0.21512290  0.19147356  1
  O  O53  1  0.16970625  0.95372487  0.18803064  1
  O  O54  1  0.87602388  0.37431973  0.64404819  1
  O  O55  1  0.50298841  0.12149931  0.64248890  1
  O  O56  1  0.61597260  0.49523393  0.64206057  1
  O  O57  1  0.87540473  0.51765419  0.13884382  1
  O  O58  1  0.63842420  0.12346232  0.13827500  1
  O  O59  1  0.48170768  0.35932730  0.13888782  1
  O  O60  1  0.46678644  0.30954071  0.03142143  1
  O  O61  1  0.84493972  0.53251646  0.03104056  1
  O  O62  1  0.68938882  0.15476398  0.03093078  1
  O  O63  1  0.46850371  0.17164312  0.52633883  1
  O  O64  1  0.70063927  0.53073993  0.52589718  1
  O  O65  1  0.82870968  0.29697259  0.52674354  1
  O  O66  1  0.54461140  0.70633592  0.97758848  1
  O  O67  1  0.16005809  0.45628037  0.97762817  1
  O  O68  1  0.29807513  0.84380156  0.98071222  1
  O  O69  1  0.54165972  0.85064171  0.47077578  1
  O  O70  1  0.30984882  0.45820018  0.47073812  1
  O  O71  1  0.15342449  0.69113352  0.46976486  1
  O  O72  1  0.12136061  0.63940721  0.36135036  1
  O  O73  1  0.51681508  0.87719843  0.36195303  1
  O  O74  1  0.35963497  0.48292878  0.36197612  1
  O  O75  1  0.13555483  0.50356526  0.85885463  1
  O  O76  1  0.36752415  0.86244875  0.86044561  1
  O  O77  1  0.49610733  0.63145449  0.85895180  1
  O  O78  1  0.02524831  0.82529553  0.41211828  1
  O  O79  1  0.80079564  0.97523545  0.41218939  1
  O  O80  1  0.17485191  0.19895523  0.41196336  1
  O  O81  1  0.01957913  0.18283070  0.90698644  1
  O  O82  1  0.16341868  0.97940824  0.90786172  1
  O  O83  1  0.81696730  0.83632735  0.90718024  1
  O  O84  1  0.97374381  0.15969957  0.59107002  1
  O  O85  1  0.18870485  0.03452557  0.59001390  1
  O  O86  1  0.83635536  0.81935514  0.59030299  1
  O  O87  1  0.97375392  0.79933931  0.08645068  1
  O  O88  1  0.82847755  0.02857284  0.08786736  1
  O  O89  1  0.20380952  0.17297119  0.08663334  1
  O  O90  1  0.68984488  0.15805418  0.74579387  1
  O  O91  1  0.46758387  0.30897954  0.74561865  1
  O  O92  1  0.84195124  0.53399661  0.74517369  1
  O  O93  1  0.68785263  0.51621448  0.24205272  1
  O  O94  1  0.82832916  0.31167682  0.24172841  1
  O  O95  1  0.48366629  0.17159316  0.24121688  1
  O  O96  1  0.63926029  0.49486845  0.92620630  1
  O  O97  1  0.85544679  0.36066404  0.92573743  1
  O  O98  1  0.50532097  0.14446217  0.92663010  1
  O  O99  1  0.64091205  0.13444717  0.42157046  1
  O  O100  1  0.49326949  0.35824771  0.42135039  1
  O  O101  1  0.86670601  0.50705694  0.42195197  1
  O  O102  1  0.35864128  0.49317039  0.07827399  1
  O  O103  1  0.13390836  0.64362314  0.07983360  1
  O  O104  1  0.50794587  0.86929043  0.07924610  1
  O  O105  1  0.36503695  0.85484474  0.57411314  1
  O  O106  1  0.49578929  0.64352648  0.57308538  1
  O  O107  1  0.15363415  0.50020825  0.57477577  1
  O  O108  1  0.31063240  0.82793141  0.25796465  1
  O  O109  1  0.51618654  0.68823441  0.25871902  1
  O  O110  1  0.17169312  0.48355020  0.25862732  1
  O  O111  1  0.30766531  0.46764962  0.75505929  1
  O  O112  1  0.15973431  0.69295500  0.75511039  1
  O  O113  1  0.53192531  0.84036010  0.75526650  1
