# generated using pymatgen
data_K2PrBr5
_symmetry_space_group_name_H-M   'P 1'
_cell_length_a   8.48615978
_cell_length_b   9.22802150
_cell_length_c   13.40054707
_cell_angle_alpha   90.00000000
_cell_angle_beta   90.00000000
_cell_angle_gamma   90.00000000
_symmetry_Int_Tables_number   1
_chemical_formula_structural   K2PrBr5
_chemical_formula_sum   'K8 Pr4 Br20'
_cell_volume   1049.40307100
_cell_formula_units_Z   4
loop_
 _symmetry_equiv_pos_site_id
 _symmetry_equiv_pos_as_xyz
  1  'x, y, z'
loop_
 _atom_site_type_symbol
 _atom_site_label
 _atom_site_symmetry_multiplicity
 _atom_site_fract_x
 _atom_site_fract_y
 _atom_site_fract_z
 _atom_site_occupancy
  K  K0  1  0.44352911  0.50476883  0.67209609  1
  K  K1  1  0.94352911  0.49523117  0.82790391  1
  K  K2  1  0.55647089  0.00476883  0.32790391  1
  K  K3  1  0.05647089  0.99523117  0.17209609  1
  K  K4  1  0.55647089  0.49523117  0.32790391  1
  K  K5  1  0.05647089  0.50476883  0.17209609  1
  K  K6  1  0.44352911  0.99523117  0.67209609  1
  K  K7  1  0.94352911  0.00476883  0.82790391  1
  Pr  Pr8  1  0.92046111  0.75000000  0.50674116  1
  Pr  Pr9  1  0.57953889  0.75000000  0.00674116  1
  Pr  Pr10  1  0.07953889  0.25000000  0.49325884  1
  Pr  Pr11  1  0.42046111  0.25000000  0.99325884  1
  Br  Br12  1  0.56864593  0.75000000  0.50694324  1
  Br  Br13  1  0.33049250  0.95452633  0.92242819  1
  Br  Br14  1  0.83049250  0.04547367  0.57757181  1
  Br  Br15  1  0.66950750  0.45452633  0.07757181  1
  Br  Br16  1  0.06864593  0.25000000  0.99305676  1
  Br  Br17  1  0.66325055  0.75000000  0.79166931  1
  Br  Br18  1  0.93135407  0.75000000  0.00694324  1
  Br  Br19  1  0.43135407  0.25000000  0.49305676  1
  Br  Br20  1  0.12787328  0.75000000  0.68388367  1
  Br  Br21  1  0.16325055  0.25000000  0.70833069  1
  Br  Br22  1  0.33674945  0.25000000  0.20833069  1
  Br  Br23  1  0.83674945  0.75000000  0.29166931  1
  Br  Br24  1  0.66950750  0.04547367  0.07757181  1
  Br  Br25  1  0.62787328  0.25000000  0.81611633  1
  Br  Br26  1  0.87212672  0.25000000  0.31611633  1
  Br  Br27  1  0.37212672  0.75000000  0.18388367  1
  Br  Br28  1  0.83049250  0.45452633  0.57757181  1
  Br  Br29  1  0.33049250  0.54547367  0.92242819  1
  Br  Br30  1  0.16950750  0.95452633  0.42242819  1
  Br  Br31  1  0.16950750  0.54547367  0.42242819  1
