# generated using pymatgen
data_Na3ScIn(PO4)3
_symmetry_space_group_name_H-M   'P 1'
_cell_length_a   15.76486001
_cell_length_b   9.08651758
_cell_length_c   9.08837646
_cell_angle_alpha   90.03804390
_cell_angle_beta   125.09577450
_cell_angle_gamma   89.99739623
_symmetry_Int_Tables_number   1
_chemical_formula_structural   Na3ScIn(PO4)3
_chemical_formula_sum   'Na12 Sc4 In4 P12 O48'
_cell_volume   1065.19485193
_cell_formula_units_Z   4
loop_
 _symmetry_equiv_pos_site_id
 _symmetry_equiv_pos_as_xyz
  1  'x, y, z'
loop_
 _atom_site_type_symbol
 _atom_site_label
 _atom_site_symmetry_multiplicity
 _atom_site_fract_x
 _atom_site_fract_y
 _atom_site_fract_z
 _atom_site_occupancy
  Na  Na0  1  0.24372588  0.77566744  0.99493127  1
  Na  Na1  1  0.74343425  0.72214106  0.49741931  1
  Na  Na2  1  0.74388252  0.27732490  0.99681237  1
  Na  Na3  1  0.24234975  0.21912345  0.49561258  1
  Na  Na4  1  0.50158743  0.10889964  0.74931333  1
  Na  Na5  1  0.50178930  0.89171379  0.24555684  1
  Na  Na6  1  0.00262517  0.61093456  0.74980029  1
  Na  Na7  1  0.00107892  0.38916287  0.24464319  1
  Na  Na8  1  0.81015164  0.93657740  0.21231959  1
  Na  Na9  1  0.81158890  0.06488210  0.71451115  1
  Na  Na10  1  0.30658282  0.43554359  0.20673237  1
  Na  Na11  1  0.31046213  0.56097860  0.71645971  1
  Sc  Sc12  1  0.89806827  0.74992474  0.94304170  1
  Sc  Sc13  1  0.89781136  0.24996396  0.44159933  1
  Sc  Sc14  1  0.10283607  0.24142057  0.05198798  1
  Sc  Sc15  1  0.39787896  0.24952193  0.94331030  1
  In  In16  1  0.10214998  0.75864880  0.54960064  1
  In  In17  1  0.60189356  0.25832125  0.54901958  1
  In  In18  1  0.39891685  0.74889856  0.44266069  1
  In  In19  1  0.60208893  0.74142672  0.04924443  1
  P  P20  1  0.99822959  0.95092625  0.74276357  1
  P  P21  1  -0.00015350  0.05135632  0.24608269  1
  P  P22  1  0.49740679  0.44565329  0.74276089  1
  P  P23  1  0.49900129  0.55158835  0.24482236  1
  P  P24  1  0.35407652  0.89765670  0.75791594  1
  P  P25  1  0.65156063  0.90047870  0.74353877  1
  P  P26  1  0.65099081  0.10059876  0.24540126  1
  P  P27  1  0.35519135  0.10323810  0.26005070  1
  P  P28  1  0.85600911  0.39703970  0.75701214  1
  P  P29  1  0.14930143  0.39826884  0.74418772  1
  P  P30  1  0.15059668  0.59983646  0.24588654  1
  P  P31  1  0.85532928  0.60332966  0.25922867  1
  O  O32  1  0.15766757  0.57022792  0.74671286  1
  O  O33  1  0.84889286  0.56755767  0.75352176  1
  O  O34  1  0.84855406  0.43309318  0.25380351  1
  O  O35  1  0.15800835  0.42905934  0.23791111  1
  O  O36  1  0.66127524  0.07180651  0.74478642  1
  O  O37  1  0.34553752  0.06747392  0.75974300  1
  O  O38  1  0.34793678  0.93274487  0.24792193  1
  O  O39  1  0.66036268  0.92929533  0.24368897  1
  O  O40  1  0.42826472  0.53621449  0.56765765  1
  O  O41  1  0.55920273  0.54380097  0.90964433  1
  O  O42  1  0.55988626  0.46168939  0.41939726  1
  O  O43  1  0.43901839  0.45258384  0.07581199  1
  O  O44  1  0.93349642  0.04270747  0.56776437  1
  O  O45  1  0.05578691  0.05499669  0.90652908  1
  O  O46  1  0.06654032  0.96163497  0.41988219  1
  O  O47  1  0.93553915  0.95049673  0.07907507  1
  O  O48  1  0.26367463  0.81864489  0.74766736  1
  O  O49  1  0.74522491  0.83397697  0.75313032  1
  O  O50  1  0.74292635  0.16797857  0.25033028  1
  O  O51  1  0.26009623  0.17385559  0.24147716  1
  O  O52  1  0.76502775  0.32243584  0.74946104  1
  O  O53  1  0.24315994  0.33466331  0.75160176  1
  O  O54  1  0.24038734  0.66775000  0.24413760  1
  O  O55  1  0.76289161  0.67703490  0.24747064  1
  O  O56  1  0.35807428  0.85914935  0.59680163  1
  O  O57  1  0.65429899  0.86618048  0.91362510  1
  O  O58  1  0.65760365  0.13313383  0.41991173  1
  O  O59  1  0.36439386  0.15773329  0.10824422  1
  O  O60  1  0.85868722  0.34710705  0.59651166  1
  O  O61  1  0.15265801  0.35782353  0.91356543  1
  O  O62  1  0.15959709  0.63088052  0.42273331  1
  O  O63  1  0.86168544  0.65440248  0.10331198  1
  O  O64  1  0.45406344  0.84447672  0.93620840  1
  O  O65  1  0.55080937  0.84593322  0.56896957  1
  O  O66  1  0.54719662  0.15564640  0.07740424  1
  O  O67  1  0.45325401  0.15309706  0.44348282  1
  O  O68  1  0.95782840  0.34568046  0.93317256  1
  O  O69  1  0.04683700  0.34388905  0.57194382  1
  O  O70  1  0.04638260  0.65762452  0.08080176  1
  O  O71  1  0.95408923  0.65548611  0.44060248  1
  O  O72  1  0.07730781  0.84593256  0.74750056  1
  O  O73  1  0.91994786  0.85264837  0.75256549  1
  O  O74  1  0.91925203  0.14838967  0.25093664  1
  O  O75  1  0.07297107  0.15838964  0.23592094  1
  O  O76  1  0.57556715  0.34111870  0.74397714  1
  O  O77  1  0.41970467  0.34610388  0.75260093  1
  O  O78  1  0.41422309  0.64703437  0.23977881  1
  O  O79  1  0.57576578  0.65936836  0.24607321  1
