# generated using pymatgen
data_Na2Y4Sc4SiS11O48
_symmetry_space_group_name_H-M   'P 1'
_cell_length_a   18.06582595
_cell_length_b   9.03858580
_cell_length_c   23.82664732
_cell_angle_alpha   89.98290510
_cell_angle_beta   90.02803821
_cell_angle_gamma   120.09547649
_symmetry_Int_Tables_number   1
_chemical_formula_structural   Na2Y4Sc4SiS11O48
_chemical_formula_sum   'Na6 Y12 Sc12 Si3 S33 O144'
_cell_volume   3366.14786546
_cell_formula_units_Z   3
loop_
 _symmetry_equiv_pos_site_id
 _symmetry_equiv_pos_as_xyz
  1  'x, y, z'
loop_
 _atom_site_type_symbol
 _atom_site_label
 _atom_site_symmetry_multiplicity
 _atom_site_fract_x
 _atom_site_fract_y
 _atom_site_fract_z
 _atom_site_occupancy
  Na  Na0  1  0.00168063  0.99036147  0.49761887  1
  Na  Na1  1  0.50193076  0.02111138  0.99497561  1
  Na  Na2  1  0.34257027  0.33550424  0.83765567  1
  Na  Na3  1  0.84224282  0.35395166  0.82833919  1
  Na  Na4  1  0.33162484  0.33111243  0.33427042  1
  Na  Na5  1  0.84297906  0.34896096  0.33530000  1
  Y  Y6  1  0.99923902  0.99155330  0.85470923  1
  Y  Y7  1  0.49985644  0.00733947  0.85522547  1
  Y  Y8  1  0.00057865  0.99245294  0.65111706  1
  Y  Y9  1  0.50002126  0.00017867  0.64300204  1
  Y  Y10  1  0.33486200  0.33484240  0.68477530  1
  Y  Y11  1  0.83782197  0.34444710  0.68486803  1
  Y  Y12  1  0.33889101  0.33445457  0.98195157  1
  Y  Y13  1  0.83725217  0.34038487  0.47699973  1
  Y  Y14  1  0.66260303  0.65495863  0.02232019  1
  Y  Y15  1  0.16269335  0.67008838  0.51627067  1
  Y  Y16  1  0.16077199  0.66541297  0.81074678  1
  Y  Y17  1  0.66363390  0.65941284  0.81562378  1
  Sc  Sc18  1  0.00097899  0.99210387  0.35179097  1
  Sc  Sc19  1  0.49954868  0.99838342  0.35412585  1
  Sc  Sc20  1  0.99895881  0.00119338  0.14665644  1
  Sc  Sc21  1  0.50043428  0.00068023  0.15219360  1
  Sc  Sc22  1  0.32980399  0.33252002  0.18358273  1
  Sc  Sc23  1  0.83680400  0.33556136  0.18448396  1
  Sc  Sc24  1  0.83484326  0.33580321  0.98374204  1
  Sc  Sc25  1  0.33427824  0.33528337  0.48083187  1
  Sc  Sc26  1  0.16477700  0.66500415  0.02079110  1
  Sc  Sc27  1  0.66552826  0.66844787  0.51836749  1
  Sc  Sc28  1  0.15962217  0.66375385  0.31319588  1
  Sc  Sc29  1  0.66604979  0.66490642  0.31132113  1
  Si  Si30  1  0.99596117  0.69784709  0.75125007  1
  Si  Si31  1  0.51624511  0.36701689  0.91768451  1
  Si  Si32  1  0.01930531  0.67075406  0.41203809  1
  S  S33  1  0.14526821  0.00384511  0.24878005  1
  S  S34  1  0.64491381  0.00281147  0.25173818  1
  S  S35  1  0.35715271  0.71075222  0.25106267  1
  S  S36  1  0.85545904  0.70968227  0.24969388  1
  S  S37  1  0.99827231  0.28506548  0.24968764  1
  S  S38  1  0.49843086  0.28662973  0.25114981  1
  S  S39  1  0.15034162  0.29451098  0.75128065  1
  S  S40  1  0.64647374  0.29079687  0.74910159  1
  S  S41  1  0.49932369  0.70730638  0.75027073  1
  S  S42  1  0.35419394  0.00217738  0.74947736  1
  S  S43  1  0.85214865  0.00253354  0.75133445  1
  S  S44  1  0.48052090  0.34109932  0.57848181  1
  S  S45  1  0.98127444  0.32784101  0.58128360  1
  S  S46  1  0.18927701  0.04911457  0.57946031  1
  S  S47  1  0.68734851  0.03205517  0.58027102  1
  S  S48  1  0.33304853  0.61963190  0.57993243  1
  S  S49  1  0.82915547  0.63196297  0.57926718  1
  S  S50  1  0.47670944  0.63291855  0.08869417  1
  S  S51  1  0.97740539  0.62362445  0.08401399  1
  S  S52  1  0.33412865  0.03600736  0.08664736  1
  S  S53  1  0.83800601  0.05498948  0.08569750  1
  S  S54  1  0.18512278  0.33286652  0.08567549  1
  S  S55  1  0.68922024  0.32159880  0.08628464  1
  S  S56  1  0.30857548  0.66506646  0.92006897  1
  S  S57  1  0.81351536  0.65653626  0.91993466  1
  S  S58  1  0.01890857  0.37986983  0.92189529  1
  S  S59  1  0.16711648  0.95268856  0.92035640  1
  S  S60  1  0.67276833  0.97142905  0.91960507  1
  S  S61  1  0.31507627  0.96435344  0.41290761  1
  S  S62  1  0.80865558  0.94541749  0.41421625  1
  S  S63  1  0.16836225  0.37190633  0.41392207  1
  S  S64  1  0.66206360  0.37906397  0.41335318  1
  S  S65  1  0.52289943  0.66634198  0.41476534  1
  O  O66  1  0.10692979  0.03619377  0.29908252  1
  O  O67  1  0.60382270  0.03188730  0.30121267  1
  O  O68  1  0.41358765  0.79218214  0.30079436  1
  O  O69  1  0.91033939  0.78842607  0.29953358  1
  O  O70  1  0.48414703  0.17580222  0.30045951  1
  O  O71  1  0.98216892  0.17694752  0.29995886  1
  O  O72  1  0.10840526  0.19025943  0.80150722  1
  O  O73  1  0.60548615  0.18710814  0.79960534  1
  O  O74  1  0.48702318  0.78545194  0.80100261  1
  O  O75  1  0.98520583  0.79296876  0.80618142  1
  O  O76  1  0.40720878  0.02837468  0.79962091  1
  O  O77  1  0.90623699  0.03112754  0.80154647  1
  O  O78  1  0.39694598  0.98919520  0.69815999  1
  O  O79  1  0.89397194  0.98771593  0.70004197  1
  O  O80  1  0.10048183  0.21642695  0.69977871  1
  O  O81  1  0.59446032  0.20628874  0.69845443  1
  O  O82  1  0.00554007  0.80349611  0.69352006  1
  O  O83  1  0.50406453  0.80593715  0.69938183  1
  O  O84  1  0.39950769  0.81802405  0.20054390  1
  O  O85  1  0.89526585  0.81622896  0.19926558  1
  O  O86  1  0.00858573  0.19996002  0.19943451  1
  O  O87  1  0.51245563  0.20788303  0.20029681  1
  O  O88  1  0.09151251  0.97955467  0.19874452  1
  O  O89  1  0.59140842  0.97565868  0.20100714  1
  O  O90  1  0.44485444  0.37141152  0.63013111  1
  O  O91  1  0.93995648  0.34542772  0.63218406  1
  O  O92  1  0.23646975  0.13003253  0.63158455  1
  O  O93  1  0.73938569  0.10543153  0.63114661  1
  O  O94  1  0.32128730  0.51897134  0.63146185  1
  O  O95  1  0.81633660  0.53130631  0.63072639  1
  O  O96  1  0.43054429  0.51783757  0.13696557  1
  O  O97  1  0.93686735  0.51126737  0.13409763  1
  O  O98  1  0.32129978  0.12447150  0.13566160  1
  O  O99  1  0.82570131  0.14066833  0.13560871  1
  O  O100  1  0.24363958  0.36264098  0.13496019  1
  O  O101  1  0.74277049  0.33995108  0.13616311  1
  O  O102  1  0.22067304  0.29504386  0.03574857  1
  O  O103  1  0.72855482  0.29717355  0.03496008  1
  O  O104  1  0.42636415  0.56299662  0.03687456  1
  O  O105  1  0.92106791  0.54370772  0.03445349  1
  O  O106  1  0.35290436  0.14364081  0.03602293  1
  O  O107  1  0.85169334  0.16228274  0.03516896  1
  O  O108  1  0.23696786  0.15761547  0.52981519  1
  O  O109  1  0.72761283  0.14295010  0.53117288  1
  O  O110  1  0.34402496  0.52893807  0.53057918  1
  O  O111  1  0.84290444  0.54704269  0.53051106  1
  O  O112  1  0.42277073  0.31481190  0.52999345  1
  O  O113  1  0.92806652  0.30856718  0.53114891  1
  O  O114  1  0.26353450  0.68124575  0.97011831  1
  O  O115  1  0.77089775  0.67777861  0.96968108  1
  O  O116  1  0.07412869  0.47141648  0.97109816  1
  O  O117  1  0.57039385  0.46087904  0.97460976  1
  O  O118  1  0.16088215  0.84790886  0.97057890  1
  O  O119  1  0.66229502  0.86631481  0.96965723  1
  O  O120  1  0.28130408  0.86323009  0.46461673  1
  O  O121  1  0.76832659  0.84382108  0.46559093  1
  O  O122  1  0.15602613  0.44596491  0.46567949  1
  O  O123  1  0.65125257  0.45823124  0.46471604  1
  O  O124  1  0.07209107  0.69906229  0.46985962  1
  O  O125  1  0.57510490  0.69252057  0.46539115  1
  O  O126  1  0.07260129  0.65159602  0.35871580  1
  O  O127  1  0.56338889  0.63701505  0.36483084  1
  O  O128  1  0.25894632  0.88117120  0.36422377  1
  O  O129  1  0.75549920  0.85731581  0.36392368  1
  O  O130  1  0.18310373  0.48240941  0.36453132  1
  O  O131  1  0.67496355  0.49024589  0.36363585  1
  O  O132  1  0.05401815  0.48004247  0.87038411  1
  O  O133  1  0.56234744  0.47705935  0.86167500  1
  O  O134  1  0.18048014  0.87847792  0.86931557  1
  O  O135  1  0.68676519  0.89842168  0.86809862  1
  O  O136  1  0.26250176  0.65017862  0.86804625  1
  O  O137  1  0.76255701  0.62832486  0.86853946  1
  O  O138  1  0.00924776  0.84189440  0.40366174  1
  O  O139  1  0.51356672  0.81852848  0.40498086  1
  O  O140  1  0.40150456  0.98649257  0.40198559  1
  O  O141  1  0.89545356  0.96766080  0.40827255  1
  O  O142  1  0.09128121  0.19993299  0.40606113  1
  O  O143  1  0.58485341  0.20901066  0.40382400  1
  O  O144  1  0.01032762  0.21033823  0.91694726  1
  O  O145  1  0.50658665  0.17678133  0.91759328  1
  O  O146  1  0.08946977  0.96573480  0.91687778  1
  O  O147  1  0.59520562  0.98679749  0.91446201  1
  O  O148  1  0.39580092  0.81734156  0.91853083  1
  O  O149  1  0.89836721  0.80903113  0.91506158  1
  O  O150  1  0.48811094  0.18757089  0.58499214  1
  O  O151  1  0.98947270  0.17352397  0.58443069  1
  O  O152  1  0.10424490  0.03530941  0.58032791  1
  O  O153  1  0.60109184  0.00995502  0.58802126  1
  O  O154  1  0.41103025  0.78759305  0.58517851  1
  O  O155  1  0.90496873  0.80574580  0.58362993  1
  O  O156  1  0.48586905  0.80460281  0.09808800  1
  O  O157  1  0.98615149  0.79327175  0.09504340  1
  O  O158  1  0.41073875  0.01651049  0.09708078  1
  O  O159  1  0.91473816  0.03870390  0.09556901  1
  O  O160  1  0.10005347  0.18315431  0.09895576  1
  O  O161  1  0.60217176  0.16740572  0.09354733  1
  O  O162  1  0.34500693  0.15723672  0.74506463  1
  O  O163  1  0.83953645  0.15230372  0.74640054  1
  O  O164  1  0.23630991  0.30820259  0.74670237  1
  O  O165  1  0.73090062  0.30264515  0.74400473  1
  O  O166  1  0.42265568  0.53188804  0.74582460  1
  O  O167  1  0.91009800  0.50719683  0.74953069  1
  O  O168  1  0.34879853  0.53750165  0.24283013  1
  O  O169  1  0.84512724  0.53556702  0.24146311  1
  O  O170  1  0.42170036  0.30618484  0.24270934  1
  O  O171  1  0.92169459  0.30795754  0.24122129  1
  O  O172  1  0.23264006  0.16076197  0.24059610  1
  O  O173  1  0.73149990  0.15533424  0.24342360  1
  O  O174  1  0.31569032  0.50865397  0.92559429  1
  O  O175  1  0.82283092  0.50142705  0.92796967  1
  O  O176  1  0.42084485  0.34834683  0.91824218  1
  O  O177  1  0.93216179  0.36100937  0.93101870  1
  O  O178  1  0.24285407  0.12671400  0.92631153  1
  O  O179  1  0.74899351  0.14663446  0.92734265  1
  O  O180  1  0.32537173  0.13929932  0.42083095  1
  O  O181  1  0.81477732  0.11472394  0.41811327  1
  O  O182  1  0.24578593  0.35060040  0.42098518  1
  O  O183  1  0.73768542  0.35757944  0.41799455  1
  O  O184  1  0.43569969  0.51213590  0.42228591  1
  O  O185  1  0.92421747  0.49890371  0.41263094  1
  O  O186  1  0.17722055  0.48577259  0.07666029  1
  O  O187  1  0.68234010  0.47613749  0.08186014  1
  O  O188  1  0.06196791  0.64136113  0.07380798  1
  O  O189  1  0.56174905  0.65055197  0.08396327  1
  O  O190  1  0.25783804  0.86734854  0.07746068  1
  O  O191  1  0.76183611  0.88585828  0.07897220  1
  O  O192  1  0.18309328  0.88167122  0.57476226  1
  O  O193  1  0.67710300  0.86008940  0.56946425  1
  O  O194  1  0.25785220  0.63760341  0.57184383  1
  O  O195  1  0.75158933  0.64573112  0.56941490  1
  O  O196  1  0.06652802  0.48133482  0.57600042  1
  O  O197  1  0.56532292  0.49213957  0.56767451  1
  O  O198  1  0.15630088  0.85455519  0.25699385  1
  O  O199  1  0.65297120  0.84887121  0.26124715  1
  O  O200  1  0.27302026  0.69337888  0.25937040  1
  O  O201  1  0.76965300  0.69043819  0.25965805  1
  O  O202  1  0.07563961  0.45470949  0.25702967  1
  O  O203  1  0.57493603  0.45784585  0.26036349  1
  O  O204  1  0.16256851  0.46575249  0.75706764  1
  O  O205  1  0.65689302  0.46208793  0.75379990  1
  O  O206  1  0.08056372  0.68128168  0.75558346  1
  O  O207  1  0.57710887  0.69518417  0.75374087  1
  O  O208  1  0.27080544  0.84931486  0.75477806  1
  O  O209  1  0.76882296  0.84641040  0.75767052  1
