# generated using pymatgen
data_Na5Mg3TiP3(SO8)3
_symmetry_space_group_name_H-M   'P 1'
_cell_length_a   8.83376094
_cell_length_b   8.82827107
_cell_length_c   22.16642799
_cell_angle_alpha   90.23178875
_cell_angle_beta   89.96084082
_cell_angle_gamma   119.88196946
_symmetry_Int_Tables_number   1
_chemical_formula_structural   Na5Mg3TiP3(SO8)3
_chemical_formula_sum   'Na15 Mg9 Ti3 P9 S9 O72'
_cell_volume   1498.85245597
_cell_formula_units_Z   3
loop_
 _symmetry_equiv_pos_site_id
 _symmetry_equiv_pos_as_xyz
  1  'x, y, z'
loop_
 _atom_site_type_symbol
 _atom_site_label
 _atom_site_symmetry_multiplicity
 _atom_site_fract_x
 _atom_site_fract_y
 _atom_site_fract_z
 _atom_site_occupancy
  Na  Na0  1  0.00069698  0.63610427  0.25474125  1
  Na  Na1  1  0.30232684  0.33931264  0.58722262  1
  Na  Na2  1  0.02848561  0.69377194  0.58120602  1
  Na  Na3  1  0.66865464  0.96107890  0.58013236  1
  Na  Na4  1  0.66690382  0.69899769  0.08211713  1
  Na  Na5  1  0.03375435  0.33856984  0.08462559  1
  Na  Na6  1  0.98114832  0.67892195  0.91265221  1
  Na  Na7  1  0.32632624  0.29669260  0.90925288  1
  Na  Na8  1  0.69745912  0.67578841  0.41786968  1
  Na  Na9  1  0.99964471  0.00443926  0.49486697  1
  Na  Na10  1  0.00126889  0.99587076  0.99576570  1
  Na  Na11  1  0.65899314  0.32012505  0.82405442  1
  Na  Na12  1  0.65367654  0.30456457  0.33351122  1
  Na  Na13  1  0.33700036  0.67900321  0.17094756  1
  Na  Na14  1  0.33325546  0.65701444  0.66738301  1
  Mg  Mg15  1  0.00198818  0.00563702  0.35302771  1
  Mg  Mg16  1  -0.00088208  0.00483941  0.84908583  1
  Mg  Mg17  1  0.99885249  0.00577987  0.65198879  1
  Mg  Mg18  1  0.00451299  0.99538238  0.15107008  1
  Mg  Mg19  1  0.66582658  0.33998579  0.68604084  1
  Mg  Mg20  1  0.66442562  0.32943161  0.18628708  1
  Mg  Mg21  1  0.32951270  0.67255479  0.01607663  1
  Mg  Mg22  1  0.33335530  0.66748074  0.51377813  1
  Mg  Mg23  1  0.33614634  0.67358458  0.32025188  1
  Ti  Ti24  1  0.67345528  0.33737645  0.97598478  1
  Ti  Ti25  1  0.68686303  0.33793359  0.47872255  1
  Ti  Ti26  1  0.33513160  0.66271159  0.81424105  1
  P  P27  1  0.29782973  0.29505680  0.75142356  1
  P  P28  1  0.96102584  0.33505388  0.58561348  1
  P  P29  1  0.66512308  0.62396604  0.58315967  1
  P  P30  1  0.96044434  0.62600922  0.08468596  1
  P  P31  1  0.62626158  0.67196648  0.91958475  1
  P  P32  1  0.04354398  0.37331880  0.91848898  1
  P  P33  1  0.33573283  0.95765097  0.91711588  1
  P  P34  1  0.62825403  0.96255070  0.41807264  1
  P  P35  1  0.04156603  0.67083344  0.41662333  1
  S  S36  1  0.29563483  0.00141937  0.25029882  1
  S  S37  1  0.70030390  0.70397348  0.24925904  1
  S  S38  1  0.00208425  0.29472606  0.24869919  1
  S  S39  1  0.00299122  0.70521753  0.75119877  1
  S  S40  1  0.70174435  0.99772332  0.75039971  1
  S  S41  1  0.37762811  0.04373577  0.58368117  1
  S  S42  1  0.66347498  0.04261130  0.08341813  1
  S  S43  1  0.37491370  0.33072946  0.08292637  1
  S  S44  1  0.33395574  0.37009024  0.41758711  1
  O  O45  1  0.21073513  0.02290711  0.30389212  1
  O  O46  1  0.81356292  0.78938008  0.30234855  1
  O  O47  1  0.98301198  0.18642567  0.30069018  1
  O  O48  1  0.21034034  0.19010498  0.80829329  1
  O  O49  1  0.98230997  0.78882069  0.80608092  1
  O  O50  1  0.80880418  0.01777182  0.80331672  1
  O  O51  1  0.77383462  0.96731045  0.69419776  1
  O  O52  1  0.18933698  0.22256051  0.69350259  1
  O  O53  1  0.02776456  0.80964092  0.69643060  1
  O  O54  1  0.78198849  0.80711573  0.19317035  1
  O  O55  1  0.01995291  0.21488408  0.19128350  1
  O  O56  1  0.18658309  0.97284077  0.19540275  1
  O  O57  1  0.87149511  0.36277166  0.63911195  1
  O  O58  1  0.48503433  0.12188483  0.63733927  1
  O  O59  1  0.63177894  0.50583032  0.63678334  1
  O  O60  1  0.87174145  0.51181357  0.13962257  1
  O  O61  1  0.64111556  0.12383091  0.13719571  1
  O  O62  1  0.48504053  0.35492328  0.13522415  1
  O  O63  1  0.45652784  0.30874166  0.02640011  1
  O  O64  1  0.83661339  0.52388072  0.02702544  1
  O  O65  1  0.68757866  0.15397408  0.02885581  1
  O  O66  1  0.45998707  0.15431757  0.52944701  1
  O  O67  1  0.69078233  0.53275997  0.52494323  1
  O  O68  1  0.84064204  0.30968909  0.52778671  1
  O  O69  1  0.54785166  0.69161942  0.97797003  1
  O  O70  1  0.14880832  0.45001750  0.97615189  1
  O  O71  1  0.30057348  0.84584063  0.97251751  1
  O  O72  1  0.55207748  0.85395213  0.47573826  1
  O  O73  1  0.31097691  0.44746323  0.47373293  1
  O  O74  1  0.14365253  0.69004668  0.47420672  1
  O  O75  1  0.11341137  0.63470323  0.35891653  1
  O  O76  1  0.51457257  0.88129544  0.36274100  1
  O  O77  1  0.36694651  0.48560976  0.36524712  1
  O  O78  1  0.13076920  0.50098809  0.86471284  1
  O  O79  1  0.36624397  0.87076389  0.86116934  1
  O  O80  1  0.50063715  0.63384165  0.86525314  1
  O  O81  1  0.00430045  0.82282803  0.41112299  1
  O  O82  1  0.81288711  0.98711401  0.41092980  1
  O  O83  1  0.18197836  0.19543138  0.41020286  1
  O  O84  1  0.01805119  0.19193772  0.90951731  1
  O  O85  1  0.17863095  0.98678406  0.90924082  1
  O  O86  1  0.81229338  0.81900595  0.90995835  1
  O  O87  1  0.97451561  0.16701125  0.58653709  1
  O  O88  1  0.20007939  0.02494412  0.58859600  1
  O  O89  1  0.83450926  0.80521053  0.58731319  1
  O  O90  1  0.96514109  0.80298491  0.08553539  1
  O  O91  1  0.82743522  0.03065045  0.08609896  1
  O  O92  1  0.19621926  0.17780381  0.08696054  1
  O  O93  1  0.67887114  0.15120640  0.74516944  1
  O  O94  1  0.48217021  0.32323063  0.74675675  1
  O  O95  1  0.85112423  0.52830694  0.74678068  1
  O  O96  1  0.68952268  0.52927153  0.24408898  1
  O  O97  1  0.84452347  0.31741885  0.24555724  1
  O  O98  1  0.47136819  0.15690724  0.24395003  1
  O  O99  1  0.63762305  0.49413734  0.92393112  1
  O  O100  1  0.85761107  0.36283138  0.92407491  1
  O  O101  1  0.50314715  0.14714712  0.92518412  1
  O  O102  1  0.64515155  0.14998168  0.42700948  1
  O  O103  1  0.49752537  0.35619254  0.42291689  1
  O  O104  1  0.84798101  0.49946690  0.42377986  1
  O  O105  1  0.35969370  0.49221646  0.07870380  1
  O  O106  1  0.13893022  0.63921643  0.07742198  1
  O  O107  1  0.51373020  0.86378661  0.07742069  1
  O  O108  1  0.35515610  0.86553473  0.57713601  1
  O  O109  1  0.50407808  0.64808917  0.57615028  1
  O  O110  1  0.14303709  0.49720367  0.57716868  1
  O  O111  1  0.30923918  0.83918527  0.25454316  1
  O  O112  1  0.52535378  0.68294390  0.25502270  1
  O  O113  1  0.15829364  0.47350415  0.25304309  1
  O  O114  1  0.31495238  0.48675944  0.76202973  1
  O  O115  1  0.16641252  0.69003435  0.75726718  1
  O  O116  1  0.52271762  0.83517872  0.75770339  1
