# generated using pymatgen
data_Na8Ca2Nb2Si5SO24
_symmetry_space_group_name_H-M   'P 1'
_cell_length_a   9.40749049
_cell_length_b   9.37544078
_cell_length_c   22.81949050
_cell_angle_alpha   89.60958215
_cell_angle_beta   90.86393082
_cell_angle_gamma   119.96912941
_symmetry_Int_Tables_number   1
_chemical_formula_structural   Na8Ca2Nb2Si5SO24
_chemical_formula_sum   'Na24 Ca6 Nb6 Si15 S3 O72'
_cell_volume   1743.36189651
_cell_formula_units_Z   3
loop_
 _symmetry_equiv_pos_site_id
 _symmetry_equiv_pos_as_xyz
  1  'x, y, z'
loop_
 _atom_site_type_symbol
 _atom_site_label
 _atom_site_symmetry_multiplicity
 _atom_site_fract_x
 _atom_site_fract_y
 _atom_site_fract_z
 _atom_site_occupancy
  Na  Na0  1  0.64900624  0.03201475  0.24437245  1
  Na  Na1  1  0.36760595  0.34243645  0.25172398  1
  Na  Na2  1  0.98358565  0.62247600  0.24449178  1
  Na  Na3  1  0.62466445  0.63984324  0.76007073  1
  Na  Na4  1  0.01153825  0.37328589  0.75899206  1
  Na  Na5  1  0.36047347  0.98713280  0.75127031  1
  Na  Na6  1  0.29317016  0.35193784  0.57978291  1
  Na  Na7  1  0.05104659  0.70248953  0.58682868  1
  Na  Na8  1  0.64719425  0.94376390  0.57889567  1
  Na  Na9  1  0.31614368  0.95990908  0.08547386  1
  Na  Na10  1  0.66268817  0.70582328  0.07108892  1
  Na  Na11  1  0.03049679  0.34963051  0.07580507  1
  Na  Na12  1  0.97887812  0.67642856  0.90223088  1
  Na  Na13  1  0.71621594  0.01422180  0.91079222  1
  Na  Na14  1  0.32507136  0.31482847  0.90624198  1
  Na  Na15  1  0.97667085  0.28364659  0.41096645  1
  Na  Na16  1  0.32596856  0.03449558  0.40572231  1
  Na  Na17  1  0.69945881  0.68485174  0.41190903  1
  Na  Na18  1  0.99937674  0.01541824  0.49778776  1
  Na  Na19  1  0.98304386  0.99706281  0.99234316  1
  Na  Na20  1  0.67075499  0.34378615  0.83067645  1
  Na  Na21  1  0.66542536  0.32994557  0.32329087  1
  Na  Na22  1  0.33074444  0.68191607  0.16002243  1
  Na  Na23  1  0.33294869  0.66548845  0.67014529  1
  Ca  Ca24  1  0.00007952  0.00168205  0.34964906  1
  Ca  Ca25  1  0.99719665  0.99970049  0.84401758  1
  Ca  Ca26  1  0.67053038  0.33348663  0.18197028  1
  Ca  Ca27  1  0.33619584  0.66687893  0.01225691  1
  Ca  Ca28  1  0.33434933  0.66540716  0.52223325  1
  Ca  Ca29  1  0.33113726  0.65477387  0.81449802  1
  Nb  Nb30  1  0.99638226  0.99998336  0.64757787  1
  Nb  Nb31  1  0.98734028  0.99300308  0.15373702  1
  Nb  Nb32  1  0.66778597  0.33493467  0.68490521  1
  Nb  Nb33  1  0.69487830  0.34686653  0.98463881  1
  Nb  Nb34  1  0.65154067  0.32259215  0.48279082  1
  Nb  Nb35  1  0.35403375  0.67248148  0.31074349  1
  Si  Si36  1  0.29269526  0.99110201  0.25352325  1
  Si  Si37  1  0.69936430  0.70065681  0.25428090  1
  Si  Si38  1  0.00938878  0.30496295  0.25351721  1
  Si  Si39  1  0.30158012  0.29165300  0.74759802  1
  Si  Si40  1  0.99485746  0.70004649  0.74735636  1
  Si  Si41  1  0.70466304  0.00664693  0.74718024  1
  Si  Si42  1  0.94625661  0.32349634  0.58396755  1
  Si  Si43  1  0.36641925  0.04684682  0.58575715  1
  Si  Si44  1  0.67761794  0.62693524  0.58309441  1
  Si  Si45  1  0.97345511  0.64743616  0.08869115  1
  Si  Si46  1  0.67074051  0.03340105  0.08784954  1
  Si  Si47  1  0.64070339  0.65990402  0.91991705  1
  Si  Si48  1  0.02970518  0.36058985  0.91948387  1
  Si  Si49  1  0.62806709  0.96845965  0.42084780  1
  Si  Si50  1  0.33998102  0.37356566  0.42026683  1
  S  S51  1  0.36263688  0.32268891  0.08381055  1
  S  S52  1  0.34469238  0.98197091  0.91915904  1
  S  S53  1  0.03374067  0.65560536  0.41676125  1
  O  O54  1  0.22002051  0.01768981  0.31199033  1
  O  O55  1  0.80089454  0.76938514  0.31314683  1
  O  O56  1  0.97939623  0.20079182  0.31169749  1
  O  O57  1  0.24476266  0.18555474  0.80686367  1
  O  O58  1  0.95050967  0.75893925  0.80656755  1
  O  O59  1  0.80953439  0.05301339  0.80704024  1
  O  O60  1  0.81800576  0.99114902  0.69188297  1
  O  O61  1  0.17067862  0.17648859  0.69202245  1
  O  O62  1  0.00577403  0.82730814  0.69149795  1
  O  O63  1  0.80327903  0.83392910  0.19704235  1
  O  O64  1  0.03000912  0.19448945  0.19607980  1
  O  O65  1  0.16050709  0.96920309  0.19552881  1
  O  O66  1  0.84283992  0.33535266  0.63873633  1
  O  O67  1  0.48952540  0.15248273  0.63921893  1
  O  O68  1  0.66570581  0.50829559  0.63791202  1
  O  O69  1  0.88986410  0.54093105  0.14509482  1
  O  O70  1  0.63787572  0.10484421  0.14574808  1
  O  O71  1  0.45541845  0.34330800  0.13814605  1
  O  O72  1  0.45080023  0.30652266  0.03235806  1
  O  O73  1  0.84561224  0.53367077  0.03023618  1
  O  O74  1  0.69083258  0.16483177  0.03179136  1
  O  O75  1  0.46720156  0.16659759  0.52574745  1
  O  O76  1  0.69483205  0.52474716  0.52490121  1
  O  O77  1  0.82491498  0.30235909  0.52483181  1
  O  O78  1  0.56135996  0.69059659  0.97709625  1
  O  O79  1  0.12366796  0.44262176  0.97991327  1
  O  O80  1  0.32419381  0.88277552  0.97198078  1
  O  O81  1  0.54334377  0.86635549  0.47827199  1
  O  O82  1  0.30657711  0.44889893  0.47714013  1
  O  O83  1  0.12794586  0.67648919  0.47104256  1
  O  O84  1  0.12059188  0.64056826  0.36447317  1
  O  O85  1  0.50171409  0.86097979  0.36096466  1
  O  O86  1  0.36366106  0.50494459  0.36135148  1
  O  O87  1  0.09029201  0.47558030  0.86128967  1
  O  O88  1  0.37072531  0.90703168  0.86628236  1
  O  O89  1  0.52835366  0.61532999  0.86041510  1
  O  O90  1  0.00738426  0.79822047  0.41247476  1
  O  O91  1  0.81042433  0.99409266  0.41598787  1
  O  O92  1  0.19418277  0.18544215  0.41410624  1
  O  O93  1  0.00306583  0.17638443  0.91629086  1
  O  O94  1  0.19880779  0.00179538  0.91384541  1
  O  O95  1  0.83036887  0.80830282  0.91709328  1
  O  O96  1  0.95661424  0.15177469  0.58709030  1
  O  O97  1  0.18887264  0.04236501  0.58698209  1
  O  O98  1  0.84936885  0.80825169  0.58605563  1
  O  O99  1  0.97109490  0.82601842  0.08979228  1
  O  O100  1  0.85337850  0.03731622  0.09094402  1
  O  O101  1  0.19794305  0.16607622  0.08579958  1
  O  O102  1  0.68203246  0.17000114  0.73630831  1
  O  O103  1  0.48875832  0.31935599  0.73627819  1
  O  O104  1  0.83310383  0.51224254  0.73692853  1
  O  O105  1  0.65020266  0.51392386  0.24316369  1
  O  O106  1  0.85863669  0.33882357  0.24574607  1
  O  O107  1  0.47432575  0.14442906  0.24456229  1
  O  O108  1  0.64088365  0.47720375  0.93252768  1
  O  O109  1  0.83430153  0.33925272  0.92802264  1
  O  O110  1  0.49580076  0.15007875  0.92618709  1
  O  O111  1  0.63240324  0.15228004  0.42093104  1
  O  O112  1  0.52264184  0.37715304  0.42192630  1
  O  O113  1  0.86915721  0.49849772  0.41834482  1
  O  O114  1  0.33736809  0.46618482  0.07847635  1
  O  O115  1  0.15606610  0.67715182  0.08043077  1
  O  O116  1  0.52155871  0.84731899  0.07961994  1
  O  O117  1  0.34669360  0.86723994  0.58480575  1
  O  O118  1  0.51640614  0.64411583  0.58517289  1
  O  O119  1  0.12338165  0.48684889  0.58429465  1
  O  O120  1  0.29291244  0.81077995  0.25673376  1
  O  O121  1  0.52398061  0.71112599  0.25517388  1
  O  O122  1  0.18932628  0.48412942  0.25666689  1
  O  O123  1  0.30706772  0.46618074  0.74364214  1
  O  O124  1  0.16260365  0.69359549  0.74379884  1
  O  O125  1  0.52747322  0.84139706  0.74448531  1
