# generated using pymatgen
data_Na7La3MgSi3(SO8)3
_symmetry_space_group_name_H-M   'P 1'
_cell_length_a   9.66214447
_cell_length_b   9.59931768
_cell_length_c   23.83539477
_cell_angle_alpha   89.66812306
_cell_angle_beta   89.91497193
_cell_angle_gamma   119.66474211
_symmetry_Int_Tables_number   1
_chemical_formula_structural   Na7La3MgSi3(SO8)3
_chemical_formula_sum   'Na21 La9 Mg3 Si9 S9 O72'
_cell_volume   1920.92947447
_cell_formula_units_Z   3
loop_
 _symmetry_equiv_pos_site_id
 _symmetry_equiv_pos_as_xyz
  1  'x, y, z'
loop_
 _atom_site_type_symbol
 _atom_site_label
 _atom_site_symmetry_multiplicity
 _atom_site_fract_x
 _atom_site_fract_y
 _atom_site_fract_z
 _atom_site_occupancy
  Na  Na0  1  0.64177140  0.99897309  0.24034732  1
  Na  Na1  1  0.40192391  0.38003383  0.23662367  1
  Na  Na2  1  0.97270187  0.62860737  0.25523798  1
  Na  Na3  1  0.62377022  0.62103186  0.73460104  1
  Na  Na4  1  0.98710809  0.34012056  0.74685696  1
  Na  Na5  1  0.39567904  0.03296607  0.75391049  1
  Na  Na6  1  0.00996950  0.69541694  0.57623571  1
  Na  Na7  1  0.66964788  0.94858386  0.58740885  1
  Na  Na8  1  0.32397702  0.99394262  0.08154173  1
  Na  Na9  1  0.65495952  0.69655453  0.09654751  1
  Na  Na10  1  0.68402314  0.03478788  0.91633950  1
  Na  Na11  1  0.33837347  0.28600063  0.91948386  1
  Na  Na12  1  0.95544410  0.29228736  0.40736242  1
  Na  Na13  1  0.32269304  0.00990150  0.41205502  1
  Na  Na14  1  0.72591628  0.69222004  0.41425877  1
  Na  Na15  1  0.97721531  0.97292987  0.49013924  1
  Na  Na16  1  0.01971030  0.01767250  0.00526772  1
  Na  Na17  1  0.64525154  0.30867570  0.82585920  1
  Na  Na18  1  0.68272408  0.34994826  0.32866964  1
  Na  Na19  1  0.35522960  0.66030952  0.16111297  1
  Na  Na20  1  0.36086360  0.64984314  0.66796329  1
  La  La21  1  0.01178708  0.00391208  0.84419656  1
  La  La22  1  0.00032482  0.00750260  0.65338137  1
  La  La23  1  0.98901206  0.01118903  0.14956282  1
  La  La24  1  0.66107209  0.32246623  0.98984778  1
  La  La25  1  0.67037979  0.34605480  0.48469915  1
  La  La26  1  0.32936859  0.67107083  0.02106822  1
  La  La27  1  0.34837600  0.66883640  0.51456421  1
  La  La28  1  0.34434593  0.67791604  0.32012660  1
  La  La29  1  0.34079948  0.67923952  0.81734206  1
  Mg  Mg30  1  0.96698157  0.96115799  0.35137555  1
  Mg  Mg31  1  0.64765759  0.33484592  0.68463563  1
  Mg  Mg32  1  0.65859605  0.33531437  0.17468184  1
  Si  Si33  1  0.70092245  0.68737779  0.25052601  1
  Si  Si34  1  0.31541757  0.31015895  0.75031877  1
  Si  Si35  1  0.69475079  0.01379360  0.74775964  1
  Si  Si36  1  0.66899392  0.63402225  0.58804527  1
  Si  Si37  1  0.66126790  0.03302058  0.08807539  1
  Si  Si38  1  0.37076185  0.33413768  0.08631069  1
  Si  Si39  1  0.33249148  0.97810475  0.91714417  1
  Si  Si40  1  0.65166241  0.97874371  0.41502501  1
  Si  Si41  1  0.03314447  0.67642942  0.41609960  1
  S  S42  1  0.29993782  0.00878520  0.25149005  1
  S  S43  1  0.99527808  0.30015572  0.25538173  1
  S  S44  1  0.98956427  0.68112673  0.74608718  1
  S  S45  1  0.96035476  0.33877400  0.58679721  1
  S  S46  1  0.37309994  0.03423798  0.58644987  1
  S  S47  1  0.96005299  0.62722403  0.08952766  1
  S  S48  1  0.63836221  0.66859517  0.91709411  1
  S  S49  1  0.02808453  0.35997034  0.91449862  1
  S  S50  1  0.31932782  0.34745403  0.41305965  1
  O  O51  1  0.21728708  0.02245259  0.30198476  1
  O  O52  1  0.81057317  0.77855869  0.30582106  1
  O  O53  1  0.98435572  0.20349573  0.30587674  1
  O  O54  1  0.23793685  0.20504725  0.80862694  1
  O  O55  1  0.96637397  0.76180722  0.79532698  1
  O  O56  1  0.80432202  0.03585595  0.80427644  1
  O  O57  1  0.77620498  0.97399851  0.69375229  1
  O  O58  1  0.18710975  0.21338681  0.70058513  1
  O  O59  1  0.02151081  0.78399238  0.69557101  1
  O  O60  1  0.77965430  0.80091444  0.19451709  1
  O  O61  1  0.02297670  0.22821010  0.20490492  1
  O  O62  1  0.20587156  0.99022427  0.20031942  1
  O  O63  1  0.87036904  0.34528404  0.63560509  1
  O  O64  1  0.47146056  0.12526678  0.63465537  1
  O  O65  1  0.66418538  0.52622788  0.64185999  1
  O  O66  1  0.87336053  0.53000283  0.13912965  1
  O  O67  1  0.65740678  0.13803531  0.14171054  1
  O  O68  1  0.48399563  0.35313674  0.14020089  1
  O  O69  1  0.44821971  0.31978566  0.02610389  1
  O  O70  1  0.87367858  0.55411073  0.03702802  1
  O  O71  1  0.67768355  0.12178147  0.02727715  1
  O  O72  1  0.44307093  0.11858949  0.53257152  1
  O  O73  1  0.68159066  0.55594908  0.52788269  1
  O  O74  1  0.87346029  0.32419032  0.53343484  1
  O  O75  1  0.55227075  0.68068496  0.96700939  1
  O  O76  1  0.12960662  0.44776879  0.96285082  1
  O  O77  1  0.32390721  0.87299095  0.97301741  1
  O  O78  1  0.56544830  0.86206485  0.47059009  1
  O  O79  1  0.29810015  0.42819732  0.46275800  1
  O  O80  1  0.14086589  0.69463603  0.47294777  1
  O  O81  1  0.11563324  0.64102121  0.36164360  1
  O  O82  1  0.53444524  0.89555820  0.36095877  1
  O  O83  1  0.35229965  0.45139232  0.36284339  1
  O  O84  1  0.10423891  0.44440948  0.86138514  1
  O  O85  1  0.34521428  0.88934361  0.85982582  1
  O  O86  1  0.54223259  0.64957441  0.86584076  1
  O  O87  1  0.02604575  0.84438672  0.41023387  1
  O  O88  1  0.82899079  0.99524633  0.40851355  1
  O  O89  1  0.17484251  0.18988411  0.40657559  1
  O  O90  1  0.01157387  0.19589643  0.91544887  1
  O  O91  1  0.17805706  0.00814298  0.91742182  1
  O  O92  1  0.79333617  0.81981780  0.91361135  1
  O  O93  1  0.97926291  0.19378087  0.58806592  1
  O  O94  1  0.20647570  0.00376203  0.58962227  1
  O  O95  1  0.83582370  0.81483085  0.58592761  1
  O  O96  1  0.97821667  0.79116315  0.09164847  1
  O  O97  1  0.80472201  0.98609093  0.08637946  1
  O  O98  1  0.19945988  0.16269925  0.08824499  1
  O  O99  1  0.68431784  0.17886513  0.73944925  1
  O  O100  1  0.49120604  0.32481755  0.74327750  1
  O  O101  1  0.84611026  0.52174136  0.74050782  1
  O  O102  1  0.68833083  0.50780799  0.24487800  1
  O  O103  1  0.84501046  0.30783858  0.25016794  1
  O  O104  1  0.46281277  0.15276881  0.24768638  1
  O  O105  1  0.65759740  0.52567009  0.92029904  1
  O  O106  1  0.86662494  0.34109670  0.91784214  1
  O  O107  1  0.50084260  0.15534887  0.91559098  1
  O  O108  1  0.66689422  0.15704100  0.42041491  1
  O  O109  1  0.46082937  0.32488452  0.41997269  1
  O  O110  1  0.84923802  0.52106663  0.41882189  1
  O  O111  1  0.35920502  0.50080008  0.08496513  1
  O  O112  1  0.12345791  0.64746471  0.08840901  1
  O  O113  1  0.48924004  0.85782625  0.08877327  1
  O  O114  1  0.36512225  0.87326796  0.58592853  1
  O  O115  1  0.51439523  0.66638192  0.58776789  1
  O  O116  1  0.11858865  0.48883563  0.58459024  1
  O  O117  1  0.31792572  0.86135325  0.25430455  1
  O  O118  1  0.51584557  0.66275458  0.25295062  1
  O  O119  1  0.13379109  0.46705256  0.25780183  1
  O  O120  1  0.33303528  0.49077174  0.75183200  1
  O  O121  1  0.13106105  0.65949849  0.75347505  1
  O  O122  1  0.51229284  0.85563988  0.75157789  1
