# generated using pymatgen
data_NaYZn(SO4)3
_symmetry_space_group_name_H-M   'P 1'
_cell_length_a   8.95417325
_cell_length_b   8.95417294
_cell_length_c   23.64623321
_cell_angle_alpha   90.00000000
_cell_angle_beta   90.00000000
_cell_angle_gamma   120.00000111
_symmetry_Int_Tables_number   1
_chemical_formula_structural   NaYZn(SO4)3
_chemical_formula_sum   'Na6 Y6 Zn6 S18 O72'
_cell_volume   1641.88814266
_cell_formula_units_Z   6
loop_
 _symmetry_equiv_pos_site_id
 _symmetry_equiv_pos_as_xyz
  1  'x, y, z'
loop_
 _atom_site_type_symbol
 _atom_site_label
 _atom_site_symmetry_multiplicity
 _atom_site_fract_x
 _atom_site_fract_y
 _atom_site_fract_z
 _atom_site_occupancy
  Na  Na0  1  0.00000000  0.00000000  0.49438052  1
  Na  Na1  1  0.00000000  0.00000000  0.99438052  1
  Na  Na2  1  0.66666700  0.33333300  0.82771352  1
  Na  Na3  1  0.66666700  0.33333300  0.32771352  1
  Na  Na4  1  0.33333300  0.66666700  0.16104752  1
  Na  Na5  1  0.33333300  0.66666700  0.66104752  1
  Y  Y6  1  0.00000000  0.00000000  0.64791430  1
  Y  Y7  1  0.00000000  0.00000000  0.14791430  1
  Y  Y8  1  0.66666700  0.33333300  0.98124730  1
  Y  Y9  1  0.66666700  0.33333300  0.48124730  1
  Y  Y10  1  0.33333300  0.66666700  0.31458130  1
  Y  Y11  1  0.33333300  0.66666700  0.81458130  1
  Zn  Zn12  1  0.00000000  0.00000000  0.34865642  1
  Zn  Zn13  1  0.00000000  0.00000000  0.84865642  1
  Zn  Zn14  1  0.66666700  0.33333300  0.68198942  1
  Zn  Zn15  1  0.66666700  0.33333300  0.18198942  1
  Zn  Zn16  1  0.33333300  0.66666700  0.01532342  1
  Zn  Zn17  1  0.33333300  0.66666700  0.51532342  1
  S  S18  1  0.30023866  0.01048728  0.25104939  1
  S  S19  1  0.71024863  0.69976134  0.25104939  1
  S  S20  1  0.98951272  0.28975137  0.25104939  1
  S  S21  1  0.30023866  0.28975137  0.75104939  1
  S  S22  1  0.98951272  0.69976134  0.75104939  1
  S  S23  1  0.71024863  0.01048728  0.75104939  1
  S  S24  1  0.96690566  0.34382028  0.58438239  1
  S  S25  1  0.37691563  0.03309434  0.58438239  1
  S  S26  1  0.65617972  0.62308437  0.58438239  1
  S  S27  1  0.96690566  0.62308437  0.08438239  1
  S  S28  1  0.65617972  0.03309434  0.08438239  1
  S  S29  1  0.37691563  0.34382028  0.08438239  1
  S  S30  1  0.63357166  0.67715428  0.91771639  1
  S  S31  1  0.04358163  0.36642834  0.91771639  1
  S  S32  1  0.32284572  0.95641837  0.91771639  1
  S  S33  1  0.63357166  0.95641837  0.41771639  1
  S  S34  1  0.32284572  0.36642834  0.41771639  1
  S  S35  1  0.04358163  0.67715428  0.41771639  1
  O  O36  1  0.21573588  0.02909588  0.30224012  1
  O  O37  1  0.81335999  0.78426412  0.30224012  1
  O  O38  1  0.97090412  0.18664001  0.30224012  1
  O  O39  1  0.21573588  0.18664001  0.80224012  1
  O  O40  1  0.97090412  0.78426412  0.80224012  1
  O  O41  1  0.81335999  0.02909588  0.80224012  1
  O  O42  1  0.78833835  0.98347546  0.69960646  1
  O  O43  1  0.19513711  0.21166165  0.69960646  1
  O  O44  1  0.01652454  0.80486289  0.69960646  1
  O  O45  1  0.78833835  0.80486289  0.19960646  1
  O  O46  1  0.01652454  0.21166165  0.19960646  1
  O  O47  1  0.19513711  0.98347546  0.19960646  1
  O  O48  1  0.88240288  0.36242888  0.63557312  1
  O  O49  1  0.48002699  0.11759712  0.63557312  1
  O  O50  1  0.63757112  0.51997301  0.63557312  1
  O  O51  1  0.88240288  0.51997301  0.13557312  1
  O  O52  1  0.63757112  0.11759712  0.13557312  1
  O  O53  1  0.48002699  0.36242888  0.13557312  1
  O  O54  1  0.45500535  0.31680846  0.03293946  1
  O  O55  1  0.86180411  0.54499465  0.03293946  1
  O  O56  1  0.68319154  0.13819589  0.03293946  1
  O  O57  1  0.45500535  0.13819589  0.53293946  1
  O  O58  1  0.68319154  0.54499465  0.53293946  1
  O  O59  1  0.86180411  0.31680846  0.53293946  1
  O  O60  1  0.54906888  0.69576288  0.96890712  1
  O  O61  1  0.14669299  0.45093112  0.96890712  1
  O  O62  1  0.30423712  0.85330701  0.96890712  1
  O  O63  1  0.54906888  0.85330701  0.46890712  1
  O  O64  1  0.30423712  0.45093112  0.46890712  1
  O  O65  1  0.14669299  0.69576288  0.46890712  1
  O  O66  1  0.12167135  0.65014246  0.36627346  1
  O  O67  1  0.52847011  0.87832865  0.36627346  1
  O  O68  1  0.34985754  0.47152989  0.36627346  1
  O  O69  1  0.12167135  0.47152989  0.86627346  1
  O  O70  1  0.34985754  0.87832865  0.86627346  1
  O  O71  1  0.52847011  0.65014246  0.86627346  1
  O  O72  1  0.02552174  0.83256964  0.41163219  1
  O  O73  1  0.80704789  0.97447826  0.41163219  1
  O  O74  1  0.16743036  0.19295211  0.41163219  1
  O  O75  1  0.02552174  0.19295211  0.91163219  1
  O  O76  1  0.16743036  0.97447826  0.91163219  1
  O  O77  1  0.80704789  0.83256964  0.91163219  1
  O  O78  1  0.98518134  0.18670803  0.58848810  1
  O  O79  1  0.20152669  0.01481866  0.58848810  1
  O  O80  1  0.81329197  0.79847331  0.58848810  1
  O  O81  1  0.98518134  0.79847331  0.08848810  1
  O  O82  1  0.81329197  0.01481866  0.08848810  1
  O  O83  1  0.20152669  0.18670803  0.08848810  1
  O  O84  1  0.69218874  0.16590264  0.74496519  1
  O  O85  1  0.47371489  0.30781126  0.74496519  1
  O  O86  1  0.83409736  0.52628511  0.74496519  1
  O  O87  1  0.69218874  0.52628511  0.24496519  1
  O  O88  1  0.83409736  0.30781126  0.24496519  1
  O  O89  1  0.47371489  0.16590264  0.24496519  1
  O  O90  1  0.65184834  0.52004103  0.92182110  1
  O  O91  1  0.86819369  0.34815166  0.92182110  1
  O  O92  1  0.47995897  0.13180631  0.92182110  1
  O  O93  1  0.65184834  0.13180631  0.42182110  1
  O  O94  1  0.47995897  0.34815166  0.42182110  1
  O  O95  1  0.86819369  0.52004103  0.42182110  1
  O  O96  1  0.35885474  0.49923664  0.07829919  1
  O  O97  1  0.14038089  0.64114526  0.07829919  1
  O  O98  1  0.50076336  0.85961911  0.07829919  1
  O  O99  1  0.35885474  0.85961911  0.57829919  1
  O  O100  1  0.50076336  0.64114526  0.57829919  1
  O  O101  1  0.14038089  0.49923664  0.57829919  1
  O  O102  1  0.31851434  0.85337503  0.25515510  1
  O  O103  1  0.53485969  0.68148566  0.25515510  1
  O  O104  1  0.14662497  0.46514031  0.25515510  1
  O  O105  1  0.31851434  0.46514031  0.75515510  1
  O  O106  1  0.14662497  0.68148566  0.75515510  1
  O  O107  1  0.53485969  0.85337503  0.75515510  1
