# generated using pymatgen
data_MgV4(O2F)4
_symmetry_space_group_name_H-M   'P 1'
_cell_length_a   5.16647683
_cell_length_b   9.29139610
_cell_length_c   5.06689325
_cell_angle_alpha   103.06768327
_cell_angle_beta   117.59282424
_cell_angle_gamma   77.03198738
_symmetry_Int_Tables_number   1
_chemical_formula_structural   MgV4(O2F)4
_chemical_formula_sum   'Mg1 V4 O8 F4'
_cell_volume   207.95556704
_cell_formula_units_Z   1
loop_
 _symmetry_equiv_pos_site_id
 _symmetry_equiv_pos_as_xyz
  1  'x, y, z'
loop_
 _atom_site_type_symbol
 _atom_site_label
 _atom_site_symmetry_multiplicity
 _atom_site_fract_x
 _atom_site_fract_y
 _atom_site_fract_z
 _atom_site_occupancy
  Mg  Mg0  1  0.12870373  0.55651721  0.84604624  1
  V  V1  1  0.00131129  0.99215375  0.99444231  1
  V  V2  1  0.70010997  0.76207429  0.24488677  1
  V  V3  1  0.53566993  0.50017837  0.57195174  1
  V  V4  1  0.31103072  0.22507740  0.75256878  1
  O  O5  1  0.39124134  0.88198647  0.21927698  1
  O  O6  1  0.80876207  0.88108543  0.03960462  1
  O  O7  1  0.26750108  0.39052162  0.56060077  1
  O  O8  1  0.72363048  0.62380244  0.49218882  1
  O  O9  1  0.21464038  0.12831502  0.93547026  1
  O  O10  1  0.48608466  0.62924181  0.87460999  1
  O  O11  1  0.63657210  0.13405993  0.77530090  1
  O  O12  1  0.85191945  0.39215432  0.74446035  1
  F  F13  1  0.09787003  0.62898420  0.23037141  1
  F  F14  1  0.04563114  0.13622251  0.36929205  1
  F  F15  1  0.43392565  0.38681049  0.11688890  1
  F  F16  1  0.99039597  0.86887174  0.61953910  1
