# generated using pymatgen
data_Na3AlGa(PO4)3
_symmetry_space_group_name_H-M   'P 1'
_cell_length_a   8.65179212
_cell_length_b   8.65445919
_cell_length_c   21.62483955
_cell_angle_alpha   90.03151793
_cell_angle_beta   89.98760881
_cell_angle_gamma   120.01585411
_symmetry_Int_Tables_number   1
_chemical_formula_structural   Na3AlGa(PO4)3
_chemical_formula_sum   'Na18 Al6 Ga6 P18 O72'
_cell_volume   1402.03890669
_cell_formula_units_Z   6
loop_
 _symmetry_equiv_pos_site_id
 _symmetry_equiv_pos_as_xyz
  1  'x, y, z'
loop_
 _atom_site_type_symbol
 _atom_site_label
 _atom_site_symmetry_multiplicity
 _atom_site_fract_x
 _atom_site_fract_y
 _atom_site_fract_z
 _atom_site_occupancy
  Na  Na0  1  0.00026327  0.99995857  0.49999618  1
  Na  Na1  1  0.00027427  -0.00002417  0.99988166  1
  Na  Na2  1  0.64579910  0.32150135  0.83381728  1
  Na  Na3  1  0.67847040  0.35421502  0.33341639  1
  Na  Na4  1  0.33400481  0.66654836  0.16660345  1
  Na  Na5  1  0.33339684  0.66614898  0.66705864  1
  Na  Na6  1  0.63230319  0.99723546  0.24975087  1
  Na  Na7  1  0.36751647  0.36620716  0.24979782  1
  Na  Na8  1  0.63560778  0.63360609  0.75020803  1
  Na  Na9  1  0.00183127  0.36621848  0.75018113  1
  Na  Na10  1  0.02826271  0.69842155  0.58352620  1
  Na  Na11  1  0.66574208  0.96866941  0.58326773  1
  Na  Na12  1  0.30056613  0.96989215  0.08350758  1
  Na  Na13  1  0.03332101  0.33530786  0.08331358  1
  Na  Na14  1  0.96644045  0.66424678  0.91731668  1
  Na  Na15  1  0.69864923  0.02994037  0.91669503  1
  Na  Na16  1  0.96888641  0.30213147  0.41632186  1
  Na  Na17  1  0.33743227  0.03422159  0.41690957  1
  Al  Al18  1  0.99390242  0.99190669  0.35267026  1
  Al  Al19  1  0.00826015  0.00609758  0.85293657  1
  Al  Al20  1  0.66079843  0.33410302  0.98078926  1
  Al  Al21  1  0.33843728  0.66638690  0.01751901  1
  Al  Al22  1  0.33357491  0.66157489  0.51785393  1
  Al  Al23  1  0.33550752  0.67174789  0.81615628  1
  Ga  Ga24  1  0.00788284  0.00678513  0.65031803  1
  Ga  Ga25  1  0.99291015  0.99189569  0.14849321  1
  Ga  Ga26  1  0.65849031  0.32711380  0.68475666  1
  Ga  Ga27  1  0.67269820  0.34150845  0.18406075  1
  Ga  Ga28  1  0.66532145  0.33942646  0.48224386  1
  Ga  Ga29  1  0.32810790  0.66482698  0.31606577  1
  P  P30  1  0.28595005  0.99574559  0.25072810  1
  P  P31  1  0.71361652  0.71076848  0.25136333  1
  P  P32  1  0.00002411  0.29043630  0.25068632  1
  P  P33  1  0.28934602  0.28953670  0.75242168  1
  P  P34  1  0.00733677  0.71403835  0.75182460  1
  P  P35  1  0.70615778  0.99729584  0.75182553  1
  P  P36  1  0.96350795  0.33553788  0.58277694  1
  P  P37  1  0.37325089  0.04007326  0.58155979  1
  P  P38  1  0.66080933  0.62384975  0.58393222  1
  P  P39  1  0.95648018  0.62284094  0.08040735  1
  P  P40  1  0.66359392  0.03982289  0.08156287  1
  P  P41  1  0.38056412  0.34041586  0.08245067  1
  P  P42  1  0.61901409  0.66286053  0.91597378  1
  P  P43  1  0.04736677  0.37647249  0.91684250  1
  P  P44  1  0.33335811  0.95702383  0.91737310  1
  P  P45  1  0.62643106  0.95370846  0.41713119  1
  P  P46  1  0.33453485  0.37770103  0.41591875  1
  P  P47  1  0.04188093  0.66839421  0.41765541  1
  O  O48  1  0.19856573  0.02933271  0.30773988  1
  O  O49  1  0.83003153  0.80063568  0.30790623  1
  O  O50  1  0.96842843  0.17027983  0.30801289  1
  O  O51  1  0.19936705  0.17019529  0.80792808  1
  O  O52  1  0.97037721  0.80137960  0.80776673  1
  O  O53  1  0.82961940  0.03162164  0.80810105  1
  O  O54  1  0.78178116  0.95750621  0.69234490  1
  O  O55  1  0.17194475  0.21744503  0.69379660  1
  O  O56  1  0.03625830  0.81978831  0.69127459  1
  O  O57  1  0.78708342  0.82809093  0.19301465  1
  O  O58  1  0.03750189  0.21275286  0.19139535  1
  O  O59  1  0.17979608  0.96810255  0.19046323  1
  O  O60  1  0.88481899  0.37668329  0.64127202  1
  O  O61  1  0.49774051  0.11987027  0.63803166  1
  O  O62  1  0.62915922  0.51487450  0.64400513  1
  O  O63  1  0.88063854  0.50279030  0.13800573  1
  O  O64  1  0.62342407  0.11530728  0.14112019  1
  O  O65  1  0.48488478  0.37046124  0.14365459  1
  O  O66  1  0.47082239  0.30185350  0.02827409  1
  O  O67  1  0.84113054  0.53520599  0.02266139  1
  O  O68  1  0.69852232  0.16375461  0.02517584  1
  O  O69  1  0.45213518  0.15126780  0.52256200  1
  O  O70  1  0.70697879  0.54325747  0.52864644  1
  O  O71  1  0.84193731  0.29491661  0.52536639  1
  O  O72  1  0.53401152  0.70317999  0.97116456  1
  O  O73  1  0.16007450  0.46275854  0.97483164  1
  O  O74  1  0.29585007  0.83837665  0.97537097  1
  O  O75  1  0.53702624  0.83952047  0.47489100  1
  O  O76  1  0.29715395  0.46649904  0.47106126  1
  O  O77  1  0.16164503  0.70416807  0.47555310  1
  O  O78  1  0.12124451  0.62524265  0.36113859  1
  O  O79  1  0.50874210  0.87819855  0.35881243  1
  O  O80  1  0.36673166  0.48505683  0.35595030  1
  O  O81  1  0.13044800  0.49722248  0.85946170  1
  O  O82  1  0.37193122  0.87020613  0.86170174  1
  O  O83  1  0.50812966  0.63459833  0.85687851  1
  O  O84  1  0.03037219  0.84010141  0.41001458  1
  O  O85  1  0.81521728  0.97764946  0.41061605  1
  O  O86  1  0.16332609  0.18822850  0.41049289  1
  O  O87  1  0.02018295  0.18618661  0.90971281  1
  O  O88  1  0.16312561  0.97132417  0.90907374  1
  O  O89  1  0.81010348  0.83250047  0.90954410  1
  O  O90  1  0.97558033  0.16444483  0.58926131  1
  O  O91  1  0.18454213  0.01509048  0.58829210  1
  O  O92  1  0.82985658  0.81360897  0.58892261  1
  O  O93  1  0.98054972  0.81190798  0.08613841  1
  O  O94  1  0.83611276  0.02887698  0.08697063  1
  O  O95  1  0.19082704  0.16959099  0.08637128  1
  O  O96  1  0.69537227  0.16997636  0.74588487  1
  O  O97  1  0.47867474  0.31354042  0.74644714  1
  O  O98  1  0.83595261  0.52455559  0.74737545  1
  O  O99  1  0.69015281  0.52188184  0.24617615  1
  O  O100  1  0.82747260  0.30139927  0.24565120  1
  O  O101  1  0.47486575  0.16730239  0.24715914  1
  O  O102  1  0.64480222  0.49898050  0.92370522  1
  O  O103  1  0.85652939  0.35544649  0.92278042  1
  O  O104  1  0.50369611  0.14279383  0.92478544  1
  O  O105  1  0.64843096  0.14396548  0.42232814  1
  O  O106  1  0.49685132  0.35020395  0.42226581  1
  O  O107  1  0.85670246  0.49886152  0.42377678  1
  O  O108  1  0.35454013  0.50309371  0.07406060  1
  O  O109  1  0.14649323  0.64444549  0.07411088  1
  O  O110  1  0.49457604  0.85522391  0.07345040  1
  O  O111  1  0.35409935  0.85107705  0.57541242  1
  O  O112  1  0.49637124  0.64682848  0.57513711  1
  O  O113  1  0.14691658  0.50613038  0.57446236  1
  O  O114  1  0.31347603  0.83339538  0.25595286  1
  O  O115  1  0.52345722  0.68923384  0.25637287  1
  O  O116  1  0.16962626  0.47541651  0.25592142  1
  O  O117  1  0.31095521  0.47970161  0.75931989  1
  O  O118  1  0.16997252  0.68726982  0.75946843  1
  O  O119  1  0.52109809  0.82832177  0.75938163  1
