# generated using pymatgen
data_Cd2As3Br
_symmetry_space_group_name_H-M   'P 1'
_cell_length_a   6.33338479
_cell_length_b   6.33338558
_cell_length_c   8.05956876
_cell_angle_alpha   97.39489425
_cell_angle_beta   97.39490176
_cell_angle_gamma   97.30734477
_symmetry_Int_Tables_number   1
_chemical_formula_structural   Cd2As3Br
_chemical_formula_sum   'Cd4 As6 Br2'
_cell_volume   314.51304755
_cell_formula_units_Z   2
loop_
 _symmetry_equiv_pos_site_id
 _symmetry_equiv_pos_as_xyz
  1  'x, y, z'
loop_
 _atom_site_type_symbol
 _atom_site_label
 _atom_site_symmetry_multiplicity
 _atom_site_fract_x
 _atom_site_fract_y
 _atom_site_fract_z
 _atom_site_occupancy
  Cd  Cd0  1  0.91136829  0.61080508  0.70748220  1
  Cd  Cd1  1  0.38919492  0.08863171  0.79251780  1
  Cd  Cd2  1  0.61080508  0.91136829  0.20748220  1
  Cd  Cd3  1  0.08863171  0.38919492  0.29251780  1
  As  As4  1  0.92085648  0.82607519  0.02819321  1
  As  As5  1  0.17392481  0.07914352  0.47180679  1
  As  As6  1  0.07914352  0.17392481  0.97180679  1
  As  As7  1  0.79063417  0.20936583  0.75000000  1
  As  As8  1  0.20936583  0.79063417  0.25000000  1
  As  As9  1  0.82607519  0.92085648  0.52819321  1
  Br  Br10  1  0.36370384  0.63629616  0.75000000  1
  Br  Br11  1  0.63629616  0.36370384  0.25000000  1
