# generated using pymatgen
data_Na7MgGa3(PO4)6
_symmetry_space_group_name_H-M   'P 1'
_cell_length_a   8.81336866
_cell_length_b   8.81068842
_cell_length_c   21.84781595
_cell_angle_alpha   90.03339403
_cell_angle_beta   90.00593817
_cell_angle_gamma   119.99426644
_symmetry_Int_Tables_number   1
_chemical_formula_structural   Na7MgGa3(PO4)6
_chemical_formula_sum   'Na21 Mg3 Ga9 P18 O72'
_cell_volume   1469.31668309
_cell_formula_units_Z   3
loop_
 _symmetry_equiv_pos_site_id
 _symmetry_equiv_pos_as_xyz
  1  'x, y, z'
loop_
 _atom_site_type_symbol
 _atom_site_label
 _atom_site_symmetry_multiplicity
 _atom_site_fract_x
 _atom_site_fract_y
 _atom_site_fract_z
 _atom_site_occupancy
  Na  Na0  1  0.63629213  0.00356017  0.24792325  1
  Na  Na1  1  0.36661925  0.36336046  0.24792142  1
  Na  Na2  1  0.99630018  0.63231046  0.24746098  1
  Na  Na3  1  0.63377054  0.63045731  0.74887922  1
  Na  Na4  1  0.99738412  0.36650471  0.74920072  1
  Na  Na5  1  0.36940663  0.00294564  0.74899294  1
  Na  Na6  1  0.02988360  0.69760652  0.58395885  1
  Na  Na7  1  0.66546192  0.96896705  0.58372564  1
  Na  Na8  1  0.30337971  0.96897523  0.08388580  1
  Na  Na9  1  0.66822435  0.69721131  0.08402600  1
  Na  Na10  1  0.69872395  0.03366396  0.91847140  1
  Na  Na11  1  0.33255536  0.30045911  0.91815011  1
  Na  Na12  1  0.96737689  0.29741860  0.41532944  1
  Na  Na13  1  0.33035752  0.03333847  0.41551915  1
  Na  Na14  1  0.70281972  0.66969007  0.41530200  1
  Na  Na15  1  0.00636186  0.00699334  0.50059053  1
  Na  Na16  1  0.99993733  0.99976354  0.00123135  1
  Na  Na17  1  0.67310600  0.34056617  0.83463486  1
  Na  Na18  1  0.66678258  0.33335027  0.33091401  1
  Na  Na19  1  0.32621624  0.65913417  0.16459424  1
  Na  Na20  1  0.33255114  0.65929562  0.66504973  1
  Mg  Mg21  1  0.00020754  0.00051155  0.35057832  1
  Mg  Mg22  1  0.66580905  0.33368252  0.68343917  1
  Mg  Mg23  1  0.66835086  0.33391107  0.18257208  1
  Ga  Ga24  1  0.99981829  0.99468107  0.85205911  1
  Ga  Ga25  1  0.00599112  0.00602704  0.64841028  1
  Ga  Ga26  1  0.00061048  0.00633563  0.14887741  1
  Ga  Ga27  1  0.67415947  0.33949990  0.98512002  1
  Ga  Ga28  1  0.66485738  0.33296979  0.48574554  1
  Ga  Ga29  1  0.32628634  0.66096078  0.01790483  1
  Ga  Ga30  1  0.33278166  0.66109912  0.51818724  1
  Ga  Ga31  1  0.33306828  0.66579790  0.31564030  1
  Ga  Ga32  1  0.33109316  0.66540995  0.81865348  1
  P  P33  1  0.29248177  0.99920392  0.25072662  1
  P  P34  1  0.70669073  0.70747465  0.25080019  1
  P  P35  1  0.00064548  0.29280260  0.25124739  1
  P  P36  1  0.28913691  0.29099668  0.75129601  1
  P  P37  1  0.00161800  0.71068960  0.75041786  1
  P  P38  1  0.70904855  0.99817254  0.75082976  1
  P  P39  1  0.96293994  0.33372623  0.58352543  1
  P  P40  1  0.37178114  0.04067700  0.58332490  1
  P  P41  1  0.66345493  0.62561743  0.58378782  1
  P  P42  1  0.96169271  0.62565304  0.08385976  1
  P  P43  1  0.66888506  0.04068515  0.08277981  1
  P  P44  1  0.37108472  0.33369757  0.08288899  1
  P  P45  1  0.62704609  0.66612369  0.91681628  1
  P  P46  1  0.03988489  0.37682748  0.91618156  1
  P  P47  1  0.33080072  0.95695018  0.91685536  1
  P  P48  1  0.62289002  0.95844415  0.41771453  1
  P  P49  1  0.33536013  0.37706409  0.41732981  1
  P  P50  1  0.04162580  0.66461117  0.41779476  1
  O  O51  1  0.21256678  0.03164719  0.30796910  1
  O  O52  1  0.81931286  0.78775851  0.30800848  1
  O  O53  1  0.96750146  0.18199834  0.30898982  1
  O  O54  1  0.20824429  0.17516357  0.80895216  1
  O  O55  1  0.96548988  0.79582168  0.80589052  1
  O  O56  1  0.82650079  0.03296936  0.80794340  1
  O  O57  1  0.78916781  0.96109904  0.69304356  1
  O  O58  1  0.16799316  0.20874308  0.69514301  1
  O  O59  1  0.03921610  0.82649857  0.69211135  1
  O  O60  1  0.78742556  0.82559686  0.19308712  1
  O  O61  1  0.04037377  0.21024780  0.19510193  1
  O  O62  1  0.17416367  0.96157893  0.19300477  1
  O  O63  1  0.88351237  0.36933341  0.64005316  1
  O  O64  1  0.48685756  0.11729638  0.63990981  1
  O  O65  1  0.63559685  0.51739337  0.64091714  1
  O  O66  1  0.88453956  0.51934068  0.14173875  1
  O  O67  1  0.63022228  0.11675035  0.13950167  1
  O  O68  1  0.48560423  0.36974326  0.13966997  1
  O  O69  1  0.45297049  0.29657705  0.02495093  1
  O  O70  1  0.83974772  0.54515277  0.02740781  1
  O  O71  1  0.69774071  0.15213886  0.02416362  1
  O  O72  1  0.45369896  0.15214696  0.52465327  1
  O  O73  1  0.70315046  0.54696015  0.52561801  1
  O  O74  1  0.84416658  0.29643717  0.52545126  1
  O  O75  1  0.54399996  0.70336427  0.97323339  1
  O  O76  1  0.16420086  0.45926973  0.97106964  1
  O  O77  1  0.30227785  0.84408851  0.97402083  1
  O  O78  1  0.53967543  0.84126844  0.47464748  1
  O  O79  1  0.29899227  0.46217996  0.47259724  1
  O  O80  1  0.15932185  0.69943208  0.47469119  1
  O  O81  1  0.12171458  0.62767967  0.36019217  1
  O  O82  1  0.50571054  0.87798618  0.36013173  1
  O  O83  1  0.37348150  0.49301512  0.35919439  1
  O  O84  1  0.11909712  0.48580508  0.85705219  1
  O  O85  1  0.36954135  0.87832104  0.85886467  1
  O  O86  1  0.50955672  0.62961793  0.85876646  1
  O  O87  1  0.02161290  0.82771690  0.41258772  1
  O  O88  1  0.80580823  0.97811497  0.41263907  1
  O  O89  1  0.17279873  0.19374394  0.41223937  1
  O  O90  1  0.02214863  0.19078101  0.91043222  1
  O  O91  1  0.16930101  0.98193809  0.91058066  1
  O  O92  1  0.80761810  0.83578887  0.91005843  1
  O  O93  1  0.97386071  0.16337656  0.58880728  1
  O  O94  1  0.18463982  0.01551483  0.58843150  1
  O  O95  1  0.83257812  0.81224114  0.58814641  1
  O  O96  1  0.98028185  0.81281030  0.08846776  1
  O  O97  1  0.83058731  0.01512953  0.08831882  1
  O  O98  1  0.18972327  0.16379987  0.08853379  1
  O  O99  1  0.68894972  0.16103993  0.74536183  1
  O  O100  1  0.47178249  0.31075493  0.74550258  1
  O  O101  1  0.83943011  0.52744912  0.74519799  1
  O  O102  1  0.68411736  0.52367111  0.24450506  1
  O  O103  1  0.83907836  0.31461173  0.24441505  1
  O  O104  1  0.47601740  0.16082026  0.24421796  1
  O  O105  1  0.63906061  0.49751230  0.92295192  1
  O  O106  1  0.85383044  0.35136233  0.92263927  1
  O  O107  1  0.49815896  0.14243017  0.92196898  1
  O  O108  1  0.64053595  0.14358835  0.42313337  1
  O  O109  1  0.50317817  0.36003013  0.42328951  1
  O  O110  1  0.85668522  0.49694910  0.42339133  1
  O  O111  1  0.35855175  0.50268170  0.07503752  1
  O  O112  1  0.14900893  0.65225915  0.07588491  1
  O  O113  1  0.50131068  0.85374534  0.07570808  1
  O  O114  1  0.35259909  0.85414697  0.57635509  1
  O  O115  1  0.50337383  0.65271495  0.57637223  1
  O  O116  1  0.14408373  0.50219045  0.57589886  1
  O  O117  1  0.30894305  0.82987241  0.25577023  1
  O  O118  1  0.52109293  0.69140946  0.25569813  1
  O  O119  1  0.16979389  0.47904041  0.25600902  1
  O  O120  1  0.30756767  0.47675920  0.75652821  1
  O  O121  1  0.16970553  0.69386953  0.75627168  1
  O  O122  1  0.52387231  0.83050493  0.75644687  1
