# generated using pymatgen
data_Na6Sc2Nb2Si5SO24
_symmetry_space_group_name_H-M   'P 1'
_cell_length_a   9.14164382
_cell_length_b   9.12735969
_cell_length_c   22.68834946
_cell_angle_alpha   89.74635639
_cell_angle_beta   90.31275853
_cell_angle_gamma   120.08460114
_symmetry_Int_Tables_number   1
_chemical_formula_structural   Na6Sc2Nb2Si5SO24
_chemical_formula_sum   'Na18 Sc6 Nb6 Si15 S3 O72'
_cell_volume   1638.04123523
_cell_formula_units_Z   3
loop_
 _symmetry_equiv_pos_site_id
 _symmetry_equiv_pos_as_xyz
  1  'x, y, z'
loop_
 _atom_site_type_symbol
 _atom_site_label
 _atom_site_symmetry_multiplicity
 _atom_site_fract_x
 _atom_site_fract_y
 _atom_site_fract_z
 _atom_site_occupancy
  Na  Na0  1  0.64248278  0.01496020  0.24799934  1
  Na  Na1  1  0.36658091  0.35306483  0.25222771  1
  Na  Na2  1  0.99099537  0.62845336  0.24843430  1
  Na  Na3  1  0.99282166  0.35707359  0.74948812  1
  Na  Na4  1  0.29764834  0.34236397  0.58067558  1
  Na  Na5  1  0.66115408  0.95941748  0.58039292  1
  Na  Na6  1  0.66687363  0.69993088  0.07647343  1
  Na  Na7  1  0.02094688  0.33655811  0.08054603  1
  Na  Na8  1  0.95573653  0.66396434  0.91262279  1
  Na  Na9  1  0.71341291  0.03618893  0.91840878  1
  Na  Na10  1  0.32935844  0.30487457  0.91314632  1
  Na  Na11  1  0.69940090  0.67452404  0.41679600  1
  Na  Na12  1  0.00883513  0.01229970  0.49461720  1
  Na  Na13  1  0.99208027  0.99624603  0.99704899  1
  Na  Na14  1  0.66402779  0.34139967  0.83117629  1
  Na  Na15  1  0.66170624  0.32072114  0.33240100  1
  Na  Na16  1  0.32928728  0.68752822  0.16139179  1
  Na  Na17  1  0.33033314  0.67634999  0.66075057  1
  Sc  Sc18  1  0.00542887  0.01394009  0.35308444  1
  Sc  Sc19  1  0.99212072  0.99909635  0.84832912  1
  Sc  Sc20  1  0.67406995  0.32852670  0.18472540  1
  Sc  Sc21  1  0.68849380  0.34580769  0.98183323  1
  Sc  Sc22  1  0.33554194  0.67160786  0.01853238  1
  Sc  Sc23  1  0.33531876  0.66390766  0.52162451  1
  Nb  Nb24  1  0.99482613  0.99202595  0.64673952  1
  Nb  Nb25  1  0.99236490  0.99200081  0.15066129  1
  Nb  Nb26  1  0.66597337  0.33533814  0.68706727  1
  Nb  Nb27  1  0.65442234  0.32002847  0.48104140  1
  Nb  Nb28  1  0.34528289  0.67163506  0.31323263  1
  Nb  Nb29  1  0.33490115  0.65285416  0.80731036  1
  Si  Si30  1  0.29047758  0.00041419  0.25205941  1
  Si  Si31  1  0.70803754  0.70444866  0.25360118  1
  Si  Si32  1  0.00200161  0.29433256  0.25029854  1
  Si  Si33  1  0.29151627  0.28119340  0.75079730  1
  Si  Si34  1  0.00088037  0.70954441  0.75240274  1
  Si  Si35  1  0.70456576  0.99897546  0.75034487  1
  Si  Si36  1  0.95680056  0.33481587  0.58454752  1
  Si  Si37  1  0.37197794  0.04054788  0.58560682  1
  Si  Si38  1  0.67113977  0.62351525  0.58171457  1
  Si  Si39  1  0.96663116  0.63339240  0.08452908  1
  Si  Si40  1  0.66448068  0.03527257  0.08397270  1
  Si  Si41  1  0.62605838  0.66562850  0.91837070  1
  Si  Si42  1  0.04388248  0.37349435  0.91728433  1
  Si  Si43  1  0.62850850  0.96071334  0.41981786  1
  Si  Si44  1  0.33235159  0.37106295  0.42007349  1
  S  S45  1  0.37047750  0.32834636  0.08297162  1
  S  S46  1  0.33298968  0.95654219  0.91567399  1
  S  S47  1  0.04220072  0.66387789  0.41634553  1
  O  O48  1  0.20249030  0.03402499  0.30647460  1
  O  O49  1  0.82397914  0.78475379  0.31025589  1
  O  O50  1  0.96138932  0.16658301  0.30405756  1
  O  O51  1  0.21428348  0.18177629  0.81136359  1
  O  O52  1  0.97027262  0.78424098  0.81197153  1
  O  O53  1  0.82144438  0.04235935  0.80874413  1
  O  O54  1  0.79803689  0.97106066  0.69232508  1
  O  O55  1  0.16517616  0.19527789  0.69342603  1
  O  O56  1  0.02462645  0.83527376  0.69541717  1
  O  O57  1  0.79736300  0.83278031  0.19456338  1
  O  O58  1  0.03866974  0.20820333  0.19086248  1
  O  O59  1  0.16193137  0.96565931  0.19380839  1
  O  O60  1  0.86177081  0.35272534  0.64272201  1
  O  O61  1  0.50016655  0.14334884  0.64018469  1
  O  O62  1  0.64852613  0.49931694  0.63755172  1
  O  O63  1  0.87573806  0.51923428  0.14257710  1
  O  O64  1  0.64430984  0.12184018  0.14319059  1
  O  O65  1  0.47234104  0.35039105  0.13625720  1
  O  O66  1  0.44984320  0.30764274  0.02959709  1
  O  O67  1  0.84599713  0.55716883  0.02509540  1
  O  O68  1  0.70113599  0.15464831  0.02513119  1
  O  O69  1  0.46461076  0.16843122  0.52643806  1
  O  O70  1  0.69712672  0.53335326  0.52295301  1
  O  O71  1  0.82520131  0.30236988  0.52823510  1
  O  O72  1  0.54338736  0.69890036  0.97641817  1
  O  O73  1  0.15806706  0.46435876  0.97524702  1
  O  O74  1  0.30744493  0.85362429  0.96920482  1
  O  O75  1  0.53488000  0.84678596  0.47676426  1
  O  O76  1  0.31490248  0.46285786  0.47785812  1
  O  O77  1  0.14473447  0.68256761  0.46855767  1
  O  O78  1  0.12401664  0.64439431  0.36144789  1
  O  O79  1  0.50385982  0.86380206  0.35917113  1
  O  O80  1  0.35952189  0.50047158  0.36023480  1
  O  O81  1  0.14181128  0.49712224  0.85868561  1
  O  O82  1  0.35878677  0.87680826  0.86312472  1
  O  O83  1  0.49831425  0.64783310  0.86111041  1
  O  O84  1  0.01806108  0.81136830  0.41162245  1
  O  O85  1  0.80666102  0.96577553  0.41278061  1
  O  O86  1  0.17468435  0.18321962  0.41382843  1
  O  O87  1  0.02784149  0.18717482  0.91291535  1
  O  O88  1  0.18039563  0.97431229  0.91104441  1
  O  O89  1  0.81596494  0.83008993  0.91265392  1
  O  O90  1  0.96431783  0.15619348  0.58985851  1
  O  O91  1  0.19233152  0.03918190  0.59094293  1
  O  O92  1  0.83963890  0.81289062  0.58924917  1
  O  O93  1  0.97933766  0.82297818  0.09175778  1
  O  O94  1  0.84758062  0.02731773  0.09051256  1
  O  O95  1  0.19671767  0.17816279  0.08767706  1
  O  O96  1  0.68976015  0.16915496  0.74039674  1
  O  O97  1  0.48207136  0.31475562  0.74125167  1
  O  O98  1  0.84062436  0.51666707  0.74169297  1
  O  O99  1  0.67030506  0.51475944  0.24215648  1
  O  O100  1  0.84092958  0.32301971  0.24426508  1
  O  O101  1  0.47858898  0.16081893  0.24323594  1
  O  O102  1  0.62730290  0.48610147  0.91862482  1
  O  O103  1  0.85597530  0.35870170  0.91773857  1
  O  O104  1  0.48588715  0.12772737  0.92155152  1
  O  O105  1  0.64296433  0.14975415  0.42278836  1
  O  O106  1  0.51937195  0.37498644  0.42100677  1
  O  O107  1  0.87087348  0.50758873  0.41908571  1
  O  O108  1  0.35254857  0.48223204  0.07919036  1
  O  O109  1  0.14788267  0.64168358  0.07916834  1
  O  O110  1  0.51253918  0.83873150  0.08092436  1
  O  O111  1  0.36485486  0.86254900  0.58059259  1
  O  O112  1  0.50367948  0.64231603  0.58070236  1
  O  O113  1  0.14569107  0.49361633  0.58101355  1
  O  O114  1  0.30104178  0.82332490  0.25682622  1
  O  O115  1  0.52207238  0.69980939  0.25676143  1
  O  O116  1  0.17616628  0.48176183  0.25736509  1
  O  O117  1  0.30297398  0.47245573  0.75502415  1
  O  O118  1  0.16821736  0.68335947  0.75631469  1
  O  O119  1  0.51588252  0.82996231  0.75726051  1
