# generated using pymatgen
data_KSiH3
_symmetry_space_group_name_H-M   'P 1'
_cell_length_a   5.30126752
_cell_length_b   6.87685656
_cell_length_c   8.77103648
_cell_angle_alpha   90.00000000
_cell_angle_beta   90.00000000
_cell_angle_gamma   90.00000000
_symmetry_Int_Tables_number   1
_chemical_formula_structural   KSiH3
_chemical_formula_sum   'K4 Si4 H12'
_cell_volume   319.75739991
_cell_formula_units_Z   4
loop_
 _symmetry_equiv_pos_site_id
 _symmetry_equiv_pos_as_xyz
  1  'x, y, z'
loop_
 _atom_site_type_symbol
 _atom_site_label
 _atom_site_symmetry_multiplicity
 _atom_site_fract_x
 _atom_site_fract_y
 _atom_site_fract_z
 _atom_site_occupancy
  K  K0  1  0.25000000  0.35093464  0.68570441  1
  K  K1  1  0.75000000  0.64906536  0.31429559  1
  K  K2  1  0.75000000  0.85093464  0.81429559  1
  K  K3  1  0.25000000  0.14906536  0.18570441  1
  Si  Si4  1  0.25000000  0.84889653  0.54583818  1
  Si  Si5  1  0.75000000  0.15110347  0.45416182  1
  Si  Si6  1  0.75000000  0.34889653  0.95416182  1
  Si  Si7  1  0.25000000  0.65110347  0.04583818  1
  H  H8  1  0.96097519  0.29925910  0.41930957  1
  H  H9  1  0.46097519  0.70074090  0.58069043  1
  H  H10  1  0.03902481  0.79925910  0.08069043  1
  H  H11  1  0.53902481  0.20074090  0.91930957  1
  H  H12  1  0.03902481  0.70074090  0.58069043  1
  H  H13  1  0.53902481  0.29925910  0.41930957  1
  H  H14  1  0.96097519  0.20074090  0.91930957  1
  H  H15  1  0.46097519  0.79925910  0.08069043  1
  H  H16  1  0.25000000  0.69554579  0.87486865  1
  H  H17  1  0.75000000  0.30445421  0.12513035  1
  H  H18  1  0.75000000  0.19554579  0.62513135  1
  H  H19  1  0.25000000  0.80445421  0.37486865  1
