# generated using pymatgen
data_Na4MgZrSi(PO6)2
_symmetry_space_group_name_H-M   'P 1'
_cell_length_a   9.15586053
_cell_length_b   9.17151450
_cell_length_c   22.34114950
_cell_angle_alpha   89.87259787
_cell_angle_beta   90.00000000
_cell_angle_gamma   119.94355540
_symmetry_Int_Tables_number   1
_chemical_formula_structural   Na4MgZrSi(PO6)2
_chemical_formula_sum   'Na24 Mg6 Zr6 Si6 P12 O72'
_cell_volume   1625.62989152
_cell_formula_units_Z   6
loop_
 _symmetry_equiv_pos_site_id
 _symmetry_equiv_pos_as_xyz
  1  'x, y, z'
loop_
 _atom_site_type_symbol
 _atom_site_label
 _atom_site_symmetry_multiplicity
 _atom_site_fract_x
 _atom_site_fract_y
 _atom_site_fract_z
 _atom_site_occupancy
  Na  Na0  1  0.63822608  0.01904101  0.24761544  1
  Na  Na1  1  0.37224628  0.35135034  0.24901898  1
  Na  Na2  1  0.98739087  0.62638320  0.24153601  1
  Na  Na3  1  0.63899233  0.62638320  0.74153601  1
  Na  Na4  1  0.97910406  0.35135034  0.74901898  1
  Na  Na5  1  0.38081492  0.01904101  0.74761544  1
  Na  Na6  1  0.31460726  0.35404547  0.58252398  1
  Na  Na7  1  0.03395347  0.69104530  0.57878517  1
  Na  Na8  1  0.64516109  0.94737049  0.57691801  1
  Na  Na9  1  0.30221040  0.94737049  0.07691801  1
  Na  Na10  1  0.65709282  0.69104530  0.07878517  1
  Na  Na11  1  0.03943921  0.35404547  0.08252398  1
  Na  Na12  1  0.98354894  0.68999413  0.91737293  1
  Na  Na13  1  0.70421031  0.02667119  0.90874442  1
  Na  Na14  1  0.31568425  0.28470784  0.91216750  1
  Na  Na15  1  0.96902258  0.28470784  0.41216750  1
  Na  Na16  1  0.32245988  0.02667119  0.40874442  1
  Na  Na17  1  0.70644419  0.68999413  0.41737293  1
  Na  Na18  1  0.99009791  0.99450156  0.49221954  1
  Na  Na19  1  0.00440365  0.99450156  0.99221954  1
  Na  Na20  1  0.66269102  0.32261548  0.82579935  1
  Na  Na21  1  0.65992546  0.32261548  0.32579935  1
  Na  Na22  1  0.32423324  0.66810784  0.15927298  1
  Na  Na23  1  0.34387360  0.66810784  0.65927298  1
  Mg  Mg24  1  0.00092464  0.00141000  0.34875592  1
  Mg  Mg25  1  0.00048536  0.00141000  0.84875592  1
  Mg  Mg26  1  0.66484640  0.33092144  0.68233594  1
  Mg  Mg27  1  0.66607604  0.33092144  0.18233594  1
  Mg  Mg28  1  0.32645954  0.66856379  0.01565222  1
  Mg  Mg29  1  0.34210325  0.66856379  0.51565222  1
  Zr  Zr30  1  0.99168851  0.99494828  0.64934528  1
  Zr  Zr31  1  0.00325977  0.99494828  0.14934528  1
  Zr  Zr32  1  0.66752562  0.33421507  0.98287090  1
  Zr  Zr33  1  0.66669045  0.33421507  0.48287090  1
  Zr  Zr34  1  0.33672859  0.67518951  0.31619389  1
  Zr  Zr35  1  0.33845991  0.67518951  0.81619389  1
  Si  Si36  1  0.30218084  0.00397439  0.25356802  1
  Si  Si37  1  0.70179355  0.00397439  0.75356802  1
  Si  Si38  1  0.66363916  0.62898908  0.58661782  1
  Si  Si39  1  0.96535092  0.62898908  0.08661782  1
  Si  Si40  1  0.33014627  0.96860917  0.91946184  1
  Si  Si41  1  0.63846190  0.96860917  0.41946184  1
  P  P42  1  0.70359136  0.70220782  0.25266917  1
  P  P43  1  -0.00040337  0.29460555  0.25191449  1
  P  P44  1  0.29500892  0.29460555  0.75191449  1
  P  P45  1  -0.00138354  0.70220782  0.75266917  1
  P  P46  1  0.96524344  0.33640546  0.58553117  1
  P  P47  1  0.36893719  0.03577093  0.58577242  1
  P  P48  1  0.66683474  0.03577093  0.08577242  1
  P  P49  1  0.37116301  0.33640546  0.08553117  1
  P  P50  1  0.62762536  0.66611506  0.91981890  1
  P  P51  1  0.03987431  0.37055568  0.91898576  1
  P  P52  1  0.33068037  0.37055568  0.41898576  1
  P  P53  1  0.03848870  0.66611506  0.41981890  1
  O  O54  1  0.21379687  0.02969778  0.31168280  1
  O  O55  1  0.81044225  0.78857971  0.30769772  1
  O  O56  1  0.97588488  0.18673072  0.30729357  1
  O  O57  1  0.21084585  0.18673072  0.80729357  1
  O  O58  1  0.97813747  0.78857971  0.80769772  1
  O  O59  1  0.81590091  0.02969778  0.81168280  1
  O  O60  1  0.79239105  0.97251292  0.69358570  1
  O  O61  1  0.18577809  0.20886562  0.69485810  1
  O  O62  1  0.03039941  0.81589671  0.69561676  1
  O  O63  1  0.78549730  0.81589671  0.19561676  1
  O  O64  1  0.02308753  0.20886562  0.19485810  1
  O  O65  1  0.18012188  0.97251292  0.19358570  1
  O  O66  1  0.87984454  0.35655633  0.64116372  1
  O  O67  1  0.47861272  0.11780383  0.64089314  1
  O  O68  1  0.64174370  0.51576882  0.64470510  1
  O  O69  1  0.87402612  0.51576882  0.14470510  1
  O  O70  1  0.63919211  0.11780383  0.14089314  1
  O  O71  1  0.47671279  0.35655633  0.14116372  1
  O  O72  1  0.45353560  0.30389975  0.02894544  1
  O  O73  1  0.84612858  0.54132015  0.02605345  1
  O  O74  1  0.69038938  0.14784867  0.02900135  1
  O  O75  1  0.45746028  0.14784867  0.52900135  1
  O  O76  1  0.69519257  0.54132015  0.52605345  1
  O  O77  1  0.85036516  0.30389975  0.52894544  1
  O  O78  1  0.54088811  0.68504351  0.97503477  1
  O  O79  1  0.14756280  0.45417013  0.97413865  1
  O  O80  1  0.30350941  0.85362823  0.97753121  1
  O  O81  1  0.55011782  0.85362823  0.47753121  1
  O  O82  1  0.30660632  0.45417013  0.47413865  1
  O  O83  1  0.14415440  0.68504351  0.47503477  1
  O  O84  1  0.12281681  0.63862919  0.36278326  1
  O  O85  1  0.51487626  0.87751922  0.35951731  1
  O  O86  1  0.35745070  0.48084266  0.36181864  1
  O  O87  1  0.12339096  0.48084266  0.86181864  1
  O  O88  1  0.36264196  0.87751922  0.85951731  1
  O  O89  1  0.51581139  0.63862919  0.86278326  1
  O  O90  1  0.01644671  0.82152568  0.41311576  1
  O  O91  1  0.82544548  0.99040152  0.41238462  1
  O  O92  1  0.17768848  0.19161947  0.41328075  1
  O  O93  1  0.01393099  0.19161947  0.91328075  1
  O  O94  1  0.16495604  0.99040152  0.91238462  1
  O  O95  1  0.80507898  0.82152568  0.91311576  1
  O  O96  1  0.98568867  0.17629438  0.58847716  1
  O  O97  1  0.19506987  0.02933171  0.58830760  1
  O  O98  1  0.84091752  0.81779197  0.58655525  1
  O  O99  1  0.97687445  0.81779197  0.08655525  1
  O  O100  1  0.83426184  0.02933171  0.08830760  1
  O  O101  1  0.19060571  0.17629438  0.08847716  1
  O  O102  1  0.67621066  0.16653065  0.74641808  1
  O  O103  1  0.47389662  0.31876063  0.74645942  1
  O  O104  1  0.84248965  0.52572027  0.74588831  1
  O  O105  1  0.68323163  0.52572027  0.24588831  1
  O  O106  1  0.84486501  0.31876063  0.24645942  1
  O  O107  1  0.49032100  0.16653065  0.24641808  1
  O  O108  1  0.64270977  0.50292597  0.92137538  1
  O  O109  1  0.86221183  0.35833889  0.92213162  1
  O  O110  1  0.50572990  0.15649813  0.91991994  1
  O  O111  1  0.65076924  0.15649813  0.41991994  1
  O  O112  1  0.49612806  0.35833889  0.42213162  1
  O  O113  1  0.86021720  0.50292597  0.42137538  1
  O  O114  1  0.35407894  0.49391701  0.07759866  1
  O  O115  1  0.15315301  0.65163638  0.08194087  1
  O  O116  1  0.51651712  0.85593228  0.07897194  1
  O  O117  1  0.33941417  0.85593228  0.57897194  1
  O  O118  1  0.49848237  0.65163638  0.58194087  1
  O  O119  1  0.13983706  0.49391701  0.57759866  1
  O  O120  1  0.31043755  0.82547140  0.25313965  1
  O  O121  1  0.52331293  0.68296495  0.25538736  1
  O  O122  1  0.16473187  0.47070964  0.25485888  1
  O  O123  1  0.30597676  0.47070964  0.75485888  1
  O  O124  1  0.15965102  0.68296495  0.75538736  1
  O  O125  1  0.51503285  0.82547140  0.75313965  1
