# generated using pymatgen
data_Na2La4Ti4Si3(S3O16)3
_symmetry_space_group_name_H-M   'P 1'
_cell_length_a   18.25682552
_cell_length_b   9.13198709
_cell_length_c   23.83543289
_cell_angle_alpha   89.60984244
_cell_angle_beta   89.81001142
_cell_angle_gamma   120.12627214
_symmetry_Int_Tables_number   1
_chemical_formula_structural   Na2La4Ti4Si3(S3O16)3
_chemical_formula_sum   'Na6 La12 Ti12 Si9 S27 O144'
_cell_volume   3436.90076771
_cell_formula_units_Z   3
loop_
 _symmetry_equiv_pos_site_id
 _symmetry_equiv_pos_as_xyz
  1  'x, y, z'
loop_
 _atom_site_type_symbol
 _atom_site_label
 _atom_site_symmetry_multiplicity
 _atom_site_fract_x
 _atom_site_fract_y
 _atom_site_fract_z
 _atom_site_occupancy
  Na  Na0  1  0.99579860  0.01711530  0.50056495  1
  Na  Na1  1  0.49646427  0.97432485  0.00387446  1
  Na  Na2  1  0.31857879  0.31276574  0.83669967  1
  Na  Na3  1  0.83096371  0.33211067  0.82588847  1
  Na  Na4  1  0.33184038  0.32566211  0.32547578  1
  Na  Na5  1  0.81854579  0.32570095  0.33287329  1
  La  La6  1  0.00760299  0.00360153  0.34879383  1
  La  La7  1  0.50825823  0.01240700  0.85096336  1
  La  La8  1  0.00054171  0.00706929  0.64705447  1
  La  La9  1  0.50320833  0.99490593  0.14776535  1
  La  La10  1  0.32155150  0.33154091  0.98567373  1
  La  La11  1  0.84628284  0.34947296  0.98540691  1
  La  La12  1  0.34496858  0.33912455  0.48260284  1
  La  La13  1  0.82287495  0.31370673  0.48490112  1
  La  La14  1  0.16377935  0.67960194  0.30100247  1
  La  La15  1  0.67366942  0.66967097  0.30201990  1
  La  La16  1  0.17328591  0.68250245  0.80536307  1
  La  La17  1  0.66209219  0.64818821  0.80171433  1
  Ti  Ti18  1  0.51834500  0.01821487  0.35555445  1
  Ti  Ti19  1  0.00644284  0.99903498  0.86046136  1
  Ti  Ti20  1  0.50934527  0.02453705  0.64778258  1
  Ti  Ti21  1  0.00869822  0.99279522  0.14676558  1
  Ti  Ti22  1  0.34394680  0.34389946  0.67436466  1
  Ti  Ti23  1  0.83462043  0.32622975  0.68067576  1
  Ti  Ti24  1  0.33934897  0.34855998  0.18518548  1
  Ti  Ti25  1  0.83589053  0.32944934  0.18272317  1
  Ti  Ti26  1  0.15952899  0.69455645  0.02462586  1
  Ti  Ti27  1  0.66395341  0.67570538  0.03032798  1
  Ti  Ti28  1  0.16558156  0.66060863  0.52466193  1
  Ti  Ti29  1  0.66002217  0.62791328  0.51740457  1
  Si  Si30  1  0.15499993  0.03032487  0.24221296  1
  Si  Si31  1  0.65821786  0.03870133  0.25117839  1
  Si  Si32  1  0.65570058  0.28215409  0.74283286  1
  Si  Si33  1  0.48720770  0.33427747  0.58402181  1
  Si  Si34  1  0.98415946  0.34974921  0.58193213  1
  Si  Si35  1  0.48151300  0.62052333  0.08196469  1
  Si  Si36  1  0.98090930  0.63071890  0.08797540  1
  Si  Si37  1  0.16200792  0.95350023  0.91576173  1
  Si  Si38  1  0.66235663  0.36804495  0.41332931  1
  S  S39  1  0.35930640  0.68673319  0.25278837  1
  S  S40  1  0.86324254  0.69768650  0.23934513  1
  S  S41  1  0.98771652  0.27642404  0.24086402  1
  S  S42  1  0.48366439  0.27560779  0.25177196  1
  S  S43  1  0.15313339  0.27275000  0.75591595  1
  S  S44  1  0.98468322  0.69436563  0.75389052  1
  S  S45  1  0.48464912  0.69403104  0.74067964  1
  S  S46  1  0.36152409  0.02967319  0.73880192  1
  S  S47  1  0.86041626  0.03346104  0.75317376  1
  S  S48  1  0.19196002  0.02631718  0.58242418  1
  S  S49  1  0.68029575  0.02699113  0.59152676  1
  S  S50  1  0.33293664  0.63416969  0.58821441  1
  S  S51  1  0.82207908  0.61958782  0.58283730  1
  S  S52  1  0.32311909  0.02481226  0.08321575  1
  S  S53  1  0.83198843  0.02837771  0.08911469  1
  S  S54  1  0.18042249  0.33644486  0.09123517  1
  S  S55  1  0.69008125  0.35788746  0.08065237  1
  S  S56  1  0.31115770  0.68032500  0.92206793  1
  S  S57  1  0.81965671  0.68543287  0.91376337  1
  S  S58  1  0.02472014  0.35926421  0.91396824  1
  S  S59  1  0.52760915  0.38162248  0.92493411  1
  S  S60  1  0.66487466  0.94311174  0.92354599  1
  S  S61  1  0.31614499  0.94653950  0.41606356  1
  S  S62  1  0.81161046  0.94027200  0.42299258  1
  S  S63  1  0.16295554  0.38481073  0.42368195  1
  S  S64  1  0.02855433  0.67574010  0.42423775  1
  S  S65  1  0.52848642  0.69024254  0.41553341  1
  O  O66  1  0.12242139  0.06740716  0.30153702  1
  O  O67  1  0.60148825  0.05497902  0.30691843  1
  O  O68  1  0.41382420  0.77183513  0.30060694  1
  O  O69  1  0.90627273  0.75908214  0.29430003  1
  O  O70  1  0.47395534  0.16607712  0.30088909  1
  O  O71  1  0.97298315  0.18694314  0.29583533  1
  O  O72  1  0.10266736  0.16069212  0.80465571  1
  O  O73  1  0.62227950  0.17598816  0.80171252  1
  O  O74  1  0.46834879  0.74987618  0.79516970  1
  O  O75  1  0.97749662  0.78883593  0.80267101  1
  O  O76  1  0.40502067  0.05978524  0.79358708  1
  O  O77  1  0.91415763  0.05500811  0.80143538  1
  O  O78  1  0.41206021  0.01288103  0.69386848  1
  O  O79  1  0.89275164  0.00141775  0.70078819  1
  O  O80  1  0.10629107  0.20470641  0.70347951  1
  O  O81  1  0.58594109  0.16044430  0.69545328  1
  O  O82  1  0.99867449  0.79048695  0.70140479  1
  O  O83  1  0.49190499  0.80740008  0.69479299  1
  O  O84  1  0.38782041  0.78121118  0.19986609  1
  O  O85  1  0.91349568  0.81712837  0.19420727  1
  O  O86  1  0.99342384  0.17839191  0.19497261  1
  O  O87  1  0.49537675  0.20901088  0.19917085  1
  O  O88  1  0.08585287  0.01265501  0.19489555  1
  O  O89  1  0.60211006  0.00325721  0.19706400  1
  O  O90  1  0.43107725  0.37077631  0.63447645  1
  O  O91  1  0.92831684  0.36537940  0.63620857  1
  O  O92  1  0.24610474  0.11892193  0.63169069  1
  O  O93  1  0.74554123  0.13166663  0.63605229  1
  O  O94  1  0.31488757  0.50024745  0.63495653  1
  O  O95  1  0.81227305  0.50991471  0.63207903  1
  O  O96  1  0.42782465  0.49617593  0.13735849  1
  O  O97  1  0.92474947  0.48486617  0.13627132  1
  O  O98  1  0.31275796  0.11151598  0.13160937  1
  O  O99  1  0.81182484  0.11496972  0.13531561  1
  O  O100  1  0.24388539  0.36336525  0.13571046  1
  O  O101  1  0.74028410  0.37435031  0.13066820  1
  O  O102  1  0.20299453  0.27801553  0.03981555  1
  O  O103  1  0.72483516  0.32180605  0.02991495  1
  O  O104  1  0.43302023  0.53501477  0.02582039  1
  O  O105  1  0.92899817  0.57535844  0.03084128  1
  O  O106  1  0.33807153  0.12060398  0.03045385  1
  O  O107  1  0.85410181  0.13221659  0.03747290  1
  O  O108  1  0.22344163  0.13176638  0.53130440  1
  O  O109  1  0.70267051  0.13196632  0.54037482  1
  O  O110  1  0.35550260  0.57424221  0.53759239  1
  O  O111  1  0.83994742  0.55640243  0.53112340  1
  O  O112  1  0.42663270  0.27899630  0.53148858  1
  O  O113  1  0.93283330  0.32307573  0.52590357  1
  O  O114  1  0.25923112  0.67279000  0.97114236  1
  O  O115  1  0.78379979  0.70848481  0.96506740  1
  O  O116  1  0.07063389  0.43521385  0.96607955  1
  O  O117  1  0.58152139  0.48533309  0.97226856  1
  O  O118  1  0.15142525  0.83522407  0.97412834  1
  O  O119  1  0.66613538  0.84398920  0.97406427  1
  O  O120  1  0.27146130  0.84883453  0.46812849  1
  O  O121  1  0.75816458  0.84114556  0.47271048  1
  O  O122  1  0.16456357  0.48677528  0.47444409  1
  O  O123  1  0.65163142  0.46789076  0.47185812  1
  O  O124  1  0.08278514  0.67847975  0.47251313  1
  O  O125  1  0.57469741  0.69874263  0.46812827  1
  O  O126  1  0.06690059  0.67012435  0.37045050  1
  O  O127  1  0.56632284  0.66101316  0.36605278  1
  O  O128  1  0.26153889  0.86896877  0.36632977  1
  O  O129  1  0.77207422  0.86341574  0.36973756  1
  O  O130  1  0.16409645  0.47098271  0.37156416  1
  O  O131  1  0.67595652  0.48525843  0.36097206  1
  O  O132  1  0.06456154  0.46423582  0.86408714  1
  O  O133  1  0.56624732  0.46404561  0.87019402  1
  O  O134  1  0.17085779  0.86093560  0.86230422  1
  O  O135  1  0.66619222  0.86025696  0.87121462  1
  O  O136  1  0.27130097  0.67941177  0.86816550  1
  O  O137  1  0.76637034  0.65882259  0.86389974  1
  O  O138  1  0.02463746  0.83423826  0.42739328  1
  O  O139  1  0.52501326  0.85045243  0.40844371  1
  O  O140  1  0.39777953  0.95493038  0.40836996  1
  O  O141  1  0.89608366  0.95288142  0.42709017  1
  O  O142  1  0.08414036  0.21687411  0.42778492  1
  O  O143  1  0.57149361  0.18509310  0.40396411  1
  O  O144  1  0.02051614  0.18985313  0.90501528  1
  O  O145  1  0.52267022  0.21267916  0.92667738  1
  O  O146  1  0.07147501  0.95835567  0.90380720  1
  O  O147  1  0.58538288  0.95241995  0.92673465  1
  O  O148  1  0.39632886  0.83743298  0.92438165  1
  O  O149  1  0.90435331  0.84550593  0.90195182  1
  O  O150  1  0.50421504  0.18474375  0.60553130  1
  O  O151  1  0.00715345  0.20224101  0.58923804  1
  O  O152  1  0.10379463  0.98486806  0.59116830  1
  O  O153  1  0.59385004  0.99574580  0.60746434  1
  O  O154  1  0.40126248  0.79927640  0.60541536  1
  O  O155  1  0.89287672  0.79412415  0.59080046  1
  O  O156  1  0.50272344  0.81280495  0.08429166  1
  O  O157  1  0.00257545  0.82129801  0.10577533  1
  O  O158  1  0.39184122  0.98713838  0.08938018  1
  O  O159  1  0.89996981  0.99562069  0.10444187  1
  O  O160  1  0.09313439  0.19402099  0.10610984  1
  O  O161  1  0.60040599  0.22436630  0.08567911  1
  O  O162  1  0.35058149  0.18091088  0.72775865  1
  O  O163  1  0.85513491  0.19328512  0.74424926  1
  O  O164  1  0.23648673  0.28095033  0.75193469  1
  O  O165  1  0.74808337  0.30438422  0.72584149  1
  O  O166  1  0.40725122  0.51884384  0.73038429  1
  O  O167  1  0.90444726  0.52719578  0.74883520  1
  O  O168  1  0.35536046  0.51646398  0.24473511  1
  O  O169  1  0.85525103  0.52894050  0.23096318  1
  O  O170  1  0.40271680  0.28445733  0.24639061  1
  O  O171  1  0.91080835  0.29594761  0.23291592  1
  O  O172  1  0.24749491  0.19318382  0.22552666  1
  O  O173  1  0.75076224  0.21435376  0.23745554  1
  O  O174  1  0.32317671  0.53111826  0.92006913  1
  O  O175  1  0.83550088  0.54037390  0.91675599  1
  O  O176  1  0.44152938  0.35748905  0.92604294  1
  O  O177  1  0.93541925  0.32176243  0.91690198  1
  O  O178  1  0.23755384  0.14536494  0.91774217  1
  O  O179  1  0.73932777  0.11565815  0.92490328  1
  O  O180  1  0.32806038  0.12246745  0.41945893  1
  O  O181  1  0.82347773  0.11343343  0.42256956  1
  O  O182  1  0.23800989  0.36396612  0.42600857  1
  O  O183  1  0.73830149  0.32913171  0.41908847  1
  O  O184  1  0.43867356  0.54902091  0.41980275  1
  O  O185  1  0.94296707  0.52681861  0.42670627  1
  O  O186  1  0.17605291  0.49043727  0.08172996  1
  O  O187  1  0.69163660  0.52322943  0.07036546  1
  O  O188  1  0.07364598  0.64308549  0.07180344  1
  O  O189  1  0.57882125  0.63582379  0.07352561  1
  O  O190  1  0.24182544  0.85480559  0.07575226  1
  O  O191  1  0.75251407  0.86221519  0.07760491  1
  O  O192  1  0.19275207  0.86497584  0.57408829  1
  O  O193  1  0.67727495  0.86700838  0.58473308  1
  O  O194  1  0.25290047  0.63710268  0.57957374  1
  O  O195  1  0.74268639  0.62790302  0.57477207  1
  O  O196  1  0.08109230  0.52746749  0.56979231  1
  O  O197  1  0.57605187  0.50845302  0.56873066  1
  O  O198  1  0.16081348  0.86139103  0.24312288  1
  O  O199  1  0.67883141  0.89463285  0.26657975  1
  O  O200  1  0.27085363  0.64348178  0.26283660  1
  O  O201  1  0.77917647  0.67960355  0.23862877  1
  O  O202  1  0.06277616  0.44610353  0.24358205  1
  O  O203  1  0.55370078  0.44975040  0.25851430  1
  O  O204  1  0.16585424  0.44292318  0.76298310  1
  O  O205  1  0.66083379  0.46200317  0.74367746  1
  O  O206  1  0.05558799  0.66314303  0.76049648  1
  O  O207  1  0.55916346  0.67361649  0.74289369  1
  O  O208  1  0.27779308  0.87878824  0.73912815  1
  O  O209  1  0.77288127  0.89375779  0.76155488  1
