# generated using pymatgen
data_Na10NbAl7(PO4)12
_symmetry_space_group_name_H-M   'P 1'
_cell_length_a   17.14570780
_cell_length_b   8.57756550
_cell_length_c   21.69477110
_cell_angle_alpha   89.99191472
_cell_angle_beta   89.97483240
_cell_angle_gamma   120.02512680
_symmetry_Int_Tables_number   1
_chemical_formula_structural   Na10NbAl7(PO4)12
_chemical_formula_sum   'Na30 Nb3 Al21 P36 O144'
_cell_volume   2762.45408923
_cell_formula_units_Z   3
loop_
 _symmetry_equiv_pos_site_id
 _symmetry_equiv_pos_as_xyz
  1  'x, y, z'
loop_
 _atom_site_type_symbol
 _atom_site_label
 _atom_site_symmetry_multiplicity
 _atom_site_fract_x
 _atom_site_fract_y
 _atom_site_fract_z
 _atom_site_occupancy
  Na  Na0  1  0.31859232  0.99911413  0.25145410  1
  Na  Na1  1  0.68179754  0.36163241  0.25157892  1
  Na  Na2  1  0.31763358  0.63481290  0.75165486  1
  Na  Na3  1  0.81765919  0.63494006  0.75148112  1
  Na  Na4  1  0.15045738  0.33385069  0.58262223  1
  Na  Na5  1  0.65059081  0.33356164  0.58226744  1
  Na  Na6  1  0.01593369  0.69813841  0.58271318  1
  Na  Na7  1  0.51613810  0.69863256  0.58287343  1
  Na  Na8  1  0.33317473  0.96854690  0.58239853  1
  Na  Na9  1  0.83297548  0.96817645  0.58254298  1
  Na  Na10  1  0.15079814  0.96801637  0.08255903  1
  Na  Na11  1  0.65102890  0.96847880  0.08361085  1
  Na  Na12  1  0.33307598  0.69768408  0.08350223  1
  Na  Na13  1  0.83325623  0.69824648  0.08271808  1
  Na  Na14  1  0.01573311  0.33377759  0.08292608  1
  Na  Na15  1  0.51571133  0.33359860  0.08337151  1
  Na  Na16  1  0.66513386  0.03334509  0.41449357  1
  Na  Na17  1  0.35085566  0.66955812  0.41428610  1
  Na  Na18  1  0.00023138  0.99913326  0.49940165  1
  Na  Na19  1  0.49961304  0.01023596  0.49608857  1
  Na  Na20  1  0.00010253  -0.00000318  0.00066209  1
  Na  Na21  1  0.50007731  0.99972128  0.00085168  1
  Na  Na22  1  0.33384713  0.32469572  0.83579131  1
  Na  Na23  1  0.83383658  0.32471998  0.83576428  1
  Na  Na24  1  0.33460071  0.33470580  0.33277095  1
  Na  Na25  1  0.84120007  0.33990061  0.33281380  1
  Na  Na26  1  0.16332978  0.65631898  0.17052489  1
  Na  Na27  1  0.66544732  0.67592044  0.17055182  1
  Na  Na28  1  0.16230787  0.66735334  0.67049157  1
  Na  Na29  1  0.66255597  0.66737204  0.67051143  1
  Nb  Nb30  1  0.00003621  0.99852043  0.35439071  1
  Nb  Nb31  1  0.00055165  0.00186993  0.85727778  1
  Nb  Nb32  1  0.50060382  0.00202887  0.85727826  1
  Al  Al33  1  0.49928862  0.00567087  0.35171381  1
  Al  Al34  1  0.00051877  0.00046742  0.64963776  1
  Al  Al35  1  0.50069854  0.00037164  0.64951720  1
  Al  Al36  1  0.00015109  0.00179456  0.14928385  1
  Al  Al37  1  0.50031349  0.99845141  0.15119197  1
  Al  Al38  1  0.33383758  0.32900405  0.68675434  1
  Al  Al39  1  0.83403277  0.32959793  0.68660146  1
  Al  Al40  1  0.33461320  0.34244628  0.18711038  1
  Al  Al41  1  0.83464892  0.32871764  0.18709614  1
  Al  Al42  1  0.33323486  0.33358189  0.97879115  1
  Al  Al43  1  0.83359194  0.33358301  0.97883337  1
  Al  Al44  1  0.33316445  0.32529532  0.47874561  1
  Al  Al45  1  0.83560926  0.33942803  0.47869723  1
  Al  Al46  1  0.16633723  0.66659503  0.01800089  1
  Al  Al47  1  0.66637506  0.66671606  0.01792904  1
  Al  Al48  1  0.16723906  0.66956567  0.51685671  1
  Al  Al49  1  0.66519774  0.66234862  0.51617416  1
  Al  Al50  1  0.16506952  0.66185104  0.31346537  1
  Al  Al51  1  0.66465352  0.66915820  0.31392194  1
  Al  Al52  1  0.16403174  0.66759268  0.81457402  1
  Al  Al53  1  0.66402432  0.66756519  0.81457581  1
  P  P54  1  0.14730598  -0.00008051  0.24630744  1
  P  P55  1  0.64454755  0.99610141  0.25035896  1
  P  P56  1  0.35563492  0.70761824  0.25090747  1
  P  P57  1  0.85252033  0.70530594  0.24635568  1
  P  P58  1  0.00053640  0.29677848  0.24686689  1
  P  P59  1  0.49974478  0.29194653  0.24966990  1
  P  P60  1  0.14676219  0.29379781  0.74690684  1
  P  P61  1  0.64682582  0.29386742  0.74691295  1
  P  P62  1  0.00207264  0.70550748  0.74707763  1
  P  P63  1  0.50203420  0.70552294  0.74705876  1
  P  P64  1  0.35250630  0.00293202  0.74741213  1
  P  P65  1  0.85250041  0.00304516  0.74739994  1
  P  P66  1  0.47659065  0.33320358  0.58342168  1
  P  P67  1  0.97649228  0.33347252  0.58313703  1
  P  P68  1  0.19009576  0.04717567  0.58321378  1
  P  P69  1  0.68974571  0.04593512  0.58296189  1
  P  P70  1  0.33336085  0.62108784  0.58321877  1
  P  P71  1  0.83326075  0.62073684  0.58369222  1
  P  P72  1  0.47636191  0.61965219  0.08304977  1
  P  P73  1  0.97620357  0.61926926  0.08329336  1
  P  P74  1  0.33343817  0.04683618  0.08368560  1
  P  P75  1  0.83339250  0.04709187  0.08297391  1
  P  P76  1  0.19024420  0.33322241  0.08306864  1
  P  P77  1  0.68995508  0.33317174  0.08352265  1
  P  P78  1  0.30432679  0.65395694  0.91755519  1
  P  P79  1  0.80433404  0.65376491  0.91755579  1
  P  P80  1  0.02265874  0.39185444  0.91819307  1
  P  P81  1  0.52263639  0.39188288  0.91825343  1
  P  P82  1  0.17318874  0.95456746  0.91811074  1
  P  P83  1  0.67318874  0.95466346  0.91809684  1
  P  P84  1  0.31053065  0.95834938  0.41572470  1
  P  P85  1  0.80701385  0.95330933  0.41857117  1
  P  P86  1  0.16956527  0.38568245  0.41864820  1
  P  P87  1  0.66699076  0.38001498  0.41585579  1
  P  P88  1  0.02313589  0.65604389  0.41774775  1
  P  P89  1  0.52146634  0.66167788  0.41662034  1
  O  O90  1  0.10270881  0.03181078  0.30452310  1
  O  O91  1  0.60234445  0.03581296  0.30741667  1
  O  O92  1  0.41371616  0.79592056  0.30869627  1
  O  O93  1  0.91310285  0.79454247  0.30461379  1
  O  O94  1  0.48086609  0.16574528  0.30506859  1
  O  O95  1  0.98485606  0.17265886  0.30477447  1
  O  O96  1  0.10239022  0.17245561  0.80448260  1
  O  O97  1  0.60234728  0.17246471  0.80449986  1
  O  O98  1  0.48213765  0.79370129  0.80387487  1
  O  O99  1  0.98218743  0.79375885  0.80390865  1
  O  O100  1  0.41339714  0.03224714  0.80487314  1
  O  O101  1  0.91342289  0.03238889  0.80485777  1
  O  O102  1  0.39568870  0.96345161  0.69076348  1
  O  O103  1  0.89573091  0.96354884  0.69079806  1
  O  O104  1  0.08753158  0.20650856  0.68977180  1
  O  O105  1  0.58754625  0.20663846  0.68978641  1
  O  O106  1  0.01618476  0.82373532  0.68962995  1
  O  O107  1  0.51612991  0.82372662  0.68959700  1
  O  O108  1  0.39681375  0.83017784  0.19271009  1
  O  O109  1  0.89711916  0.82539267  0.18996069  1
  O  O110  1  0.01601580  0.20817334  0.18988638  1
  O  O111  1  0.51864543  0.20909894  0.19115410  1
  O  O112  1  0.08733858  0.96911949  0.18992212  1
  O  O113  1  0.58720180  0.96781072  0.19147420  1
  O  O114  1  0.43567028  0.37321784  0.63997839  1
  O  O115  1  0.93542594  0.37293066  0.63986075  1
  O  O116  1  0.25075365  0.12897631  0.63989199  1
  O  O117  1  0.75128086  0.13138040  0.63893504  1
  O  O118  1  0.31487538  0.50222489  0.64090614  1
  O  O119  1  0.81453224  0.50365819  0.64197796  1
  O  O120  1  0.43556059  0.49831196  0.13979298  1
  O  O121  1  0.93500746  0.49784884  0.13999996  1
  O  O122  1  0.31441933  0.12594546  0.14198979  1
  O  O123  1  0.81354775  0.12825122  0.13982039  1
  O  O124  1  0.25061980  0.37195634  0.13987462  1
  O  O125  1  0.74848979  0.37130515  0.14190224  1
  O  O126  1  0.23108829  0.29386651  0.02649922  1
  O  O127  1  0.73237647  0.29511523  0.02768377  1
  O  O128  1  0.41576089  0.53805424  0.02653111  1
  O  O129  1  0.91578082  0.53781408  0.02660576  1
  O  O130  1  0.35246926  0.16942557  0.02774775  1
  O  O131  1  0.85317385  0.16833809  0.02649792  1
  O  O132  1  0.23113584  0.16886824  0.52677910  1
  O  O133  1  0.72953055  0.16375994  0.52492209  1
  O  O134  1  0.35179362  0.53862303  0.52596682  1
  O  O135  1  0.85251254  0.53596329  0.52790804  1
  O  O136  1  0.41589324  0.29373211  0.52695534  1
  O  O137  1  0.91551065  0.29369398  0.52670772  1
  O  O138  1  0.26615370  0.69353520  0.97572136  1
  O  O139  1  0.76615362  0.69341873  0.97571326  1
  O  O140  1  0.07955624  0.46505760  0.97698159  1
  O  O141  1  0.57964301  0.46522067  0.97700626  1
  O  O142  1  0.15266134  0.84034479  0.97689472  1
  O  O143  1  0.65258901  0.84042169  0.97687169  1
  O  O144  1  0.27009411  0.83719148  0.47438093  1
  O  O145  1  0.76770821  0.84063661  0.47759746  1
  O  O146  1  0.15229449  0.46450125  0.47750654  1
  O  O147  1  0.65110656  0.46115303  0.47526647  1
  O  O148  1  0.07927157  0.69492145  0.47713476  1
  O  O149  1  0.58074184  0.70207534  0.47555784  1
  O  O150  1  0.06751802  0.63369618  0.36046521  1
  O  O151  1  0.56646577  0.63389725  0.36061751  1
  O  O152  1  0.25265676  0.86998304  0.35809309  1
  O  O153  1  0.74848523  0.86741895  0.36171982  1
  O  O154  1  0.18551606  0.50298548  0.36187774  1
  O  O155  1  0.68223376  0.49597092  0.35820559  1
  O  O156  1  0.06698105  0.50003407  0.86026771  1
  O  O157  1  0.56692478  0.50007855  0.86033274  1
  O  O158  1  0.18365030  0.86649043  0.86029020  1
  O  O159  1  0.68367644  0.86662238  0.86027115  1
  O  O160  1  0.25191765  0.63465686  0.85805061  1
  O  O161  1  0.75193653  0.63455704  0.85806408  1
  O  O162  1  0.01300706  0.82910600  0.41132478  1
  O  O163  1  0.51165421  0.83365743  0.41019452  1
  O  O164  1  0.40475232  0.97289547  0.40944091  1
  O  O165  1  0.90251934  0.97367929  0.41260622  1
  O  O166  1  0.08446476  0.19448704  0.41275702  1
  O  O167  1  0.58307245  0.18725347  0.40919005  1
  O  O168  1  0.01330024  0.19784575  0.91170930  1
  O  O169  1  0.51331490  0.19793917  0.91175215  1
  O  O170  1  0.08558555  0.97325607  0.91126430  1
  O  O171  1  0.58557034  0.97330215  0.91122802  1
  O  O172  1  0.40129996  0.82908732  0.91145299  1
  O  O173  1  0.90129041  0.82896744  0.91145782  1
  O  O174  1  0.48807918  0.16463430  0.59105487  1
  O  O175  1  0.98798773  0.16447675  0.59081270  1
  O  O176  1  0.09398296  0.02331465  0.59053726  1
  O  O177  1  0.59395494  0.02385303  0.59045671  1
  O  O178  1  0.41792500  0.81285458  0.59035470  1
  O  O179  1  0.91786915  0.81268102  0.59051430  1
  O  O180  1  0.48812837  0.81182233  0.09098656  1
  O  O181  1  0.98835939  0.81196480  0.09060960  1
  O  O182  1  0.41785924  0.02312113  0.09087266  1
  O  O183  1  0.91772421  0.02344219  0.09048122  1
  O  O184  1  0.09392212  0.16467689  0.09048497  1
  O  O185  1  0.59373743  0.16410991  0.09053976  1
  O  O186  1  0.34547011  0.17179329  0.74132687  1
  O  O187  1  0.84534579  0.17177420  0.74118133  1
  O  O188  1  0.24118786  0.31496140  0.74108034  1
  O  O189  1  0.74117060  0.31463917  0.74120718  1
  O  O190  1  0.41464331  0.52193103  0.74102393  1
  O  O191  1  0.91471875  0.52189850  0.74115229  1
  O  O192  1  0.34635397  0.52174119  0.24266178  1
  O  O193  1  0.84295272  0.51769018  0.24149332  1
  O  O194  1  0.41404214  0.30563460  0.24192307  1
  O  O195  1  0.91488152  0.30896956  0.24186711  1
  O  O196  1  0.24132947  0.16801436  0.24139069  1
  O  O197  1  0.73788329  0.16998981  0.24267050  1
  O  O198  1  0.31835772  0.49267803  0.92403504  1
  O  O199  1  0.81832830  0.49247642  0.92413927  1
  O  O200  1  0.42772460  0.36273695  0.92466942  1
  O  O201  1  0.92778190  0.36295830  0.92444954  1
  O  O202  1  0.25378446  0.14412378  0.92458963  1
  O  O203  1  0.75365860  0.14435183  0.92461779  1
  O  O204  1  0.31974024  0.14413975  0.42407681  1
  O  O205  1  0.81756332  0.14197524  0.42476567  1
  O  O206  1  0.25366137  0.36550027  0.42497689  1
  O  O207  1  0.75036861  0.35507420  0.42370812  1
  O  O208  1  0.42607320  0.49777955  0.42455616  1
  O  O209  1  0.92811057  0.49353473  0.42428390  1
  O  O210  1  0.17812729  0.50142850  0.07622788  1
  O  O211  1  0.67825175  0.50182627  0.07640753  1
  O  O212  1  0.07254184  0.64345810  0.07647852  1
  O  O213  1  0.57265762  0.64399192  0.07628122  1
  O  O214  1  0.24914846  0.85437686  0.07647678  1
  O  O215  1  0.74926792  0.85450709  0.07618175  1
  O  O216  1  0.17850727  0.85526928  0.57589012  1
  O  O217  1  0.67767394  0.85378743  0.57659629  1
  O  O218  1  0.24903098  0.64457383  0.57667296  1
  O  O219  1  0.74881073  0.64310736  0.57648949  1
  O  O220  1  0.07265514  0.50183738  0.57639061  1
  O  O221  1  0.57263660  0.50166041  0.57594598  1
  O  O222  1  0.15683825  0.83229743  0.25574678  1
  O  O223  1  0.65426409  0.82877409  0.25794482  1
  O  O224  1  0.26178914  0.69373167  0.25747971  1
  O  O225  1  0.75911397  0.68598891  0.25604236  1
  O  O226  1  0.08542808  0.47944803  0.25711057  1
  O  O227  1  0.58583001  0.47721893  0.25717198  1
  O  O228  1  0.15729472  0.48177717  0.75584933  1
  O  O229  1  0.65730581  0.48179182  0.75588840  1
  O  O230  1  0.08598895  0.69044228  0.75648120  1
  O  O231  1  0.58593228  0.69037035  0.75644378  1
  O  O232  1  0.26089737  0.82918852  0.75622306  1
  O  O233  1  0.76093705  0.82928811  0.75620752  1
