# generated using pymatgen
data_Na2LaHf(PO4)3
_symmetry_space_group_name_H-M   'P 1'
_cell_length_a   9.34423397
_cell_length_b   9.34423362
_cell_length_c   23.46327537
_cell_angle_alpha   89.96758219
_cell_angle_beta   90.03241783
_cell_angle_gamma   120.35669327
_symmetry_Int_Tables_number   1
_chemical_formula_structural   Na2LaHf(PO4)3
_chemical_formula_sum   'Na12 La6 Hf6 P18 O72'
_cell_volume   1767.80495021
_cell_formula_units_Z   6
loop_
 _symmetry_equiv_pos_site_id
 _symmetry_equiv_pos_as_xyz
  1  'x, y, z'
loop_
 _atom_site_type_symbol
 _atom_site_label
 _atom_site_symmetry_multiplicity
 _atom_site_fract_x
 _atom_site_fract_y
 _atom_site_fract_z
 _atom_site_occupancy
  Na  Na0  1  0.35899754  0.34767737  0.24815718  1
  Na  Na1  1  0.65232263  0.64100246  0.74815718  1
  Na  Na2  1  0.02566454  0.68101037  0.58149018  1
  Na  Na3  1  0.31898963  0.97433546  0.08149018  1
  Na  Na4  1  0.69233054  0.01434437  0.91482418  1
  Na  Na5  1  0.98565563  0.30766946  0.41482418  1
  Na  Na6  1  0.00006225  0.99880625  0.50318773  1
  Na  Na7  1  0.00119375  -0.00006225  0.00318773  1
  Na  Na8  1  0.66672925  0.33213925  0.83652073  1
  Na  Na9  1  0.66786075  0.33327075  0.33652073  1
  Na  Na10  1  0.33339525  0.66547325  0.16985473  1
  Na  Na11  1  0.33452675  0.66660475  0.66985473  1
  La  La12  1  0.99347092  0.98137617  0.35197029  1
  La  La13  1  0.01862383  0.00652908  0.85197029  1
  La  La14  1  0.66013792  0.31470917  0.68530329  1
  La  La15  1  0.68529083  0.33986208  0.18530329  1
  La  La16  1  0.32680392  0.64804317  0.01863729  1
  La  La17  1  0.35195683  0.67319608  0.51863729  1
  Hf  Hf18  1  0.00440743  0.01151327  0.64871287  1
  Hf  Hf19  1  0.98848673  0.99559257  0.14871287  1
  Hf  Hf20  1  0.67107443  0.34484627  0.98204587  1
  Hf  Hf21  1  0.65515373  0.32892557  0.48204587  1
  Hf  Hf22  1  0.33774043  0.67818027  0.31537987  1
  Hf  Hf23  1  0.32181973  0.66225957  0.81537987  1
  P  P24  1  0.28606386  0.98418748  0.24677782  1
  P  P25  1  0.68595477  0.70830776  0.24840536  1
  P  P26  1  0.02152182  0.30430351  0.25337657  1
  P  P27  1  0.29169224  0.31404523  0.74840536  1
  P  P28  1  0.01581252  0.71393614  0.74677782  1
  P  P29  1  0.69569649  0.97847818  0.75337657  1
  P  P30  1  0.95273086  0.31752048  0.58011082  1
  P  P31  1  0.35262177  0.04164076  0.58173836  1
  P  P32  1  0.68818882  0.63763651  0.58670957  1
  P  P33  1  0.95835924  0.64737823  0.08173836  1
  P  P34  1  0.68247952  0.04726914  0.08011082  1
  P  P35  1  0.36236349  0.31181118  0.08670957  1
  P  P36  1  0.61939686  0.65085448  0.91344482  1
  P  P37  1  0.01928777  0.37497476  0.91507236  1
  P  P38  1  0.35485482  0.97097051  0.92004357  1
  P  P39  1  0.62502524  0.98071223  0.41507236  1
  P  P40  1  0.34914552  0.38060314  0.41344482  1
  P  P41  1  0.02902949  0.64514518  0.42004357  1
  O  O42  1  0.21128638  0.01679121  0.29934903  1
  O  O43  1  0.78276285  0.77533247  0.30293537  1
  O  O44  1  0.00467571  0.21531573  0.30952455  1
  O  O45  1  0.22466753  0.21723715  0.80293537  1
  O  O46  1  0.98320879  0.78871362  0.79934903  1
  O  O47  1  0.78468427  -0.00467571  0.80952455  1
  O  O48  1  0.80079435  0.96665941  0.70183197  1
  O  O49  1  0.17824655  0.20958119  0.69671249  1
  O  O50  1  0.03583572  0.82557466  0.69313051  1
  O  O51  1  0.79041881  0.82175345  0.19671249  1
  O  O52  1  0.03334059  0.19920565  0.20183197  1
  O  O53  1  0.17442534  0.96416428  0.19313051  1
  O  O54  1  0.87795338  0.35012421  0.63268203  1
  O  O55  1  0.44942985  0.10866547  0.63626837  1
  O  O56  1  0.67134271  0.54864873  0.64285755  1
  O  O57  1  0.89133453  0.55057015  0.13626837  1
  O  O58  1  0.64987579  0.12204662  0.13268203  1
  O  O59  1  0.45135127  0.32865729  0.14285755  1
  O  O60  1  0.46746135  0.29999241  0.03516497  1
  O  O61  1  0.84491355  0.54291419  0.03004549  1
  O  O62  1  0.70250272  0.15890766  0.02646351  1
  O  O63  1  0.45708581  0.15508645  0.53004549  1
  O  O64  1  0.70000759  0.53253865  0.53516497  1
  O  O65  1  0.84109234  0.29749728  0.52646351  1
  O  O66  1  0.54461938  0.68345821  0.96601603  1
  O  O67  1  0.11609585  0.44199947  0.96960237  1
  O  O68  1  0.33800871  0.88198273  0.97619155  1
  O  O69  1  0.55800053  0.88390415  0.46960237  1
  O  O70  1  0.31654179  0.45538062  0.46601603  1
  O  O71  1  0.11801727  0.66199129  0.47619155  1
  O  O72  1  0.13412735  0.63332641  0.36849897  1
  O  O73  1  0.51157955  0.87624819  0.36337949  1
  O  O74  1  0.36916872  0.49224166  0.35979751  1
  O  O75  1  0.12375181  0.48842045  0.86337949  1
  O  O76  1  0.36667359  0.86587265  0.86849897  1
  O  O77  1  0.50775834  0.63083128  0.85979751  1
  O  O78  1  -0.00252872  0.78970713  0.41495399  1
  O  O79  1  0.80757978  0.02494836  0.40910530  1
  O  O80  1  0.19655043  0.20520912  0.40819947  1
  O  O81  1  0.97505164  0.19242022  0.90910530  1
  O  O82  1  0.21029287  0.00252872  0.91495399  1
  O  O83  1  0.79479088  0.80344957  0.90819947  1
  O  O84  1  0.96160335  0.15528713  0.58927263  1
  O  O85  1  0.18322002  0.03909847  0.58633931  1
  O  O86  1  0.85801221  0.80884050  0.58805756  1
  O  O87  1  0.96090153  0.81677998  0.08633931  1
  O  O88  1  0.84471287  0.03839665  0.08927263  1
  O  O89  1  0.19115950  0.14198779  0.08805756  1
  O  O90  1  0.66413828  0.12304013  0.74828699  1
  O  O91  1  0.47424678  0.35828136  0.74243830  1
  O  O92  1  0.86321743  0.53854212  0.74153247  1
  O  O93  1  0.64171864  0.52575322  0.24243830  1
  O  O94  1  0.87695987  0.33586172  0.24828699  1
  O  O95  1  0.46145788  0.13678257  0.24153247  1
  O  O96  1  0.62827035  0.48862013  0.92260563  1
  O  O97  1  0.84988702  0.37243147  0.91967231  1
  O  O98  1  0.52467921  0.14217350  0.92139056  1
  O  O99  1  0.62756853  0.15011298  0.41967231  1
  O  O100  1  0.51137987  0.37172965  0.42260563  1
  O  O101  1  0.85782650  0.47532079  0.42139056  1
  O  O102  1  0.33080428  0.45637413  0.08162099  1
  O  O103  1  0.14091278  0.69161536  0.07577230  1
  O  O104  1  0.52988343  0.87187612  0.07486647  1
  O  O105  1  0.30838464  0.85908722  0.57577230  1
  O  O106  1  0.54362587  0.66919572  0.58162099  1
  O  O107  1  0.12812388  0.47011657  0.57486647  1
  O  O108  1  0.29493635  0.82195413  0.25593963  1
  O  O109  1  0.51655302  0.70576547  0.25300631  1
  O  O110  1  0.19134521  0.47550750  0.25472456  1
  O  O111  1  0.29423453  0.48344698  0.75300631  1
  O  O112  1  0.17804587  0.70506365  0.75593963  1
  O  O113  1  0.52449250  0.80865479  0.75472456  1
