# generated using pymatgen
data_Na3GaSiSn(PO6)2
_symmetry_space_group_name_H-M   'P 1'
_cell_length_a   8.90528776
_cell_length_b   8.90528747
_cell_length_c   22.14451104
_cell_angle_alpha   89.87580732
_cell_angle_beta   90.12419268
_cell_angle_gamma   119.96506357
_symmetry_Int_Tables_number   1
_chemical_formula_structural   Na3GaSiSn(PO6)2
_chemical_formula_sum   'Na18 Ga6 Si6 Sn6 P12 O72'
_cell_volume   1521.40223539
_cell_formula_units_Z   6
loop_
 _symmetry_equiv_pos_site_id
 _symmetry_equiv_pos_as_xyz
  1  'x, y, z'
loop_
 _atom_site_type_symbol
 _atom_site_label
 _atom_site_symmetry_multiplicity
 _atom_site_fract_x
 _atom_site_fract_y
 _atom_site_fract_z
 _atom_site_occupancy
  Na  Na0  1  0.00276116  0.99705246  0.49655936  1
  Na  Na1  1  0.00294754  0.99723884  0.99655936  1
  Na  Na2  1  0.66553978  0.32783883  0.83007479  1
  Na  Na3  1  0.67216117  0.33446022  0.33007479  1
  Na  Na4  1  0.34685906  0.67259239  0.16319083  1
  Na  Na5  1  0.32740761  0.65314094  0.66319083  1
  Na  Na6  1  0.36351080  0.36324201  0.24731918  1
  Na  Na7  1  0.99353037  0.62524181  0.24834617  1
  Na  Na8  1  0.63675799  0.63648920  0.74731918  1
  Na  Na9  1  0.37475819  0.00646963  0.74834617  1
  Na  Na10  1  0.03752910  0.70041089  0.58019644  1
  Na  Na11  1  0.65711641  0.96244668  0.58424900  1
  Na  Na12  1  0.29958911  0.96247090  0.08019644  1
  Na  Na13  1  0.03755332  0.34288359  0.08424900  1
  Na  Na14  1  0.97002294  0.67216593  0.91824501  1
  Na  Na15  1  0.69937873  0.02950367  0.91200900  1
  Na  Na16  1  0.97049633  0.30062127  0.41200900  1
  Na  Na17  1  0.32783407  0.02997706  0.41824501  1
  Ga  Ga18  1  0.98982484  0.99114532  0.35132977  1
  Ga  Ga19  1  0.00885468  0.01017516  0.85132977  1
  Ga  Ga20  1  0.67117108  0.32355472  0.68477991  1
  Ga  Ga21  1  0.67644528  0.32882892  0.18477991  1
  Ga  Ga22  1  0.32812859  0.66940659  0.01754549  1
  Ga  Ga23  1  0.33059341  0.67187141  0.51754549  1
  Si  Si24  1  0.99313117  0.28600547  0.25230106  1
  Si  Si25  1  0.71399453  0.00686883  0.75230106  1
  Si  Si26  1  0.37341495  0.03950805  0.58411072  1
  Si  Si27  1  0.96049195  0.62658505  0.08411072  1
  Si  Si28  1  0.32876188  0.96331795  0.91736360  1
  Si  Si29  1  0.03668205  0.67123812  0.41736360  1
  Sn  Sn30  1  0.00560805  0.00675620  0.64918947  1
  Sn  Sn31  1  0.99324380  0.99439195  0.14918947  1
  Sn  Sn32  1  0.66191730  0.33587480  0.98234751  1
  Sn  Sn33  1  0.66412520  0.33808270  0.48234751  1
  Sn  Sn34  1  0.33153010  0.66592181  0.31588949  1
  Sn  Sn35  1  0.33407819  0.66846990  0.81588949  1
  P  P36  1  0.29742692  0.00438507  0.25100528  1
  P  P37  1  0.70647820  0.70658560  0.25145496  1
  P  P38  1  0.29341440  0.29352180  0.75145496  1
  P  P39  1  0.99561493  0.70257308  0.75100528  1
  P  P40  1  0.96115391  0.33676317  0.58343179  1
  P  P41  1  0.66104552  0.62184177  0.58658079  1
  P  P42  1  0.66323683  0.03884609  0.08343179  1
  P  P43  1  0.37815823  0.33895448  0.08658079  1
  P  P44  1  0.62160210  0.66621230  0.91800402  1
  P  P45  1  0.04489436  0.37296327  0.91921091  1
  P  P46  1  0.62703673  0.95510564  0.41921091  1
  P  P47  1  0.33378770  0.37839790  0.41800402  1
  O  O48  1  0.21272097  0.03389285  0.30679952  1
  O  O49  1  0.82759940  0.78957380  0.30537936  1
  O  O50  1  0.97410122  0.17214483  0.31207506  1
  O  O51  1  0.21042620  0.17240060  0.80537936  1
  O  O52  1  0.96610715  0.78727903  0.80679952  1
  O  O53  1  0.82785517  0.02589878  0.81207506  1
  O  O54  1  0.78873971  0.96091763  0.69114020  1
  O  O55  1  0.18501186  0.22022319  0.69320398  1
  O  O56  1  0.03901179  0.81990851  0.69350738  1
  O  O57  1  0.77977681  0.81498814  0.19320398  1
  O  O58  1  0.03908237  0.21126029  0.19114020  1
  O  O59  1  0.18009149  0.96098821  0.19350738  1
  O  O60  1  0.87605681  0.37340131  0.63710148  1
  O  O61  1  0.49690939  0.12785537  0.64259615  1
  O  O62  1  0.64056557  0.51527526  0.64355693  1
  O  O63  1  0.87214463  0.50309061  0.14259615  1
  O  O64  1  0.62659869  0.12394319  0.13710148  1
  O  O65  1  0.48472474  0.35943443  0.14355693  1
  O  O66  1  0.45099934  0.29129296  0.03043730  1
  O  O67  1  0.84893919  0.54868077  0.02164297  1
  O  O68  1  0.70272958  0.15154905  0.02492087  1
  O  O69  1  0.45131923  0.15106081  0.52164297  1
  O  O70  1  0.70870704  0.54900066  0.53043730  1
  O  O71  1  0.84845095  0.29727042  0.52492087  1
  O  O72  1  0.52798443  0.69283736  0.97101867  1
  O  O73  1  0.15147062  0.45469805  0.97654213  1
  O  O74  1  0.29287994  0.83930072  0.97631693  1
  O  O75  1  0.54530195  0.84852938  0.47654213  1
  O  O76  1  0.30716264  0.47201557  0.47101867  1
  O  O77  1  0.16069928  0.70712006  0.47631693  1
  O  O78  1  0.11375669  0.62500006  0.35669984  1
  O  O79  1  0.50840729  0.87652776  0.36306497  1
  O  O80  1  0.36799000  0.48144076  0.35780612  1
  O  O81  1  0.12347224  0.49159271  0.86306497  1
  O  O82  1  0.37499994  0.88624331  0.85669984  1
  O  O83  1  0.51855924  0.63201000  0.85780612  1
  O  O84  1  0.02862645  0.84937134  0.40890166  1
  O  O85  1  0.81071700  0.98246982  0.41270759  1
  O  O86  1  0.16983614  0.19689954  0.41368130  1
  O  O87  1  0.01753018  0.18928300  0.91270759  1
  O  O88  1  0.15062866  0.97137355  0.90890166  1
  O  O89  1  0.80310046  0.83016386  0.91368130  1
  O  O90  1  0.96847903  0.16616940  0.58896374  1
  O  O91  1  0.17431494  0.00786109  0.58797538  1
  O  O92  1  0.82658239  0.80854633  0.58953321  1
  O  O93  1  0.99213891  0.82568506  0.08797538  1
  O  O94  1  0.83383060  0.03152097  0.08896374  1
  O  O95  1  0.19145367  0.17341761  0.08953321  1
  O  O96  1  0.68555936  0.17371128  0.74639020  1
  O  O97  1  0.47728771  0.31713095  0.74524381  1
  O  O98  1  0.82942269  0.52653921  0.74256328  1
  O  O99  1  0.68286905  0.52271229  0.24524381  1
  O  O100  1  0.82628872  0.31444064  0.24639020  1
  O  O101  1  0.47346079  0.17057731  0.24256328  1
  O  O102  1  0.64974005  0.50688862  0.92126278  1
  O  O103  1  0.86066675  0.35705696  0.92195084  1
  O  O104  1  0.51047818  0.15116050  0.92220244  1
  O  O105  1  0.64294304  0.13933325  0.42195084  1
  O  O106  1  0.49311138  0.35025995  0.42126278  1
  O  O107  1  0.84883950  0.48952182  0.42220244  1
  O  O108  1  0.35631188  0.49836492  0.07802763  1
  O  O109  1  0.15374244  0.64353195  0.07904108  1
  O  O110  1  0.50249196  0.85841983  0.07640924  1
  O  O111  1  0.35646805  0.84625756  0.57904108  1
  O  O112  1  0.50163508  0.64368812  0.57802763  1
  O  O113  1  0.14158017  0.49750804  0.57640924  1
  O  O114  1  0.31427017  0.83881501  0.25562937  1
  O  O115  1  0.52284603  0.68607278  0.25696682  1
  O  O116  1  0.17253216  0.48254999  0.25400519  1
  O  O117  1  0.31392722  0.47715397  0.75696682  1
  O  O118  1  0.16118499  0.68572983  0.75562937  1
  O  O119  1  0.51745001  0.82746784  0.75400519  1
