# generated using pymatgen
data_K4I2O9
_symmetry_space_group_name_H-M   'P 1'
_cell_length_a   6.12245368
_cell_length_b   6.12228937
_cell_length_c   15.71488724
_cell_angle_alpha   89.99882489
_cell_angle_beta   89.99973758
_cell_angle_gamma   119.99980717
_symmetry_Int_Tables_number   1
_chemical_formula_structural   K4I2O9
_chemical_formula_sum   'K8 I4 O18'
_cell_volume   510.13145754
_cell_formula_units_Z   2
loop_
 _symmetry_equiv_pos_site_id
 _symmetry_equiv_pos_as_xyz
  1  'x, y, z'
loop_
 _atom_site_type_symbol
 _atom_site_label
 _atom_site_symmetry_multiplicity
 _atom_site_fract_x
 _atom_site_fract_y
 _atom_site_fract_z
 _atom_site_occupancy
  K  K0  1  -0.00005942  -0.00008304  0.00007067  1
  K  K1  1  0.00005306  0.00007841  0.49992877  1
  K  K2  1  0.00016470  0.00020060  0.24995999  1
  K  K3  1  0.00010819  -0.00008804  0.74995357  1
  K  K4  1  0.33346204  0.66670811  0.39866267  1
  K  K5  1  0.66664467  0.33324801  0.89864613  1
  K  K6  1  0.66665562  0.33332041  0.60134547  1
  K  K7  1  0.33342684  0.66668023  0.10135225  1
  I  I8  1  0.33331905  0.66666652  0.65867004  1
  I  I9  1  0.66668060  0.33333447  0.15866546  1
  I  I10  1  0.66665692  0.33336897  0.34133419  1
  I  I11  1  0.33331607  0.66668230  0.84133689  1
  O  O12  1  0.18370224  0.81627476  0.89543427  1
  O  O13  1  0.18382440  0.36754884  0.89547062  1
  O  O14  1  0.63253042  0.81635065  0.89540434  1
  O  O15  1  0.36744136  0.18367830  0.39541945  1
  O  O16  1  0.81624180  0.63253949  0.10456386  1
  O  O17  1  0.81625119  0.18369784  0.39538814  1
  O  O18  1  0.81623695  0.63249379  0.39545396  1
  O  O19  1  0.18362561  0.81615630  0.60457426  1
  O  O20  1  0.63249234  0.81628070  0.60457009  1
  O  O21  1  0.36745349  0.18373242  0.10458884  1
  O  O22  1  0.81623747  0.18368110  0.10458895  1
  O  O23  1  0.18378112  0.36746286  0.60459543  1
  O  O24  1  0.53243611  0.06499271  0.25000757  1
  O  O25  1  0.46745353  0.53242374  0.74999939  1
  O  O26  1  0.06485696  0.53232484  0.75002119  1
  O  O27  1  0.93498930  0.46755800  0.24999587  1
  O  O28  1  0.53244720  0.46756186  0.25000551  1
  O  O29  1  0.46756516  0.93512785  0.74999015  1
