# generated using pymatgen
data_MgMnCu2SnS4
_symmetry_space_group_name_H-M   'P 1'
_cell_length_a   5.78383799
_cell_length_b   5.78383799
_cell_length_c   7.24021456
_cell_angle_alpha   116.10500350
_cell_angle_beta   116.10500350
_cell_angle_gamma   84.16701804
_symmetry_Int_Tables_number   1
_chemical_formula_structural   MgMnCu2SnS4
_chemical_formula_sum   'Mg1 Mn1 Cu2 Sn1 S4'
_cell_volume   194.03570972
_cell_formula_units_Z   1
loop_
 _symmetry_equiv_pos_site_id
 _symmetry_equiv_pos_as_xyz
  1  'x, y, z'
loop_
 _atom_site_type_symbol
 _atom_site_label
 _atom_site_symmetry_multiplicity
 _atom_site_fract_x
 _atom_site_fract_y
 _atom_site_fract_z
 _atom_site_occupancy
  Mg  Mg0  1  0.25761971  0.25761971  0.51523942  1
  Mn  Mn1  1  0.99475496  0.99475496  0.98950992  1
  Cu  Cu2  1  0.74772120  0.24772120  0.49544240  1
  Cu  Cu3  1  0.24772120  0.74772120  0.49544240  1
  Sn  Sn4  1  0.52736903  0.52736903  0.05473806  1
  S  S5  1  0.91451434  0.91451434  0.26028958  1
  S  S6  1  0.34577524  0.34577524  0.26028958  1
  S  S7  1  0.08799267  0.62653165  0.71452432  1
  S  S8  1  0.62653165  0.08799267  0.71452432  1
