# generated using pymatgen
data_Na3HfMg(PO4)3
_symmetry_space_group_name_H-M   'P 1'
_cell_length_a   15.59705824
_cell_length_b   8.99121640
_cell_length_c   8.96998079
_cell_angle_alpha   90.00000000
_cell_angle_beta   124.74501467
_cell_angle_gamma   90.00000000
_symmetry_Int_Tables_number   1
_chemical_formula_structural   Na3HfMg(PO4)3
_chemical_formula_sum   'Na12 Hf4 Mg4 P12 O48'
_cell_volume   1033.62763143
_cell_formula_units_Z   4
loop_
 _symmetry_equiv_pos_site_id
 _symmetry_equiv_pos_as_xyz
  1  'x, y, z'
loop_
 _atom_site_type_symbol
 _atom_site_label
 _atom_site_symmetry_multiplicity
 _atom_site_fract_x
 _atom_site_fract_y
 _atom_site_fract_z
 _atom_site_occupancy
  Na  Na0  1  0.25185129  0.72207826  0.98382255  1
  Na  Na1  1  0.75185129  0.77792174  0.48382255  1
  Na  Na2  1  0.75185129  0.22207826  0.98382255  1
  Na  Na3  1  0.25185129  0.27792174  0.48382255  1
  Na  Na4  1  0.50211712  0.11139112  0.74567096  1
  Na  Na5  1  0.50211712  0.88860888  0.24567096  1
  Na  Na6  1  0.00211712  0.61139112  0.74567096  1
  Na  Na7  1  0.00211712  0.38860888  0.24567096  1
  Na  Na8  1  0.18458954  0.94232985  0.28629029  1
  Na  Na9  1  0.18458954  0.05767015  0.78629029  1
  Na  Na10  1  0.68458954  0.44232985  0.28629029  1
  Na  Na11  1  0.68458954  0.55767015  0.78629029  1
  Hf  Hf12  1  0.89451557  0.75754082  0.94144496  1
  Hf  Hf13  1  0.89451557  0.24245918  0.44144496  1
  Hf  Hf14  1  0.39451557  0.25754082  0.94144496  1
  Hf  Hf15  1  0.39451557  0.74245918  0.44144496  1
  Mg  Mg16  1  0.10156605  0.75034648  0.55732076  1
  Mg  Mg17  1  0.10156605  0.24965352  0.05732076  1
  Mg  Mg18  1  0.60156605  0.25034648  0.55732076  1
  Mg  Mg19  1  0.60156605  0.74965352  0.05732076  1
  P  P20  1  0.00334380  0.95192488  0.76224192  1
  P  P21  1  0.00334380  0.04807512  0.26224192  1
  P  P22  1  0.50334380  0.45192488  0.76224192  1
  P  P23  1  0.50334380  0.54807512  0.26224192  1
  P  P24  1  0.35259280  0.89704532  0.76147958  1
  P  P25  1  0.64432310  0.89357308  0.74599459  1
  P  P26  1  0.64432310  0.10642692  0.24599459  1
  P  P27  1  0.35259280  0.10295468  0.26147958  1
  P  P28  1  0.85259280  0.39704532  0.76147958  1
  P  P29  1  0.14432310  0.39357308  0.74599459  1
  P  P30  1  0.14432310  0.60642692  0.24599459  1
  P  P31  1  0.85259280  0.60295468  0.26147958  1
  O  O32  1  0.15045374  0.56277217  0.73821488  1
  O  O33  1  0.84706675  0.57342056  0.75823185  1
  O  O34  1  0.84706675  0.42657944  0.25823185  1
  O  O35  1  0.15045374  0.43722783  0.23821488  1
  O  O36  1  0.65045374  0.06277217  0.73821488  1
  O  O37  1  0.34706675  0.07342056  0.75823185  1
  O  O38  1  0.34706675  0.92657944  0.25823185  1
  O  O39  1  0.65045374  0.93722783  0.23821488  1
  O  O40  1  0.44232984  0.55831340  0.59376944  1
  O  O41  1  0.56738754  0.54277539  0.93455192  1
  O  O42  1  0.56738754  0.45722461  0.43455192  1
  O  O43  1  0.44232984  0.44168660  0.09376944  1
  O  O44  1  0.94232984  0.05831340  0.59376944  1
  O  O45  1  0.06738754  0.04277539  0.93455192  1
  O  O46  1  0.06738754  0.95722461  0.43455192  1
  O  O47  1  0.94232984  0.94168660  0.09376944  1
  O  O48  1  0.25621344  0.83842336  0.74758887  1
  O  O49  1  0.73717171  0.81557281  0.75302740  1
  O  O50  1  0.73717171  0.18442719  0.25302740  1
  O  O51  1  0.25621344  0.16157664  0.24758887  1
  O  O52  1  0.75621344  0.33842336  0.74758887  1
  O  O53  1  0.23717171  0.31557281  0.75302740  1
  O  O54  1  0.23717171  0.68442719  0.25302740  1
  O  O55  1  0.75621344  0.66157664  0.24758887  1
  O  O56  1  0.35105318  0.85896872  0.58747527  1
  O  O57  1  0.64237520  0.84431805  0.90522291  1
  O  O58  1  0.64237520  0.15568195  0.40522291  1
  O  O59  1  0.35105318  0.14103128  0.08747527  1
  O  O60  1  0.85105318  0.35896872  0.58747527  1
  O  O61  1  0.14237520  0.34431805  0.90522291  1
  O  O62  1  0.14237520  0.65568195  0.40522291  1
  O  O63  1  0.85105318  0.64103128  0.08747527  1
  O  O64  1  0.45451368  0.84520444  0.93185827  1
  O  O65  1  0.54234877  0.83312586  0.56587066  1
  O  O66  1  0.54234877  0.16687414  0.06587066  1
  O  O67  1  0.45451368  0.15479556  0.43185827  1
  O  O68  1  0.95451368  0.34520444  0.93185827  1
  O  O69  1  0.04234877  0.33312586  0.56587066  1
  O  O70  1  0.04234877  0.66687414  0.06587066  1
  O  O71  1  0.95451368  0.65479556  0.43185827  1
  O  O72  1  0.07623360  0.84798799  0.74572582  1
  O  O73  1  0.91795327  0.85270262  0.75419709  1
  O  O74  1  0.91795327  0.14729738  0.25419709  1
  O  O75  1  0.07623360  0.15201201  0.24572582  1
  O  O76  1  0.57623360  0.34798799  0.74572582  1
  O  O77  1  0.41795327  0.35270262  0.75419709  1
  O  O78  1  0.41795327  0.64729738  0.25419709  1
  O  O79  1  0.57623360  0.65201201  0.24572582  1
