# generated using pymatgen
data_Na30Ca8Nb16Si27(SO16)9
_symmetry_space_group_name_H-M   'P 1'
_cell_length_a   18.36379588
_cell_length_b   9.16462877
_cell_length_c   22.82672217
_cell_angle_alpha   89.88748488
_cell_angle_beta   89.85731235
_cell_angle_gamma   119.91320615
_symmetry_Int_Tables_number   1
_chemical_formula_structural   Na30Ca8Nb16Si27(SO16)9
_chemical_formula_sum   'Na30 Ca8 Nb16 Si27 S9 O144'
_cell_volume   3329.86302618
_cell_formula_units_Z   1
loop_
 _symmetry_equiv_pos_site_id
 _symmetry_equiv_pos_as_xyz
  1  'x, y, z'
loop_
 _atom_site_type_symbol
 _atom_site_label
 _atom_site_symmetry_multiplicity
 _atom_site_fract_x
 _atom_site_fract_y
 _atom_site_fract_z
 _atom_site_occupancy
  Na  Na0  1  0.18113486  0.00478306  0.73820259  1
  Na  Na1  1  0.65995816  0.34159807  0.59179891  1
  Na  Na2  1  0.01063856  0.66939937  0.58927407  1
  Na  Na3  1  0.50853123  0.66522182  0.58891656  1
  Na  Na4  1  0.66014516  0.97881234  0.09043933  1
  Na  Na5  1  0.50659466  0.35127425  0.08850121  1
  Na  Na6  1  0.48130491  0.68315438  0.90884897  1
  Na  Na7  1  0.98357584  0.68475750  0.90920232  1
  Na  Na8  1  0.35726154  0.03622046  0.91871294  1
  Na  Na9  1  0.85700668  0.03623059  0.91518245  1
  Na  Na10  1  0.15949243  0.28873011  0.91801839  1
  Na  Na11  1  0.65981977  0.28670900  0.91511571  1
  Na  Na12  1  0.48204784  0.28249433  0.40665582  1
  Na  Na13  1  0.98286448  0.28509285  0.41654139  1
  Na  Na14  1  0.15945238  0.03533647  0.41634709  1
  Na  Na15  1  0.65873677  0.03078831  0.41444975  1
  Na  Na16  1  0.35886746  0.67833727  0.41574276  1
  Na  Na17  1  0.85709999  0.68064321  0.41516891  1
  Na  Na18  1  0.99888370  0.01252318  0.49567753  1
  Na  Na19  1  0.49491711  0.00375887  0.49379170  1
  Na  Na20  1  0.00033525  0.99862480  0.99188019  1
  Na  Na21  1  0.49357938  0.98436518  0.99315947  1
  Na  Na22  1  0.34959217  0.37092902  0.82736926  1
  Na  Na23  1  0.84073914  0.35189171  0.82269550  1
  Na  Na24  1  0.34223970  0.33148867  0.32184113  1
  Na  Na25  1  0.83219335  0.33283320  0.32631048  1
  Na  Na26  1  0.16656854  0.66541278  0.16110438  1
  Na  Na27  1  0.67483487  0.66424478  0.16891283  1
  Na  Na28  1  0.17305345  0.64693616  0.66645615  1
  Na  Na29  1  0.67553790  0.68585620  0.67056535  1
  Ca  Ca30  1  0.99957269  0.00075095  0.35140349  1
  Ca  Ca31  1  0.50024930  0.00113158  0.35058400  1
  Ca  Ca32  1  0.99860635  0.99642814  0.85201261  1
  Ca  Ca33  1  0.49969463  0.99826766  0.85151481  1
  Ca  Ca34  1  0.33882074  0.34249549  0.68120433  1
  Ca  Ca35  1  0.83616306  0.33633543  0.68311752  1
  Ca  Ca36  1  0.33605525  0.33502678  0.18209077  1
  Ca  Ca37  1  0.83392976  0.33498348  0.18123693  1
  Nb  Nb38  1  0.99977284  0.98974885  0.64426792  1
  Nb  Nb39  1  0.49902567  0.98398247  0.64461370  1
  Nb  Nb40  1  0.00107110  0.99740341  0.13967427  1
  Nb  Nb41  1  0.49691488  0.01345143  0.14380031  1
  Nb  Nb42  1  0.33338805  0.33897659  0.98263414  1
  Nb  Nb43  1  0.83446912  0.33740794  0.98248482  1
  Nb  Nb44  1  0.33428902  0.32982925  0.48321584  1
  Nb  Nb45  1  0.83405211  0.32958846  0.48164884  1
  Nb  Nb46  1  0.16630535  0.66451618  0.02112287  1
  Nb  Nb47  1  0.66856393  0.66839745  0.02011896  1
  Nb  Nb48  1  0.16712595  0.66626785  0.52118915  1
  Nb  Nb49  1  0.66894855  0.67007161  0.51929312  1
  Nb  Nb50  1  0.16747540  0.66815367  0.31554940  1
  Nb  Nb51  1  0.66189722  0.65449274  0.31409638  1
  Nb  Nb52  1  0.16176813  0.66812036  0.81604226  1
  Nb  Nb53  1  0.66250988  0.66987629  0.81512588  1
  Si  Si54  1  0.50202460  0.30606930  0.25509645  1
  Si  Si55  1  0.00375316  0.69915341  0.75471064  1
  Si  Si56  1  0.50317107  0.69842551  0.75556204  1
  Si  Si57  1  0.48328871  0.32984021  0.58238085  1
  Si  Si58  1  0.98131379  0.32944683  0.58327895  1
  Si  Si59  1  0.18544861  0.03487882  0.58693036  1
  Si  Si60  1  0.68700950  0.03395277  0.58485979  1
  Si  Si61  1  0.33046955  0.62593836  0.58350519  1
  Si  Si62  1  0.83136490  0.62564381  0.58235681  1
  Si  Si63  1  0.48205718  0.63482510  0.08329622  1
  Si  Si64  1  0.98230492  0.62472887  0.08463002  1
  Si  Si65  1  0.32875793  0.03482623  0.08338927  1
  Si  Si66  1  0.83276935  0.03824752  0.08352804  1
  Si  Si67  1  0.18772172  0.33877146  0.08558411  1
  Si  Si68  1  0.68613295  0.33934624  0.08478118  1
  Si  Si69  1  0.30642312  0.65585321  0.91606717  1
  Si  Si70  1  0.80669516  0.65403794  0.91531061  1
  Si  Si71  1  0.01795229  0.38282880  0.91891233  1
  Si  Si72  1  0.51826083  0.38452645  0.91916243  1
  Si  Si73  1  0.17324731  0.96588102  0.91867456  1
  Si  Si74  1  0.67320414  0.96633279  0.91864938  1
  Si  Si75  1  0.30770486  0.96129658  0.41750611  1
  Si  Si76  1  0.80665952  0.96034606  0.41390862  1
  Si  Si77  1  0.17300094  0.38401038  0.41757140  1
  Si  Si78  1  0.67306390  0.38058406  0.41848930  1
  Si  Si79  1  0.01886182  0.65520336  0.41825410  1
  Si  Si80  1  0.51819895  0.65216650  0.41836440  1
  S  S81  1  0.14400139  0.98455394  0.25106645  1
  S  S82  1  0.64855874  0.98927447  0.25088067  1
  S  S83  1  0.34667601  0.70947291  0.25134375  1
  S  S84  1  0.84975649  0.70956686  0.25143654  1
  S  S85  1  0.00719875  0.30621509  0.25166181  1
  S  S86  1  0.14435474  0.30022195  0.75044217  1
  S  S87  1  0.64575292  0.30458902  0.74979217  1
  S  S88  1  0.34885510  0.98690991  0.75046267  1
  S  S89  1  0.84902200  0.98560122  0.75074076  1
  O  O90  1  0.10625953  0.99011128  0.30781765  1
  O  O91  1  0.60727601  0.99187964  0.30617733  1
  O  O92  1  0.38764194  0.78052439  0.30799834  1
  O  O93  1  0.89091156  0.78311346  0.30801012  1
  O  O94  1  0.50229490  0.21804656  0.31524771  1
  O  O95  1  0.00398066  0.22573856  0.30881405  1
  O  O96  1  0.10552417  0.21843471  0.80665653  1
  O  O97  1  0.60442435  0.21943783  0.80489752  1
  O  O98  1  0.50169954  0.78465801  0.81567817  1
  O  O99  1  0.00887582  0.79286130  0.81464354  1
  O  O100  1  0.39093502  0.00199265  0.80651976  1
  O  O101  1  0.89047713  -0.00020756  0.80736039  1
  O  O102  1  0.40147946  0.98570998  0.69957279  1
  O  O103  1  0.90174858  0.97853268  0.70071602  1
  O  O104  1  0.08892382  0.20162902  0.69959971  1
  O  O105  1  0.59288157  0.20788251  0.69706206  1
  O  O106  1  0.01212092  0.83360123  0.69678548  1
  O  O107  1  0.50799918  0.82884836  0.69659532  1
  O  O108  1  0.39804738  0.82136913  0.20119424  1
  O  O109  1  0.90194996  0.82008708  0.20114964  1
  O  O110  1  0.01213100  0.20515235  0.20195413  1
  O  O111  1  0.50740827  0.18720552  0.19650261  1
  O  O112  1  0.08780818  0.97370429  0.20109889  1
  O  O113  1  0.59734100  0.98213896  0.19830507  1
  O  O114  1  0.45369984  0.40595756  0.63289728  1
  O  O115  1  0.95267467  0.40788244  0.63365211  1
  O  O116  1  0.23190447  0.09104649  0.64752562  1
  O  O117  1  0.73983082  0.09895034  0.64198421  1
  O  O118  1  0.30840718  0.52230758  0.64175310  1
  O  O119  1  0.79613238  0.49765168  0.63516643  1
  O  O120  1  0.45371164  0.50067615  0.13414005  1
  O  O121  1  0.95176205  0.52237781  0.14304928  1
  O  O122  1  0.31122362  0.09861766  0.14210106  1
  O  O123  1  0.79712507  0.09298059  0.13690025  1
  O  O124  1  0.23921656  0.38057107  0.14340294  1
  O  O125  1  0.73790602  0.37773152  0.14259596  1
  O  O126  1  0.23451468  0.30406781  0.02677206  1
  O  O127  1  0.73204431  0.30029230  0.02675551  1
  O  O128  1  0.41876854  0.54023021  0.02427992  1
  O  O129  1  0.91672424  0.53149256  0.02705952  1
  O  O130  1  0.35156743  0.17011946  0.02592373  1
  O  O131  1  0.85041137  0.16533022  0.02504373  1
  O  O132  1  0.23800058  0.16568007  0.53032568  1
  O  O133  1  0.73355979  0.16553796  0.52641228  1
  O  O134  1  0.35185762  0.53435918  0.52615554  1
  O  O135  1  0.85281806  0.53611425  0.52439661  1
  O  O136  1  0.41981979  0.29923974  0.52356639  1
  O  O137  1  0.91787093  0.29721707  0.52367780  1
  O  O138  1  0.25241039  0.66199087  0.97108076  1
  O  O139  1  0.75011311  0.65655651  0.97059687  1
  O  O140  1  0.07801447  0.48814822  0.97207701  1
  O  O141  1  0.57402045  0.48842200  0.97534411  1
  O  O142  1  0.16589272  0.83902961  0.97021725  1
  O  O143  1  0.66822729  0.84931026  0.97385729  1
  O  O144  1  0.25038785  0.84358542  0.47090892  1
  O  O145  1  0.75241952  0.84455019  0.46997240  1
  O  O146  1  0.16491465  0.49258559  0.47032582  1
  O  O147  1  0.66854108  0.48738144  0.47387781  1
  O  O148  1  0.07471570  0.66823653  0.47472113  1
  O  O149  1  0.57485645  0.66124197  0.47427968  1
  O  O150  1  0.07216033  0.63779960  0.35964379  1
  O  O151  1  0.56932446  0.63329673  0.35969933  1
  O  O152  1  0.24843247  0.86096796  0.35745615  1
  O  O153  1  0.74809767  0.86277996  0.35601275  1
  O  O154  1  0.18342622  0.50534981  0.35752107  1
  O  O155  1  0.68264454  0.50311690  0.36018986  1
  O  O156  1  0.06780378  0.50424574  0.85860880  1
  O  O157  1  0.57025878  0.50548210  0.86022151  1
  O  O158  1  0.18233329  0.86804985  0.85679967  1
  O  O159  1  0.68272874  0.86261002  0.86021580  1
  O  O160  1  0.24692082  0.63699051  0.85697710  1
  O  O161  1  0.74833086  0.63448104  0.85663647  1
  O  O162  1  0.00747529  0.81817206  0.41626004  1
  O  O163  1  0.50827538  0.81640755  0.41766669  1
  O  O164  1  0.39828405  0.97589309  0.41834354  1
  O  O165  1  0.89962980  0.98305474  0.41645869  1
  O  O166  1  0.09090217  0.19934904  0.41660839  1
  O  O167  1  0.59287245  0.19419942  0.42004541  1
  O  O168  1  0.00675972  0.19800019  0.91695890  1
  O  O169  1  0.50853587  0.20056971  0.91835601  1
  O  O170  1  0.09349544  0.99384137  0.91939189  1
  O  O171  1  0.59248567  0.99063373  0.91993719  1
  O  O172  1  0.39800054  0.82154576  0.91728262  1
  O  O173  1  0.89795545  0.82032542  0.91868015  1
  O  O174  1  0.49049750  0.15925045  0.59385955  1
  O  O175  1  0.98493414  0.15470410  0.59499744  1
  O  O176  1  0.08988737  0.02291437  0.59131442  1
  O  O177  1  0.59267724  0.02797378  0.59188151  1
  O  O178  1  0.42247657  0.81284475  0.59027828  1
  O  O179  1  0.92153019  0.80687599  0.59275014  1
  O  O180  1  0.48950517  0.82033466  0.09578068  1
  O  O181  1  0.98734346  0.81637806  0.09256696  1
  O  O182  1  0.42169461  0.03135243  0.08983136  1
  O  O183  1  0.92031895  0.02734563  0.09609529  1
  O  O184  1  0.09227076  0.15710264  0.09408320  1
  O  O185  1  0.59153018  0.15683357  0.09230361  1
  O  O186  1  0.33106841  0.12633586  0.74574104  1
  O  O187  1  0.83443232  0.12726389  0.74464029  1
  O  O188  1  0.22625395  0.30779640  0.74626724  1
  O  O189  1  0.72948646  0.32337000  0.74720404  1
  O  O190  1  0.42665048  0.51209961  0.74939794  1
  O  O191  1  0.92603203  0.51502711  0.75026188  1
  O  O192  1  0.33151697  0.53854000  0.24634343  1
  O  O193  1  0.83679657  0.53855401  0.24811919  1
  O  O194  1  0.42634467  0.34144555  0.25015090  1
  O  O195  1  0.93423120  0.33040786  0.24825414  1
  O  O196  1  0.22821704  0.12935956  0.24685496  1
  O  O197  1  0.73366977  0.13655377  0.24984492  1
  O  O198  1  0.31091695  0.47946973  0.92015021  1
  O  O199  1  0.81166233  0.47901285  0.92186024  1
  O  O200  1  0.42739337  0.37999185  0.92068868  1
  O  O201  1  0.92736459  0.37951936  0.92165267  1
  O  O202  1  0.26247152  0.14640416  0.92232859  1
  O  O203  1  0.76208923  0.14710566  0.92174187  1
  O  O204  1  0.31013699  0.14359954  0.42096063  1
  O  O205  1  0.81074346  0.14495242  0.42045517  1
  O  O206  1  0.26022497  0.37648149  0.42341940  1
  O  O207  1  0.76257080  0.37844895  0.42128014  1
  O  O208  1  0.42656331  0.47629561  0.42130591  1
  O  O209  1  0.92811800  0.47682383  0.41960577  1
  O  O210  1  0.16224885  0.48122419  0.06959086  1
  O  O211  1  0.65706657  0.47999567  0.07255588  1
  O  O212  1  0.07831368  0.67324925  0.06904048  1
  O  O213  1  0.58094847  0.68375467  0.06938673  1
  O  O214  1  0.25761424  0.84209886  0.06870123  1
  O  O215  1  0.75932788  0.84388066  0.06833538  1
  O  O216  1  0.15905103  0.83854782  0.57204162  1
  O  O217  1  0.65757698  0.83604790  0.57110888  1
  O  O218  1  0.25880233  0.67582497  0.56816281  1
  O  O219  1  0.75918564  0.67562515  0.56777852  1
  O  O220  1  0.07781852  0.48111365  0.56765111  1
  O  O221  1  0.58153982  0.48041671  0.56888567  1
  O  O222  1  0.14702645  0.82058151  0.25006049  1
  O  O223  1  0.65254262  0.82753183  0.24958798  1
  O  O224  1  0.26274155  0.70820337  0.25039695  1
  O  O225  1  0.76688811  0.70700961  0.24960885  1
  O  O226  1  0.08851609  0.47699398  0.25075117  1
  O  O227  1  0.59641502  0.49237040  0.25350515  1
  O  O228  1  0.15271848  0.47191604  0.74877300  1
  O  O229  1  0.65009903  0.47392661  0.74803042  1
  O  O230  1  0.09922823  0.70458334  0.75067136  1
  O  O231  1  0.59707015  0.70120911  0.75345553  1
  O  O232  1  0.26639162  0.82223382  0.74829886  1
  O  O233  1  0.76716383  0.82005688  0.74938060  1
