# generated using pymatgen
data_Na3NbSi3GeO12
_symmetry_space_group_name_H-M   'P 1'
_cell_length_a   8.91616478
_cell_length_b   8.88767561
_cell_length_c   22.08752502
_cell_angle_alpha   90.00000000
_cell_angle_beta   90.16227025
_cell_angle_gamma   119.89436107
_symmetry_Int_Tables_number   1
_chemical_formula_structural   Na3NbSi3GeO12
_chemical_formula_sum   'Na18 Nb6 Si18 Ge6 O72'
_cell_volume   1517.41008895
_cell_formula_units_Z   6
loop_
 _symmetry_equiv_pos_site_id
 _symmetry_equiv_pos_as_xyz
  1  'x, y, z'
loop_
 _atom_site_type_symbol
 _atom_site_label
 _atom_site_symmetry_multiplicity
 _atom_site_fract_x
 _atom_site_fract_y
 _atom_site_fract_z
 _atom_site_occupancy
  Na  Na0  1  0.99259682  0.98250198  0.49636903  1
  Na  Na1  1  0.99259682  0.01009484  0.99636903  1
  Na  Na2  1  0.66635185  0.33424682  0.82966981  1
  Na  Na3  1  0.66635185  0.33210403  0.32966981  1
  Na  Na4  1  0.33204276  0.66548938  0.16301493  1
  Na  Na5  1  0.33204276  0.66655438  0.66301493  1
  Na  Na6  1  0.36844317  0.36752307  0.24873463  1
  Na  Na7  1  0.99421227  0.62991408  0.24819156  1
  Na  Na8  1  0.99421227  0.36429820  0.74819156  1
  Na  Na9  1  0.36844317  0.00092010  0.74873463  1
  Na  Na10  1  0.30075120  0.33875637  0.58187343  1
  Na  Na11  1  0.66543547  0.96639986  0.58162445  1
  Na  Na12  1  0.30075120  0.96199383  0.08187343  1
  Na  Na13  1  0.66543547  0.69903461  0.08162445  1
  Na  Na14  1  0.96790259  0.67277953  0.91483685  1
  Na  Na15  1  0.33224778  0.29898787  0.91545584  1
  Na  Na16  1  0.96790259  0.29512406  0.41483685  1
  Na  Na17  1  0.33224778  0.03326090  0.41545584  1
  Nb  Nb18  1  -0.00014495  0.99716599  0.64444498  1
  Nb  Nb19  1  -0.00014495  0.00268906  0.14444498  1
  Nb  Nb20  1  0.66790957  0.32836841  0.97771295  1
  Nb  Nb21  1  0.66790957  0.33954016  0.47771295  1
  Nb  Nb22  1  0.33716744  0.67084956  0.31114543  1
  Nb  Nb23  1  0.33716744  0.66631888  0.81114543  1
  Si  Si24  1  0.29393297  0.00883957  0.25097677  1
  Si  Si25  1  0.71576080  0.71137966  0.25080502  1
  Si  Si26  1  0.98675596  0.28081718  0.25246861  1
  Si  Si27  1  0.29393297  0.28509340  0.75097677  1
  Si  Si28  1  0.98675596  0.70593878  0.75246861  1
  Si  Si29  1  0.71576080  0.00438114  0.75080502  1
  Si  Si30  1  0.95979538  0.34711346  0.58469415  1
  Si  Si31  1  0.38116096  0.03994385  0.58429979  1
  Si  Si32  1  0.66119923  0.61823187  0.58544422  1
  Si  Si33  1  0.95979538  0.61268092  0.08469415  1
  Si  Si34  1  0.66119923  0.04296636  0.08544422  1
  Si  Si35  1  0.38116096  0.34121611  0.08429979  1
  Si  Si36  1  0.62757046  0.68059307  0.91953060  1
  Si  Si37  1  0.04842519  0.37370026  0.91692844  1
  Si  Si38  1  0.32843539  0.95119156  0.91779515  1
  Si  Si39  1  0.62757046  0.94697839  0.41953060  1
  Si  Si40  1  0.32843539  0.37724483  0.41779515  1
  Si  Si41  1  0.04842519  0.67472593  0.41692844  1
  Ge  Ge42  1  0.99714466  0.99668186  0.35359435  1
  Ge  Ge43  1  0.99714466  0.00046280  0.85359435  1
  Ge  Ge44  1  0.66632348  0.33580992  0.68699858  1
  Ge  Ge45  1  0.66632348  0.33051256  0.18699858  1
  Ge  Ge46  1  0.32977685  0.66073780  0.02025751  1
  Ge  Ge47  1  0.32977685  0.66904005  0.52025751  1
  O  O48  1  0.20599936  0.04424629  0.31068428  1
  O  O49  1  0.84717489  0.80200354  0.30786651  1
  O  O50  1  0.96526695  0.16768724  0.31326079  1
  O  O51  1  0.20599936  0.16175307  0.81068428  1
  O  O52  1  0.96526695  0.79757971  0.81326079  1
  O  O53  1  0.84717489  0.04517135  0.80786651  1
  O  O54  1  0.79906600  0.97120431  0.68963051  1
  O  O55  1  0.16865277  0.20193220  0.69113323  1
  O  O56  1  0.03136500  0.83767632  0.69449046  1
  O  O57  1  0.79906600  0.82786169  0.18963051  1
  O  O58  1  0.03136500  0.19368869  0.19449046  1
  O  O59  1  0.16865277  0.96672057  0.19113323  1
  O  O60  1  0.86748180  0.36786266  0.64536223  1
  O  O61  1  0.50446630  0.12730936  0.64421716  1
  O  O62  1  0.62080662  0.48691466  0.64229350  1
  O  O63  1  0.86748180  0.49961813  0.14536223  1
  O  O64  1  0.62080662  0.13389096  0.14229350  1
  O  O65  1  0.50446630  0.37715594  0.14421716  1
  O  O66  1  0.46622077  0.30120635  0.02462610  1
  O  O67  1  0.83416031  0.53324461  0.02493300  1
  O  O68  1  0.69605682  0.16601185  0.02566126  1
  O  O69  1  0.46622077  0.16501341  0.52462610  1
  O  O70  1  0.69605682  0.53004398  0.52566126  1
  O  O71  1  0.83416031  0.30091471  0.52493300  1
  O  O72  1  0.53640943  0.70368806  0.97993653  1
  O  O73  1  0.17804547  0.46550625  0.97456090  1
  O  O74  1  0.29253413  0.82750449  0.97723878  1
  O  O75  1  0.53640943  0.83272237  0.47993653  1
  O  O76  1  0.29253413  0.46503064  0.47723878  1
  O  O77  1  0.17804547  0.71254022  0.47456090  1
  O  O78  1  0.12993421  0.63285966  0.35662323  1
  O  O79  1  0.49562813  0.86077591  0.36129590  1
  O  O80  1  0.36119974  0.49529178  0.35721423  1
  O  O81  1  0.12993421  0.49707555  0.85662323  1
  O  O82  1  0.36119974  0.86590895  0.85721423  1
  O  O83  1  0.49562813  0.63485322  0.86129590  1
  O  O84  1  0.03643635  0.85105731  0.40967544  1
  O  O85  1  0.82206075  0.97717496  0.41108216  1
  O  O86  1  0.15590802  0.18364569  0.41182526  1
  O  O87  1  0.03643635  0.18537904  0.90967544  1
  O  O88  1  0.15590802  0.97226233  0.91182526  1
  O  O89  1  0.82206075  0.84488579  0.91108216  1
  O  O90  1  0.97781811  0.16970752  0.58868303  1
  O  O91  1  0.19309156  0.03119210  0.58840341  1
  O  O92  1  0.83080667  0.81374033  0.58780589  1
  O  O93  1  0.97781811  0.80811059  0.08868303  1
  O  O94  1  0.83080667  0.01706634  0.08780589  1
  O  O95  1  0.19309156  0.16189946  0.08840341  1
  O  O96  1  0.69423691  0.17715181  0.74463412  1
  O  O97  1  0.48128811  0.29665708  0.74351911  1
  O  O98  1  0.82219164  0.51098682  0.74438744  1
  O  O99  1  0.69423691  0.51708409  0.24463412  1
  O  O100  1  0.82219164  0.31120381  0.24438744  1
  O  O101  1  0.48128811  0.18463004  0.24351911  1
  O  O102  1  0.64342797  0.50243352  0.92250375  1
  O  O103  1  0.86047002  0.36518777  0.92159871  1
  O  O104  1  0.49700566  0.14817759  0.92064219  1
  O  O105  1  0.64342797  0.14099346  0.42250375  1
  O  O106  1  0.49700566  0.34882707  0.42064219  1
  O  O107  1  0.86047002  0.49528125  0.42159871  1
  O  O108  1  0.36808506  0.51703400  0.07748765  1
  O  O109  1  0.15549766  0.64429329  0.07726709  1
  O  O110  1  0.48856274  0.85117418  0.07784795  1
  O  O111  1  0.36808506  0.85105206  0.57748765  1
  O  O112  1  0.48856274  0.63738956  0.57784795  1
  O  O113  1  0.15549766  0.51120538  0.57726709  1
  O  O114  1  0.30252033  0.82883095  0.25493086  1
  O  O115  1  0.51949128  0.68398958  0.25461555  1
  O  O116  1  0.16413513  0.47465245  0.25519469  1
  O  O117  1  0.30252033  0.47369038  0.75493086  1
  O  O118  1  0.16413513  0.68948368  0.75519469  1
  O  O119  1  0.51949128  0.83550270  0.75461555  1
