# generated using pymatgen
data_PrFeO3
_symmetry_space_group_name_H-M   'P 1'
_cell_length_a   5.49878697
_cell_length_b   5.63563068
_cell_length_c   7.82389895
_cell_angle_alpha   90.00000000
_cell_angle_beta   90.00000000
_cell_angle_gamma   90.00000000
_symmetry_Int_Tables_number   1
_chemical_formula_structural   PrFeO3
_chemical_formula_sum   'Pr4 Fe4 O12'
_cell_volume   242.45584163
_cell_formula_units_Z   4
loop_
 _symmetry_equiv_pos_site_id
 _symmetry_equiv_pos_as_xyz
  1  'x, y, z'
loop_
 _atom_site_type_symbol
 _atom_site_label
 _atom_site_symmetry_multiplicity
 _atom_site_fract_x
 _atom_site_fract_y
 _atom_site_fract_z
 _atom_site_occupancy
  Pr  Pr0  1  0.01156896  0.94938099  0.75000000  1
  Pr  Pr1  1  0.51156896  0.55061901  0.25000000  1
  Pr  Pr2  1  0.48843104  0.44938099  0.75000000  1
  Pr  Pr3  1  0.98843104  0.05061901  0.25000000  1
  Fe  Fe4  1  -0.00000000  0.50000000  0.50000000  1
  Fe  Fe5  1  0.50000000  0.00000000  0.50000000  1
  Fe  Fe6  1  0.50000000  0.00000000  0.00000000  1
  Fe  Fe7  1  -0.00000000  0.50000000  0.00000000  1
  O  O8  1  0.70678429  0.29341482  0.45420401  1
  O  O9  1  0.20678429  0.20658518  0.54579599  1
  O  O10  1  0.79321571  0.79341482  0.04579599  1
  O  O11  1  0.29321571  0.70658518  0.95420401  1
  O  O12  1  0.29321571  0.70658518  0.54579599  1
  O  O13  1  0.79321571  0.79341482  0.45420401  1
  O  O14  1  0.20678429  0.20658518  0.95420401  1
  O  O15  1  0.70678429  0.29341482  0.04579599  1
  O  O16  1  0.08581555  0.47815424  0.25000000  1
  O  O17  1  0.58581555  0.02184576  0.75000000  1
  O  O18  1  0.41418445  0.97815424  0.25000000  1
  O  O19  1  0.91418445  0.52184576  0.75000000  1
