# generated using pymatgen
data_Na14Zn4Si7Sn4S5O48
_symmetry_space_group_name_H-M   'P 1'
_cell_length_a   18.25074120
_cell_length_b   9.15861066
_cell_length_c   22.34996581
_cell_angle_alpha   90.12347699
_cell_angle_beta   89.07383909
_cell_angle_gamma   120.01684513
_symmetry_Int_Tables_number   1
_chemical_formula_structural   Na14Zn4Si7Sn4S5O48
_chemical_formula_sum   'Na42 Zn12 Si21 Sn12 S15 O144'
_cell_volume   3234.27484334
_cell_formula_units_Z   3
loop_
 _symmetry_equiv_pos_site_id
 _symmetry_equiv_pos_as_xyz
  1  'x, y, z'
loop_
 _atom_site_type_symbol
 _atom_site_label
 _atom_site_symmetry_multiplicity
 _atom_site_fract_x
 _atom_site_fract_y
 _atom_site_fract_z
 _atom_site_occupancy
  Na  Na0  1  0.80867769  0.99207007  0.25441760  1
  Na  Na1  1  0.18255436  0.35340243  0.25688012  1
  Na  Na2  1  0.69035890  0.37097727  0.25739850  1
  Na  Na3  1  0.99324028  0.63837487  0.24447683  1
  Na  Na4  1  0.50151250  0.64290323  0.25318644  1
  Na  Na5  1  0.30925921  0.62576224  0.74283519  1
  Na  Na6  1  0.00055984  0.35704552  0.74706551  1
  Na  Na7  1  0.49650149  0.35494927  0.73858963  1
  Na  Na8  1  0.18997819  0.00937557  0.75226542  1
  Na  Na9  1  0.68470982  0.01277656  0.75133493  1
  Na  Na10  1  0.14964309  0.33153550  0.58299992  1
  Na  Na11  1  0.65786218  0.33646634  0.58066867  1
  Na  Na12  1  0.33787643  0.98683070  0.57795773  1
  Na  Na13  1  0.83417536  0.97433379  0.57916241  1
  Na  Na14  1  0.15514007  0.97433796  0.08745212  1
  Na  Na15  1  0.65009604  0.96710111  0.08887975  1
  Na  Na16  1  0.33355442  0.68936699  0.08918239  1
  Na  Na17  1  0.83644223  0.69167333  0.08406730  1
  Na  Na18  1  0.48190018  0.67579522  0.92507683  1
  Na  Na19  1  0.97500208  0.66765677  0.92132228  1
  Na  Na20  1  0.35566322  0.04454581  0.91562431  1
  Na  Na21  1  0.85127684  0.03753910  0.91137550  1
  Na  Na22  1  0.16761207  0.28298036  0.91539914  1
  Na  Na23  1  0.67232980  0.29370293  0.90745830  1
  Na  Na24  1  0.47713224  0.28617487  0.42151177  1
  Na  Na25  1  0.97626561  0.27685798  0.42500055  1
  Na  Na26  1  0.16997753  0.05172740  0.40670155  1
  Na  Na27  1  0.67485766  0.04530550  0.41305666  1
  Na  Na28  1  0.35275317  0.66750829  0.41105305  1
  Na  Na29  1  0.85219261  0.67700598  0.41902600  1
  Na  Na30  1  0.99253361  0.99801094  0.49426164  1
  Na  Na31  1  0.50315042  0.00162381  0.49777943  1
  Na  Na32  1  0.99831990  0.99773917  0.00017120  1
  Na  Na33  1  0.50114268  0.00146369  0.99966574  1
  Na  Na34  1  0.32778275  0.32171082  0.82565384  1
  Na  Na35  1  0.82385385  0.33426522  0.83312584  1
  Na  Na36  1  0.32547096  0.31562692  0.33533360  1
  Na  Na37  1  0.82608468  0.31976134  0.33284716  1
  Na  Na38  1  0.16954483  0.67597150  0.16804239  1
  Na  Na39  1  0.66295878  0.66526701  0.17531495  1
  Na  Na40  1  0.16137364  0.65835086  0.67148545  1
  Na  Na41  1  0.67161738  0.66603694  0.66374434  1
  Zn  Zn42  1  0.99931039  0.99922901  0.35044896  1
  Zn  Zn43  1  0.49344476  0.98406098  0.34319242  1
  Zn  Zn44  1  0.99179966  0.00028836  0.84112435  1
  Zn  Zn45  1  0.50953729  0.01582415  0.84328357  1
  Zn  Zn46  1  0.33536891  0.31915213  0.68531913  1
  Zn  Zn47  1  0.83473155  0.34833190  0.18713177  1
  Zn  Zn48  1  0.33447263  0.32978019  0.00833362  1
  Zn  Zn49  1  0.83214267  0.34448340  0.98088704  1
  Zn  Zn50  1  0.33350615  0.32380369  0.47973965  1
  Zn  Zn51  1  0.83172668  0.31798480  0.49443659  1
  Zn  Zn52  1  0.67932170  0.70164398  0.31337938  1
  Zn  Zn53  1  0.17118456  0.65887091  0.80892493  1
  Si  Si54  1  0.14997432  0.99719899  0.25277295  1
  Si  Si55  1  0.64757114  0.00632714  0.24981865  1
  Si  Si56  1  0.34946841  0.69252758  0.25051565  1
  Si  Si57  1  0.85132614  0.70519493  0.25302053  1
  Si  Si58  1  0.14760752  0.28637927  0.75137049  1
  Si  Si59  1  0.65320422  0.30874721  0.75196024  1
  Si  Si60  1  0.35279152  0.99553550  0.75526411  1
  Si  Si61  1  0.85004582  0.00835919  0.75088973  1
  Si  Si62  1  0.47844823  0.33750437  0.58224830  1
  Si  Si63  1  0.98592273  0.34227803  0.58345032  1
  Si  Si64  1  0.68023118  0.03260042  0.58338862  1
  Si  Si65  1  0.83888581  0.62861889  0.57821002  1
  Si  Si66  1  0.48446158  0.62881709  0.08216330  1
  Si  Si67  1  0.97622732  0.62051978  0.08277981  1
  Si  Si68  1  0.33933413  0.04268745  0.07846529  1
  Si  Si69  1  0.18130153  0.32619095  0.08174467  1
  Si  Si70  1  0.81804314  0.67036031  0.91834176  1
  Si  Si71  1  0.66399439  0.96490594  0.91624360  1
  Si  Si72  1  0.31816513  0.96630932  0.41861880  1
  Si  Si73  1  0.81578556  0.97227597  0.41576277  1
  Si  Si74  1  0.16702635  0.36744088  0.41687347  1
  Sn  Sn75  1  0.99285100  0.99933713  0.64846451  1
  Sn  Sn76  1  0.50265170  0.01999439  0.65016504  1
  Sn  Sn77  1  0.00263830  0.98770583  0.15101513  1
  Sn  Sn78  1  0.49323275  0.98594507  0.15003150  1
  Sn  Sn79  1  0.83107646  0.33065464  0.67988167  1
  Sn  Sn80  1  0.33035450  0.32851044  0.18172837  1
  Sn  Sn81  1  0.16517767  0.66454133  0.02477986  1
  Sn  Sn82  1  0.66579072  0.67370317  0.01609174  1
  Sn  Sn83  1  0.16554271  0.65962497  0.51611609  1
  Sn  Sn84  1  0.67070436  0.67309946  0.52255551  1
  Sn  Sn85  1  0.17882187  0.68191129  0.31464860  1
  Sn  Sn86  1  0.67928860  0.67731972  0.81390380  1
  S  S87  1  0.00086205  0.29393301  0.25137957  1
  S  S88  1  0.49774426  0.29116485  0.25062058  1
  S  S89  1  0.99878731  0.70528328  0.75158016  1
  S  S90  1  0.49966390  0.70701877  0.75331948  1
  S  S91  1  0.18237639  0.03017761  0.58363693  1
  S  S92  1  0.33406559  0.63215020  0.58388348  1
  S  S93  1  0.83405246  0.03755409  0.08202230  1
  S  S94  1  0.68138607  0.33437807  0.08219362  1
  S  S95  1  0.31202644  0.66285909  0.91600879  1
  S  S96  1  0.02489477  0.38042496  0.91614549  1
  S  S97  1  0.51945712  0.37770822  0.91545042  1
  S  S98  1  0.16725823  0.95504978  0.91499762  1
  S  S99  1  0.66465338  0.37468317  0.41440174  1
  S  S100  1  0.02134000  0.66425590  0.41525043  1
  S  S101  1  0.52315739  0.66794421  0.41593718  1
  O  O102  1  0.10981614  0.04012330  0.31003684  1
  O  O103  1  0.60565794  0.04755599  0.30798035  1
  O  O104  1  0.40410720  0.77211337  0.30968064  1
  O  O105  1  0.91259395  0.79484974  0.30886694  1
  O  O106  1  0.48511888  0.19405379  0.30582752  1
  O  O107  1  0.99215017  0.20015312  0.30648550  1
  O  O108  1  0.10747567  0.16689384  0.81120986  1
  O  O109  1  0.61749876  0.19242716  0.81158368  1
  O  O110  1  0.48918717  0.78138680  0.80933751  1
  O  O111  1  0.98823262  0.77811444  0.80770678  1
  O  O112  1  0.40976011  0.02061086  0.81394893  1
  O  O113  1  0.90295610  0.03796691  0.81135322  1
  O  O114  1  0.39448010  0.95223230  0.69433486  1
  O  O115  1  0.89065512  0.97392855  0.69049428  1
  O  O116  1  0.08873647  0.19368527  0.69130927  1
  O  O117  1  0.59107560  0.22283302  0.69366000  1
  O  O118  1  0.01182957  0.81577040  0.69849681  1
  O  O119  1  0.51536588  0.81958995  0.70067158  1
  O  O120  1  0.38836281  0.80427641  0.18876206  1
  O  O121  1  0.89208227  0.83091897  0.19071969  1
  O  O122  1  0.01758516  0.21470806  0.19756849  1
  O  O123  1  0.50999916  0.20681731  0.19646064  1
  O  O124  1  0.09384681  0.96208332  0.19066002  1
  O  O125  1  0.59051107  0.98374009  0.18800900  1
  O  O126  1  0.44006569  0.36332356  0.64475305  1
  O  O127  1  0.94368940  0.36478283  0.64593809  1
  O  O128  1  0.23312279  0.10449176  0.63772744  1
  O  O129  1  0.73995906  0.11310519  0.64308758  1
  O  O130  1  0.32186571  0.53068151  0.63811812  1
  O  O131  1  0.81838852  0.50685800  0.63729742  1
  O  O132  1  0.43918352  0.51582931  0.14234902  1
  O  O133  1  0.93709876  0.51518601  0.14384662  1
  O  O134  1  0.31458546  0.12800343  0.13382344  1
  O  O135  1  0.82165322  0.11522281  0.13588704  1
  O  O136  1  0.24307849  0.36805774  0.13975598  1
  O  O137  1  0.73248314  0.36052232  0.13560380  1
  O  O138  1  0.21874345  0.28504958  0.02131748  1
  O  O139  1  0.71841742  0.30446638  0.02748338  1
  O  O140  1  0.42805841  0.55527942  0.02242304  1
  O  O141  1  0.92201270  0.54281123  0.02256456  1
  O  O142  1  0.35192433  0.13815133  0.01508405  1
  O  O143  1  0.83897026  0.12631335  0.02617649  1
  O  O144  1  0.22015390  0.13497968  0.52966371  1
  O  O145  1  0.71548793  0.15176398  0.52460300  1
  O  O146  1  0.33919021  0.55162385  0.52854815  1
  O  O147  1  0.84951755  0.54889825  0.51669658  1
  O  O148  1  0.41927538  0.29877685  0.52431963  1
  O  O149  1  0.92985620  0.30327311  0.52494925  1
  O  O150  1  0.26955854  0.68455816  0.97192971  1
  O  O151  1  0.77336675  0.69999548  0.98044915  1
  O  O152  1  0.07930741  0.46792609  0.96962938  1
  O  O153  1  0.57330395  0.45917357  0.96949088  1
  O  O154  1  0.16028909  0.85548077  0.97161117  1
  O  O155  1  0.64426312  0.84198859  0.97637407  1
  O  O156  1  0.27358034  0.84840042  0.48099510  1
  O  O157  1  0.77050441  0.84429303  0.47554431  1
  O  O158  1  0.14850967  0.45094113  0.47777043  1
  O  O159  1  0.65376270  0.45541321  0.47095045  1
  O  O160  1  0.07559850  0.69040887  0.46923929  1
  O  O161  1  0.57533005  0.68368451  0.46929114  1
  O  O162  1  0.06323385  0.64010500  0.36043635  1
  O  O163  1  0.56002519  0.64093910  0.36049526  1
  O  O164  1  0.25028912  0.87607757  0.36445762  1
  O  O165  1  0.75627577  0.89595253  0.35757717  1
  O  O166  1  0.17947740  0.48889456  0.35767794  1
  O  O167  1  0.66814245  0.47303486  0.36109240  1
  O  O168  1  0.06400722  0.48314686  0.86153468  1
  O  O169  1  0.56211798  0.48143454  0.86058280  1
  O  O170  1  0.17291929  0.86477431  0.86189247  1
  O  O171  1  0.67640450  0.86751004  0.85745027  1
  O  O172  1  0.26063307  0.64441497  0.86314536  1
  O  O173  1  0.74982990  0.62457496  0.86434761  1
  O  O174  1  0.01612772  0.81902517  0.41303505  1
  O  O175  1  0.51876001  0.82621676  0.41515662  1
  O  O176  1  0.40988266  0.97494768  0.41312986  1
  O  O177  1  0.90770749  0.98014459  0.41371004  1
  O  O178  1  0.08380826  0.18158455  0.41492857  1
  O  O179  1  0.58868271  0.20248838  0.41548073  1
  O  O180  1  0.01980526  0.21352747  0.91537080  1
  O  O181  1  0.51116802  0.20871895  0.91389063  1
  O  O182  1  0.08980410  0.96922101  0.91680069  1
  O  O183  1  0.57822031  0.98022062  0.91370968  1
  O  O184  1  0.39666722  0.81690919  0.91481112  1
  O  O185  1  0.90991141  0.84462989  0.91281609  1
  O  O186  1  0.48579299  0.15880303  0.58600298  1
  O  O187  1  0.00077638  0.17529647  0.58751254  1
  O  O188  1  0.09567507  0.00767328  0.58959299  1
  O  O189  1  0.58453254  0.00989455  0.59263742  1
  O  O190  1  0.40958137  0.80597099  0.58664914  1
  O  O191  1  0.92116865  0.82373277  0.58663332  1
  O  O192  1  0.49826346  0.82380723  0.08621800  1
  O  O193  1  0.98623091  0.81524187  0.08553980  1
  O  O194  1  0.42130110  0.01491488  0.08739381  1
  O  O195  1  0.90958485  0.01445863  0.08470100  1
  O  O196  1  0.08615400  0.15878932  0.09077644  1
  O  O197  1  0.59440122  0.18383344  0.08783930  1
  O  O198  1  0.34530994  0.16606356  0.74939869  1
  O  O199  1  0.84480639  0.18402613  0.74589862  1
  O  O200  1  0.24490439  0.32039501  0.74244036  1
  O  O201  1  0.74669842  0.32635634  0.74372344  1
  O  O202  1  0.42242166  0.53995739  0.74719272  1
  O  O203  1  0.92371105  0.53368757  0.74585081  1
  O  O204  1  0.34472302  0.50667541  0.24539771  1
  O  O205  1  0.84329560  0.51877106  0.24813280  1
  O  O206  1  0.42167940  0.31176126  0.24432927  1
  O  O207  1  0.92325684  0.30498696  0.24500254  1
  O  O208  1  0.24444937  0.16707295  0.24459084  1
  O  O209  1  0.74433352  0.16640928  0.24116830  1
  O  O210  1  0.31967521  0.50943245  0.91964175  1
  O  O211  1  0.82603268  0.50094522  0.91888828  1
  O  O212  1  0.43623586  0.36752224  0.91900845  1
  O  O213  1  0.93929007  0.35885678  0.92243563  1
  O  O214  1  0.24448222  0.12442264  0.91582604  1
  O  O215  1  0.75244443  0.14511739  0.92122837  1
  O  O216  1  0.32618938  0.15138812  0.41913520  1
  O  O217  1  0.82545216  0.16053159  0.42264204  1
  O  O218  1  0.25641060  0.36640596  0.42135706  1
  O  O219  1  0.74350030  0.36587907  0.41573879  1
  O  O220  1  0.43617582  0.51998839  0.42194710  1
  O  O221  1  0.93796944  0.51148677  0.41908193  1
  O  O222  1  0.17833217  0.50333189  0.07767572  1
  O  O223  1  0.67568176  0.49361760  0.07697692  1
  O  O224  1  0.07760457  0.66775524  0.07817245  1
  O  O225  1  0.58186853  0.65294407  0.08106440  1
  O  O226  1  0.25349502  0.84843985  0.07731071  1
  O  O227  1  0.75440476  0.85813903  0.08171514  1
  O  O228  1  0.17650940  0.85963012  0.57827265  1
  O  O229  1  0.67535451  0.84850069  0.58048673  1
  O  O230  1  0.25483873  0.65282116  0.58338692  1
  O  O231  1  0.75222962  0.64895847  0.57935187  1
  O  O232  1  0.08367488  0.51334185  0.58229562  1
  O  O233  1  0.57871666  0.49085385  0.57551832  1
  O  O234  1  0.14936455  0.81393569  0.25549043  1
  O  O235  1  0.64740813  0.82654588  0.25024236  1
  O  O236  1  0.25103595  0.65750840  0.25032777  1
  O  O237  1  0.75507260  0.67812691  0.25217086  1
  O  O238  1  0.07705252  0.46928237  0.25288839  1
  O  O239  1  0.57459806  0.46031789  0.25228561  1
  O  O240  1  0.15017394  0.46946637  0.75288118  1
  O  O241  1  0.64962648  0.48737132  0.75503889  1
  O  O242  1  0.07682289  0.69044401  0.75275234  1
  O  O243  1  0.57603537  0.68491036  0.75498203  1
  O  O244  1  0.25649738  0.83000116  0.75400177  1
  O  O245  1  0.75175975  0.84644946  0.75067304  1
