# generated using pymatgen
data_Na4Zn3GeP2(SO6)4
_symmetry_space_group_name_H-M   'P 1'
_cell_length_a   8.78681451
_cell_length_b   8.76723578
_cell_length_c   22.08640850
_cell_angle_alpha   90.62425821
_cell_angle_beta   89.99973854
_cell_angle_gamma   120.11013883
_symmetry_Int_Tables_number   1
_chemical_formula_structural   Na4Zn3GeP2(SO6)4
_chemical_formula_sum   'Na12 Zn9 Ge3 P6 S12 O72'
_cell_volume   1471.74435538
_cell_formula_units_Z   3
loop_
 _symmetry_equiv_pos_site_id
 _symmetry_equiv_pos_as_xyz
  1  'x, y, z'
loop_
 _atom_site_type_symbol
 _atom_site_label
 _atom_site_symmetry_multiplicity
 _atom_site_fract_x
 _atom_site_fract_y
 _atom_site_fract_z
 _atom_site_occupancy
  Na  Na0  1  0.63444817  0.99851163  0.25440241  1
  Na  Na1  1  0.36227422  0.36270794  0.25092454  1
  Na  Na2  1  0.30293357  0.33893897  0.59094540  1
  Na  Na3  1  0.66724031  0.95755804  0.58334850  1
  Na  Na4  1  0.97760037  0.67831920  0.91297589  1
  Na  Na5  1  0.32384209  0.29681331  0.91051741  1
  Na  Na6  1  0.98879900  0.98121814  0.49733815  1
  Na  Na7  1  0.98738007  0.00215625  0.99720067  1
  Na  Na8  1  0.66070102  0.32185791  0.82645592  1
  Na  Na9  1  0.67962146  0.34006094  0.33613040  1
  Na  Na10  1  0.31898948  0.66538678  0.16137646  1
  Na  Na11  1  0.32688978  0.66276139  0.67032498  1
  Zn  Zn12  1  0.99066083  0.99697273  0.35418964  1
  Zn  Zn13  1  0.99776250  0.00565840  0.84761582  1
  Zn  Zn14  1  0.99888086  0.99103644  0.65836227  1
  Zn  Zn15  1  0.99987200  0.99705717  0.14619669  1
  Zn  Zn16  1  0.65862848  0.34360090  0.68854541  1
  Zn  Zn17  1  0.67369826  0.33963416  0.18024185  1
  Zn  Zn18  1  0.33785068  0.66868622  0.01340586  1
  Zn  Zn19  1  0.34327432  0.67271405  0.51131135  1
  Zn  Zn20  1  0.33365452  0.67986448  0.32735857  1
  Ge  Ge21  1  0.66763721  0.32867483  0.97820281  1
  Ge  Ge22  1  0.67103453  0.33780321  0.48211389  1
  Ge  Ge23  1  0.33309449  0.65886859  0.81927197  1
  P  P24  1  0.29621403  0.30387514  0.75252892  1
  P  P25  1  0.67053478  0.62389368  0.58173411  1
  P  P26  1  0.62638122  0.66643972  0.91943333  1
  P  P27  1  0.03809889  0.37427036  0.91908859  1
  P  P28  1  0.34026289  0.95683230  0.91815496  1
  P  P29  1  0.63744111  0.97838719  0.41943598  1
  S  S30  1  0.29018659  0.99587290  0.24964089  1
  S  S31  1  0.70587006  0.70380501  0.24948305  1
  S  S32  1  0.00287878  0.29859119  0.24976082  1
  S  S33  1  0.01020554  0.70126388  0.75365928  1
  S  S34  1  0.69207728  0.99220065  0.75063500  1
  S  S35  1  0.95661550  0.33786930  0.58285194  1
  S  S36  1  0.37684834  0.04346775  0.58200719  1
  S  S37  1  0.95841502  0.62531193  0.08122555  1
  S  S38  1  0.66686613  0.04290337  0.08285073  1
  S  S39  1  0.37453835  0.33248006  0.08245226  1
  S  S40  1  0.33904427  0.36589029  0.41774394  1
  S  S41  1  0.03064072  0.66004500  0.41913017  1
  O  O42  1  0.20904974  0.02563603  0.30353007  1
  O  O43  1  0.80984894  0.78392789  0.30459927  1
  O  O44  1  0.97205860  0.18681349  0.30321115  1
  O  O45  1  0.21023802  0.19665621  0.80920602  1
  O  O46  1  0.98412975  0.78109602  0.80904325  1
  O  O47  1  0.80133350  0.01499076  0.80388831  1
  O  O48  1  0.76335759  0.96113608  0.69319829  1
  O  O49  1  0.18924353  0.22723671  0.69279153  1
  O  O50  1  0.03637501  0.80590479  0.69876702  1
  O  O51  1  0.78480720  0.81239247  0.19513662  1
  O  O52  1  0.03275635  0.21861532  0.19448046  1
  O  O53  1  0.19017097  0.97530879  0.19357568  1
  O  O54  1  0.87361786  0.35698897  0.63679339  1
  O  O55  1  0.48928841  0.12140413  0.63541924  1
  O  O56  1  0.63176758  0.50376654  0.63512285  1
  O  O57  1  0.87516727  0.52148080  0.13547856  1
  O  O58  1  0.64739386  0.12173777  0.14006310  1
  O  O59  1  0.47438877  0.35091571  0.13885795  1
  O  O60  1  0.46459688  0.30809201  0.02630169  1
  O  O61  1  0.84549179  0.53746897  0.02383971  1
  O  O62  1  0.69340177  0.16108547  0.02856861  1
  O  O63  1  0.46089085  0.15982493  0.52638899  1
  O  O64  1  0.69864328  0.53477352  0.52208670  1
  O  O65  1  0.83990597  0.30176446  0.52639664  1
  O  O66  1  0.55316992  0.69650076  0.97669066  1
  O  O67  1  0.15075034  0.45118312  0.97515271  1
  O  O68  1  0.30123216  0.84697419  0.97412411  1
  O  O69  1  0.55276121  0.87063316  0.47595656  1
  O  O70  1  0.31315742  0.44651010  0.47260280  1
  O  O71  1  0.13478322  0.68040423  0.47331869  1
  O  O72  1  0.10201718  0.62588491  0.36307350  1
  O  O73  1  0.52957101  0.90388073  0.35995742  1
  O  O74  1  0.36474765  0.47058055  0.36206180  1
  O  O75  1  0.12056660  0.50303240  0.86311460  1
  O  O76  1  0.37489848  0.87032894  0.86064177  1
  O  O77  1  0.49686700  0.61822411  0.86317875  1
  O  O78  1  0.00916377  0.81550246  0.41365263  1
  O  O79  1  0.82273287  0.00432861  0.41408162  1
  O  O80  1  0.18818666  0.18602473  0.41208957  1
  O  O81  1  0.01125775  0.19041870  0.90939015  1
  O  O82  1  0.18459361  0.98835236  0.90918519  1
  O  O83  1  0.81338615  0.81612976  0.90856997  1
  O  O84  1  0.97429915  0.17660182  0.58377180  1
  O  O85  1  0.20407096  0.03410042  0.58589840  1
  O  O86  1  0.83398060  0.81040539  0.58625607  1
  O  O87  1  0.96969396  0.79951185  0.08327188  1
  O  O88  1  0.82835480  0.02974684  0.08407575  1
  O  O89  1  0.19966921  0.17027137  0.08319800  1
  O  O90  1  0.67124419  0.14774928  0.74543782  1
  O  O91  1  0.48213884  0.33042946  0.74865749  1
  O  O92  1  0.85925097  0.52088389  0.74782461  1
  O  O93  1  0.67972074  0.52188782  0.24428378  1
  O  O94  1  0.84101363  0.31334711  0.24434693  1
  O  O95  1  0.47220160  0.15830947  0.24629078  1
  O  O96  1  0.63750577  0.48656170  0.92378454  1
  O  O97  1  0.85224572  0.36601554  0.92417983  1
  O  O98  1  0.51148316  0.14941795  0.92375916  1
  O  O99  1  0.64881136  0.16659855  0.42632308  1
  O  O100  1  0.50690075  0.35646967  0.42285506  1
  O  O101  1  0.84865616  0.49524329  0.42353606  1
  O  O102  1  0.36077483  0.49169888  0.07823821  1
  O  O103  1  0.13169199  0.64118562  0.07642959  1
  O  O104  1  0.50762922  0.87007643  0.07712676  1
  O  O105  1  0.35577153  0.86637137  0.57430912  1
  O  O106  1  0.50284957  0.64164785  0.57487986  1
  O  O107  1  0.13362499  0.49387901  0.57556100  1
  O  O108  1  0.31478002  0.83989545  0.25408478  1
  O  O109  1  0.52533300  0.68394456  0.25433778  1
  O  O110  1  0.16366816  0.47516814  0.25677130  1
  O  O111  1  0.30873407  0.49321918  0.75970383  1
  O  O112  1  0.17866841  0.69336287  0.75922724  1
  O  O113  1  0.51297848  0.82652609  0.75741831  1
