# generated using pymatgen
data_Na2Zr2Si(PO6)2
_symmetry_space_group_name_H-M   'P 1'
_cell_length_a   9.06010629
_cell_length_b   9.06010598
_cell_length_c   23.34570566
_cell_angle_alpha   90.02755326
_cell_angle_beta   89.97244675
_cell_angle_gamma   119.76171143
_symmetry_Int_Tables_number   1
_chemical_formula_structural   Na2Zr2Si(PO6)2
_chemical_formula_sum   'Na12 Zr12 Si6 P12 O72'
_cell_volume   1663.57332744
_cell_formula_units_Z   6
loop_
 _symmetry_equiv_pos_site_id
 _symmetry_equiv_pos_as_xyz
  1  'x, y, z'
loop_
 _atom_site_type_symbol
 _atom_site_label
 _atom_site_symmetry_multiplicity
 _atom_site_fract_x
 _atom_site_fract_y
 _atom_site_fract_z
 _atom_site_occupancy
  Na  Na0  1  0.00021535  0.63338960  0.25026592  1
  Na  Na1  1  0.36661040  0.99978465  0.75026592  1
  Na  Na2  1  0.66462723  0.96818173  0.58461442  1
  Na  Na3  1  0.03181827  0.33537277  0.08461442  1
  Na  Na4  1  0.97122159  0.66874939  0.91788308  1
  Na  Na5  1  0.33125061  0.02877841  0.41788308  1
  Na  Na6  1  0.00286088  0.99774328  0.50016405  1
  Na  Na7  1  0.00225672  0.99713912  0.00016405  1
  Na  Na8  1  0.66555683  0.32910599  0.83357763  1
  Na  Na9  1  0.67089401  0.33444317  0.33357763  1
  Na  Na10  1  0.34104499  0.66972138  0.16674011  1
  Na  Na11  1  0.33027862  0.65895501  0.66674011  1
  Zr  Zr12  1  0.99257890  0.00149779  0.35254118  1
  Zr  Zr13  1  0.99850221  0.00742110  0.85254118  1
  Zr  Zr14  1  0.00411883  0.99930357  0.64792165  1
  Zr  Zr15  1  0.00069643  0.99588117  0.14792165  1
  Zr  Zr16  1  0.66946826  0.33268915  0.68557480  1
  Zr  Zr17  1  0.66731085  0.33053174  0.18557480  1
  Zr  Zr18  1  0.65912039  0.32878405  0.98122403  1
  Zr  Zr19  1  0.67121595  0.34087961  0.48122403  1
  Zr  Zr20  1  0.33427214  0.67492327  0.01912595  1
  Zr  Zr21  1  0.32507673  0.66572786  0.51912595  1
  Zr  Zr22  1  0.33007149  0.65908978  0.31443051  1
  Zr  Zr23  1  0.34091022  0.66992851  0.81443051  1
  Si  Si24  1  0.00014385  0.29145450  0.24879153  1
  Si  Si25  1  0.70854550  -0.00014385  0.74879153  1
  Si  Si26  1  0.37303847  0.04260395  0.58246131  1
  Si  Si27  1  0.95739605  0.62696153  0.08246131  1
  Si  Si28  1  0.33493245  0.96228700  0.91554191  1
  Si  Si29  1  0.03771300  0.66506755  0.41554191  1
  P  P30  1  0.29234953  0.00187355  0.25123919  1
  P  P31  1  0.70800081  0.71015607  0.24977398  1
  P  P32  1  0.28984393  0.29199919  0.74977398  1
  P  P33  1  -0.00187355  0.70765047  0.75123919  1
  P  P34  1  0.95864122  0.33408294  0.58340520  1
  P  P35  1  0.66672050  0.62474779  0.58378395  1
  P  P36  1  0.66591706  0.04135878  0.08340520  1
  P  P37  1  0.37525221  0.33327950  0.08378395  1
  P  P38  1  0.62442357  0.66662828  0.91702314  1
  P  P39  1  0.04377629  0.37652589  0.91743955  1
  P  P40  1  0.62347411  0.95622371  0.41743955  1
  P  P41  1  0.33337172  0.37557643  0.41702314  1
  O  O42  1  0.20862494  0.02593227  0.30554813  1
  O  O43  1  0.82428412  0.79072352  0.30284603  1
  O  O44  1  0.97211311  0.17282935  0.30483274  1
  O  O45  1  0.20927648  0.17571588  0.80284603  1
  O  O46  1  0.97406773  0.79137506  0.80554813  1
  O  O47  1  0.82717065  0.02788689  0.80483274  1
  O  O48  1  0.79377618  0.97218171  0.69105464  1
  O  O49  1  0.17937786  0.20528619  0.69653549  1
  O  O50  1  0.03260112  0.82471221  0.69838439  1
  O  O51  1  0.79471381  0.82062214  0.19653549  1
  O  O52  1  0.02781829  0.20622382  0.19105464  1
  O  O53  1  0.17528779  0.96739888  0.19838439  1
  O  O54  1  0.87503540  0.36270716  0.63691043  1
  O  O55  1  0.49457918  0.12900219  0.63949399  1
  O  O56  1  0.64139773  0.51412935  0.63704682  1
  O  O57  1  0.87099781  0.50542082  0.13949399  1
  O  O58  1  0.63729284  0.12496460  0.13691043  1
  O  O59  1  0.48587065  0.35860227  0.13704682  1
  O  O60  1  0.45849561  0.30460195  0.03027331  1
  O  O61  1  0.84392562  0.53648810  0.02514915  1
  O  O62  1  0.69727728  0.15641441  0.03056212  1
  O  O63  1  0.46351190  0.15607438  0.52514915  1
  O  O64  1  0.69539805  0.54150439  0.53027331  1
  O  O65  1  0.84358559  0.30272272  0.53056212  1
  O  O66  1  0.54022593  0.69272416  0.97020958  1
  O  O67  1  0.15142980  0.45649792  0.97216969  1
  O  O68  1  0.29988748  0.83561673  0.97074670  1
  O  O69  1  0.54350208  0.84857020  0.47216969  1
  O  O70  1  0.30727584  0.45977407  0.47020958  1
  O  O71  1  0.16438327  0.70011252  0.47074670  1
  O  O72  1  0.12941837  0.64035887  0.35840000  1
  O  O73  1  0.50915997  0.87230047  0.36456051  1
  O  O74  1  0.36210347  0.48666691  0.36338222  1
  O  O75  1  0.12769953  0.49084003  0.86456051  1
  O  O76  1  0.35964113  0.87058163  0.85840000  1
  O  O77  1  0.51333309  0.63789653  0.86338222  1
  O  O78  1  0.03163307  0.84259424  0.40973633  1
  O  O79  1  0.80232518  0.97656011  0.41076772  1
  O  O80  1  0.17668495  0.19437899  0.40999579  1
  O  O81  1  0.02343989  0.19767482  0.91076772  1
  O  O82  1  0.15740576  0.96836693  0.90973633  1
  O  O83  1  0.80562101  0.82331505  0.90999579  1
  O  O84  1  0.96854254  0.16875753  0.58989116  1
  O  O85  1  0.18428391  0.02007331  0.58961084  1
  O  O86  1  0.82372679  0.80625604  0.58959054  1
  O  O87  1  0.97992669  0.81571609  0.08961084  1
  O  O88  1  0.83124247  0.03145746  0.08989116  1
  O  O89  1  0.19374396  0.17627321  0.08959054  1
  O  O90  1  0.68041262  0.16640273  0.74404463  1
  O  O91  1  0.46706254  0.30508418  0.74296711  1
  O  O92  1  0.83953695  0.53131275  0.74336756  1
  O  O93  1  0.69491582  0.53293746  0.24296711  1
  O  O94  1  0.83359727  0.31958738  0.24404463  1
  O  O95  1  0.46868725  0.16046305  0.24336756  1
  O  O96  1  0.65026297  0.50973056  0.92258305  1
  O  O97  1  0.86696847  0.36438286  0.92358118  1
  O  O98  1  0.50314170  0.14836912  0.92271513  1
  O  O99  1  0.63561714  0.13303153  0.42358118  1
  O  O100  1  0.49026944  0.34973703  0.42258305  1
  O  O101  1  0.85163088  0.49685830  0.42271513  1
  O  O102  1  0.35190259  0.49058393  0.07669572  1
  O  O103  1  0.14286032  0.63308156  0.07709160  1
  O  O104  1  0.50950787  0.86291295  0.07670297  1
  O  O105  1  0.36691844  0.85713968  0.57709160  1
  O  O106  1  0.50941607  0.64809741  0.57669572  1
  O  O107  1  0.13708705  0.49049213  0.57670297  1
  O  O108  1  0.30661147  0.83829379  0.25688073  1
  O  O109  1  0.53155950  0.69233122  0.25679665  1
  O  O110  1  0.16601227  0.48481422  0.25535227  1
  O  O111  1  0.30766878  0.46844050  0.75679665  1
  O  O112  1  0.16170621  0.69338853  0.75688073  1
  O  O113  1  0.51518578  0.83398773  0.75535227  1
