# generated using pymatgen
data_Na30Ca20Ta4Si9(S3O16)9
_symmetry_space_group_name_H-M   'P 1'
_cell_length_a   18.64269977
_cell_length_b   9.34093002
_cell_length_c   23.42865974
_cell_angle_alpha   89.97855215
_cell_angle_beta   90.21123920
_cell_angle_gamma   120.07671477
_symmetry_Int_Tables_number   1
_chemical_formula_structural   Na30Ca20Ta4Si9(S3O16)9
_chemical_formula_sum   'Na30 Ca20 Ta4 Si9 S27 O144'
_cell_volume   3530.50782415
_cell_formula_units_Z   1
loop_
 _symmetry_equiv_pos_site_id
 _symmetry_equiv_pos_as_xyz
  1  'x, y, z'
loop_
 _atom_site_type_symbol
 _atom_site_label
 _atom_site_symmetry_multiplicity
 _atom_site_fract_x
 _atom_site_fract_y
 _atom_site_fract_z
 _atom_site_occupancy
  Na  Na0  1  0.80734790  0.00530603  0.23471659  1
  Na  Na1  1  0.00272591  0.63385146  0.23727103  1
  Na  Na2  1  0.50285610  0.63041653  0.23445381  1
  Na  Na3  1  0.00207370  0.37088520  0.73271518  1
  Na  Na4  1  0.50091623  0.37265415  0.73458292  1
  Na  Na5  1  0.18071506  0.01401836  0.75146975  1
  Na  Na6  1  0.66049362  0.34670476  0.58522854  1
  Na  Na7  1  0.66914763  0.97156239  0.08983189  1
  Na  Na8  1  0.83570660  0.68667324  0.07733760  1
  Na  Na9  1  0.00570327  0.34290410  0.08402592  1
  Na  Na10  1  0.48091428  0.65882481  0.92996342  1
  Na  Na11  1  0.84971963  0.03649140  0.93010660  1
  Na  Na12  1  0.16427948  0.29550370  0.90740113  1
  Na  Na13  1  0.66414614  0.30055439  0.90479130  1
  Na  Na14  1  0.47985917  0.30101349  0.42943846  1
  Na  Na15  1  0.98616368  0.30648946  0.43130902  1
  Na  Na16  1  0.16485192  0.03006858  0.40566460  1
  Na  Na17  1  0.66367548  0.02948243  0.40566201  1
  Na  Na18  1  0.98933156  0.99300963  0.50305025  1
  Na  Na19  1  0.47508985  0.96721091  0.50136123  1
  Na  Na20  1  0.00096636  0.96629505  0.99936313  1
  Na  Na21  1  0.47596267  0.98463722  0.00359707  1
  Na  Na22  1  0.32093918  0.33547553  0.82770898  1
  Na  Na23  1  0.82058381  0.34846165  0.82206277  1
  Na  Na24  1  0.30867855  0.30400732  0.32341199  1
  Na  Na25  1  0.81356020  0.32801385  0.32667424  1
  Na  Na26  1  0.16891560  0.70656555  0.16340568  1
  Na  Na27  1  0.65652056  0.67058369  0.15951547  1
  Na  Na28  1  0.16054213  0.62089555  0.65914150  1
  Na  Na29  1  0.66122554  0.65121816  0.66473434  1
  Ca  Ca30  1  0.00408956  0.00040378  0.34963377  1
  Ca  Ca31  1  0.49925909  0.99870161  0.34909724  1
  Ca  Ca32  1  0.00182994  0.99402508  0.84970752  1
  Ca  Ca33  1  0.50074702  0.00389157  0.84768923  1
  Ca  Ca34  1  0.33443160  0.34124160  0.67799452  1
  Ca  Ca35  1  0.83198012  0.33247324  0.68180134  1
  Ca  Ca36  1  0.32950575  0.32613698  0.18117925  1
  Ca  Ca37  1  0.83011852  0.32671890  0.18091048  1
  Ca  Ca38  1  0.33906514  0.33540495  0.99468622  1
  Ca  Ca39  1  0.84480079  0.34550805  0.99249703  1
  Ca  Ca40  1  0.33777914  0.33920143  0.49441171  1
  Ca  Ca41  1  0.84199148  0.33947419  0.49299302  1
  Ca  Ca42  1  0.16786829  0.67796058  0.01750427  1
  Ca  Ca43  1  0.66075811  0.66460769  0.02019977  1
  Ca  Ca44  1  0.16500421  0.65959935  0.52076672  1
  Ca  Ca45  1  0.66521159  0.66693177  0.51916991  1
  Ca  Ca46  1  0.17190396  0.67892205  0.30942536  1
  Ca  Ca47  1  0.66704488  0.66408284  0.31137193  1
  Ca  Ca48  1  0.16924402  0.65742477  0.81120544  1
  Ca  Ca49  1  0.66939760  0.66205860  0.80711207  1
  Ta  Ta50  1  0.00408146  0.01288863  0.64977388  1
  Ta  Ta51  1  0.50242431  0.00831406  0.65157647  1
  Ta  Ta52  1  0.00817484  0.00169471  0.15022684  1
  Ta  Ta53  1  0.50341723  0.99743662  0.15252895  1
  Si  Si54  1  0.15211230  0.00059385  0.25446624  1
  Si  Si55  1  0.65038080  0.99935711  0.25472568  1
  Si  Si56  1  0.15056050  0.29712623  0.75301139  1
  Si  Si57  1  0.65100643  0.30222076  0.75332155  1
  Si  Si58  1  0.48995194  0.33409037  0.58658789  1
  Si  Si59  1  0.98934219  0.33554479  0.58694143  1
  Si  Si60  1  0.48624921  0.64481329  0.08722988  1
  Si  Si61  1  0.98708526  0.64107151  0.09138868  1
  Si  Si62  1  0.83823309  0.02231387  0.08546231  1
  S  S63  1  0.35565201  0.71138405  0.24574592  1
  S  S64  1  0.85689569  0.71661124  0.24536175  1
  S  S65  1  0.00024479  0.29259576  0.24906827  1
  S  S66  1  0.49996939  0.29335935  0.24877765  1
  S  S67  1  0.00143887  0.70889353  0.74678999  1
  S  S68  1  0.49949454  0.70681724  0.74908745  1
  S  S69  1  0.35380115  0.99927627  0.74515750  1
  S  S70  1  0.85729284  0.99934535  0.74761554  1
  S  S71  1  0.17289764  0.02564493  0.58733183  1
  S  S72  1  0.67336774  0.02944149  0.58553759  1
  S  S73  1  0.34078377  0.65543192  0.58695808  1
  S  S74  1  0.83950633  0.64958295  0.58631524  1
  S  S75  1  0.34140689  0.02835555  0.08761915  1
  S  S76  1  0.17573059  0.32365815  0.08398238  1
  S  S77  1  0.67352682  0.31751411  0.08431092  1
  S  S78  1  0.31746888  0.65888518  0.91751255  1
  S  S79  1  0.81380754  0.66233903  0.91840714  1
  S  S80  1  0.01441025  0.36103012  0.91564731  1
  S  S81  1  0.51569894  0.36781356  0.91402724  1
  S  S82  1  0.16938300  0.97830314  0.91434825  1
  S  S83  1  0.66701225  0.96911700  0.91720785  1
  S  S84  1  0.31641432  0.97398162  0.41828638  1
  S  S85  1  0.81627346  0.97374253  0.41500784  1
  S  S86  1  0.16638290  0.36426934  0.41620953  1
  S  S87  1  0.66618219  0.36140158  0.41896326  1
  S  S88  1  0.01668169  0.66277592  0.41486085  1
  S  S89  1  0.51578366  0.66373719  0.41500419  1
  O  O90  1  0.11246175  0.00269060  0.31574461  1
  O  O91  1  0.60811232  0.00235334  0.31407779  1
  O  O92  1  0.40023326  0.79069670  0.29847618  1
  O  O93  1  0.90389996  0.79694438  0.29708579  1
  O  O94  1  0.49477991  0.21131794  0.30345911  1
  O  O95  1  0.99203267  0.19915999  0.30137000  1
  O  O96  1  0.11074661  0.20227665  0.81248401  1
  O  O97  1  0.61011578  0.21695138  0.81373867  1
  O  O98  1  0.49389666  0.77806736  0.80369555  1
  O  O99  1  0.99101890  0.77907023  0.79992591  1
  O  O100  1  0.39859958  0.01093043  0.79779666  1
  O  O101  1  0.89880141  0.00714551  0.80202139  1
  O  O102  1  0.40224467  0.98528433  0.69504316  1
  O  O103  1  0.90903453  0.98799818  0.69909915  1
  O  O104  1  0.08406960  0.16350550  0.69958639  1
  O  O105  1  0.58310553  0.16186314  0.70031648  1
  O  O106  1  0.00113058  0.80879578  0.69662498  1
  O  O107  1  0.49708089  0.81009067  0.70009567  1
  O  O108  1  0.40692457  0.82490987  0.19586367  1
  O  O109  1  0.90453443  0.82070658  0.19380246  1
  O  O110  1  0.00160085  0.19621504  0.19748278  1
  O  O111  1  0.49866140  0.18520514  0.19997637  1
  O  O112  1  0.08515040  0.00826858  0.20323965  1
  O  O113  1  0.58682563  0.00480332  0.19966368  1
  O  O114  1  0.44531060  0.34809081  0.64298219  1
  O  O115  1  0.94117990  0.34234800  0.64263521  1
  O  O116  1  0.22224939  0.10982503  0.63823181  1
  O  O117  1  0.72547138  0.11862494  0.63397345  1
  O  O118  1  0.32604425  0.54859232  0.63621751  1
  O  O119  1  0.82268245  0.53622763  0.63429602  1
  O  O120  1  0.44122242  0.53898806  0.14286833  1
  O  O121  1  0.94651852  0.53976726  0.14918727  1
  O  O122  1  0.32703196  0.10829031  0.13579989  1
  O  O123  1  0.81342461  0.10275122  0.13777778  1
  O  O124  1  0.22825198  0.34502637  0.13210971  1
  O  O125  1  0.72791172  0.34216295  0.13297026  1
  O  O126  1  0.20451877  0.28677660  0.03006124  1
  O  O127  1  0.70319742  0.27402472  0.03206327  1
  O  O128  1  0.43805167  0.57942352  0.02633640  1
  O  O129  1  0.92042916  0.57901764  0.03883903  1
  O  O130  1  0.35729557  0.12230699  0.03378325  1
  O  O131  1  0.86300210  0.13792607  0.02779441  1
  O  O132  1  0.20483508  0.12818613  0.53550713  1
  O  O133  1  0.70258047  0.13052926  0.53261377  1
  O  O134  1  0.35694869  0.58991402  0.53425413  1
  O  O135  1  0.85579421  0.58528302  0.53340441  1
  O  O136  1  0.44023538  0.30204350  0.52646587  1
  O  O137  1  0.93968052  0.29735829  0.52621996  1
  O  O138  1  0.27684761  0.67207783  0.96927872  1
  O  O139  1  0.77515883  0.67516612  0.97191847  1
  O  O140  1  0.06269498  0.44627570  0.96750320  1
  O  O141  1  0.56889056  0.45475456  0.96370632  1
  O  O142  1  0.16814209  0.88007465  0.96375854  1
  O  O143  1  0.66292642  0.88069492  0.97074844  1
  O  O144  1  0.27655806  0.87914376  0.47005126  1
  O  O145  1  0.77338906  0.87388348  0.46540519  1
  O  O146  1  0.16299552  0.45322659  0.46705449  1
  O  O147  1  0.66435424  0.44588649  0.47202947  1
  O  O148  1  0.07001326  0.67958336  0.46415140  1
  O  O149  1  0.57028172  0.68284739  0.46401660  1
  O  O150  1  0.05489331  0.64733408  0.36130015  1
  O  O151  1  0.55440943  0.64803898  0.36150191  1
  O  O152  1  0.27049313  0.88813052  0.36603262  1
  O  O153  1  0.77196501  0.89009376  0.36137846  1
  O  O154  1  0.17225616  0.45468246  0.36325065  1
  O  O155  1  0.67234006  0.45912114  0.36779811  1
  O  O156  1  0.05721216  0.45350467  0.86355027  1
  O  O157  1  0.55485831  0.46156743  0.86091327  1
  O  O158  1  0.17152452  0.90094106  0.85933706  1
  O  O159  1  0.67453429  0.88178019  0.86719401  1
  O  O160  1  0.27078739  0.65294414  0.86544498  1
  O  O161  1  0.76274658  0.65311965  0.86837787  1
  O  O162  1  0.00768845  0.81304459  0.41490586  1
  O  O163  1  0.50757799  0.81492475  0.41463431  1
  O  O164  1  0.40426143  0.00774403  0.41674890  1
  O  O165  1  0.90373288  0.00817399  0.41487300  1
  O  O166  1  0.08593855  0.19854755  0.41687475  1
  O  O167  1  0.58595493  0.19749538  0.41799014  1
  O  O168  1  0.00620610  0.19156711  0.91557316  1
  O  O169  1  0.50654768  0.19931414  0.91344616  1
  O  O170  1  0.09279496  0.99409074  0.91817335  1
  O  O171  1  0.58897246  0.97878966  0.91487990  1
  O  O172  1  0.40484525  0.80099120  0.91610906  1
  O  O173  1  0.89738084  0.81556613  0.91552601  1
  O  O174  1  0.49736179  0.15462777  0.59916438  1
  O  O175  1  0.99523930  0.15392135  0.59916792  1
  O  O176  1  0.08480250  0.00040600  0.59548260  1
  O  O177  1  0.58671616  0.00828718  0.59531255  1
  O  O178  1  0.42069152  0.82116780  0.59690256  1
  O  O179  1  0.91555776  0.81662719  0.59750123  1
  O  O180  1  0.49609302  0.84131713  0.09938403  1
  O  O181  1  0.00461232  0.83832968  0.10201637  1
  O  O182  1  0.42075530  0.02084647  0.09753056  1
  O  O183  1  0.92575235  0.01793760  0.10136701  1
  O  O184  1  0.08861173  0.17174505  0.09391419  1
  O  O185  1  0.58795061  0.16786484  0.09555480  1
  O  O186  1  0.34943190  0.15249968  0.73953231  1
  O  O187  1  0.85563312  0.15465053  0.74212167  1
  O  O188  1  0.23803840  0.30173004  0.74506884  1
  O  O189  1  0.74131872  0.32382096  0.74572060  1
  O  O190  1  0.42830018  0.53585975  0.74517381  1
  O  O191  1  0.93474919  0.53532885  0.74232883  1
  O  O192  1  0.35319473  0.55267064  0.24009148  1
  O  O193  1  0.84767869  0.55127126  0.24127568  1
  O  O194  1  0.42954210  0.32225713  0.24424163  1
  O  O195  1  0.92557306  0.31121100  0.24528010  1
  O  O196  1  0.24212021  0.16012674  0.24658647  1
  O  O197  1  0.74317746  0.15659468  0.24992757  1
  O  O198  1  0.32070136  0.50043892  0.91819586  1
  O  O199  1  0.81923629  0.50812969  0.91820943  1
  O  O200  1  0.43322002  0.35698609  0.91906332  1
  O  O201  1  0.92907598  0.33685373  0.91668023  1
  O  O202  1  0.24265996  0.15026113  0.91677267  1
  O  O203  1  0.74057015  0.14113871  0.91908082  1
  O  O204  1  0.31975734  0.13921273  0.41953407  1
  O  O205  1  0.81797555  0.13709509  0.41715091  1
  O  O206  1  0.23640556  0.32942818  0.41948476  1
  O  O207  1  0.73655092  0.32772956  0.41979846  1
  O  O208  1  0.43344108  0.51104995  0.42057280  1
  O  O209  1  0.93362570  0.50906779  0.41967759  1
  O  O210  1  0.15897081  0.46192960  0.07865378  1
  O  O211  1  0.66299221  0.46171272  0.07791492  1
  O  O212  1  0.07399120  0.64599247  0.08051186  1
  O  O213  1  0.58373986  0.69738028  0.08489609  1
  O  O214  1  0.27246490  0.85584314  0.08237272  1
  O  O215  1  0.76544797  0.82954986  0.07941369  1
  O  O216  1  0.16180340  0.85999848  0.58197989  1
  O  O217  1  0.66164082  0.86292989  0.58023936  1
  O  O218  1  0.27360125  0.69322041  0.58126311  1
  O  O219  1  0.76761515  0.67525950  0.58045215  1
  O  O220  1  0.08420819  0.48306686  0.58481519  1
  O  O221  1  0.58769169  0.47730640  0.58408488  1
  O  O222  1  0.14396151  0.81973631  0.24223575  1
  O  O223  1  0.64871271  0.82344244  0.24227998  1
  O  O224  1  0.27391107  0.69639241  0.24150689  1
  O  O225  1  0.77618282  0.71138894  0.24330456  1
  O  O226  1  0.07592625  0.45665214  0.24768427  1
  O  O227  1  0.57897685  0.45403389  0.24382626  1
  O  O228  1  0.14477080  0.46436375  0.74434213  1
  O  O229  1  0.64222773  0.46559542  0.74036151  1
  O  O230  1  0.08395762  0.71720201  0.74594537  1
  O  O231  1  0.57790752  0.70310367  0.74414102  1
  O  O232  1  0.26967609  0.85385243  0.74284941  1
  O  O233  1  0.77494290  0.85174512  0.74249067  1
