# generated using pymatgen
data_K2Zn3O4
_symmetry_space_group_name_H-M   'P 1'
_cell_length_a   5.71988835
_cell_length_b   6.36542834
_cell_length_c   8.02994791
_cell_angle_alpha   113.35054383
_cell_angle_beta   101.73864802
_cell_angle_gamma   90.00000293
_symmetry_Int_Tables_number   1
_chemical_formula_structural   K2Zn3O4
_chemical_formula_sum   'K4 Zn6 O8'
_cell_volume   261.74761246
_cell_formula_units_Z   2
loop_
 _symmetry_equiv_pos_site_id
 _symmetry_equiv_pos_as_xyz
  1  'x, y, z'
loop_
 _atom_site_type_symbol
 _atom_site_label
 _atom_site_symmetry_multiplicity
 _atom_site_fract_x
 _atom_site_fract_y
 _atom_site_fract_z
 _atom_site_occupancy
  K  K0  1  0.51325009  0.76014993  0.76341102  1
  K  K1  1  0.98674991  0.99673892  0.23658898  1
  K  K2  1  0.48674991  0.23985007  0.23658898  1
  K  K3  1  0.01325009  0.00326108  0.76341102  1
  Zn  Zn4  1  0.25000000  0.52011553  0.00000000  1
  Zn  Zn5  1  0.75000000  0.47988447  -0.00000000  1
  Zn  Zn6  1  0.08600316  0.57376643  0.38249596  1
  Zn  Zn7  1  0.41399684  0.19127047  0.61750404  1
  Zn  Zn8  1  0.91399684  0.42623357  0.61750404  1
  Zn  Zn9  1  0.58600316  0.80872953  0.38249596  1
  O  O10  1  0.95584593  0.62059157  0.88382625  1
  O  O11  1  0.54415407  0.73676632  0.11617375  1
  O  O12  1  0.04415407  0.37940843  0.11617375  1
  O  O13  1  0.45584593  0.26323368  0.88382625  1
  O  O14  1  0.28355118  0.85991056  0.47201196  1
  O  O15  1  0.21644882  0.38789760  0.52798804  1
  O  O16  1  0.71644882  0.14008944  0.52798804  1
  O  O17  1  0.78355118  0.61210240  0.47201196  1
