# generated using pymatgen
data_NaErCl4
_symmetry_space_group_name_H-M   'P 1'
_cell_length_a   6.30524351
_cell_length_b   6.72356299
_cell_length_c   7.60109226
_cell_angle_alpha   90.00000000
_cell_angle_beta   90.00000000
_cell_angle_gamma   92.21068180
_symmetry_Int_Tables_number   1
_chemical_formula_structural   NaErCl4
_chemical_formula_sum   'Na2 Er2 Cl8'
_cell_volume   321.99861127
_cell_formula_units_Z   2
loop_
 _symmetry_equiv_pos_site_id
 _symmetry_equiv_pos_as_xyz
  1  'x, y, z'
loop_
 _atom_site_type_symbol
 _atom_site_label
 _atom_site_symmetry_multiplicity
 _atom_site_fract_x
 _atom_site_fract_y
 _atom_site_fract_z
 _atom_site_occupancy
  Na  Na0  1  0.50000000  0.25000000  0.35552492  1
  Na  Na1  1  0.50000000  0.75000000  0.64447508  1
  Er  Er2  1  -0.00000000  0.25000000  0.84381001  1
  Er  Er3  1  -0.00000000  0.75000000  0.15618999  1
  Cl  Cl4  1  0.25462227  0.40640521  0.62337216  1
  Cl  Cl5  1  0.74537773  0.09359479  0.62337216  1
  Cl  Cl6  1  0.77435977  0.06706068  0.10593613  1
  Cl  Cl7  1  0.22564023  0.43293932  0.10593613  1
  Cl  Cl8  1  0.22564023  0.93293932  0.89406387  1
  Cl  Cl9  1  0.77435977  0.56706068  0.89406387  1
  Cl  Cl10  1  0.25462227  0.90640521  0.37662684  1
  Cl  Cl11  1  0.74537773  0.59359479  0.37662684  1
