# generated using pymatgen
data_Na6Hf3ZnSi2(PO6)4
_symmetry_space_group_name_H-M   'P 1'
_cell_length_a   9.09182175
_cell_length_b   9.09495159
_cell_length_c   22.48935078
_cell_angle_alpha   89.78217631
_cell_angle_beta   90.02946744
_cell_angle_gamma   119.85158702
_symmetry_Int_Tables_number   1
_chemical_formula_structural   Na6Hf3ZnSi2(PO6)4
_chemical_formula_sum   'Na18 Hf9 Zn3 Si6 P12 O72'
_cell_volume   1612.88245547
_cell_formula_units_Z   3
loop_
 _symmetry_equiv_pos_site_id
 _symmetry_equiv_pos_as_xyz
  1  'x, y, z'
loop_
 _atom_site_type_symbol
 _atom_site_label
 _atom_site_symmetry_multiplicity
 _atom_site_fract_x
 _atom_site_fract_y
 _atom_site_fract_z
 _atom_site_occupancy
  Na  Na0  1  0.00141248  0.99365823  0.49682650  1
  Na  Na1  1  0.99913219  0.99589282  0.99773894  1
  Na  Na2  1  0.64837560  0.30086796  0.82793550  1
  Na  Na3  1  0.64958443  0.33060157  0.32064904  1
  Na  Na4  1  0.32660083  0.66576608  0.16301982  1
  Na  Na5  1  0.32379666  0.66346591  0.66516986  1
  Na  Na6  1  0.64475000  0.01778793  0.24295446  1
  Na  Na7  1  0.98267834  0.61933484  0.23943039  1
  Na  Na8  1  0.63347308  0.61496546  0.74131380  1
  Na  Na9  1  0.98698850  0.36760219  0.74437913  1
  Na  Na10  1  0.66631387  0.97288057  0.58728693  1
  Na  Na11  1  0.66515864  0.68397115  0.07924473  1
  Na  Na12  1  0.02292609  0.33985150  0.08578965  1
  Na  Na13  1  0.97123663  0.66802539  0.91857886  1
  Na  Na14  1  0.33583900  0.30656100  0.91664919  1
  Na  Na15  1  0.96406559  0.28033790  0.40849543  1
  Na  Na16  1  0.32447447  0.03055712  0.40883080  1
  Na  Na17  1  0.71714028  0.68831431  0.41405232  1
  Hf  Hf18  1  0.99578616  0.00124348  0.85426928  1
  Hf  Hf19  1  0.00604202  0.99667234  0.64476524  1
  Hf  Hf20  1  0.00801638  0.00158292  0.14934088  1
  Hf  Hf21  1  0.66771822  0.33116094  0.98027967  1
  Hf  Hf22  1  0.66848953  0.33771352  0.48380159  1
  Hf  Hf23  1  0.33229242  0.67379441  0.01754302  1
  Hf  Hf24  1  0.33751790  0.66503021  0.52184654  1
  Hf  Hf25  1  0.33730203  0.66714717  0.31272145  1
  Hf  Hf26  1  0.33701997  0.67496753  0.81402864  1
  Zn  Zn27  1  0.99548162  0.99879339  0.34647016  1
  Zn  Zn28  1  0.65298528  0.32981318  0.67850408  1
  Zn  Zn29  1  0.66352325  0.33422163  0.17744294  1
  Si  Si30  1  0.66817765  0.63027653  0.58719308  1
  Si  Si31  1  0.96350414  0.62837750  0.08668563  1
  Si  Si32  1  0.62649701  0.66699172  0.91725896  1
  Si  Si33  1  0.04086244  0.37489773  0.91640997  1
  Si  Si34  1  0.33622921  0.96397899  0.91503814  1
  Si  Si35  1  0.63050202  0.96528307  0.41627727  1
  P  P36  1  0.29539355  0.00101317  0.25546916  1
  P  P37  1  0.70465362  0.70341191  0.25231540  1
  P  P38  1  0.00072033  0.29710201  0.25293988  1
  P  P39  1  0.29313823  0.29316911  0.75081678  1
  P  P40  1  0.00336286  0.70687712  0.75114229  1
  P  P41  1  0.70637072  -0.00012165  0.74658838  1
  P  P42  1  0.96163862  0.33458991  0.58700451  1
  P  P43  1  0.37513621  0.04076481  0.58285850  1
  P  P44  1  0.66565743  0.03734283  0.08891765  1
  P  P45  1  0.37260319  0.33437886  0.08418877  1
  P  P46  1  0.33745000  0.37613332  0.41738037  1
  P  P47  1  0.04157982  0.66243370  0.41622840  1
  O  O48  1  0.21592017  0.01404516  0.31402529  1
  O  O49  1  0.80379880  0.78190174  0.31000612  1
  O  O50  1  0.98704500  0.19771993  0.31007084  1
  O  O51  1  0.20097105  0.19738144  0.80866245  1
  O  O52  1  0.99658779  0.80185057  0.80745085  1
  O  O53  1  0.81868520  0.01133100  0.80074996  1
  O  O54  1  0.79606571  0.98196909  0.69003987  1
  O  O55  1  0.17802348  0.19512280  0.69720060  1
  O  O56  1  0.01222319  0.81526504  0.69604508  1
  O  O57  1  0.80022123  0.82367447  0.19807620  1
  O  O58  1  0.01437968  0.20379237  0.19672968  1
  O  O59  1  0.17546563  0.98160729  0.20241646  1
  O  O60  1  0.88434684  0.35604835  0.64419877  1
  O  O61  1  0.49469686  0.11443260  0.63561813  1
  O  O62  1  0.64434698  0.52554556  0.64717879  1
  O  O63  1  0.88472342  0.51305839  0.14562035  1
  O  O64  1  0.64063577  0.10689267  0.14719770  1
  O  O65  1  0.48399811  0.36199573  0.13784071  1
  O  O66  1  0.44910088  0.31016897  0.02588243  1
  O  O67  1  0.83996995  0.53550255  0.02888000  1
  O  O68  1  0.68672673  0.15542640  0.03572058  1
  O  O69  1  0.45890705  0.14583360  0.52485089  1
  O  O70  1  0.68419005  0.53502497  0.52681626  1
  O  O71  1  0.84268950  0.30768051  0.53201157  1
  O  O72  1  0.53984455  0.69090313  0.97700637  1
  O  O73  1  0.16072259  0.46456295  0.97457410  1
  O  O74  1  0.29842610  0.83879734  0.97195737  1
  O  O75  1  0.53034536  0.84548593  0.47393318  1
  O  O76  1  0.31676065  0.46657600  0.47202759  1
  O  O77  1  0.15427397  0.67705853  0.46949635  1
  O  O78  1  0.12282229  0.63543110  0.35909906  1
  O  O79  1  0.50757001  0.86984797  0.35789381  1
  O  O80  1  0.35815399  0.48747800  0.36175029  1
  O  O81  1  0.13134830  0.49569272  0.85793047  1
  O  O82  1  0.36269543  0.87332986  0.85684785  1
  O  O83  1  0.50687032  0.63775509  0.85873559  1
  O  O84  1  0.02268397  0.82068887  0.41421274  1
  O  O85  1  0.81775215  0.98330826  0.41327180  1
  O  O86  1  0.18339945  0.19701681  0.41442164  1
  O  O87  1  0.02579178  0.18910157  0.91118523  1
  O  O88  1  0.16529530  0.98149792  0.91009587  1
  O  O89  1  0.81943393  0.82715510  0.91103633  1
  O  O90  1  0.97697155  0.17083800  0.58771340  1
  O  O91  1  0.20021449  0.02879130  0.58836456  1
  O  O92  1  0.83601872  0.82511829  0.58649799  1
  O  O93  1  0.97548651  0.81637695  0.09172615  1
  O  O94  1  0.83517483  0.02853095  0.09031993  1
  O  O95  1  0.18734730  0.17968932  0.09058945  1
  O  O96  1  0.69138921  0.15974912  0.74568565  1
  O  O97  1  0.47124131  0.31592464  0.74934819  1
  O  O98  1  0.84420105  0.52987300  0.75133489  1
  O  O99  1  0.68205617  0.52680945  0.24494671  1
  O  O100  1  0.84212471  0.31709130  0.24988360  1
  O  O101  1  0.47676529  0.14670530  0.24768058  1
  O  O102  1  0.64236792  0.49526976  0.92294116  1
  O  O103  1  0.85624696  0.36059251  0.92422184  1
  O  O104  1  0.49703960  0.15304859  0.92293724  1
  O  O105  1  0.64438465  0.15324382  0.42065060  1
  O  O106  1  0.50538465  0.36890358  0.42110762  1
  O  O107  1  0.86302449  0.49936983  0.42216154  1
  O  O108  1  0.35079359  0.49421243  0.07936500  1
  O  O109  1  0.15223196  0.64826168  0.07921014  1
  O  O110  1  0.51944139  0.85241171  0.08000303  1
  O  O111  1  0.34501342  0.85796695  0.57432338  1
  O  O112  1  0.50487576  0.66441962  0.58099418  1
  O  O113  1  0.13908320  0.48973433  0.57646156  1
  O  O114  1  0.29788150  0.82712343  0.25391410  1
  O  O115  1  0.52930554  0.70012131  0.25349176  1
  O  O116  1  0.16176570  0.47931555  0.25326167  1
  O  O117  1  0.30273891  0.47129911  0.75075584  1
  O  O118  1  0.16442604  0.68729313  0.75018025  1
  O  O119  1  0.53356183  0.83020742  0.75042476  1
