# generated using pymatgen
data_MgMn5O9F
_symmetry_space_group_name_H-M   'P 1'
_cell_length_a   5.28888887
_cell_length_b   5.11162475
_cell_length_c   8.16005535
_cell_angle_alpha   109.11060391
_cell_angle_beta   78.57976349
_cell_angle_gamma   78.50694568
_symmetry_Int_Tables_number   1
_chemical_formula_structural   MgMn5O9F
_chemical_formula_sum   'Mg1 Mn5 O9 F1'
_cell_volume   195.83958651
_cell_formula_units_Z   1
loop_
 _symmetry_equiv_pos_site_id
 _symmetry_equiv_pos_as_xyz
  1  'x, y, z'
loop_
 _atom_site_type_symbol
 _atom_site_label
 _atom_site_symmetry_multiplicity
 _atom_site_fract_x
 _atom_site_fract_y
 _atom_site_fract_z
 _atom_site_occupancy
  Mg  Mg0  1  0.49526500  0.38217000  0.29178000  1
  Mn  Mn1  1  0.99620700  0.19690300  0.40036600  1
  Mn  Mn2  1  0.02074700  0.99346400  0.00130900  1
  Mn  Mn3  1  0.97507100  0.60079000  0.20443400  1
  Mn  Mn4  1  0.98849200  0.80508200  0.59364300  1
  Mn  Mn5  1  0.01012100  0.41488200  0.80055800  1
  O  O6  1  0.20146600  0.21776600  0.17406400  1
  O  O7  1  0.18801300  0.78918200  0.35398700  1
  O  O8  1  0.21123700  0.41048400  0.51987200  1
  O  O9  1  0.17971100  0.60560000  0.98022100  1
  O  O10  1  0.78457200  0.38086200  0.06480700  1
  O  O11  1  0.77937500  0.99970800  0.26306400  1
  O  O12  1  0.76985300  0.55772600  0.41729800  1
  O  O13  1  0.82709700  0.20735100  0.63549100  1
  O  O14  1  0.83813200  0.80340000  0.82995400  1
  F  F15  1  0.24428100  0.03486700  0.75754600  1
