# generated using pymatgen
data_Na30Mg20Ta4Si9(S3O16)9
_symmetry_space_group_name_H-M   'P 1'
_cell_length_a   17.82994964
_cell_length_b   8.96058997
_cell_length_c   22.36758482
_cell_angle_alpha   89.94536130
_cell_angle_beta   89.94548676
_cell_angle_gamma   120.09863987
_symmetry_Int_Tables_number   1
_chemical_formula_structural   Na30Mg20Ta4Si9(S3O16)9
_chemical_formula_sum   'Na30 Mg20 Ta4 Si9 S27 O144'
_cell_volume   3091.74114021
_cell_formula_units_Z   1
loop_
 _symmetry_equiv_pos_site_id
 _symmetry_equiv_pos_as_xyz
  1  'x, y, z'
loop_
 _atom_site_type_symbol
 _atom_site_label
 _atom_site_symmetry_multiplicity
 _atom_site_fract_x
 _atom_site_fract_y
 _atom_site_fract_z
 _atom_site_occupancy
  Na  Na0  1  0.80957448  0.00445856  0.24094676  1
  Na  Na1  1  0.00468337  0.63872303  0.24295299  1
  Na  Na2  1  0.50331030  0.63460041  0.24195593  1
  Na  Na3  1  0.00262391  0.37155538  0.74051029  1
  Na  Na4  1  0.50275836  0.37158883  0.74164425  1
  Na  Na5  1  0.18126200  0.01055214  0.75272983  1
  Na  Na6  1  0.65495677  0.34948822  0.58339091  1
  Na  Na7  1  0.65955636  0.95622008  0.08608493  1
  Na  Na8  1  0.83310454  0.69139485  0.07672725  1
  Na  Na9  1  0.00846915  0.33845700  0.08157227  1
  Na  Na10  1  0.48032171  0.66008686  0.92513455  1
  Na  Na11  1  0.84909482  0.03526969  0.92458968  1
  Na  Na12  1  0.16517243  0.29713833  0.91066436  1
  Na  Na13  1  0.66498519  0.30029569  0.90877200  1
  Na  Na14  1  0.48020782  0.29950678  0.42439448  1
  Na  Na15  1  0.98453647  0.30491544  0.42674130  1
  Na  Na16  1  0.16560841  0.03204054  0.40972665  1
  Na  Na17  1  0.66458992  0.03153491  0.40955864  1
  Na  Na18  1  0.99263878  0.99428090  0.49942183  1
  Na  Na19  1  0.48224812  0.97518375  0.49810142  1
  Na  Na20  1  0.00019262  0.97497641  0.99718770  1
  Na  Na21  1  0.48234205  0.98970134  0.99897661  1
  Na  Na22  1  0.32638266  0.33371421  0.82954395  1
  Na  Na23  1  0.82596343  0.34359804  0.82553704  1
  Na  Na24  1  0.31820274  0.31856073  0.32621719  1
  Na  Na25  1  0.82173295  0.33613623  0.32919920  1
  Na  Na26  1  0.17099947  0.69532729  0.16536683  1
  Na  Na27  1  0.65852972  0.66504710  0.16179511  1
  Na  Na28  1  0.16267887  0.63689035  0.66028319  1
  Na  Na29  1  0.66499080  0.66289334  0.66637045  1
  Mg  Mg30  1  0.00495469  -0.00012793  0.34891641  1
  Mg  Mg31  1  0.49975556  0.99873250  0.34862399  1
  Mg  Mg32  1  0.00467864  0.99692812  0.84858173  1
  Mg  Mg33  1  0.50228284  0.00535640  0.84745039  1
  Mg  Mg34  1  0.33490767  0.34697512  0.68111428  1
  Mg  Mg35  1  0.83260642  0.33616890  0.68338238  1
  Mg  Mg36  1  0.33147873  0.32329311  0.18364023  1
  Mg  Mg37  1  0.83077201  0.32272816  0.18119845  1
  Mg  Mg38  1  0.33686764  0.33150151  0.98801879  1
  Mg  Mg39  1  0.84556037  0.34641923  0.98864325  1
  Mg  Mg40  1  0.33641338  0.33922573  0.48853296  1
  Mg  Mg41  1  0.84010894  0.34210558  0.48752939  1
  Mg  Mg42  1  0.16805264  0.68152958  0.01916263  1
  Mg  Mg43  1  0.66156598  0.66482266  0.02149658  1
  Mg  Mg44  1  0.16373944  0.65678165  0.52084715  1
  Mg  Mg45  1  0.66364636  0.66554932  0.51943449  1
  Mg  Mg46  1  0.17055100  0.67783931  0.31271650  1
  Mg  Mg47  1  0.66574908  0.66649224  0.31332585  1
  Mg  Mg48  1  0.16833553  0.65886486  0.81423142  1
  Mg  Mg49  1  0.66944030  0.65977984  0.81020315  1
  Ta  Ta50  1  0.00374144  0.01804506  0.64606601  1
  Ta  Ta51  1  0.50083478  0.00809214  0.64732561  1
  Ta  Ta52  1  0.00771788  0.99803966  0.14663062  1
  Ta  Ta53  1  0.49861342  0.98854017  0.14864812  1
  Si  Si54  1  0.15591875  0.00566025  0.25607305  1
  Si  Si55  1  0.65222985  0.00749517  0.25611925  1
  Si  Si56  1  0.15438866  0.30463855  0.75466338  1
  Si  Si57  1  0.65429236  0.30186580  0.75470976  1
  Si  Si58  1  0.48143274  0.34474210  0.58377933  1
  Si  Si59  1  0.98130451  0.34818574  0.58392053  1
  Si  Si60  1  0.47721923  0.61482726  0.08397950  1
  Si  Si61  1  0.98201306  0.62157165  0.08634127  1
  Si  Si62  1  0.83349221  0.03341896  0.08267218  1
  S  S63  1  0.35236311  0.70716726  0.25196002  1
  S  S64  1  0.85450067  0.70969345  0.25084055  1
  S  S65  1  0.00206915  0.29215185  0.25288354  1
  S  S66  1  0.49984369  0.29033695  0.25247958  1
  S  S67  1  0.99860277  0.70909142  0.75128451  1
  S  S68  1  0.49938227  0.70933891  0.75283265  1
  S  S69  1  0.35304875  0.99619317  0.75110235  1
  S  S70  1  0.85428882  0.99721662  0.75215927  1
  S  S71  1  0.18608890  0.03685917  0.58374393  1
  S  S72  1  0.68665937  0.03765856  0.58281304  1
  S  S73  1  0.33354580  0.62851936  0.58361069  1
  S  S74  1  0.83536052  0.62974017  0.58315447  1
  S  S75  1  0.33388286  0.04019973  0.08403347  1
  S  S76  1  0.18983793  0.33860983  0.08238457  1
  S  S77  1  0.68373496  0.32904905  0.08239640  1
  S  S78  1  0.31292720  0.66772164  0.91660713  1
  S  S79  1  0.81296542  0.66488232  0.91642424  1
  S  S80  1  0.01840070  0.37229417  0.91553453  1
  S  S81  1  0.51874215  0.37150792  0.91598373  1
  S  S82  1  0.16774980  0.96242169  0.91564097  1
  S  S83  1  0.66583189  0.95882462  0.91585205  1
  S  S84  1  0.31255953  0.95764489  0.41708825  1
  S  S85  1  0.81277510  0.95792596  0.41548856  1
  S  S86  1  0.16798114  0.37684182  0.41622559  1
  S  S87  1  0.66795264  0.37518056  0.41739141  1
  S  S88  1  0.01837410  0.66574773  0.41600498  1
  S  S89  1  0.51796025  0.66578949  0.41610576  1
  O  O90  1  0.10965930  0.02260197  0.31565665  1
  O  O91  1  0.60408352  0.01963658  0.31465454  1
  O  O92  1  0.40715446  0.79464999  0.30367880  1
  O  O93  1  0.90889882  0.79666182  0.30265276  1
  O  O94  1  0.48899607  0.19044719  0.30728642  1
  O  O95  1  0.98691635  0.18101161  0.30545755  1
  O  O96  1  0.10988211  0.18314433  0.81258988  1
  O  O97  1  0.60756547  0.19233199  0.81406445  1
  O  O98  1  0.48768139  0.78670858  0.80745205  1
  O  O99  1  0.98574436  0.78793535  0.80438482  1
  O  O100  1  0.40655804  0.01777088  0.80326705  1
  O  O101  1  0.90633248  0.01820202  0.80620186  1
  O  O102  1  0.39620520  0.97116190  0.69619170  1
  O  O103  1  0.90031860  0.97362157  0.69834216  1
  O  O104  1  0.08376392  0.18522045  0.69654953  1
  O  O105  1  0.58314897  0.17978575  0.69570224  1
  O  O106  1  0.00860638  0.81685097  0.69712126  1
  O  O107  1  0.50517190  0.81562745  0.69925069  1
  O  O108  1  0.39742456  0.82169472  0.19646086  1
  O  O109  1  0.89638074  0.82107433  0.19497241  1
  O  O110  1  0.00810755  0.20320203  0.19750676  1
  O  O111  1  0.50657218  0.19600200  0.19906982  1
  O  O112  1  0.08522784  0.98635937  0.19880613  1
  O  O113  1  0.58392201  0.98494341  0.19630530  1
  O  O114  1  0.43753065  0.35509506  0.64507311  1
  O  O115  1  0.93538479  0.35333050  0.64509241  1
  O  O116  1  0.23510491  0.12005589  0.63789231  1
  O  O117  1  0.73734657  0.12341547  0.63523990  1
  O  O118  1  0.31947260  0.52437292  0.63701170  1
  O  O119  1  0.81748394  0.51821635  0.63541784  1
  O  O120  1  0.43428168  0.51751742  0.14536811  1
  O  O121  1  0.93966796  0.51793319  0.14771507  1
  O  O122  1  0.32011021  0.11736503  0.13675336  1
  O  O123  1  0.81175318  0.11236951  0.14061888  1
  O  O124  1  0.24038690  0.35567709  0.13468221  1
  O  O125  1  0.73782101  0.35664974  0.13478540  1
  O  O126  1  0.22070340  0.29891317  0.02676107  1
  O  O127  1  0.71670524  0.28730055  0.02782153  1
  O  O128  1  0.42459735  0.55079322  0.02192685  1
  O  O129  1  0.91572066  0.55954061  0.03046770  1
  O  O130  1  0.34925799  0.14193327  0.02918671  1
  O  O131  1  0.85618438  0.15097748  0.02227092  1
  O  O132  1  0.21993739  0.14419121  0.52952066  1
  O  O133  1  0.71842113  0.14587033  0.52792647  1
  O  O134  1  0.34942420  0.55569143  0.52963147  1
  O  O135  1  0.84897840  0.55513787  0.52882556  1
  O  O136  1  0.42827631  0.30505387  0.52210059  1
  O  O137  1  0.92718392  0.30067775  0.52202067  1
  O  O138  1  0.27265447  0.68737621  0.97088811  1
  O  O139  1  0.77406751  0.68934624  0.97173603  1
  O  O140  1  0.07151727  0.45276547  0.96944145  1
  O  O141  1  0.57547789  0.45747912  0.96774204  1
  O  O142  1  0.16015485  0.85741401  0.96762417  1
  O  O143  1  0.65665997  0.85929794  0.97104059  1
  O  O144  1  0.27295164  0.85711610  0.47131118  1
  O  O145  1  0.77043726  0.85400426  0.46872110  1
  O  O146  1  0.15745643  0.46184870  0.46911994  1
  O  O147  1  0.65878133  0.45774081  0.47226614  1
  O  O148  1  0.07499354  0.69298498  0.46761271  1
  O  O149  1  0.57539755  0.69376582  0.46767185  1
  O  O150  1  0.05689449  0.63825396  0.36093585  1
  O  O151  1  0.55735940  0.63988127  0.36104086  1
  O  O152  1  0.26081344  0.87358463  0.36352758  1
  O  O153  1  0.76211729  0.87512091  0.36055223  1
  O  O154  1  0.17789223  0.47582046  0.36160167  1
  O  O155  1  0.67760279  0.47818372  0.36406737  1
  O  O156  1  0.06137497  0.47293724  0.86142947  1
  O  O157  1  0.55770103  0.47628194  0.86103354  1
  O  O158  1  0.17697209  0.88584604  0.85924246  1
  O  O159  1  0.67807727  0.87398954  0.86355985  1
  O  O160  1  0.26089287  0.64882264  0.86313416  1
  O  O161  1  0.75799039  0.64470709  0.86422376  1
  O  O162  1  0.00859969  0.82178528  0.41193395  1
  O  O163  1  0.50925788  0.82288624  0.41219583  1
  O  O164  1  0.40347875  0.98863163  0.41148353  1
  O  O165  1  0.90315831  0.98861775  0.41097523  1
  O  O166  1  0.08576067  0.20062414  0.41391593  1
  O  O167  1  0.58602574  0.20056648  0.41461049  1
  O  O168  1  0.00741543  0.19345472  0.91212874  1
  O  O169  1  0.50962378  0.19654747  0.91201553  1
  O  O170  1  0.08812566  0.98046994  0.91420018  1
  O  O171  1  0.58464902  0.97070733  0.91245733  1
  O  O172  1  0.40337888  0.81834694  0.91133197  1
  O  O173  1  0.90022548  0.82372743  0.91029412  1
  O  O174  1  0.49077870  0.15495092  0.59232247  1
  O  O175  1  0.98840548  0.15647594  0.59287461  1
  O  O176  1  0.09339431  0.01032566  0.59163402  1
  O  O177  1  0.59452910  0.01410124  0.59096200  1
  O  O178  1  0.41632495  0.80371792  0.59237659  1
  O  O179  1  0.91551181  0.80341234  0.59229749  1
  O  O180  1  0.48919766  0.82544702  0.09258131  1
  O  O181  1  0.99510899  0.82429644  0.09420694  1
  O  O182  1  0.41624319  0.02863044  0.09243196  1
  O  O183  1  0.92556131  0.02748961  0.09493438  1
  O  O184  1  0.09661097  0.18115494  0.09072799  1
  O  O185  1  0.59386127  0.17140893  0.09193123  1
  O  O186  1  0.34759104  0.15483421  0.74409300  1
  O  O187  1  0.85067940  0.15636106  0.74474091  1
  O  O188  1  0.24450541  0.30688359  0.74315574  1
  O  O189  1  0.74633797  0.31743446  0.74305398  1
  O  O190  1  0.42413988  0.53297354  0.74710953  1
  O  O191  1  0.92612281  0.53248310  0.74562339  1
  O  O192  1  0.34967281  0.54235576  0.24404698  1
  O  O193  1  0.84810869  0.54112115  0.24380287  1
  O  O194  1  0.42546342  0.31731785  0.24659643  1
  O  O195  1  0.92501690  0.31445504  0.24811176  1
  O  O196  1  0.24746233  0.17505326  0.24434364  1
  O  O197  1  0.74739840  0.17444824  0.24815221  1
  O  O198  1  0.31942750  0.50582684  0.91914381  1
  O  O199  1  0.81852116  0.50471343  0.92015185  1
  O  O200  1  0.43147385  0.35442585  0.92213371  1
  O  O201  1  0.93005936  0.35091231  0.91856922  1
  O  O202  1  0.24438914  0.14192460  0.92092244  1
  O  O203  1  0.74208449  0.13788235  0.91980861  1
  O  O204  1  0.31934039  0.13285702  0.42015001  1
  O  O205  1  0.81826275  0.13163574  0.41888975  1
  O  O206  1  0.24262187  0.34540516  0.42227831  1
  O  O207  1  0.74287047  0.34472160  0.42213539  1
  O  O208  1  0.43134534  0.50903180  0.42239988  1
  O  O209  1  0.93082501  0.50823386  0.42193621  1
  O  O210  1  0.17498584  0.48545433  0.07555865  1
  O  O211  1  0.67336949  0.48023380  0.07442120  1
  O  O212  1  0.07563860  0.63635596  0.07782133  1
  O  O213  1  0.57821050  0.66636902  0.07986395  1
  O  O214  1  0.26148044  0.86173338  0.07725761  1
  O  O215  1  0.75606582  0.83398269  0.07619371  1
  O  O216  1  0.17607452  0.86568553  0.57661217  1
  O  O217  1  0.67573116  0.86597874  0.57539912  1
  O  O218  1  0.26193593  0.66347614  0.57663713  1
  O  O219  1  0.76030086  0.65782529  0.57611190  1
  O  O220  1  0.08008037  0.50269242  0.58016258  1
  O  O221  1  0.58340429  0.49426942  0.58005458  1
  O  O222  1  0.15055335  0.81833018  0.25119688  1
  O  O223  1  0.65418804  0.82554741  0.25076621  1
  O  O224  1  0.26720488  0.69106215  0.25368766  1
  O  O225  1  0.76867528  0.69645515  0.25422861  1
  O  O226  1  0.08114635  0.46132328  0.25641447  1
  O  O227  1  0.58091255  0.46185359  0.25420676  1
  O  O228  1  0.15035850  0.48109898  0.75202820  1
  O  O229  1  0.64817233  0.47766988  0.74917393  1
  O  O230  1  0.08187588  0.70572274  0.75497495  1
  O  O231  1  0.58002659  0.69978551  0.75456358  1
  O  O232  1  0.26512563  0.84575945  0.75389980  1
  O  O233  1  0.76814458  0.84350701  0.75389683  1
