# generated using pymatgen
data_BaNdFe2O5
_symmetry_space_group_name_H-M   'P 1'
_cell_length_a   4.02731700
_cell_length_b   7.83811200
_cell_length_c   8.02599600
_cell_angle_alpha   90.00059936
_cell_angle_beta   90.00000000
_cell_angle_gamma   90.00000000
_symmetry_Int_Tables_number   1
_chemical_formula_structural   BaNdFe2O5
_chemical_formula_sum   'Ba2 Nd2 Fe4 O10'
_cell_volume   253.35309798
_cell_formula_units_Z   2
loop_
 _symmetry_equiv_pos_site_id
 _symmetry_equiv_pos_as_xyz
  1  'x, y, z'
loop_
 _atom_site_type_symbol
 _atom_site_label
 _atom_site_symmetry_multiplicity
 _atom_site_fract_x
 _atom_site_fract_y
 _atom_site_fract_z
 _atom_site_occupancy
  Ba  Ba0  1  0.00000000  0.00003400  0.00330500  1
  Ba  Ba1  1  0.00000000  0.99997000  0.50330500  1
  Nd  Nd2  1  0.00000000  0.49960500  0.00379300  1
  Nd  Nd3  1  0.00000000  0.50039700  0.50379800  1
  Fe  Fe4  1  0.50000000  0.27214800  0.25375500  1
  Fe  Fe5  1  0.50000000  0.25598900  0.75332800  1
  Fe  Fe6  1  0.50000000  0.74401100  0.25333100  1
  Fe  Fe7  1  0.50000000  0.72786100  0.75376200  1
  O  O8  1  0.00000000  0.69200300  0.75362300  1
  O  O9  1  0.50000000  0.30903200  0.99677000  1
  O  O10  1  0.00000000  0.69247800  0.25336700  1
  O  O11  1  0.00000000  0.30751800  0.75336700  1
  O  O12  1  0.50000000  0.98784300  0.25292200  1
  O  O13  1  0.00000000  0.30799500  0.25362000  1
  O  O14  1  0.50000000  0.69010800  0.00993300  1
  O  O15  1  0.50000000  0.69096200  0.49676800  1
  O  O16  1  0.50000000  0.01216500  0.75291700  1
  O  O17  1  0.50000000  0.30988200  0.50993400  1
