# generated using pymatgen
data_MgV2CoO6
_symmetry_space_group_name_H-M   'P 1'
_cell_length_a   3.59370039
_cell_length_b   5.60679968
_cell_length_c   6.30607541
_cell_angle_alpha   102.14286326
_cell_angle_beta   90.00902962
_cell_angle_gamma   108.70252934
_symmetry_Int_Tables_number   1
_chemical_formula_structural   MgV2CoO6
_chemical_formula_sum   'Mg1 V2 Co1 O6'
_cell_volume   117.34597630
_cell_formula_units_Z   1
loop_
 _symmetry_equiv_pos_site_id
 _symmetry_equiv_pos_as_xyz
  1  'x, y, z'
loop_
 _atom_site_type_symbol
 _atom_site_label
 _atom_site_symmetry_multiplicity
 _atom_site_fract_x
 _atom_site_fract_y
 _atom_site_fract_z
 _atom_site_occupancy
  Mg  Mg0  1  0.48703300  0.99999600  0.50000000  1
  V  V1  1  0.75793500  0.54214800  0.30742900  1
  V  V2  1  0.21585600  0.45790600  0.69260500  1
  Co  Co3  1  0.98694200  0.99999500  0.99999900  1
  O  O4  1  0.68090200  0.38808700  0.57016200  1
  O  O5  1  0.03786800  0.10205100  0.71718400  1
  O  O6  1  0.93590800  0.89794500  0.28280800  1
  O  O7  1  0.29285500  0.61190900  0.42982700  1
  O  O8  1  0.34805300  0.72206100  0.90488200  1
  O  O9  1  0.62579000  0.27790200  0.09510700  1
