# generated using pymatgen
data_MgMo2(HO2)4
_symmetry_space_group_name_H-M   'P 1'
_cell_length_a   7.90981230
_cell_length_b   6.58486104
_cell_length_c   3.89907585
_cell_angle_alpha   100.81702484
_cell_angle_beta   90.63517153
_cell_angle_gamma   118.93020056
_symmetry_Int_Tables_number   1
_chemical_formula_structural   MgMo2(HO2)4
_chemical_formula_sum   'Mg1 Mo2 H4 O8'
_cell_volume   173.35225511
_cell_formula_units_Z   1
loop_
 _symmetry_equiv_pos_site_id
 _symmetry_equiv_pos_as_xyz
  1  'x, y, z'
loop_
 _atom_site_type_symbol
 _atom_site_label
 _atom_site_symmetry_multiplicity
 _atom_site_fract_x
 _atom_site_fract_y
 _atom_site_fract_z
 _atom_site_occupancy
  Mg  Mg0  1  0.52941200  0.11275700  0.81617800  1
  Mo  Mo1  1  0.81634600  0.96479400  0.72657500  1
  Mo  Mo2  1  0.17066600  0.02129400  0.26050800  1
  H  H3  1  0.84793700  0.52968200  0.68405000  1
  H  H4  1  0.17888400  0.47789200  0.24756000  1
  H  H5  1  0.64002200  0.44647900  0.47785200  1
  H  H6  1  0.36419000  0.56018600  0.51552400  1
  O  O7  1  0.54272300  0.81194500  0.71509900  1
  O  O8  1  0.46386500  0.17460000  0.32909200  1
  O  O9  1  0.12669000  0.05490200  0.76903500  1
  O  O10  1  0.88206900  0.95431800  0.22664800  1
  O  O11  1  0.82391800  0.24788400  0.80085400  1
  O  O12  1  0.12950100  0.73249000  0.15875900  1
  O  O13  1  0.76443900  0.58990100  0.60878000  1
  O  O14  1  0.24277600  0.41462500  0.37777100  1
