# generated using pymatgen
data_Na7Zr2Ga2Si3(PO8)3
_symmetry_space_group_name_H-M   'P 1'
_cell_length_a   9.06726694
_cell_length_b   9.02616898
_cell_length_c   22.38784110
_cell_angle_alpha   89.62086787
_cell_angle_beta   90.31100570
_cell_angle_gamma   119.97949110
_symmetry_Int_Tables_number   1
_chemical_formula_structural   Na7Zr2Ga2Si3(PO8)3
_chemical_formula_sum   'Na21 Zr6 Ga6 Si9 P9 O72'
_cell_volume   1587.09021099
_cell_formula_units_Z   3
loop_
 _symmetry_equiv_pos_site_id
 _symmetry_equiv_pos_as_xyz
  1  'x, y, z'
loop_
 _atom_site_type_symbol
 _atom_site_label
 _atom_site_symmetry_multiplicity
 _atom_site_fract_x
 _atom_site_fract_y
 _atom_site_fract_z
 _atom_site_occupancy
  Na  Na0  1  0.63340252  0.00309625  0.25186173  1
  Na  Na1  1  0.36674783  0.36951030  0.24792831  1
  Na  Na2  1  0.99957954  0.62803612  0.24968432  1
  Na  Na3  1  0.63127519  0.63277944  0.75009118  1
  Na  Na4  1  0.99482565  0.36568178  0.75028737  1
  Na  Na5  1  0.37257889  0.00150614  0.74875037  1
  Na  Na6  1  0.03313919  0.69717878  0.58374085  1
  Na  Na7  1  0.66376679  0.97055053  0.58335510  1
  Na  Na8  1  0.66570706  0.69242321  0.08232671  1
  Na  Na9  1  0.03220614  0.33579557  0.08546034  1
  Na  Na10  1  0.96098592  0.66423028  0.91820835  1
  Na  Na11  1  0.70263452  0.03432648  0.91615597  1
  Na  Na12  1  0.33870696  0.30130666  0.91726812  1
  Na  Na13  1  0.96645277  0.30322797  0.41534466  1
  Na  Na14  1  0.33512659  0.02824626  0.41781920  1
  Na  Na15  1  0.00044520  0.99910811  0.50030678  1
  Na  Na16  1  0.00863519  0.99579013  0.99822023  1
  Na  Na17  1  0.66671730  0.33334845  0.83344631  1
  Na  Na18  1  0.67235906  0.34075004  0.33195045  1
  Na  Na19  1  0.32707130  0.66833899  0.16834880  1
  Na  Na20  1  0.33313322  0.66133514  0.66777837  1
  Zr  Zr21  1  0.98892118  0.99445861  0.35202307  1
  Zr  Zr22  1  0.00307465  0.00695924  0.64937096  1
  Zr  Zr23  1  0.01026257  0.00468274  0.14583320  1
  Zr  Zr24  1  0.66618341  0.33305297  0.47969770  1
  Zr  Zr25  1  0.33555940  0.67014690  0.01956149  1
  Zr  Zr26  1  0.33373724  0.66586996  0.52047603  1
  Ga  Ga27  1  0.98972671  0.99618728  0.84872917  1
  Ga  Ga28  1  0.66911490  0.32193824  0.68221387  1
  Ga  Ga29  1  0.67411402  0.33617886  0.18064047  1
  Ga  Ga30  1  0.66181987  0.34479951  0.98497411  1
  Ga  Ga31  1  0.32558893  0.66247233  0.31831807  1
  Ga  Ga32  1  0.34385294  0.67129441  0.81820157  1
  Si  Si33  1  -0.00015871  0.30576756  0.24912934  1
  Si  Si34  1  0.70045310  0.99980035  0.75250384  1
  Si  Si35  1  0.95788066  0.33457712  0.58614870  1
  Si  Si36  1  0.37375951  0.04350953  0.58538499  1
  Si  Si37  1  0.95291401  0.61918974  0.08293416  1
  Si  Si38  1  0.38401157  0.33066781  0.08327720  1
  Si  Si39  1  0.63252489  0.66673782  0.91434087  1
  Si  Si40  1  0.62096796  0.95285545  0.41392113  1
  Si  Si41  1  0.04234040  0.66702503  0.41413238  1
  P  P42  1  0.30173051  0.00133624  0.25103143  1
  P  P43  1  0.69804859  0.69911158  0.24836695  1
  P  P44  1  0.29406660  0.29564853  0.75469954  1
  P  P45  1  0.00065568  0.70399394  0.75326576  1
  P  P46  1  0.66558340  0.61798361  0.58832848  1
  P  P47  1  0.66467871  0.05081732  0.08311708  1
  P  P48  1  0.04094783  0.37239591  0.91367605  1
  P  P49  1  0.33279227  0.96197800  0.91294932  1
  P  P50  1  0.33496724  0.37887884  0.41271479  1
  O  O51  1  0.21761643  0.03129439  0.30645336  1
  O  O52  1  0.82054253  0.78870375  0.30213530  1
  O  O53  1  0.96580647  0.18010142  0.30719250  1
  O  O54  1  0.21080064  0.17633103  0.80951470  1
  O  O55  1  0.97157757  0.79184759  0.80789116  1
  O  O56  1  0.82920047  0.04029118  0.80964016  1
  O  O57  1  0.78522665  0.96067892  0.69397360  1
  O  O58  1  0.17749545  0.20852537  0.69939025  1
  O  O59  1  0.03506350  0.81817067  0.69673552  1
  O  O60  1  0.78330510  0.81473387  0.19276734  1
  O  O61  1  0.03365392  0.21263705  0.19183934  1
  O  O62  1  0.17824614  0.96839317  0.19731586  1
  O  O63  1  0.87527883  0.37305797  0.64451045  1
  O  O64  1  0.49298296  0.12852650  0.64420391  1
  O  O65  1  0.64250626  0.51145941  0.64537178  1
  O  O66  1  0.87562238  0.50338473  0.14307781  1
  O  O67  1  0.63921608  0.12679046  0.14053252  1
  O  O68  1  0.50017018  0.36587389  0.14312097  1
  O  O69  1  0.45965635  0.30014789  0.02191635  1
  O  O70  1  0.83918756  0.53810734  0.02246928  1
  O  O71  1  0.69703785  0.16182377  0.02609958  1
  O  O72  1  0.45559539  0.15268021  0.52413526  1
  O  O73  1  0.69536003  0.53725177  0.53241896  1
  O  O74  1  0.84175556  0.30241080  0.52591433  1
  O  O75  1  0.54743102  0.70534213  0.97307133  1
  O  O76  1  0.15354114  0.45682938  0.97031850  1
  O  O77  1  0.29744094  0.84236131  0.96788899  1
  O  O78  1  0.54147319  0.84563315  0.47558443  1
  O  O79  1  0.30290330  0.45948177  0.46809524  1
  O  O80  1  0.15789140  0.69663976  0.47449709  1
  O  O81  1  0.12493111  0.62936750  0.35579976  1
  O  O82  1  0.50164908  0.86493645  0.35544472  1
  O  O83  1  0.36017998  0.48427703  0.35572001  1
  O  O84  1  0.12507208  0.49206640  0.85896480  1
  O  O85  1  0.36287392  0.87797902  0.85743556  1
  O  O86  1  0.50452399  0.62725251  0.85716869  1
  O  O87  1  0.03704620  0.84521666  0.41073080  1
  O  O88  1  0.81743337  0.98825644  0.41205142  1
  O  O89  1  0.17331433  0.19772792  0.40903154  1
  O  O90  1  0.03116542  0.19548025  0.90959126  1
  O  O91  1  0.17242782  0.98181202  0.90782911  1
  O  O92  1  0.82345368  0.84006618  0.90884640  1
  O  O93  1  0.96493930  0.15695357  0.58938830  1
  O  O94  1  0.17750478  0.00542863  0.58912532  1
  O  O95  1  0.82865219  0.79845538  0.59139203  1
  O  O96  1  0.96197844  0.80561576  0.08816429  1
  O  O97  1  0.82594113  0.02919620  0.08826318  1
  O  O98  1  0.18556187  0.17045973  0.08665897  1
  O  O99  1  0.68525523  0.17462730  0.74600550  1
  O  O100  1  0.47301201  0.31680703  0.74702386  1
  O  O101  1  0.83574405  0.52782700  0.74721212  1
  O  O102  1  0.68280580  0.52151966  0.24516704  1
  O  O103  1  0.82346605  0.31502222  0.24367104  1
  O  O104  1  0.47656682  0.16381321  0.24366015  1
  O  O105  1  0.64872604  0.49247296  0.92036491  1
  O  O106  1  0.86054597  0.34930819  0.92027550  1
  O  O107  1  0.49772801  0.13767622  0.92029237  1
  O  O108  1  0.63746127  0.14378085  0.41743916  1
  O  O109  1  0.48975221  0.35264465  0.41846721  1
  O  O110  1  0.85495601  0.49638440  0.41924323  1
  O  O111  1  0.36362458  0.50443022  0.07856426  1
  O  O112  1  0.14168032  0.63609564  0.07759414  1
  O  O113  1  0.50997084  0.86672076  0.07824055  1
  O  O114  1  0.36175767  0.85441207  0.58180048  1
  O  O115  1  0.51187644  0.64598998  0.58244577  1
  O  O116  1  0.14520806  0.50424031  0.58127904  1
  O  O117  1  0.31666266  0.83838866  0.25452964  1
  O  O118  1  0.52389167  0.68802378  0.25538170  1
  O  O119  1  0.17588162  0.49196438  0.25505795  1
  O  O120  1  0.30338795  0.47215853  0.75800001  1
  O  O121  1  0.16083059  0.68404268  0.75897039  1
  O  O122  1  0.50999027  0.82667592  0.75800371  1
