# generated using pymatgen
data_Na6La3TaSi4(SO12)2
_symmetry_space_group_name_H-M   'P 1'
_cell_length_a   9.58457633
_cell_length_b   9.60144428
_cell_length_c   23.41000798
_cell_angle_alpha   89.84321699
_cell_angle_beta   90.74158074
_cell_angle_gamma   120.03823649
_symmetry_Int_Tables_number   1
_chemical_formula_structural   Na6La3TaSi4(SO12)2
_chemical_formula_sum   'Na18 La9 Ta3 Si12 S6 O72'
_cell_volume   1864.80653272
_cell_formula_units_Z   3
loop_
 _symmetry_equiv_pos_site_id
 _symmetry_equiv_pos_as_xyz
  1  'x, y, z'
loop_
 _atom_site_type_symbol
 _atom_site_label
 _atom_site_symmetry_multiplicity
 _atom_site_fract_x
 _atom_site_fract_y
 _atom_site_fract_z
 _atom_site_occupancy
  Na  Na0  1  0.62537535  0.99976247  0.25386442  1
  Na  Na1  1  0.64695380  0.64352860  0.75696118  1
  Na  Na2  1  0.01815439  0.36882310  0.74234917  1
  Na  Na3  1  0.29808168  0.35343052  0.58170579  1
  Na  Na4  1  0.01527724  0.67645311  0.58948028  1
  Na  Na5  1  0.68296612  0.95706940  0.56820152  1
  Na  Na6  1  0.30484666  0.94854727  0.08449804  1
  Na  Na7  1  0.67190196  0.71637363  0.06955199  1
  Na  Na8  1  0.02249241  0.34360596  0.07670913  1
  Na  Na9  1  0.98201817  0.68322338  0.91419337  1
  Na  Na10  1  0.32576526  0.29295776  0.90997018  1
  Na  Na11  1  0.67328370  0.67842007  0.41591910  1
  Na  Na12  1  0.99785217  0.03717468  0.49504693  1
  Na  Na13  1  0.96529593  0.98852023  0.99341790  1
  Na  Na14  1  0.64651168  0.32634364  0.83112815  1
  Na  Na15  1  0.61263526  0.29223339  0.33634219  1
  Na  Na16  1  0.30657823  0.68530467  0.16886001  1
  Na  Na17  1  0.32227527  0.65026555  0.67006092  1
  La  La18  1  0.02969022  0.01743164  0.35194697  1
  La  La19  1  0.00161336  0.99806946  0.84823348  1
  La  La20  1  0.01039024  0.00149875  0.65356256  1
  La  La21  1  0.00904144  0.98921019  0.14729184  1
  La  La22  1  0.66791463  0.34340117  0.68548697  1
  La  La23  1  0.66139406  0.33316537  0.18416619  1
  La  La24  1  0.33842694  0.67762292  0.00867423  1
  La  La25  1  0.33379328  0.65638417  0.50817815  1
  La  La26  1  0.33459193  0.67648414  0.32384887  1
  Ta  Ta27  1  0.68423960  0.33065145  0.97229833  1
  Ta  Ta28  1  0.67373630  0.33280375  0.48331668  1
  Ta  Ta29  1  0.32379860  0.66040842  0.82609033  1
  Si  Si30  1  0.31265151  0.99158285  0.24540295  1
  Si  Si31  1  0.31190354  0.32931606  0.75565874  1
  Si  Si32  1  0.01471159  0.68988988  0.75243549  1
  Si  Si33  1  0.96321640  0.33158540  0.58573126  1
  Si  Si34  1  0.67442221  0.63503917  0.58049790  1
  Si  Si35  1  0.95427925  0.62607214  0.07623436  1
  Si  Si36  1  0.67627889  0.04769448  0.07945655  1
  Si  Si37  1  0.62880098  0.64816054  0.92055367  1
  Si  Si38  1  0.02983024  0.36621191  0.92117968  1
  Si  Si39  1  0.35071009  0.97595843  0.91870698  1
  Si  Si40  1  0.65051978  0.98678355  0.42113369  1
  Si  Si41  1  0.35344831  0.36019417  0.42590901  1
  S  S42  1  0.69050617  0.69980225  0.25246740  1
  S  S43  1  0.00520510  0.30771359  0.24653368  1
  S  S44  1  0.67189249  0.97854510  0.75056998  1
  S  S45  1  0.37468775  0.04717084  0.57698058  1
  S  S46  1  0.37046734  0.32739285  0.07424079  1
  S  S47  1  0.00000796  0.64786884  0.42284650  1
  O  O48  1  0.19575866  0.98640563  0.29620956  1
  O  O49  1  0.78247431  0.78929407  0.30427884  1
  O  O50  1  0.99880962  0.20643539  0.29569519  1
  O  O51  1  0.21812792  0.22245661  0.81027008  1
  O  O52  1  0.96586545  0.77044752  0.80339970  1
  O  O53  1  0.78388766  0.01022547  0.79930529  1
  O  O54  1  0.74470703  0.95649613  0.69721442  1
  O  O55  1  0.20136118  0.25221432  0.69618158  1
  O  O56  1  0.03872966  0.78788341  0.69145756  1
  O  O57  1  0.77689972  0.78970700  0.19978385  1
  O  O58  1  0.00886007  0.22876766  0.19204785  1
  O  O59  1  0.23073401  0.99187839  0.18197668  1
  O  O60  1  0.88427154  0.33556757  0.64635998  1
  O  O61  1  0.46282675  0.11097586  0.63157897  1
  O  O62  1  0.65195940  0.53992072  0.64040988  1
  O  O63  1  0.85788976  0.52233729  0.13110079  1
  O  O64  1  0.65615181  0.12566844  0.13795043  1
  O  O65  1  0.45860036  0.34144374  0.12837293  1
  O  O66  1  0.46336480  0.32283341  0.02413430  1
  O  O67  1  0.83869363  0.51503763  0.01837777  1
  O  O68  1  0.67702206  0.17176037  0.02505485  1
  O  O69  1  0.47710128  0.14977229  0.52858407  1
  O  O70  1  0.67722944  0.51219047  0.52854678  1
  O  O71  1  0.83514964  0.33006234  0.53434767  1
  O  O72  1  0.56429196  0.67044242  0.98103642  1
  O  O73  1  0.11657245  0.43546763  0.98171884  1
  O  O74  1  0.30893794  0.88501718  0.97946236  1
  O  O75  1  0.56050743  0.87677957  0.47725340  1
  O  O76  1  0.33010534  0.42863582  0.48666236  1
  O  O77  1  0.09091115  0.67494886  0.47720034  1
  O  O78  1  0.08549054  0.63035071  0.37410916  1
  O  O79  1  0.53842772  0.91027962  0.36334211  1
  O  O80  1  0.39000178  0.49691437  0.37650767  1
  O  O81  1  0.14360182  0.50507872  0.87018060  1
  O  O82  1  0.36192213  0.85064896  0.86990158  1
  O  O83  1  0.49446706  0.63566204  0.86874323  1
  O  O84  1  0.95972722  0.77661920  0.41475865  1
  O  O85  1  0.82235451  0.99158342  0.41646932  1
  O  O86  1  0.20396005  0.17890650  0.41887461  1
  O  O87  1  0.00629646  0.19181423  0.91027865  1
  O  O88  1  0.20247866  0.00731843  0.90563682  1
  O  O89  1  0.81298060  0.78927674  0.91090856  1
  O  O90  1  0.97438145  0.16642827  0.57905481  1
  O  O91  1  0.22244759  0.05323487  0.57612606  1
  O  O92  1  0.84783042  0.80614256  0.57938589  1
  O  O93  1  0.95924437  0.80093484  0.07330818  1
  O  O94  1  0.84907364  0.05044030  0.07558616  1
  O  O95  1  0.21043986  0.17568374  0.07397838  1
  O  O96  1  0.64202794  0.11513284  0.74610590  1
  O  O97  1  0.49804564  0.36547020  0.75427979  1
  O  O98  1  0.87044259  0.49931358  0.75114601  1
  O  O99  1  0.66883078  0.53659818  0.25343299  1
  O  O100  1  0.85556352  0.31757022  0.24984791  1
  O  O101  1  0.49428991  0.15000006  0.25434339  1
  O  O102  1  0.62237638  0.46795442  0.92135149  1
  O  O103  1  0.85346984  0.36673530  0.91901625  1
  O  O104  1  0.52064934  0.15271440  0.92073673  1
  O  O105  1  0.67106046  0.16875368  0.43410446  1
  O  O106  1  0.52277432  0.34797747  0.42929711  1
  O  O107  1  0.84004167  0.49200625  0.42611269  1
  O  O108  1  0.34410396  0.46796493  0.07358861  1
  O  O109  1  0.13596442  0.64902611  0.07835122  1
  O  O110  1  0.52301282  0.86350047  0.07685758  1
  O  O111  1  0.33864382  0.87866393  0.57075657  1
  O  O112  1  0.52183847  0.66833109  0.57663213  1
  O  O113  1  0.13948163  0.49859170  0.58138005  1
  O  O114  1  0.33664466  0.83239053  0.24799100  1
  O  O115  1  0.53153624  0.69303078  0.25099340  1
  O  O116  1  0.14984938  0.46967724  0.25005286  1
  O  O117  1  0.32291914  0.51046947  0.76473474  1
  O  O118  1  0.18441559  0.68511027  0.76816213  1
  O  O119  1  0.51805508  0.82317426  0.75970674  1
