# generated using pymatgen
data_Na3Zr3GaSi3(SO8)3
_symmetry_space_group_name_H-M   'P 1'
_cell_length_a   8.94064846
_cell_length_b   9.00544931
_cell_length_c   23.12778888
_cell_angle_alpha   90.05893291
_cell_angle_beta   89.99650858
_cell_angle_gamma   120.01988526
_symmetry_Int_Tables_number   1
_chemical_formula_structural   Na3Zr3GaSi3(SO8)3
_chemical_formula_sum   'Na9 Zr9 Ga3 Si9 S9 O72'
_cell_volume   1612.32209041
_cell_formula_units_Z   3
loop_
 _symmetry_equiv_pos_site_id
 _symmetry_equiv_pos_as_xyz
  1  'x, y, z'
loop_
 _atom_site_type_symbol
 _atom_site_label
 _atom_site_symmetry_multiplicity
 _atom_site_fract_x
 _atom_site_fract_y
 _atom_site_fract_z
 _atom_site_occupancy
  Na  Na0  1  0.35945192  0.36028207  0.24385877  1
  Na  Na1  1  0.63943322  0.62781472  0.75199960  1
  Na  Na2  1  0.97064275  0.29437682  0.41625072  1
  Na  Na3  1  0.99521129  0.00368009  0.49559731  1
  Na  Na4  1  0.99676455  0.98632718  0.00239248  1
  Na  Na5  1  0.66410049  0.33792984  0.83006303  1
  Na  Na6  1  0.66545469  0.32203634  0.32820100  1
  Na  Na7  1  0.30952545  0.65707892  0.16438276  1
  Na  Na8  1  0.30153096  0.65032408  0.66600030  1
  Zr  Zr9  1  0.00582187  0.99071857  0.85030881  1
  Zr  Zr10  1  0.01283211  0.01511690  0.64661381  1
  Zr  Zr11  1  0.00924345  0.00900241  0.14497641  1
  Zr  Zr12  1  0.66474899  0.35339850  0.98168478  1
  Zr  Zr13  1  0.66110547  0.31936921  0.47886949  1
  Zr  Zr14  1  0.34085521  0.65720157  0.02549298  1
  Zr  Zr15  1  0.33087875  0.65217393  0.51803343  1
  Zr  Zr16  1  0.33683222  0.66552985  0.31429676  1
  Zr  Zr17  1  0.32659005  0.65322089  0.81184293  1
  Ga  Ga18  1  0.98912215  0.02637593  0.35211116  1
  Ga  Ga19  1  0.68613316  0.34989902  0.68840619  1
  Ga  Ga20  1  0.69545144  0.34817991  0.17923928  1
  Si  Si21  1  0.98417101  0.29201315  0.24964227  1
  Si  Si22  1  0.30531377  0.28980294  0.74832620  1
  Si  Si23  1  0.99970723  0.70445778  0.74626258  1
  Si  Si24  1  0.95243228  0.33542128  0.58593364  1
  Si  Si25  1  0.95969035  0.62774906  0.08508191  1
  Si  Si26  1  0.38905590  0.33417090  0.09019833  1
  Si  Si27  1  0.63090643  0.67325235  0.91529696  1
  Si  Si28  1  0.62811484  0.95198397  0.41608870  1
  Si  Si29  1  0.33086804  0.36500645  0.41339668  1
  S  S30  1  0.28669432  0.00055172  0.25250704  1
  S  S31  1  0.71635815  0.71205790  0.25231928  1
  S  S32  1  0.70939647  0.00555618  0.74977713  1
  S  S33  1  0.37958132  0.04229441  0.58535112  1
  S  S34  1  0.66711181  0.62251759  0.58496712  1
  S  S35  1  0.66609278  0.04828234  0.08391642  1
  S  S36  1  0.03996261  0.37134206  0.91737521  1
  S  S37  1  0.33712975  0.95612895  0.91722876  1
  S  S38  1  0.04245759  0.67421158  0.41626355  1
  O  O39  1  0.19858040  0.02148613  0.30350826  1
  O  O40  1  0.82013011  0.79559783  0.30433782  1
  O  O41  1  0.96293942  0.18684917  0.30998002  1
  O  O42  1  0.20930276  0.17650397  0.80557887  1
  O  O43  1  0.96197639  0.79291802  0.80329218  1
  O  O44  1  0.81589684  0.02959082  0.80190131  1
  O  O45  1  0.78673948  0.97189030  0.69841952  1
  O  O46  1  0.17749490  0.20748846  0.69313126  1
  O  O47  1  0.01949742  0.82452574  0.69138674  1
  O  O48  1  0.79424846  0.81171238  0.19942301  1
  O  O49  1  0.02706643  0.19678249  0.19715124  1
  O  O50  1  0.18324081  0.97328975  0.19881592  1
  O  O51  1  0.85246527  0.35519080  0.64128044  1
  O  O52  1  0.48083468  0.12520671  0.63693787  1
  O  O53  1  0.63960924  0.52294019  0.63857488  1
  O  O54  1  0.88282664  0.50929552  0.14139333  1
  O  O55  1  0.63865804  0.12442189  0.13614333  1
  O  O56  1  0.49976458  0.35350296  0.14890292  1
  O  O57  1  0.46844565  0.30462538  0.03078734  1
  O  O58  1  0.84451528  0.53608059  0.02711861  1
  O  O59  1  0.69152985  0.14823843  0.03097645  1
  O  O60  1  0.45754768  0.14669480  0.53206254  1
  O  O61  1  0.68521991  0.53645316  0.53337638  1
  O  O62  1  0.84722351  0.31596849  0.52545397  1
  O  O63  1  0.52828627  0.68963989  0.97080529  1
  O  O64  1  0.14517098  0.45703595  0.96893271  1
  O  O65  1  0.31070455  0.85228880  0.96913742  1
  O  O66  1  0.53021718  0.83892145  0.47322510  1
  O  O67  1  0.28917291  0.45565185  0.46881857  1
  O  O68  1  0.14774910  0.69721956  0.46869070  1
  O  O69  1  0.12063196  0.63724089  0.36525609  1
  O  O70  1  0.50494969  0.86758928  0.35999333  1
  O  O71  1  0.35674778  0.48423850  0.35663541  1
  O  O72  1  0.12021035  0.47900764  0.86496266  1
  O  O73  1  0.35128468  0.87078327  0.86450930  1
  O  O74  1  0.51778004  0.65094910  0.85664609  1
  O  O75  1  0.02344683  0.82375569  0.40829149  1
  O  O76  1  0.82026079  0.97381446  0.41036643  1
  O  O77  1  0.15733662  0.17689978  0.40726737  1
  O  O78  1  0.02932357  0.20389744  0.91082855  1
  O  O79  1  0.18270240  0.97878062  0.91203846  1
  O  O80  1  0.82149410  0.84572777  0.91116735  1
  O  O81  1  0.97044921  0.16232604  0.58952480  1
  O  O82  1  0.20329746  0.02307052  0.58746079  1
  O  O83  1  0.82090310  0.79556330  0.58849520  1
  O  O84  1  0.97012931  0.81295823  0.09117104  1
  O  O85  1  0.81861161  0.02474492  0.08992723  1
  O  O86  1  0.19270001  0.16895309  0.09182188  1
  O  O87  1  0.68713890  0.15491456  0.74391277  1
  O  O88  1  0.49712094  0.31482582  0.73796375  1
  O  O89  1  0.82456657  0.51737772  0.74386591  1
  O  O90  1  0.68549603  0.53439230  0.24864397  1
  O  O91  1  0.80989481  0.30607444  0.24074770  1
  O  O92  1  0.45716628  0.15755987  0.24724869  1
  O  O93  1  0.64593425  0.49860475  0.91890925  1
  O  O94  1  0.86557500  0.34841046  0.92180757  1
  O  O95  1  0.49404024  0.12673111  0.92109342  1
  O  O96  1  0.66065457  0.15002514  0.42212603  1
  O  O97  1  0.50509727  0.35696940  0.42351131  1
  O  O98  1  0.87115522  0.51374907  0.42288332  1
  O  O99  1  0.36722028  0.50461926  0.08215160  1
  O  O100  1  0.15290825  0.65451098  0.07510279  1
  O  O101  1  0.51049988  0.87414492  0.07844801  1
  O  O102  1  0.36009973  0.87041785  0.57827231  1
  O  O103  1  0.51051957  0.64151515  0.57886385  1
  O  O104  1  0.14586903  0.50766249  0.57966427  1
  O  O105  1  0.30682813  0.84670342  0.25675433  1
  O  O106  1  0.53746445  0.69347867  0.25547659  1
  O  O107  1  0.16551781  0.48127936  0.25527845  1
  O  O108  1  0.33131286  0.48540634  0.75541478  1
  O  O109  1  0.17209609  0.69063637  0.75579227  1
  O  O110  1  0.53776770  0.84620814  0.75627169  1
