# generated using pymatgen
data_Mg(CoO2)4
_symmetry_space_group_name_H-M   'P 1'
_cell_length_a   5.91125355
_cell_length_b   5.80346503
_cell_length_c   5.77354751
_cell_angle_alpha   120.16274568
_cell_angle_beta   119.35624881
_cell_angle_gamma   90.04598704
_symmetry_Int_Tables_number   1
_chemical_formula_structural   Mg(CoO2)4
_chemical_formula_sum   'Mg1 Co4 O8'
_cell_volume   141.00377543
_cell_formula_units_Z   1
loop_
 _symmetry_equiv_pos_site_id
 _symmetry_equiv_pos_as_xyz
  1  'x, y, z'
loop_
 _atom_site_type_symbol
 _atom_site_label
 _atom_site_symmetry_multiplicity
 _atom_site_fract_x
 _atom_site_fract_y
 _atom_site_fract_z
 _atom_site_occupancy
  Mg  Mg0  1  0.00000000  0.00000000  0.00000000  1
  Co  Co1  1  0.50000100  0.50000100  0.00000100  1
  Co  Co2  1  0.00000000  0.99999900  0.50000000  1
  Co  Co3  1  0.00000100  0.50000100  0.00000100  1
  Co  Co4  1  0.00000000  0.50000200  0.50000200  1
  O  O5  1  0.79562100  0.75291900  0.04254500  1
  O  O6  1  0.19554600  0.73151100  0.46271800  1
  O  O7  1  0.20438100  0.24708100  0.95745500  1
  O  O8  1  0.20452800  0.71066600  0.95750900  1
  O  O9  1  0.80445500  0.26848900  0.53728200  1
  O  O10  1  0.20234800  0.24797300  0.49563500  1
  O  O11  1  0.79547300  0.28933400  0.04249100  1
  O  O12  1  0.79765400  0.75202700  0.50436400  1
