# generated using pymatgen
data_Na14Ta4In4Si11SO48
_symmetry_space_group_name_H-M   'P 1'
_cell_length_a   18.37594247
_cell_length_b   9.17589999
_cell_length_c   22.57247243
_cell_angle_alpha   89.96566013
_cell_angle_beta   90.05858278
_cell_angle_gamma   119.99958474
_symmetry_Int_Tables_number   1
_chemical_formula_structural   Na14Ta4In4Si11SO48
_chemical_formula_sum   'Na42 Ta12 In12 Si33 S3 O144'
_cell_volume   3296.17032257
_cell_formula_units_Z   3
loop_
 _symmetry_equiv_pos_site_id
 _symmetry_equiv_pos_as_xyz
  1  'x, y, z'
loop_
 _atom_site_type_symbol
 _atom_site_label
 _atom_site_symmetry_multiplicity
 _atom_site_fract_x
 _atom_site_fract_y
 _atom_site_fract_z
 _atom_site_occupancy
  Na  Na0  1  0.32456538  0.99975041  0.24994636  1
  Na  Na1  1  0.82525137  0.00036393  0.24986556  1
  Na  Na2  1  0.32189824  0.63490273  0.74919686  1
  Na  Na3  1  0.82406041  0.64683894  0.74906569  1
  Na  Na4  1  0.49303879  0.35925017  0.74817548  1
  Na  Na5  1  0.68091983  0.00454937  0.75139771  1
  Na  Na6  1  0.14977256  0.32355305  0.58248034  1
  Na  Na7  1  0.65321619  0.32947460  0.58126603  1
  Na  Na8  1  0.01451320  0.70777738  0.58470555  1
  Na  Na9  1  0.51032936  0.68784893  0.58265269  1
  Na  Na10  1  0.33141556  0.97953558  0.58270103  1
  Na  Na11  1  0.84089656  0.97347017  0.58496736  1
  Na  Na12  1  0.14581067  0.95609080  0.08033008  1
  Na  Na13  1  0.64564910  0.95596714  0.07999882  1
  Na  Na14  1  0.33229709  0.71198181  0.08309196  1
  Na  Na15  1  0.83243273  0.71177113  0.08355814  1
  Na  Na16  1  0.02356255  0.33466557  0.08338136  1
  Na  Na17  1  0.52312665  0.33416629  0.08343698  1
  Na  Na18  1  0.48536406  0.68060773  0.91474471  1
  Na  Na19  1  0.98641171  0.67848301  0.91508875  1
  Na  Na20  1  0.35449025  0.02713931  0.91504389  1
  Na  Na21  1  0.85396546  0.02834750  0.91522644  1
  Na  Na22  1  0.16074676  0.29810410  0.91865912  1
  Na  Na23  1  0.65957173  0.29195041  0.91579179  1
  Na  Na24  1  0.47594766  0.28779155  0.41583714  1
  Na  Na25  1  0.97735425  0.28914571  0.41666558  1
  Na  Na26  1  0.16780677  0.04415364  0.42077884  1
  Na  Na27  1  0.66770594  0.04348317  0.41888073  1
  Na  Na28  1  0.35521326  0.66496266  0.41595158  1
  Na  Na29  1  0.85654422  0.66549184  0.41640529  1
  Na  Na30  1  0.00063071  0.99924345  0.50029551  1
  Na  Na31  1  0.49855443  0.99846675  0.49494881  1
  Na  Na32  1  0.99960313  0.00135134  0.00014725  1
  Na  Na33  1  0.49926951  -0.00001294  0.99939065  1
  Na  Na34  1  0.33314628  0.32451254  0.82895390  1
  Na  Na35  1  0.83932584  0.33477447  0.83229443  1
  Na  Na36  1  0.33753492  0.34711260  0.33619049  1
  Na  Na37  1  0.83852150  0.34863449  0.33576408  1
  Na  Na38  1  0.16425833  0.65205127  0.16404977  1
  Na  Na39  1  0.66418953  0.65203947  0.16395616  1
  Na  Na40  1  0.16326371  0.67709728  0.66820209  1
  Na  Na41  1  0.66682390  0.66664646  0.66671495  1
  Ta  Ta42  1  0.49825698  0.99803059  0.64943547  1
  Ta  Ta43  1  0.83711965  0.33696132  0.68499405  1
  Ta  Ta44  1  0.33856929  0.34631681  0.18576753  1
  Ta  Ta45  1  0.83891210  0.34690917  0.18575091  1
  Ta  Ta46  1  0.33337515  0.33528696  0.97899748  1
  Ta  Ta47  1  0.83300485  0.33329759  0.97914812  1
  Ta  Ta48  1  0.16517065  0.66751012  0.51944869  1
  Ta  Ta49  1  0.66715547  0.66585925  0.51953107  1
  Ta  Ta50  1  0.16546232  0.65326482  0.31409150  1
  Ta  Ta51  1  0.66533361  0.65368078  0.31383139  1
  Ta  Ta52  1  0.16624881  0.67556057  0.81674997  1
  Ta  Ta53  1  0.66653798  0.66839663  0.81495694  1
  In  In54  1  0.99477594  0.99639944  0.35196450  1
  In  In55  1  0.49427575  0.99570582  0.35148714  1
  In  In56  1  0.99523708  0.99316470  0.84916781  1
  In  In57  1  0.50060913  0.00132878  0.84981762  1
  In  In58  1  0.99824877  0.99148822  0.65058391  1
  In  In59  1  0.99643307  0.00398524  0.14783434  1
  In  In60  1  0.49622881  0.00396611  0.14763949  1
  In  In61  1  0.33390125  0.32717486  0.67956021  1
  In  In62  1  0.33482125  0.33433178  0.48197272  1
  In  In63  1  0.83301852  0.33019492  0.48069755  1
  In  In64  1  0.16658476  0.66633776  0.01961749  1
  In  In65  1  0.66696888  0.66627531  0.02025853  1
  Si  Si66  1  0.35083352  0.70093177  0.25039288  1
  Si  Si67  1  0.85094393  0.70124464  0.25045572  1
  Si  Si68  1  0.00026222  0.29864736  0.24951051  1
  Si  Si69  1  0.50012437  0.29857373  0.24945530  1
  Si  Si70  1  0.64857347  0.29717807  0.75012075  1
  Si  Si71  1  0.00241001  0.70089770  0.74962094  1
  Si  Si72  1  0.49837177  0.70109047  0.75142873  1
  Si  Si73  1  0.34962110  0.99911398  0.75194263  1
  Si  Si74  1  0.85138774  0.00272734  0.75025546  1
  Si  Si75  1  0.48282518  0.33259743  0.58287750  1
  Si  Si76  1  0.98108442  0.33301746  0.58162449  1
  Si  Si77  1  0.18499818  0.03894092  0.58094774  1
  Si  Si78  1  0.68584568  0.03888775  0.58342389  1
  Si  Si79  1  0.33271791  0.62859771  0.58392904  1
  Si  Si80  1  0.83295663  0.62572365  0.58120211  1
  Si  Si81  1  0.47937046  0.62638370  0.08228387  1
  Si  Si82  1  0.97939529  0.62641106  0.08197921  1
  Si  Si83  1  0.33246495  0.04582934  0.08406388  1
  Si  Si84  1  0.83252483  0.04537546  0.08443801  1
  Si  Si85  1  0.18849604  0.33052408  0.08372010  1
  Si  Si86  1  0.68855728  0.33031668  0.08373305  1
  Si  Si87  1  0.31259811  0.66605492  0.91752147  1
  Si  Si88  1  0.81252921  0.66465169  0.91830373  1
  Si  Si89  1  0.02068477  0.37391293  0.91837333  1
  Si  Si90  1  0.51979852  0.37447398  0.91827354  1
  Si  Si91  1  0.16709236  0.96351650  0.91879050  1
  Si  Si92  1  0.66691366  0.96085180  0.91892730  1
  Si  Si93  1  0.31007618  0.95574277  0.41522652  1
  Si  Si94  1  0.81027667  0.95534177  0.41545365  1
  Si  Si95  1  0.16654841  0.37359012  0.41814801  1
  Si  Si96  1  0.66656159  0.37319398  0.41702343  1
  Si  Si97  1  0.02226515  0.66835584  0.41517651  1
  Si  Si98  1  0.52319737  0.66934019  0.41636347  1
  S  S99  1  0.15035285  0.00004407  0.24989804  1
  S  S100  1  0.65035364  0.00017686  0.25003896  1
  S  S101  1  0.14916015  0.30240055  0.75166562  1
  O  O102  1  0.11293792  0.02633768  0.30378876  1
  O  O103  1  0.61291191  0.02613111  0.30409252  1
  O  O104  1  0.40571071  0.77186244  0.31057932  1
  O  O105  1  0.90567054  0.77272519  0.31051231  1
  O  O106  1  0.47795432  0.18063019  0.30827444  1
  O  O107  1  0.97739459  0.17982924  0.30811416  1
  O  O108  1  0.10911972  0.20168585  0.80515469  1
  O  O109  1  0.61553739  0.18392598  0.80889554  1
  O  O110  1  0.48350960  0.77987594  0.81025382  1
  O  O111  1  0.97808693  0.77128739  0.80787082  1
  O  O112  1  0.40661217  0.03408377  0.81015780  1
  O  O113  1  0.90391070  0.03691802  0.81047465  1
  O  O114  1  0.40152786  0.97228617  0.69446014  1
  O  O115  1  0.88659377  0.95467997  0.69234997  1
  O  O116  1  0.10037043  0.22740738  0.69710568  1
  O  O117  1  0.58435102  0.19872503  0.69375789  1
  O  O118  1  0.01907656  0.80807597  0.68954556  1
  O  O119  1  0.51426490  0.83095803  0.69422738  1
  O  O120  1  0.38782745  0.81987106  0.19190431  1
  O  O121  1  0.88751428  0.81955469  0.19176745  1
  O  O122  1  0.01948086  0.22729160  0.18951556  1
  O  O123  1  0.51981434  0.22754361  0.18960834  1
  O  O124  1  0.09967371  0.97367807  0.19599309  1
  O  O125  1  0.59959070  0.97360620  0.19625824  1
  O  O126  1  0.45077622  0.38414845  0.64138836  1
  O  O127  1  0.92912719  0.36334307  0.63700183  1
  O  O128  1  0.24869933  0.10939690  0.63653208  1
  O  O129  1  0.74878580  0.13475698  0.63984599  1
  O  O130  1  0.31001985  0.51343267  0.64277331  1
  O  O131  1  0.81727883  0.49961976  0.63911563  1
  O  O132  1  0.42784654  0.50166187  0.13919366  1
  O  O133  1  0.92791921  0.50182992  0.13900902  1
  O  O134  1  0.32305359  0.14415438  0.14232648  1
  O  O135  1  0.82312049  0.14436591  0.14242216  1
  O  O136  1  0.25128041  0.34933803  0.13900841  1
  O  O137  1  0.75140165  0.34952973  0.13899276  1
  O  O138  1  0.23735279  0.31160582  0.02345897  1
  O  O139  1  0.73774838  0.31170486  0.02347056  1
  O  O140  1  0.41821724  0.52776158  0.02381527  1
  O  O141  1  0.91811329  0.52728953  0.02350437  1
  O  O142  1  0.34265528  0.16756712  0.02514612  1
  O  O143  1  0.84255227  0.16681633  0.02527631  1
  O  O144  1  0.22198109  0.15245482  0.52148568  1
  O  O145  1  0.71741069  0.15146498  0.52394401  1
  O  O146  1  0.35995286  0.56271508  0.52623593  1
  O  O147  1  0.84966477  0.54812499  0.52244389  1
  O  O148  1  0.42422359  0.28304632  0.52469185  1
  O  O149  1  0.92382647  0.28842549  0.52278469  1
  O  O150  1  0.27506007  0.70350784  0.97634275  1
  O  O151  1  0.77524374  0.70245199  0.97675617  1
  O  O152  1  0.07473703  0.44410092  0.97841313  1
  O  O153  1  0.57616418  0.44933036  0.97679146  1
  O  O154  1  0.14501297  0.84878349  0.97724203  1
  O  O155  1  0.64856612  0.84863616  0.97755360  1
  O  O156  1  0.25893340  0.83437648  0.47361328  1
  O  O157  1  0.76004116  0.83530018  0.47489551  1
  O  O158  1  0.15410359  0.47023102  0.47661803  1
  O  O159  1  0.65613145  0.47406778  0.47520028  1
  O  O160  1  0.08018327  0.68532522  0.47489063  1
  O  O161  1  0.58128082  0.68780262  0.47683567  1
  O  O162  1  0.07601938  0.64987536  0.36019266  1
  O  O163  1  0.57614912  0.64980188  0.36121557  1
  O  O164  1  0.25139727  0.85670731  0.35718876  1
  O  O165  1  0.75068225  0.85593660  0.35792699  1
  O  O166  1  0.17710908  0.49822701  0.36099877  1
  O  O167  1  0.67681720  0.49764188  0.36033566  1
  O  O168  1  0.07229427  0.50753324  0.86298726  1
  O  O169  1  0.56852702  0.50092676  0.85947022  1
  O  O170  1  0.18378718  0.86314119  0.86222496  1
  O  O171  1  0.68050683  0.86129108  0.86049180  1
  O  O172  1  0.24925600  0.63386599  0.85944414  1
  O  O173  1  0.74964336  0.63697340  0.85934582  1
  O  O174  1  0.01971100  0.84228287  0.41400364  1
  O  O175  1  0.52026750  0.84287172  0.41481877  1
  O  O176  1  0.40051193  0.96443114  0.41776230  1
  O  O177  1  0.90052769  0.96499965  0.41766749  1
  O  O178  1  0.08169855  0.19244984  0.41376479  1
  O  O179  1  0.58098699  0.19249665  0.41432023  1
  O  O180  1  0.00848428  0.18792206  0.90995756  1
  O  O181  1  0.50674432  0.18822357  0.91136932  1
  O  O182  1  0.08898923  0.99420169  0.90768787  1
  O  O183  1  0.58768265  0.98958339  0.91242049  1
  O  O184  1  0.40653477  0.82452648  0.91205476  1
  O  O185  1  0.90653227  0.82387648  0.91286888  1
  O  O186  1  0.49549718  0.16592867  0.59282731  1
  O  O187  1  0.99644709  0.17672810  0.59268968  1
  O  O188  1  0.09175511  0.01669067  0.58718763  1
  O  O189  1  0.59084271  0.01223674  0.59552952  1
  O  O190  1  0.41676445  0.82169639  0.59378991  1
  O  O191  1  0.91239610  0.81326582  0.58680228  1
  O  O192  1  0.48470167  0.80726944  0.08598466  1
  O  O193  1  0.98446136  0.80703751  0.08577461  1
  O  O194  1  0.41811216  0.03624967  0.08211985  1
  O  O195  1  0.91820240  0.03611080  0.08213272  1
  O  O196  1  0.09879621  0.15696308  0.08535948  1
  O  O197  1  0.59890000  0.15705293  0.08540653  1
  O  O198  1  0.34239122  0.16617283  0.74479843  1
  O  O199  1  0.83410821  0.16274848  0.74107495  1
  O  O200  1  0.23522865  0.32748014  0.74871170  1
  O  O201  1  0.74272435  0.32283854  0.73846541  1
  O  O202  1  0.41614155  0.51691948  0.74459165  1
  O  O203  1  0.91456272  0.51299777  0.74056667  1
  O  O204  1  0.33631820  0.50894082  0.24140793  1
  O  O205  1  0.83624128  0.50910214  0.24139300  1
  O  O206  1  0.41241556  0.30992218  0.24193853  1
  O  O207  1  0.91250371  0.31038911  0.24185538  1
  O  O208  1  0.23717670  0.15042869  0.24432844  1
  O  O209  1  0.73712211  0.15022557  0.24451731  1
  O  O210  1  0.31665875  0.48814631  0.92120772  1
  O  O211  1  0.81672120  0.48753770  0.92038525  1
  O  O212  1  0.42732148  0.36647940  0.92135854  1
  O  O213  1  0.92747798  0.36421550  0.92140133  1
  O  O214  1  0.25608821  0.14634556  0.92156027  1
  O  O215  1  0.75628428  0.14531325  0.92103743  1
  O  O216  1  0.31705574  0.13872322  0.41620343  1
  O  O217  1  0.81483857  0.13580274  0.41682579  1
  O  O218  1  0.25322569  0.36926207  0.41804643  1
  O  O219  1  0.75186707  0.36467406  0.41668391  1
  O  O220  1  0.43265845  0.49872303  0.41780937  1
  O  O221  1  0.93179555  0.49798925  0.41629896  1
  O  O222  1  0.18328469  0.50100991  0.08367101  1
  O  O223  1  0.68329057  0.50073827  0.08364180  1
  O  O224  1  0.06876345  0.63381030  0.08309399  1
  O  O225  1  0.56872653  0.63347367  0.08340828  1
  O  O226  1  0.24748451  0.86378796  0.08346332  1
  O  O227  1  0.74770249  0.86350306  0.08409150  1
  O  O228  1  0.17431486  0.84677232  0.57395026  1
  O  O229  1  0.67717880  0.85023285  0.57914190  1
  O  O230  1  0.25016537  0.65467530  0.57511528  1
  O  O231  1  0.74532913  0.63843341  0.57828767  1
  O  O232  1  0.07335972  0.50916525  0.57857709  1
  O  O233  1  0.57801847  0.49933754  0.57482413  1
  O  O234  1  0.16220543  0.84981163  0.25545638  1
  O  O235  1  0.66208162  0.84962498  0.25573827  1
  O  O236  1  0.25743849  0.68976176  0.25813896  1
  O  O237  1  0.75735961  0.69000867  0.25835219  1
  O  O238  1  0.08189791  0.49053643  0.25865062  1
  O  O239  1  0.58162686  0.49081233  0.25880981  1
  O  O240  1  0.15756904  0.47474746  0.75675427  1
  O  O241  1  0.65559118  0.48395427  0.75494962  1
  O  O242  1  0.08495997  0.67657930  0.75963863  1
  O  O243  1  0.58660170  0.69092767  0.75524450  1
  O  O244  1  0.25958590  0.81666282  0.75607975  1
  O  O245  1  0.75551808  0.83087715  0.75855341  1
