# generated using pymatgen
data_MgTiFeO4
_symmetry_space_group_name_H-M   'P 1'
_cell_length_a   5.56550158
_cell_length_b   5.56547046
_cell_length_c   5.56547072
_cell_angle_alpha   139.28707703
_cell_angle_beta   135.45487598
_cell_angle_gamma   61.92111696
_symmetry_Int_Tables_number   1
_chemical_formula_structural   MgTiFeO4
_chemical_formula_sum   'Mg1 Ti1 Fe1 O4'
_cell_volume   77.95993622
_cell_formula_units_Z   1
loop_
 _symmetry_equiv_pos_site_id
 _symmetry_equiv_pos_as_xyz
  1  'x, y, z'
loop_
 _atom_site_type_symbol
 _atom_site_label
 _atom_site_symmetry_multiplicity
 _atom_site_fract_x
 _atom_site_fract_y
 _atom_site_fract_z
 _atom_site_occupancy
  Mg  Mg0  1  0.46642400  0.46642700  0.99999800  1
  Ti  Ti1  1  0.74018700  0.24035000  0.49983700  1
  Fe  Fe2  1  0.03103200  0.03104000  0.99999200  1
  O  O3  1  0.52702800  0.02702400  0.50000500  1
  O  O4  1  0.24479500  0.24468300  0.00011200  1
  O  O5  1  0.94449000  0.44447500  0.50001500  1
  O  O6  1  0.72461500  0.72457300  0.00004100  1
