# generated using pymatgen
data_Na4Nb3InSi4(PO12)2
_symmetry_space_group_name_H-M   'P 1'
_cell_length_a   9.00582892
_cell_length_b   9.02411524
_cell_length_c   22.76581974
_cell_angle_alpha   89.99648491
_cell_angle_beta   89.90217708
_cell_angle_gamma   120.04108833
_symmetry_Int_Tables_number   1
_chemical_formula_structural   Na4Nb3InSi4(PO12)2
_chemical_formula_sum   'Na12 Nb9 In3 Si12 P6 O72'
_cell_volume   1601.62711380
_cell_formula_units_Z   3
loop_
 _symmetry_equiv_pos_site_id
 _symmetry_equiv_pos_as_xyz
  1  'x, y, z'
loop_
 _atom_site_type_symbol
 _atom_site_label
 _atom_site_symmetry_multiplicity
 _atom_site_fract_x
 _atom_site_fract_y
 _atom_site_fract_z
 _atom_site_occupancy
  Na  Na0  1  0.63317311  0.62455206  0.74575262  1
  Na  Na1  1  0.99528996  0.37062830  0.74666746  1
  Na  Na2  1  0.31316496  0.97511743  0.08464478  1
  Na  Na3  1  0.02660642  0.34224355  0.08453452  1
  Na  Na4  1  0.96467949  0.29432238  0.41266316  1
  Na  Na5  1  0.70675494  0.67715678  0.41464845  1
  Na  Na6  1  0.00828388  0.99622860  0.49980510  1
  Na  Na7  1  0.98968465  0.98952716  0.99554316  1
  Na  Na8  1  0.65287316  0.31851591  0.83316633  1
  Na  Na9  1  0.65516748  0.32280778  0.32490793  1
  Na  Na10  1  0.34569178  0.66480093  0.16540305  1
  Na  Na11  1  0.33402150  0.67368705  0.66571254  1
  Nb  Nb12  1  0.00426730  0.00794506  0.85699108  1
  Nb  Nb13  1  0.99422840  0.00159688  0.64392188  1
  Nb  Nb14  1  0.99542081  0.99632483  0.14615528  1
  Nb  Nb15  1  0.66688742  0.33456769  0.97771273  1
  Nb  Nb16  1  0.66939035  0.33159190  0.48188044  1
  Nb  Nb17  1  0.33777394  0.66727212  0.01784641  1
  Nb  Nb18  1  0.33503075  0.66932136  0.52204691  1
  Nb  Nb19  1  0.33125097  0.67266638  0.30994758  1
  Nb  Nb20  1  0.33622004  0.66988590  0.81403978  1
  In  In21  1  0.00402520  0.99885108  0.35208655  1
  In  In22  1  0.65941215  0.32663561  0.68531965  1
  In  In23  1  0.66759252  0.33462343  0.18333184  1
  Si  Si24  1  0.28977555  0.28821559  0.75009432  1
  Si  Si25  1  0.70914455  0.99923508  0.75092679  1
  Si  Si26  1  0.96026761  0.33445272  0.58590067  1
  Si  Si27  1  0.66792811  0.62532702  0.58505738  1
  Si  Si28  1  0.95528373  0.62220113  0.08323464  1
  Si  Si29  1  0.66407572  0.04194001  0.08355921  1
  Si  Si30  1  0.37989770  0.33852622  0.08447198  1
  Si  Si31  1  0.62527490  0.66492849  0.91511685  1
  Si  Si32  1  0.04135988  0.37845831  0.91612156  1
  Si  Si33  1  0.33433865  0.95790340  0.91711007  1
  Si  Si34  1  0.61839229  0.95887625  0.41602870  1
  Si  Si35  1  0.04537970  0.66849449  0.41705481  1
  P  P36  1  0.29373761  0.00219384  0.25037658  1
  P  P37  1  0.70533713  0.70475154  0.25252320  1
  P  P38  1  0.00035455  0.29323873  0.25201974  1
  P  P39  1  0.00708042  0.72092173  0.75060607  1
  P  P40  1  0.37335795  0.04077117  0.58306363  1
  P  P41  1  0.33728286  0.38398219  0.41646375  1
  O  O42  1  0.21114905  0.02092465  0.30588813  1
  O  O43  1  0.80019101  0.78238068  0.31026437  1
  O  O44  1  0.98173047  0.19573308  0.30942049  1
  O  O45  1  0.18847723  0.17080952  0.80761448  1
  O  O46  1  0.98463804  0.81001074  0.80508448  1
  O  O47  1  0.83135384  0.01575063  0.80677143  1
  O  O48  1  0.80333844  0.96682995  0.69255990  1
  O  O49  1  0.16415798  0.18936327  0.69302151  1
  O  O50  1  0.02760915  0.82777780  0.69441654  1
  O  O51  1  0.80665668  0.82694639  0.19894600  1
  O  O52  1  0.02178843  0.19782085  0.19711447  1
  O  O53  1  0.18024422  0.97690575  0.19445286  1
  O  O54  1  0.89012047  0.37046867  0.64555710  1
  O  O55  1  0.47994719  0.10637772  0.63865542  1
  O  O56  1  0.62751632  0.51909246  0.64506692  1
  O  O57  1  0.89515931  0.50018424  0.13955156  1
  O  O58  1  0.60850371  0.10554910  0.14043649  1
  O  O59  1  0.48630612  0.37801067  0.14336073  1
  O  O60  1  0.46552411  0.29331723  0.02801358  1
  O  O61  1  0.83097645  0.53161458  0.02612251  1
  O  O62  1  0.70706052  0.17179357  0.02716473  1
  O  O63  1  0.46831011  0.15839818  0.52883085  1
  O  O64  1  0.68870474  0.52424146  0.52641363  1
  O  O65  1  0.83461992  0.30562023  0.52725342  1
  O  O66  1  0.52685445  0.69161888  0.97116208  1
  O  O67  1  0.15879639  0.46919949  0.97406491  1
  O  O68  1  0.30748349  0.84107874  0.97526829  1
  O  O69  1  0.52306618  0.83189892  0.47147926  1
  O  O70  1  0.31269455  0.47231862  0.47103649  1
  O  O71  1  0.16373221  0.68197504  0.47278086  1
  O  O72  1  0.13709370  0.63278372  0.35911785  1
  O  O73  1  0.49712379  0.85742612  0.35801850  1
  O  O74  1  0.36685309  0.49943437  0.36132289  1
  O  O75  1  0.13614409  0.49458138  0.85731216  1
  O  O76  1  0.35874510  0.85760551  0.86014128  1
  O  O77  1  0.50526834  0.63929182  0.85652913  1
  O  O78  1  0.01189762  0.82725384  0.41553161  1
  O  O79  1  0.80988930  0.98392719  0.41356032  1
  O  O80  1  0.17388975  0.20891211  0.41314883  1
  O  O81  1  0.02414845  0.18913441  0.91053537  1
  O  O82  1  0.16274012  0.97312226  0.90934734  1
  O  O83  1  0.81293885  0.83473972  0.90892472  1
  O  O84  1  0.97709182  0.16039275  0.58868692  1
  O  O85  1  0.19492360  0.02479674  0.58693665  1
  O  O86  1  0.84476435  0.81363350  0.58829240  1
  O  O87  1  0.98099196  0.81719461  0.09284165  1
  O  O88  1  0.84124952  0.02940469  0.09304016  1
  O  O89  1  0.18368980  0.16129464  0.09294043  1
  O  O90  1  0.70451737  0.17468109  0.74895853  1
  O  O91  1  0.48308510  0.32253041  0.75000404  1
  O  O92  1  0.84597090  0.54129960  0.74859409  1
  O  O93  1  0.68321552  0.52712321  0.24646883  1
  O  O94  1  0.84587681  0.31819509  0.24686317  1
  O  O95  1  0.47505174  0.15240461  0.24629355  1
  O  O96  1  0.63682893  0.49214654  0.92314311  1
  O  O97  1  0.85304224  0.36009009  0.92248461  1
  O  O98  1  0.50603056  0.14471281  0.92339361  1
  O  O99  1  0.63503727  0.14800205  0.42276105  1
  O  O100  1  0.50305659  0.37262659  0.42302646  1
  O  O101  1  0.85474803  0.48921284  0.42370657  1
  O  O102  1  0.33480198  0.49190778  0.07377535  1
  O  O103  1  0.15202007  0.65814970  0.07249146  1
  O  O104  1  0.50069528  0.84945455  0.07253536  1
  O  O105  1  0.34960826  0.85973631  0.57215712  1
  O  O106  1  0.50446670  0.65452524  0.57213074  1
  O  O107  1  0.15108772  0.49811941  0.57272391  1
  O  O108  1  0.30028009  0.82852876  0.25518820  1
  O  O109  1  0.52605091  0.69619527  0.25458696  1
  O  O110  1  0.17250894  0.47205148  0.25544514  1
  O  O111  1  0.29448133  0.47497879  0.75462844  1
  O  O112  1  0.16768200  0.69830430  0.75525193  1
  O  O113  1  0.52324155  0.82019490  0.75492688  1
