# generated using pymatgen
data_Na3LaMgSi(SO6)2
_symmetry_space_group_name_H-M   'P 1'
_cell_length_a   9.46997736
_cell_length_b   9.45603786
_cell_length_c   23.22210775
_cell_angle_alpha   89.79339102
_cell_angle_beta   90.00000000
_cell_angle_gamma   120.04877608
_symmetry_Int_Tables_number   1
_chemical_formula_structural   Na3LaMgSi(SO6)2
_chemical_formula_sum   'Na18 La6 Mg6 Si6 S12 O72'
_cell_volume   1800.00195247
_cell_formula_units_Z   6
loop_
 _symmetry_equiv_pos_site_id
 _symmetry_equiv_pos_as_xyz
  1  'x, y, z'
loop_
 _atom_site_type_symbol
 _atom_site_label
 _atom_site_symmetry_multiplicity
 _atom_site_fract_x
 _atom_site_fract_y
 _atom_site_fract_z
 _atom_site_occupancy
  Na  Na0  1  0.62300831  0.01194788  0.25357715  1
  Na  Na1  1  0.00916506  0.64709105  0.23709826  1
  Na  Na2  1  0.63792600  0.64709105  0.73709826  1
  Na  Na3  1  0.38893957  0.01194788  0.75357715  1
  Na  Na4  1  0.31944856  0.35121977  0.58615674  1
  Na  Na5  1  0.64690344  0.94074602  0.57897764  1
  Na  Na6  1  0.29384358  0.94074602  0.07897764  1
  Na  Na7  1  0.03177221  0.35121977  0.08615674  1
  Na  Na8  1  0.98858623  0.68747785  0.92655493  1
  Na  Na9  1  0.68694727  0.02833583  0.90269078  1
  Na  Na10  1  0.34138756  0.02833583  0.40269078  1
  Na  Na11  1  0.69889062  0.68747785  0.42655493  1
  Na  Na12  1  0.96672357  0.98096403  0.49167376  1
  Na  Na13  1  0.01424046  0.98096403  0.99167376  1
  Na  Na14  1  0.65461897  0.30150130  0.82591052  1
  Na  Na15  1  0.64688333  0.30150130  0.32591052  1
  Na  Na16  1  0.33025272  0.67082736  0.15907286  1
  Na  Na17  1  0.34057364  0.67082736  0.65907286  1
  La  La18  1  0.98133609  0.98306488  0.65089641  1
  La  La19  1  0.00172879  0.98306488  0.15089641  1
  La  La20  1  0.65471177  0.33771083  0.98556115  1
  La  La21  1  0.68300005  0.33771083  0.48556115  1
  La  La22  1  0.33557259  0.67181199  0.31915281  1
  La  La23  1  0.33623840  0.67181199  0.81915281  1
  Mg  Mg24  1  0.01171072  0.01799486  0.34925967  1
  Mg  Mg25  1  0.00628414  0.01799486  0.84925967  1
  Mg  Mg26  1  0.68214760  0.33992695  0.68279431  1
  Mg  Mg27  1  0.65778036  0.33992695  0.18279431  1
  Mg  Mg28  1  0.30685516  0.67246082  0.01436851  1
  Mg  Mg29  1  0.36560467  0.67246082  0.51436851  1
  Si  Si30  1  0.31210016  0.01497041  0.25266539  1
  Si  Si31  1  0.70287025  0.01497041  0.75266539  1
  Si  Si32  1  0.65161830  0.62572561  0.58405137  1
  Si  Si33  1  0.97410831  0.62572561  0.08405137  1
  Si  Si34  1  0.31979172  0.96956486  0.91566684  1
  Si  Si35  1  0.64977215  0.96956486  0.41566684  1
  S  S36  1  0.70504694  0.68948908  0.25447090  1
  S  S37  1  0.98481506  0.29236648  0.24902175  1
  S  S38  1  0.30755142  0.29236648  0.74902175  1
  S  S39  1  0.98444214  0.68948908  0.75447090  1
  S  S40  1  0.98205560  0.34910171  0.58720107  1
  S  S41  1  0.37363686  0.02926044  0.58505753  1
  S  S42  1  0.65562457  0.02926044  0.08505753  1
  S  S43  1  0.36704711  0.34910171  0.08720107  1
  S  S44  1  0.64318769  0.68340397  0.91757110  1
  S  S45  1  0.03551845  0.35511186  0.92119207  1
  S  S46  1  0.31959241  0.35511186  0.42119207  1
  S  S47  1  0.04021528  0.68340397  0.41757110  1
  O  O48  1  0.21202457  0.02196576  0.30967244  1
  O  O49  1  0.80446900  0.77694508  0.30535765  1
  O  O50  1  0.97713562  0.18588163  0.29722797  1
  O  O51  1  0.20874601  0.18588163  0.79722797  1
  O  O52  1  0.97247608  0.77694508  0.80535765  1
  O  O53  1  0.80994119  0.02196576  0.80967244  1
  O  O54  1  0.77786006  0.98090432  0.69367248  1
  O  O55  1  0.22429355  0.22633595  0.69324255  1
  O  O56  1  0.01977199  0.79359347  0.70224277  1
  O  O57  1  0.77382148  0.79359347  0.20224277  1
  O  O58  1  0.00204239  0.22633595  0.19324255  1
  O  O59  1  0.20304426  0.98090432  0.19367248  1
  O  O60  1  0.88780096  0.35556338  0.63637155  1
  O  O61  1  0.47954543  0.11658883  0.63498253  1
  O  O62  1  0.64309849  0.51395258  0.64019667  1
  O  O63  1  0.87085509  0.51395258  0.14019667  1
  O  O64  1  0.63704440  0.11658883  0.13498253  1
  O  O65  1  0.46776342  0.35556338  0.13637155  1
  O  O66  1  0.42733043  0.31075502  0.03369786  1
  O  O67  1  0.88177693  0.54387264  0.02314639  1
  O  O68  1  0.67569047  0.12225941  0.03087548  1
  O  O69  1  0.44656995  0.12225941  0.53087548  1
  O  O70  1  0.66209671  0.54387264  0.52314639  1
  O  O71  1  0.88342559  0.31075502  0.53369786  1
  O  O72  1  0.53861650  0.67966572  0.96544582  1
  O  O73  1  0.13191539  0.44032761  0.97328938  1
  O  O74  1  0.29685531  0.84921351  0.97154632  1
  O  O75  1  0.55235719  0.84921351  0.47154632  1
  O  O76  1  0.30841121  0.44032761  0.47328938  1
  O  O77  1  0.14104822  0.67966572  0.46544582  1
  O  O78  1  0.10137596  0.66054980  0.36156575  1
  O  O79  1  0.54037602  0.89017014  0.35661536  1
  O  O80  1  0.33888602  0.45340304  0.36926930  1
  O  O81  1  0.11451602  0.45340304  0.86926930  1
  O  O82  1  0.34979313  0.89017014  0.85661536  1
  O  O83  1  0.55917284  0.66054980  0.86156575  1
  O  O84  1  0.04157808  0.84229368  0.41755645  1
  O  O85  1  0.82599362  0.97540247  0.40864433  1
  O  O86  1  0.17413604  0.18952067  0.41710727  1
  O  O87  1  0.01538463  0.18952067  0.91710727  1
  O  O88  1  0.14940885  0.97540247  0.90864433  1
  O  O89  1  0.80071561  0.84229368  0.91755645  1
  O  O90  1  0.01594452  0.20983874  0.59231188  1
  O  O91  1  0.21194235  0.01806034  0.59008067  1
  O  O92  1  0.80629593  0.81765006  0.58226418  1
  O  O93  1  0.01135413  0.81765006  0.08226418  1
  O  O94  1  0.80611799  0.01806034  0.09008067  1
  O  O95  1  0.19389422  0.20983874  0.09231188  1
  O  O96  1  0.67323326  0.17161361  0.74490070  1
  O  O97  1  0.46975469  0.30104668  0.74900547  1
  O  O98  1  0.82719987  0.53376185  0.74740010  1
  O  O99  1  0.70656298  0.53376185  0.24740010  1
  O  O100  1  0.83129299  0.30104668  0.24900547  1
  O  O101  1  0.49838135  0.17161361  0.24490070  1
  O  O102  1  0.68454892  0.55031503  0.92083427  1
  O  O103  1  0.86833107  0.33666229  0.92308031  1
  O  O104  1  0.49485645  0.14585534  0.91869026  1
  O  O105  1  0.65099990  0.14585534  0.41869026  1
  O  O106  1  0.46833222  0.33666229  0.42308031  1
  O  O107  1  0.86576711  0.55031503  0.42083427  1
  O  O108  1  0.35944749  0.50105904  0.08121116  1
  O  O109  1  0.15701759  0.63863848  0.08257326  1
  O  O110  1  0.50694783  0.86476812  0.08085489  1
  O  O111  1  0.35781929  0.86476812  0.58085489  1
  O  O112  1  0.48161989  0.63863848  0.58257326  1
  O  O113  1  0.14161055  0.50105904  0.58121116  1
  O  O114  1  0.32753014  0.84340852  0.25219885  1
  O  O115  1  0.53525312  0.65812081  0.25815127  1
  O  O116  1  0.12498076  0.46266054  0.25407291  1
  O  O117  1  0.33767878  0.46266054  0.75407291  1
  O  O118  1  0.12286670  0.65812081  0.75815127  1
  O  O119  1  0.51587738  0.84340852  0.75219885  1
