# generated using pymatgen
data_Na3Ta2Si3Sn2(PO8)3
_symmetry_space_group_name_H-M   'P 1'
_cell_length_a   8.87526602
_cell_length_b   8.85008374
_cell_length_c   22.74919603
_cell_angle_alpha   90.18964920
_cell_angle_beta   89.71859351
_cell_angle_gamma   119.93768867
_symmetry_Int_Tables_number   1
_chemical_formula_structural   Na3Ta2Si3Sn2(PO8)3
_chemical_formula_sum   'Na9 Ta6 Si9 Sn6 P9 O72'
_cell_volume   1548.43271930
_cell_formula_units_Z   3
loop_
 _symmetry_equiv_pos_site_id
 _symmetry_equiv_pos_as_xyz
  1  'x, y, z'
loop_
 _atom_site_type_symbol
 _atom_site_label
 _atom_site_symmetry_multiplicity
 _atom_site_fract_x
 _atom_site_fract_y
 _atom_site_fract_z
 _atom_site_occupancy
  Na  Na0  1  0.99900615  0.63304895  0.25059797  1
  Na  Na1  1  0.66511989  0.96451932  0.58390642  1
  Na  Na2  1  0.66755320  0.70032625  0.08281217  1
  Na  Na3  1  0.01128873  0.99823956  0.50061369  1
  Na  Na4  1  0.00877297  0.00862561  0.99911903  1
  Na  Na5  1  0.66921087  0.33522520  0.83324034  1
  Na  Na6  1  0.66032206  0.32682833  0.33322224  1
  Na  Na7  1  0.33320579  0.66655194  0.16663343  1
  Na  Na8  1  0.32440020  0.66448723  0.66730600  1
  Ta  Ta9  1  0.99426454  0.99308705  0.35514889  1
  Ta  Ta10  1  0.99057276  0.99406251  0.85423481  1
  Ta  Ta11  1  0.66633243  0.33063322  0.68962326  1
  Ta  Ta12  1  0.67249078  0.33949784  0.97745528  1
  Ta  Ta13  1  0.66400306  0.33159437  0.47772462  1
  Ta  Ta14  1  0.33209819  0.66597575  0.81250590  1
  Si  Si15  1  0.70249030  0.70755047  0.24833801  1
  Si  Si16  1  0.00128073  0.71055554  0.74934316  1
  Si  Si17  1  0.71140433  0.99759276  0.74801529  1
  Si  Si18  1  0.37197976  0.04372113  0.58359444  1
  Si  Si19  1  0.96374422  0.62544656  0.08478063  1
  Si  Si20  1  0.61847297  0.66643359  0.91839516  1
  Si  Si21  1  0.04715611  0.37680415  0.91694650  1
  Si  Si22  1  0.62206104  0.95481603  0.41800680  1
  Si  Si23  1  0.04490460  0.66495697  0.41566035  1
  Sn  Sn24  1  0.00552181  0.99699120  0.64763186  1
  Sn  Sn25  1  0.00032752  0.00113266  0.14636649  1
  Sn  Sn26  1  0.66637270  0.33222061  0.18682999  1
  Sn  Sn27  1  0.32739281  0.66530870  0.01806941  1
  Sn  Sn28  1  0.33106474  0.66865261  0.51925837  1
  Sn  Sn29  1  0.33826314  0.66867941  0.31552270  1
  P  P30  1  0.29068643  0.00209296  0.25003625  1
  P  P31  1  0.00153300  0.28843893  0.25007825  1
  P  P32  1  0.28655330  0.28766517  0.75008269  1
  P  P33  1  0.95549763  0.33590356  0.58338497  1
  P  P34  1  0.66459443  0.61910596  0.58342193  1
  P  P35  1  0.66516891  0.04506829  0.08309100  1
  P  P36  1  0.37637081  0.33147156  0.08308382  1
  P  P37  1  0.33273937  0.95689520  0.91644810  1
  P  P38  1  0.33185489  0.37561332  0.41721295  1
  O  O39  1  0.20170245  0.02851066  0.30442229  1
  O  O40  1  0.83680688  0.80985831  0.30383735  1
  O  O41  1  0.98220699  0.17539314  0.30401408  1
  O  O42  1  0.20281173  0.17229275  0.80422068  1
  O  O43  1  0.97333430  0.80459848  0.80681192  1
  O  O44  1  0.83696999  0.02992250  0.80467918  1
  O  O45  1  0.78637933  0.96597712  0.68678154  1
  O  O46  1  0.17815235  0.21809016  0.69399387  1
  O  O47  1  0.04525376  0.82651835  0.69065292  1
  O  O48  1  0.78519497  0.81924586  0.18806613  1
  O  O49  1  0.03417672  0.21317818  0.19331391  1
  O  O50  1  0.17777604  0.96742905  0.19435211  1
  O  O51  1  0.86533723  0.35985095  0.63869924  1
  O  O52  1  0.50170572  0.14393477  0.63979376  1
  O  O53  1  0.64735280  0.50902624  0.63832716  1
  O  O54  1  0.88105361  0.51385587  0.14499226  1
  O  O55  1  0.63223263  0.12009366  0.13974283  1
  O  O56  1  0.48907327  0.36573254  0.13875216  1
  O  O57  1  0.46595869  0.30508897  0.02846010  1
  O  O58  1  0.82909944  0.52257972  0.02891574  1
  O  O59  1  0.68454515  0.15873729  0.02893032  1
  O  O60  1  0.47695330  0.16564909  0.52691495  1
  O  O61  1  0.68914105  0.53115433  0.52860045  1
  O  O62  1  0.83992051  0.31095638  0.52924991  1
  O  O63  1  0.55057747  0.70665142  0.97947045  1
  O  O64  1  0.15943772  0.45187698  0.97572149  1
  O  O65  1  0.29489452  0.84767702  0.97227704  1
  O  O66  1  0.55603389  0.84285499  0.47870077  1
  O  O67  1  0.29441446  0.44977786  0.47306221  1
  O  O68  1  0.16248379  0.70565404  0.47378707  1
  O  O69  1  0.11349868  0.62392651  0.35436478  1
  O  O70  1  0.50432204  0.87976853  0.36012117  1
  O  O71  1  0.37206503  0.48820286  0.36195830  1
  O  O72  1  0.13584371  0.50141528  0.85983715  1
  O  O73  1  0.36298015  0.86882974  0.86224693  1
  O  O74  1  0.49740851  0.64028240  0.86170273  1
  O  O75  1  0.02581654  0.84018842  0.40690326  1
  O  O76  1  0.81973949  0.98607431  0.40704877  1
  O  O77  1  0.17295036  0.19215975  0.40778987  1
  O  O78  1  0.02490585  0.18431036  0.90693854  1
  O  O79  1  0.17458583  0.98146175  0.90645771  1
  O  O80  1  0.81499403  0.83329916  0.90850555  1
  O  O81  1  0.96016949  0.16363130  0.58771777  1
  O  O82  1  0.18426911  0.03280840  0.58537263  1
  O  O83  1  0.82455380  0.80586575  0.58627623  1
  O  O84  1  0.96543700  0.81282851  0.08547622  1
  O  O85  1  0.83317617  0.03123346  0.08587667  1
  O  O86  1  0.19423467  0.16841964  0.08752387  1
  O  O87  1  0.69029147  0.17199734  0.74227688  1
  O  O88  1  0.47087436  0.30895431  0.74195522  1
  O  O89  1  0.82508686  0.51909325  0.74213114  1
  O  O90  1  0.70070795  0.52008763  0.24767209  1
  O  O91  1  0.83358450  0.30258678  0.24725510  1
  O  O92  1  0.47292537  0.16486145  0.24562591  1
  O  O93  1  0.63632752  0.49015243  0.92453375  1
  O  O94  1  0.84992986  0.35141336  0.92501976  1
  O  O95  1  0.49789124  0.13812094  0.92386272  1
  O  O96  1  0.64807169  0.15119183  0.42649856  1
  O  O97  1  0.49515413  0.35557367  0.42574958  1
  O  O98  1  0.84808382  0.50032511  0.42620591  1
  O  O99  1  0.36859990  0.50178501  0.07806996  1
  O  O100  1  0.15545378  0.64848644  0.07927744  1
  O  O101  1  0.50874138  0.85790136  0.07767430  1
  O  O102  1  0.36983503  0.85687071  0.58151778  1
  O  O103  1  0.49778138  0.63396040  0.57998446  1
  O  O104  1  0.13758428  0.49651279  0.57930834  1
  O  O105  1  0.29862216  0.83154188  0.25514543  1
  O  O106  1  0.51087126  0.68507702  0.25434118  1
  O  O107  1  0.15841009  0.47575544  0.25538371  1
  O  O108  1  0.31266615  0.47283079  0.75919524  1
  O  O109  1  0.16870749  0.68382043  0.75943162  1
  O  O110  1  0.51912393  0.82977235  0.75914470  1
