# generated using pymatgen
data_Na2MgNb(PO4)3
_symmetry_space_group_name_H-M   'P 1'
_cell_length_a   8.86408231
_cell_length_b   8.80220924
_cell_length_c   22.50533965
_cell_angle_alpha   90.00000000
_cell_angle_beta   90.27938298
_cell_angle_gamma   119.76936637
_symmetry_Int_Tables_number   1
_chemical_formula_structural   Na2MgNb(PO4)3
_chemical_formula_sum   'Na12 Mg6 Nb6 P18 O72'
_cell_volume   1524.19117766
_cell_formula_units_Z   6
loop_
 _symmetry_equiv_pos_site_id
 _symmetry_equiv_pos_as_xyz
  1  'x, y, z'
loop_
 _atom_site_type_symbol
 _atom_site_label
 _atom_site_symmetry_multiplicity
 _atom_site_fract_x
 _atom_site_fract_y
 _atom_site_fract_z
 _atom_site_occupancy
  Na  Na0  1  0.99035548  0.63213503  0.24785204  1
  Na  Na1  1  0.99035548  0.35822046  0.74785204  1
  Na  Na2  1  0.65702248  0.96546803  0.58118504  1
  Na  Na3  1  0.65702248  0.69155346  0.08118504  1
  Na  Na4  1  0.32368848  0.29880203  0.91451904  1
  Na  Na5  1  0.32368848  0.02488746  0.41451904  1
  Na  Na6  1  0.99825463  0.00054343  0.49372733  1
  Na  Na7  1  0.99825463  0.99771120  0.99372733  1
  Na  Na8  1  0.66492163  0.33387643  0.82706033  1
  Na  Na9  1  0.66492163  0.33104420  0.32706033  1
  Na  Na10  1  0.33158763  0.66721043  0.16039433  1
  Na  Na11  1  0.33158763  0.66437820  0.66039433  1
  Mg  Mg12  1  0.99435213  0.00009722  0.35229598  1
  Mg  Mg13  1  0.99435213  0.99425491  0.85229598  1
  Mg  Mg14  1  0.66101913  0.33343022  0.68562898  1
  Mg  Mg15  1  0.66101913  0.32758791  0.18562898  1
  Mg  Mg16  1  0.32768513  0.66676422  0.01896298  1
  Mg  Mg17  1  0.32768513  0.66092191  0.51896298  1
  Nb  Nb18  1  0.00566735  0.99791263  0.64667055  1
  Nb  Nb19  1  0.00566735  0.00775472  0.14667055  1
  Nb  Nb20  1  0.67233435  0.33124563  0.98000355  1
  Nb  Nb21  1  0.67233435  0.34108772  0.48000355  1
  Nb  Nb22  1  0.33900035  0.66457963  0.31333755  1
  Nb  Nb23  1  0.33900035  0.67442172  0.81333755  1
  P  P24  1  0.29555578  0.00696994  0.25329233  1
  P  P25  1  0.71174146  0.70983707  0.25096710  1
  P  P26  1  0.99567081  0.28839892  0.25279539  1
  P  P27  1  0.29555578  0.28858584  0.75329233  1
  P  P28  1  0.99567081  0.70727190  0.75279539  1
  P  P29  1  0.71174146  0.00190439  0.75096710  1
  P  P30  1  0.96222278  0.34030294  0.58662533  1
  P  P31  1  0.37840846  0.04317007  0.58430010  1
  P  P32  1  0.66233781  0.62173192  0.58612839  1
  P  P33  1  0.96222278  0.62191884  0.08662533  1
  P  P34  1  0.66233781  0.04060490  0.08612839  1
  P  P35  1  0.37840846  0.33523739  0.08430010  1
  P  P36  1  0.62888878  0.67363694  0.91995933  1
  P  P37  1  0.04507446  0.37650407  0.91763410  1
  P  P38  1  0.32900381  0.95506592  0.91946239  1
  P  P39  1  0.62888878  0.95525284  0.41995933  1
  P  P40  1  0.32900381  0.37393890  0.41946239  1
  P  P41  1  0.04507446  0.66857139  0.41763410  1
  O  O42  1  0.20905505  0.02246345  0.30863865  1
  O  O43  1  0.82643522  0.79592781  0.30372129  1
  O  O44  1  0.97585915  0.18026789  0.30590437  1
  O  O45  1  0.20905505  0.18659160  0.80863865  1
  O  O46  1  0.97585915  0.79559126  0.80590437  1
  O  O47  1  0.82643522  0.03050742  0.80372129  1
  O  O48  1  0.79528765  0.96905353  0.69290433  1
  O  O49  1  0.16810758  0.19826812  0.69725464  1
  O  O50  1  0.02742598  0.82675021  0.69531440  1
  O  O51  1  0.79528765  0.82623411  0.19290433  1
  O  O52  1  0.02742598  0.20067578  0.19531440  1
  O  O53  1  0.16810758  0.96983946  0.19725464  1
  O  O54  1  0.87572205  0.35579645  0.64197165  1
  O  O55  1  0.49310222  0.12926081  0.63705429  1
  O  O56  1  0.64252615  0.51360089  0.63923737  1
  O  O57  1  0.87572205  0.51992460  0.14197165  1
  O  O58  1  0.64252615  0.12892426  0.13923737  1
  O  O59  1  0.49310222  0.36384042  0.13705429  1
  O  O60  1  0.46195465  0.30238653  0.02623733  1
  O  O61  1  0.83477458  0.53160112  0.03058764  1
  O  O62  1  0.69409298  0.16008321  0.02864740  1
  O  O63  1  0.46195465  0.15956711  0.52623733  1
  O  O64  1  0.69409298  0.53400878  0.52864740  1
  O  O65  1  0.83477458  0.30317246  0.53058764  1
  O  O66  1  0.54238805  0.68913045  0.97530565  1
  O  O67  1  0.15976822  0.46259481  0.97038829  1
  O  O68  1  0.30919215  0.84693489  0.97257137  1
  O  O69  1  0.54238805  0.85325860  0.47530565  1
  O  O70  1  0.30919215  0.46225826  0.47257137  1
  O  O71  1  0.15976822  0.69717442  0.47038829  1
  O  O72  1  0.12862065  0.63572053  0.35957133  1
  O  O73  1  0.50144058  0.86493512  0.36392164  1
  O  O74  1  0.36075898  0.49341721  0.36198140  1
  O  O75  1  0.12862065  0.49290111  0.85957133  1
  O  O76  1  0.36075898  0.86734278  0.86198140  1
  O  O77  1  0.50144058  0.63650646  0.86392164  1
  O  O78  1  0.02263781  0.82726191  0.40878954  1
  O  O79  1  0.80732751  0.98177756  0.41015788  1
  O  O80  1  0.18030542  0.18883953  0.41004621  1
  O  O81  1  0.02263781  0.19537590  0.90878954  1
  O  O82  1  0.18030542  0.99146589  0.91004621  1
  O  O83  1  0.80732751  0.82554995  0.91015788  1
  O  O84  1  0.96651373  0.16087431  0.58954609  1
  O  O85  1  0.19447508  0.02949145  0.59042277  1
  O  O86  1  0.83497217  0.80932898  0.58969911  1
  O  O87  1  0.96651373  0.80563943  0.08954609  1
  O  O88  1  0.83497217  0.02564319  0.08969911  1
  O  O89  1  0.19447508  0.16498363  0.09042277  1
  O  O90  1  0.68930481  0.16059491  0.74212254  1
  O  O91  1  0.47399451  0.31511056  0.74349088  1
  O  O92  1  0.84697242  0.52217253  0.74337921  1
  O  O93  1  0.68930481  0.52870890  0.24212254  1
  O  O94  1  0.84697242  0.32479889  0.24337921  1
  O  O95  1  0.47399451  0.15888295  0.24349088  1
  O  O96  1  0.63318073  0.49420731  0.92287909  1
  O  O97  1  0.86114208  0.36282445  0.92375577  1
  O  O98  1  0.50163917  0.14266198  0.92303211  1
  O  O99  1  0.63318073  0.13897243  0.42287909  1
  O  O100  1  0.50163917  0.35897619  0.42303211  1
  O  O101  1  0.86114208  0.49831663  0.42375577  1
  O  O102  1  0.35597081  0.49392891  0.07545654  1
  O  O103  1  0.14066051  0.64844456  0.07682488  1
  O  O104  1  0.51363842  0.85550653  0.07671321  1
  O  O105  1  0.35597081  0.86204290  0.57545654  1
  O  O106  1  0.51363842  0.65813289  0.57671321  1
  O  O107  1  0.14066051  0.49221695  0.57682488  1
  O  O108  1  0.29984673  0.82754131  0.25621309  1
  O  O109  1  0.52780808  0.69615845  0.25708977  1
  O  O110  1  0.16830517  0.47599598  0.25636611  1
  O  O111  1  0.29984673  0.47230643  0.75621309  1
  O  O112  1  0.16830517  0.69231019  0.75636611  1
  O  O113  1  0.52780808  0.83165063  0.75708977  1
