# generated using pymatgen
data_Na6LaTa3(SiO4)6
_symmetry_space_group_name_H-M   'P 1'
_cell_length_a   9.21952968
_cell_length_b   9.21985894
_cell_length_c   22.60998249
_cell_angle_alpha   89.96521176
_cell_angle_beta   90.04887261
_cell_angle_gamma   119.90799583
_symmetry_Int_Tables_number   1
_chemical_formula_structural   Na6LaTa3(SiO4)6
_chemical_formula_sum   'Na18 La3 Ta9 Si18 O72'
_cell_volume   1665.96402624
_cell_formula_units_Z   3
loop_
 _symmetry_equiv_pos_site_id
 _symmetry_equiv_pos_as_xyz
  1  'x, y, z'
loop_
 _atom_site_type_symbol
 _atom_site_label
 _atom_site_symmetry_multiplicity
 _atom_site_fract_x
 _atom_site_fract_y
 _atom_site_fract_z
 _atom_site_occupancy
  Na  Na0  1  0.00817925  0.00065976  0.50256829  1
  Na  Na1  1  0.98908618  0.98991247  0.99779765  1
  Na  Na2  1  0.66654539  0.33228760  0.83456538  1
  Na  Na3  1  0.66658926  0.33270599  0.32487899  1
  Na  Na4  1  0.34741977  0.66649859  0.16224180  1
  Na  Na5  1  0.31986596  0.65297655  0.66529425  1
  Na  Na6  1  0.64386865  0.01500291  0.24496844  1
  Na  Na7  1  0.36939649  0.35580807  0.24490814  1
  Na  Na8  1  0.98726722  0.62918505  0.24477728  1
  Na  Na9  1  0.63053030  0.62262526  0.74838360  1
  Na  Na10  1  0.98928545  0.36778471  0.74852340  1
  Na  Na11  1  0.38044460  0.00944950  0.74894289  1
  Na  Na12  1  0.66358023  0.97174544  0.58515132  1
  Na  Na13  1  0.31094106  0.97267639  0.08047862  1
  Na  Na14  1  0.02690927  0.33985925  0.08061943  1
  Na  Na15  1  0.96520222  0.28957453  0.41485977  1
  Na  Na16  1  0.32497658  0.03365259  0.41490754  1
  Na  Na17  1  0.70965244  0.67640601  0.41531442  1
  La  La18  1  0.99988322  0.00009615  0.35067003  1
  La  La19  1  0.66753104  0.33703363  0.67971395  1
  La  La20  1  0.66482869  0.33606465  0.16645827  1
  Ta  Ta21  1  0.00023806  0.00068892  0.85860061  1
  Ta  Ta22  1  0.00331780  0.99958692  0.64568132  1
  Ta  Ta23  1  0.99737448  0.99721713  0.14649184  1
  Ta  Ta24  1  0.66754056  0.33449877  0.97920804  1
  Ta  Ta25  1  0.66595827  0.33406119  0.48376377  1
  Ta  Ta26  1  0.33625673  0.66649123  0.01300598  1
  Ta  Ta27  1  0.33023147  0.66308384  0.52093173  1
  Ta  Ta28  1  0.33291823  0.66663038  0.31182335  1
  Ta  Ta29  1  0.33391834  0.66702571  0.81443114  1
  Si  Si30  1  0.30079214  0.99592562  0.25027267  1
  Si  Si31  1  0.69576436  0.70096156  0.25114433  1
  Si  Si32  1  0.00494465  0.30501290  0.24991274  1
  Si  Si33  1  0.27769622  0.28892475  0.75320911  1
  Si  Si34  1  0.01047500  0.72133646  0.75373726  1
  Si  Si35  1  0.71058416  0.98957399  0.75246524  1
  Si  Si36  1  0.97153995  0.33194541  0.58464969  1
  Si  Si37  1  0.36114617  0.02987125  0.58344019  1
  Si  Si38  1  0.66914650  0.63923118  0.58409712  1
  Si  Si39  1  0.97318605  0.63873414  0.08088949  1
  Si  Si40  1  0.66468963  0.02519170  0.08151041  1
  Si  Si41  1  0.36134443  0.33593433  0.08212457  1
  Si  Si42  1  0.62584863  0.66222025  0.91469482  1
  Si  Si43  1  0.03647816  0.37492815  0.91531036  1
  Si  Si44  1  0.33754980  0.96303419  0.91556881  1
  Si  Si45  1  0.61361208  0.96159092  0.41901763  1
  Si  Si46  1  0.34878064  0.38660119  0.41813196  1
  Si  Si47  1  0.03835182  0.65218894  0.41829412  1
  O  O48  1  0.23813890  0.03010429  0.31256497  1
  O  O49  1  0.78971014  0.76018930  0.31404074  1
  O  O50  1  0.96998282  0.20814593  0.31227904  1
  O  O51  1  0.17470274  0.17250562  0.80932030  1
  O  O52  1  0.99840222  0.82538776  0.80966700  1
  O  O53  1  0.82905533  0.00185247  0.80797918  1
  O  O54  1  0.80216276  0.96940705  0.69165727  1
  O  O55  1  0.16007988  0.19140216  0.69413419  1
  O  O56  1  0.02870330  0.83796269  0.69448669  1
  O  O57  1  0.81314621  0.83685657  0.19721571  1
  O  O58  1  0.02530813  0.19318467  0.19441778  1
  O  O59  1  0.16910261  0.97625562  0.19463045  1
  O  O60  1  0.91859989  0.37389885  0.64710318  1
  O  O61  1  0.47050464  0.08046659  0.64340050  1
  O  O62  1  0.62418338  0.54472368  0.64663752  1
  O  O63  1  0.93457386  0.54060456  0.14312416  1
  O  O64  1  0.60773826  0.06608325  0.14387615  1
  O  O65  1  0.44346336  0.37766028  0.14690296  1
  O  O66  1  0.47709238  0.30398029  0.03311082  1
  O  O67  1  0.83271715  0.52220814  0.03047881  1
  O  O68  1  0.69719051  0.17205767  0.03185300  1
  O  O69  1  0.47296383  0.16438723  0.52851786  1
  O  O70  1  0.68952459  0.52554531  0.52950358  1
  O  O71  1  0.83161298  0.30593773  0.53061824  1
  O  O72  1  0.52032631  0.68305509  0.96852492  1
  O  O73  1  0.15584470  0.47334522  0.97149755  1
  O  O74  1  0.31380619  0.84127167  0.97130659  1
  O  O75  1  0.50879605  0.84698157  0.47430413  1
  O  O76  1  0.34261318  0.49852252  0.47168831  1
  O  O77  1  0.15943249  0.66245968  0.47146104  1
  O  O78  1  0.13359400  0.63440418  0.35736994  1
  O  O79  1  0.49877299  0.86334970  0.35870807  1
  O  O80  1  0.36475495  0.49883728  0.35720722  1
  O  O81  1  0.13612424  0.49730875  0.85736330  1
  O  O82  1  0.36201138  0.86451876  0.85748400  1
  O  O83  1  0.50506151  0.63749792  0.85594132  1
  O  O84  1  0.01777145  0.81539377  0.42221753  1
  O  O85  1  0.79837098  0.98363999  0.42234123  1
  O  O86  1  0.18559989  0.20316540  0.42230048  1
  O  O87  1  0.01581243  0.18804382  0.91009189  1
  O  O88  1  0.17140181  0.98380312  0.91014410  1
  O  O89  1  0.81146928  0.82881780  0.91028788  1
  O  O90  1  0.96710714  0.15154872  0.58700270  1
  O  O91  1  0.18220632  0.02503452  0.58890332  1
  O  O92  1  0.84095061  0.82271231  0.58710938  1
  O  O93  1  0.98661976  0.82367326  0.08854062  1
  O  O94  1  0.84403099  0.02635161  0.08868995  1
  O  O95  1  0.17757933  0.15771394  0.08679788  1
  O  O96  1  0.68977858  0.15364727  0.75363746  1
  O  O97  1  0.46144714  0.30764360  0.75320391  1
  O  O98  1  0.84645752  0.53734140  0.75402722  1
  O  O99  1  0.66431732  0.51466083  0.24241363  1
  O  O100  1  0.84995885  0.33712735  0.24193080  1
  O  O101  1  0.48792609  0.15012408  0.24269103  1
  O  O102  1  0.64036832  0.49364483  0.92611802  1
  O  O103  1  0.85144259  0.35813228  0.92511807  1
  O  O104  1  0.50577034  0.14693861  0.92625311  1
  O  O105  1  0.62452692  0.14631430  0.42354249  1
  O  O106  1  0.52251195  0.37629390  0.42337925  1
  O  O107  1  0.85526261  0.47842314  0.42443694  1
  O  O108  1  0.32325733  0.48822716  0.06739381  1
  O  O109  1  0.16204399  0.67160819  0.06630675  1
  O  O110  1  0.50549291  0.84162757  0.06549360  1
  O  O111  1  0.33483598  0.84417190  0.56955648  1
  O  O112  1  0.51581535  0.67734851  0.57102724  1
  O  O113  1  0.15836452  0.48661779  0.57045265  1
  O  O114  1  0.29353522  0.81187880  0.25365119  1
  O  O115  1  0.51932604  0.70854012  0.25346458  1
  O  O116  1  0.18873541  0.48189631  0.25347030  1
  O  O117  1  0.29043918  0.47555786  0.75627319  1
  O  O118  1  0.18453294  0.70886989  0.75639948  1
  O  O119  1  0.52346747  0.81600990  0.75652352  1
