# generated using pymatgen
data_Na8Hf3MgSi5SO24
_symmetry_space_group_name_H-M   'P 1'
_cell_length_a   9.22742856
_cell_length_b   9.22582063
_cell_length_c   22.45640533
_cell_angle_alpha   89.95353808
_cell_angle_beta   90.14435932
_cell_angle_gamma   119.92853070
_symmetry_Int_Tables_number   1
_chemical_formula_structural   Na8Hf3MgSi5SO24
_chemical_formula_sum   'Na24 Hf9 Mg3 Si15 S3 O72'
_cell_volume   1656.78994038
_cell_formula_units_Z   3
loop_
 _symmetry_equiv_pos_site_id
 _symmetry_equiv_pos_as_xyz
  1  'x, y, z'
loop_
 _atom_site_type_symbol
 _atom_site_label
 _atom_site_symmetry_multiplicity
 _atom_site_fract_x
 _atom_site_fract_y
 _atom_site_fract_z
 _atom_site_occupancy
  Na  Na0  1  0.65000415  0.02718295  0.24523747  1
  Na  Na1  1  0.36281897  0.36115904  0.23712121  1
  Na  Na2  1  0.98441911  0.60814102  0.23960481  1
  Na  Na3  1  0.63258889  0.61462621  0.74536985  1
  Na  Na4  1  0.98472158  0.36504508  0.75308254  1
  Na  Na5  1  0.38533065  0.01508408  0.74564559  1
  Na  Na6  1  0.32670406  0.33652314  0.59267636  1
  Na  Na7  1  0.03185127  0.70738005  0.58268175  1
  Na  Na8  1  0.65517023  0.96432510  0.59610802  1
  Na  Na9  1  0.31120783  0.97244461  0.07667891  1
  Na  Na10  1  0.66561906  0.68989605  0.07610705  1
  Na  Na11  1  0.02608442  0.34398718  0.07932401  1
  Na  Na12  1  0.96575982  0.66481003  0.91382618  1
  Na  Na13  1  0.69923396  0.03454305  0.91308836  1
  Na  Na14  1  0.33497746  0.30047922  0.91330109  1
  Na  Na15  1  0.96440595  0.28393797  0.40824670  1
  Na  Na16  1  0.31618462  0.02742852  0.41958766  1
  Na  Na17  1  0.71459164  0.68274695  0.41959786  1
  Na  Na18  1  0.00114909  0.99170125  0.49332023  1
  Na  Na19  1  0.00088093  0.99933441  0.99397680  1
  Na  Na20  1  0.66645517  0.33263333  0.82479278  1
  Na  Na21  1  0.68501751  0.33097311  0.33333277  1
  Na  Na22  1  0.32471142  0.65765931  0.15865497  1
  Na  Na23  1  0.34518656  0.67683312  0.67224345  1
  Hf  Hf24  1  0.99774600  0.99667699  0.85176255  1
  Hf  Hf25  1  0.00187396  0.99342911  0.64940529  1
  Hf  Hf26  1  0.00342239  0.01331705  0.14402800  1
  Hf  Hf27  1  0.66957953  0.33508291  0.98234603  1
  Hf  Hf28  1  0.65785481  0.33573128  0.47889782  1
  Hf  Hf29  1  0.33368338  0.66556069  0.01789072  1
  Hf  Hf30  1  0.33879875  0.67304242  0.51727575  1
  Hf  Hf31  1  0.32715388  0.65993966  0.31767732  1
  Hf  Hf32  1  0.33468731  0.66741738  0.81330048  1
  Mg  Mg33  1  0.99747677  0.00791836  0.35714255  1
  Mg  Mg34  1  0.65234247  0.32964874  0.68839498  1
  Mg  Mg35  1  0.67831071  0.33178600  0.17643715  1
  Si  Si36  1  -0.00148820  0.29830556  0.25379205  1
  Si  Si37  1  0.29287075  0.29548475  0.75002845  1
  Si  Si38  1  0.00026315  0.70060070  0.75031098  1
  Si  Si39  1  0.70470237  0.00007122  0.74927832  1
  Si  Si40  1  0.37144887  0.03740056  0.58471894  1
  Si  Si41  1  0.66618146  0.62958033  0.58506580  1
  Si  Si42  1  0.96484848  0.63079153  0.08691651  1
  Si  Si43  1  0.66187462  0.03628918  0.08714445  1
  Si  Si44  1  0.37966856  0.33751691  0.08783717  1
  Si  Si45  1  0.62855380  0.66541857  0.91699608  1
  Si  Si46  1  0.03786364  0.37079913  0.91645940  1
  Si  Si47  1  0.33471396  0.96269770  0.91696791  1
  Si  Si48  1  0.62912427  0.96420789  0.41456745  1
  Si  Si49  1  0.33117664  0.36955100  0.41752329  1
  Si  Si50  1  0.03420117  0.66411482  0.41674374  1
  S  S51  1  0.28977774  0.99632266  0.25284449  1
  S  S52  1  0.70726347  0.71100172  0.25224995  1
  S  S53  1  0.95902367  0.33348505  0.58298485  1
  O  O54  1  0.20169830  0.00233016  0.30604577  1
  O  O55  1  0.80537948  0.79266378  0.30574727  1
  O  O56  1  0.98075091  0.18835121  0.31186430  1
  O  O57  1  0.19160690  0.17944594  0.80782509  1
  O  O58  1  0.97803418  0.79582069  0.80848387  1
  O  O59  1  0.81808654  0.01627256  0.80815922  1
  O  O60  1  0.79809524  0.97644217  0.68982784  1
  O  O61  1  0.17728754  0.20429397  0.68976859  1
  O  O62  1  0.02642058  0.82060519  0.69115548  1
  O  O63  1  0.79385237  0.81008279  0.19763565  1
  O  O64  1  0.02329960  0.20179603  0.19460842  1
  O  O65  1  0.18830638  0.97864477  0.19790524  1
  O  O66  1  0.88226367  0.35497566  0.63650036  1
  O  O67  1  0.48868678  0.11827441  0.64213312  1
  O  O68  1  0.63734472  0.51444210  0.64256904  1
  O  O69  1  0.88776514  0.51927922  0.14601275  1
  O  O70  1  0.62920151  0.11146644  0.14703472  1
  O  O71  1  0.48709439  0.36238366  0.14772022  1
  O  O72  1  0.46845000  0.30793731  0.02964160  1
  O  O73  1  0.84287320  0.54162262  0.02899748  1
  O  O74  1  0.69711432  0.15971426  0.02972534  1
  O  O75  1  0.46513958  0.15282159  0.52466275  1
  O  O76  1  0.69421835  0.53980465  0.52497978  1
  O  O77  1  0.85898537  0.31753963  0.52851051  1
  O  O78  1  0.53863307  0.69013834  0.97621118  1
  O  O79  1  0.15233399  0.46040986  0.97599622  1
  O  O80  1  0.30923188  0.84628492  0.97592623  1
  O  O81  1  0.52708508  0.84533710  0.47198788  1
  O  O82  1  0.30936383  0.46639319  0.47488535  1
  O  O83  1  0.15081450  0.68850203  0.47531593  1
  O  O84  1  0.12842471  0.63499858  0.35836954  1
  O  O85  1  0.50914732  0.87454427  0.35520758  1
  O  O86  1  0.36160783  0.49215379  0.35884326  1
  O  O87  1  0.12962703  0.49001919  0.85893350  1
  O  O88  1  0.36195073  0.87090028  0.85946852  1
  O  O89  1  0.51061902  0.63908443  0.85918522  1
  O  O90  1  0.01315739  0.82695489  0.40988059  1
  O  O91  1  0.80973964  0.97658547  0.41363585  1
  O  O92  1  0.17344482  0.18316845  0.41334870  1
  O  O93  1  0.01790050  0.18430728  0.91291483  1
  O  O94  1  0.16700564  0.98107566  0.91337332  1
  O  O95  1  0.81455394  0.83261489  0.91413460  1
  O  O96  1  0.97546569  0.18041695  0.58403986  1
  O  O97  1  0.18555848  0.02582905  0.58577220  1
  O  O98  1  0.83299103  0.82028149  0.58575944  1
  O  O99  1  0.98615524  0.81973637  0.09262185  1
  O  O100  1  0.83116357  0.01437602  0.09081733  1
  O  O101  1  0.18943258  0.16635322  0.09031383  1
  O  O102  1  0.68862180  0.16670532  0.74609682  1
  O  O103  1  0.47514935  0.31229223  0.74908103  1
  O  O104  1  0.83709712  0.51599540  0.74516536  1
  O  O105  1  0.67970489  0.53851266  0.24944757  1
  O  O106  1  0.83288650  0.32065144  0.24817771  1
  O  O107  1  0.45733382  0.14832761  0.25052369  1
  O  O108  1  0.64694728  0.49810668  0.92274233  1
  O  O109  1  0.85268585  0.35387321  0.92215102  1
  O  O110  1  0.50178551  0.14835828  0.92326156  1
  O  O111  1  0.64707997  0.15024421  0.42082273  1
  O  O112  1  0.50653150  0.36269391  0.42038336  1
  O  O113  1  0.85282498  0.49064555  0.42066031  1
  O  O114  1  0.34873046  0.49732291  0.07988148  1
  O  O115  1  0.15327976  0.65624547  0.07829575  1
  O  O116  1  0.50301369  0.84686995  0.07832335  1
  O  O117  1  0.33680683  0.84269637  0.57821236  1
  O  O118  1  0.49725391  0.65121504  0.57867513  1
  O  O119  1  0.13098708  0.48369951  0.57811791  1
  O  O120  1  0.30858174  0.84321980  0.25180760  1
  O  O121  1  0.53941167  0.70265580  0.25193526  1
  O  O122  1  0.17645030  0.48911847  0.25200740  1
  O  O123  1  0.30435745  0.47941841  0.75302465  1
  O  O124  1  0.17395540  0.69343702  0.75332988  1
  O  O125  1  0.52108786  0.82815361  0.75282367  1
