# generated using pymatgen
data_MgTl4V4(TeO5)4
_symmetry_space_group_name_H-M   'P 1'
_cell_length_a   7.06985946
_cell_length_b   8.24980249
_cell_length_c   9.27915161
_cell_angle_alpha   86.50146034
_cell_angle_beta   91.60447253
_cell_angle_gamma   89.86483378
_symmetry_Int_Tables_number   1
_chemical_formula_structural   MgTl4V4(TeO5)4
_chemical_formula_sum   'Mg1 Tl4 V4 Te4 O20'
_cell_volume   539.98110161
_cell_formula_units_Z   1
loop_
 _symmetry_equiv_pos_site_id
 _symmetry_equiv_pos_as_xyz
  1  'x, y, z'
loop_
 _atom_site_type_symbol
 _atom_site_label
 _atom_site_symmetry_multiplicity
 _atom_site_fract_x
 _atom_site_fract_y
 _atom_site_fract_z
 _atom_site_occupancy
  Mg  Mg0  1  0.44502500  0.05342600  0.66645600  1
  Tl  Tl1  1  0.99281900  0.92296300  0.90976900  1
  Tl  Tl2  1  0.54673400  0.74868300  0.57536300  1
  Tl  Tl3  1  0.52053200  0.40069500  0.36460000  1
  Tl  Tl4  1  0.01947000  0.41141600  0.11950900  1
  V  V5  1  0.30280400  0.80753700  0.25470600  1
  V  V6  1  0.19128500  0.32040200  0.76860700  1
  V  V7  1  0.80324900  0.78872000  0.24106200  1
  V  V8  1  0.70166700  0.30720200  0.74495000  1
  Te  Te9  1  0.97111000  0.08584200  0.48699000  1
  Te  Te10  1  0.02792300  0.59850600  0.53035700  1
  Te  Te11  1  0.52735100  0.59271800  0.97229500  1
  Te  Te12  1  0.49593300  0.10060400  0.03473400  1
  O  O13  1  0.95127600  0.26396700  0.81760500  1
  O  O14  1  0.15690200  0.02600200  0.63355100  1
  O  O15  1  0.07600500  0.76168200  0.18798200  1
  O  O16  1  0.87390500  0.56348300  0.36590900  1
  O  O17  1  0.27949000  0.98641900  0.32851400  1
  O  O18  1  0.55555800  0.74619700  0.31667000  1
  O  O19  1  0.88702900  0.86894200  0.44974200  1
  O  O20  1  0.21342600  0.50889000  0.82363800  1
  O  O21  1  0.42466900  0.28411500  0.68775700  1
  O  O22  1  0.62702000  0.37697200  0.94068000  1
  O  O23  1  0.26142400  0.17327100  0.93300900  1
  O  O24  1  0.37456100  0.53060300  0.12667900  1
  O  O25  1  0.75447300  0.65142900  0.07633100  1
  O  O26  1  0.39395500  0.88139000  0.06471700  1
  O  O27  1  0.74250800  0.13440100  0.59461300  1
  O  O28  1  0.71855500  0.49495600  0.65399200  1
  O  O29  1  0.60998200  0.05628400  0.85732400  1
  O  O30  1  0.77686700  0.98229700  0.16032900  1
  O  O31  1  0.26005400  0.64789000  0.42876200  1
  O  O32  1  0.09679500  0.37009600  0.56851500  1
