# generated using pymatgen
data_Na2ZrSi2GeSO12
_symmetry_space_group_name_H-M   'P 1'
_cell_length_a   8.85510448
_cell_length_b   8.91261964
_cell_length_c   22.56118493
_cell_angle_alpha   89.13548600
_cell_angle_beta   91.34080934
_cell_angle_gamma   119.64481497
_symmetry_Int_Tables_number   1
_chemical_formula_structural   Na2ZrSi2GeSO12
_chemical_formula_sum   'Na12 Zr6 Si12 Ge6 S6 O72'
_cell_volume   1547.07865530
_cell_formula_units_Z   6
loop_
 _symmetry_equiv_pos_site_id
 _symmetry_equiv_pos_as_xyz
  1  'x, y, z'
loop_
 _atom_site_type_symbol
 _atom_site_label
 _atom_site_symmetry_multiplicity
 _atom_site_fract_x
 _atom_site_fract_y
 _atom_site_fract_z
 _atom_site_occupancy
  Na  Na0  1  0.99471790  0.63793593  0.25418053  1
  Na  Na1  1  0.37176080  0.00354545  0.75834199  1
  Na  Na2  1  0.66011326  0.97152821  0.58817208  1
  Na  Na3  1  0.03967755  0.33620372  0.08603043  1
  Na  Na4  1  0.33430003  0.29901500  0.92255123  1
  Na  Na5  1  0.70802094  0.67236874  0.42210378  1
  Na  Na6  1  0.01497147  0.98820729  0.50149492  1
  Na  Na7  1  0.00056928  0.97737815  0.99604033  1
  Na  Na8  1  0.68268701  0.32891596  0.83669735  1
  Na  Na9  1  0.67575850  0.31281303  0.33038036  1
  Na  Na10  1  0.35201185  0.66206608  0.16250569  1
  Na  Na11  1  0.33878768  0.64722805  0.66918059  1
  Zr  Zr12  1  0.98572003  0.99642725  0.35250996  1
  Zr  Zr13  1  0.99622455  -0.00152609  0.65067264  1
  Zr  Zr14  1  0.00247485  0.99863247  0.14064969  1
  Zr  Zr15  1  0.65154028  0.32985628  0.68914774  1
  Zr  Zr16  1  0.66819601  0.33305342  0.47992698  1
  Zr  Zr17  1  0.33152656  0.66256154  0.31048091  1
  Si  Si18  1  0.70213645  0.70099989  0.24635757  1
  Si  Si19  1  0.98453986  0.29031582  0.24163108  1
  Si  Si20  1  0.28621561  0.30582066  0.75693085  1
  Si  Si21  1  0.70693530  0.98956043  0.75746352  1
  Si  Si22  1  0.36412144  0.03301955  0.58346823  1
  Si  Si23  1  0.65384226  0.62757198  0.57865620  1
  Si  Si24  1  0.95123481  0.61655773  0.07691879  1
  Si  Si25  1  0.39709157  0.34828779  0.07678245  1
  Si  Si26  1  0.03767090  0.38306556  0.91648446  1
  Si  Si27  1  0.33008429  0.94726351  0.91711408  1
  Si  Si28  1  0.62096811  0.96004755  0.41829918  1
  Si  Si29  1  0.05330419  0.67061149  0.41796612  1
  Ge  Ge30  1  0.02240039  0.03753950  0.85655768  1
  Ge  Ge31  1  0.68954142  0.37311844  0.18158229  1
  Ge  Ge32  1  0.66549307  0.32530761  0.97849323  1
  Ge  Ge33  1  0.30249229  0.64712418  0.01806994  1
  Ge  Ge34  1  0.35294563  0.70429463  0.52059303  1
  Ge  Ge35  1  0.33516958  0.66820357  0.81830986  1
  S  S36  1  0.30218365  0.01513632  0.24905212  1
  S  S37  1  0.00344563  0.70820180  0.75564101  1
  S  S38  1  0.96888545  0.34652793  0.58559376  1
  S  S39  1  0.65222885  0.04281860  0.08036345  1
  S  S40  1  0.62467573  0.67030867  0.91826394  1
  S  S41  1  0.32467455  0.37489137  0.41902112  1
  O  O42  1  0.21673262  0.02835377  0.30229285  1
  O  O43  1  0.81900095  0.77741971  0.30803196  1
  O  O44  1  0.96645156  0.17314269  0.30074329  1
  O  O45  1  0.21360314  0.17534189  0.81533954  1
  O  O46  1  0.98096461  0.78948397  0.80816836  1
  O  O47  1  0.84245425  0.01302591  0.81277705  1
  O  O48  1  0.77915523  0.96015929  0.69486709  1
  O  O49  1  0.16732516  0.20726107  0.69883546  1
  O  O50  1  0.02708703  0.81281470  0.70102795  1
  O  O51  1  0.81245966  0.82489616  0.19185571  1
  O  O52  1  0.01946820  0.20857852  0.18310362  1
  O  O53  1  0.19224705  0.98647493  0.19561344  1
  O  O54  1  0.88148186  0.36019159  0.63798050  1
  O  O55  1  0.48596543  0.11392311  0.64378173  1
  O  O56  1  0.63614887  0.50597485  0.63637926  1
  O  O57  1  0.88271133  0.50663419  0.14002661  1
  O  O58  1  0.63670105  0.12682678  0.13327871  1
  O  O59  1  0.51528186  0.36743740  0.13730489  1
  O  O60  1  0.47480698  0.31098249  0.01678595  1
  O  O61  1  0.82576077  0.50827011  0.02192845  1
  O  O62  1  0.68623599  0.15001072  0.02532463  1
  O  O63  1  0.46893584  0.15414051  0.52780269  1
  O  O64  1  0.68797220  0.54937189  0.51917859  1
  O  O65  1  0.86158393  0.31822932  0.53151967  1
  O  O66  1  0.54109754  0.69055987  0.97063658  1
  O  O67  1  0.16142583  0.45239294  0.97720932  1
  O  O68  1  0.30155213  0.82031194  0.97473061  1
  O  O69  1  0.54357194  0.84399713  0.47950678  1
  O  O70  1  0.31096607  0.45855493  0.47183630  1
  O  O71  1  0.17318339  0.67806026  0.47651929  1
  O  O72  1  0.12678076  0.64471861  0.35562603  1
  O  O73  1  0.50798425  0.85491129  0.36078882  1
  O  O74  1  0.34457014  0.47422387  0.36390691  1
  O  O75  1  0.13983401  0.51097019  0.86104683  1
  O  O76  1  0.36094973  0.86600009  0.85658510  1
  O  O77  1  0.51178028  0.63765717  0.86312550  1
  O  O78  1  0.03772600  0.84686529  0.41542406  1
  O  O79  1  0.81235378  0.97168372  0.41526881  1
  O  O80  1  0.17522905  0.20036274  0.41424916  1
  O  O81  1  0.02907026  0.19070757  0.91102829  1
  O  O82  1  0.15320193  0.97546220  0.90956791  1
  O  O83  1  0.79935650  0.81944008  0.91302200  1
  O  O84  1  0.97653849  0.18008710  0.58919343  1
  O  O85  1  0.17401809  0.01195239  0.58939124  1
  O  O86  1  0.81426625  0.82580421  0.58751163  1
  O  O87  1  0.97498011  0.80878632  0.08087804  1
  O  O88  1  0.81715236  0.02885797  0.08338441  1
  O  O89  1  0.19780965  0.18460686  0.08384539  1
  O  O90  1  0.68689309  0.16404494  0.75164630  1
  O  O91  1  0.47691825  0.31666812  0.74951964  1
  O  O92  1  0.85389078  0.53295277  0.74851824  1
  O  O93  1  0.69469800  0.51215476  0.24050997  1
  O  O94  1  0.80179883  0.30033571  0.23512558  1
  O  O95  1  0.47407004  0.16643275  0.24388231  1
  O  O96  1  0.63465856  0.50399258  0.91992120  1
  O  O97  1  0.83997983  0.35316754  0.92414414  1
  O  O98  1  0.49849994  0.14906841  0.92466183  1
  O  O99  1  0.64297091  0.15031654  0.41939334  1
  O  O100  1  0.48959978  0.36296559  0.41964765  1
  O  O101  1  0.85446889  0.50769641  0.42207603  1
  O  O102  1  0.37492802  0.52629312  0.07140032  1
  O  O103  1  0.14618749  0.62979199  0.07393814  1
  O  O104  1  0.50085797  0.86884578  0.07520908  1
  O  O105  1  0.35589592  0.84377845  0.57845767  1
  O  O106  1  0.46983680  0.63561806  0.57317644  1
  O  O107  1  0.14232782  0.49552655  0.58121656  1
  O  O108  1  0.31240478  0.85056591  0.25211565  1
  O  O109  1  0.51095658  0.67818613  0.24961193  1
  O  O110  1  0.14552429  0.48867219  0.24914226  1
  O  O111  1  0.30461027  0.49539944  0.76511106  1
  O  O112  1  0.16952933  0.69970309  0.75783395  1
  O  O113  1  0.50712014  0.82319784  0.76482912  1
