# generated using pymatgen
data_NaIn2Ga2PS5O24
_symmetry_space_group_name_H-M   'P 1'
_cell_length_a   8.65072790
_cell_length_b   8.65089416
_cell_length_c   22.82027055
_cell_angle_alpha   89.89437033
_cell_angle_beta   90.25705056
_cell_angle_gamma   119.77270182
_symmetry_Int_Tables_number   1
_chemical_formula_structural   NaIn2Ga2PS5O24
_chemical_formula_sum   'Na3 In6 Ga6 P3 S15 O72'
_cell_volume   1482.35021034
_cell_formula_units_Z   3
loop_
 _symmetry_equiv_pos_site_id
 _symmetry_equiv_pos_as_xyz
  1  'x, y, z'
loop_
 _atom_site_type_symbol
 _atom_site_label
 _atom_site_symmetry_multiplicity
 _atom_site_fract_x
 _atom_site_fract_y
 _atom_site_fract_z
 _atom_site_occupancy
  Na  Na0  1  0.99860262  0.98904626  0.99592042  1
  Na  Na1  1  0.65494736  0.33134355  0.83726924  1
  Na  Na2  1  0.67439767  0.33180595  0.33411234  1
  In  In3  1  0.99899354  0.99200642  0.84939756  1
  In  In4  1  0.00071855  0.00533405  0.15444337  1
  In  In5  1  0.67358787  0.33433184  0.18840136  1
  In  In6  1  0.66040528  0.33395612  0.98075185  1
  In  In7  1  0.33888237  0.67229824  0.01613722  1
  In  In8  1  0.34064058  0.67297115  0.81227735  1
  Ga  Ga9  1  0.99719575  0.00542103  0.35367822  1
  Ga  Ga10  1  0.00112597  0.00056668  0.64564599  1
  Ga  Ga11  1  0.66533271  0.33276041  0.67952379  1
  Ga  Ga12  1  0.66626893  0.33319348  0.48437751  1
  Ga  Ga13  1  0.33295067  0.66742550  0.51811078  1
  Ga  Ga14  1  0.32710426  0.65935906  0.31631394  1
  P  P15  1  0.00658054  0.29783600  0.25708962  1
  P  P16  1  0.63203838  0.66737199  0.91507022  1
  P  P17  1  0.33300814  0.96477102  0.91517721  1
  S  S18  1  0.28995269  0.99194521  0.25696747  1
  S  S19  1  0.70144917  0.70975150  0.25689469  1
  S  S20  1  0.29702041  0.28883570  0.74376831  1
  S  S21  1  0.98987019  0.69813176  0.74276866  1
  S  S22  1  0.71393165  0.01184336  0.74304583  1
  S  S23  1  0.95870720  0.33430769  0.58211815  1
  S  S24  1  0.37539634  0.04151089  0.58221657  1
  S  S25  1  0.66596722  0.62473833  0.58222244  1
  S  S26  1  0.96623527  0.63419593  0.08420319  1
  S  S27  1  0.66902410  0.03655796  0.08406390  1
  S  S28  1  0.36660019  0.33181458  0.08546975  1
  S  S29  1  0.03690240  0.36974142  0.91525732  1
  S  S30  1  0.62047136  0.95507925  0.41751604  1
  S  S31  1  0.33636878  0.37711695  0.41836628  1
  S  S32  1  0.04144307  0.66739606  0.41758488  1
  O  O33  1  0.19966930  0.02046500  0.30733433  1
  O  O34  1  0.82469418  0.79511251  0.30702334  1
  O  O35  1  0.97095279  0.17164396  0.30978443  1
  O  O36  1  0.22678253  0.18288053  0.79787847  1
  O  O37  1  0.95196111  0.76595901  0.79702786  1
  O  O38  1  0.81914230  0.04726509  0.79760193  1
  O  O39  1  0.80430753  0.98666438  0.69194401  1
  O  O40  1  0.18297416  0.19941416  0.69200948  1
  O  O41  1  0.01726099  0.81553987  0.69178983  1
  O  O42  1  0.77166854  0.80579366  0.20105388  1
  O  O43  1  0.03701876  0.22671072  0.19927911  1
  O  O44  1  0.18965086  0.95855007  0.20136260  1
  O  O45  1  0.88019255  0.37286626  0.63415601  1
  O  O46  1  0.49281462  0.11953387  0.63454047  1
  O  O47  1  0.62739333  0.50757071  0.63444312  1
  O  O48  1  0.88309875  0.53230020  0.13816936  1
  O  O49  1  0.65060116  0.12041739  0.13786973  1
  O  O50  1  0.47162730  0.35151843  0.13919970  1
  O  O51  1  0.44738420  0.30461200  0.03262029  1
  O  O52  1  0.85650917  0.55292463  0.03137232  1
  O  O53  1  0.69564250  0.14564281  0.03138830  1
  O  O54  1  0.45370320  0.15950471  0.52999393  1
  O  O55  1  0.70514066  0.54566772  0.53003970  1
  O  O56  1  0.84016882  0.29464155  0.52957482  1
  O  O57  1  0.54981799  0.68391689  0.97219529  1
  O  O58  1  0.13778455  0.44794452  0.96960858  1
  O  O59  1  0.30343872  0.85759551  0.97150149  1
  O  O60  1  0.54061701  0.84475519  0.47087109  1
  O  O61  1  0.30355543  0.45721495  0.47121299  1
  O  O62  1  0.15329788  0.69965693  0.47100755  1
  O  O63  1  0.11981991  0.62910845  0.36589376  1
  O  O64  1  0.50479697  0.87630291  0.36540952  1
  O  O65  1  0.37511198  0.49299058  0.36631775  1
  O  O66  1  0.11802050  0.47354156  0.86166982  1
  O  O67  1  0.34900034  0.88009415  0.85810285  1
  O  O68  1  0.52252349  0.63688200  0.85874811  1
  O  O69  1  0.02225872  0.82610109  0.40807009  1
  O  O70  1  0.79753112  0.97150104  0.40959853  1
  O  O71  1  0.17945962  0.19916216  0.40953822  1
  O  O72  1  0.01964370  0.19182846  0.91114355  1
  O  O73  1  0.17073258  0.99284476  0.91260536  1
  O  O74  1  0.81198425  0.84127440  0.91188034  1
  O  O75  1  0.97732096  0.17516962  0.59182242  1
  O  O76  1  0.19811922  0.02323867  0.59198014  1
  O  O77  1  0.82435536  0.80163019  0.59218571  1
  O  O78  1  0.98363180  0.81413585  0.08879731  1
  O  O79  1  0.83042765  0.01713939  0.08743976  1
  O  O80  1  0.18904234  0.16800601  0.08881139  1
  O  O81  1  0.69560048  0.17375572  0.73504702  1
  O  O82  1  0.47737660  0.30710927  0.73589371  1
  O  O83  1  0.82773588  0.51990378  0.73419134  1
  O  O84  1  0.67755232  0.52710742  0.25285843  1
  O  O85  1  0.83681737  0.31661800  0.25355976  1
  O  O86  1  0.46720012  0.15642799  0.25237152  1
  O  O87  1  0.66086121  0.50575491  0.91729318  1
  O  O88  1  0.85891362  0.35218234  0.91903735  1
  O  O89  1  0.50624459  0.14527782  0.91815583  1
  O  O90  1  0.63977719  0.13721609  0.42518952  1
  O  O91  1  0.50000783  0.35908071  0.42660932  1
  O  O92  1  0.86073771  0.50458424  0.42569092  1
  O  O93  1  0.34680575  0.48957936  0.08041270  1
  O  O94  1  0.14102924  0.64804199  0.07927623  1
  O  O95  1  0.50920709  0.86117456  0.08048715  1
  O  O96  1  0.35861418  0.86423059  0.57245013  1
  O  O97  1  0.50569125  0.64223236  0.57224622  1
  O  O98  1  0.13567326  0.49380547  0.57215541  1
  O  O99  1  0.31363054  0.83691528  0.26618000  1
  O  O100  1  0.52893478  0.69950627  0.26627486  1
  O  O101  1  0.17261377  0.48026583  0.26659368  1
  O  O102  1  0.31232187  0.46530680  0.74883750  1
  O  O103  1  0.14827871  0.67812808  0.74859432  1
  O  O104  1  0.53693600  0.85246126  0.74722976  1
