# generated using pymatgen
data_Na14La3Nb5(SiO4)12
_symmetry_space_group_name_H-M   'P 1'
_cell_length_a   18.80101962
_cell_length_b   9.38522077
_cell_length_c   22.49807957
_cell_angle_alpha   90.03589994
_cell_angle_beta   89.93438699
_cell_angle_gamma   119.91120371
_symmetry_Int_Tables_number   1
_chemical_formula_structural   Na14La3Nb5(SiO4)12
_chemical_formula_sum   'Na42 La9 Nb15 Si36 O144'
_cell_volume   3441.03895387
_cell_formula_units_Z   3
loop_
 _symmetry_equiv_pos_site_id
 _symmetry_equiv_pos_as_xyz
  1  'x, y, z'
loop_
 _atom_site_type_symbol
 _atom_site_label
 _atom_site_symmetry_multiplicity
 _atom_site_fract_x
 _atom_site_fract_y
 _atom_site_fract_z
 _atom_site_occupancy
  Na  Na0  1  0.31809913  0.01159571  0.24713534  1
  Na  Na1  1  0.81905710  0.00910794  0.24532658  1
  Na  Na2  1  0.18483880  0.36187657  0.24558990  1
  Na  Na3  1  0.68803271  0.36312558  0.24738292  1
  Na  Na4  1  0.99590991  0.62200216  0.24787248  1
  Na  Na5  1  0.49253594  0.63041040  0.24552672  1
  Na  Na6  1  0.31585642  0.62351807  0.74761671  1
  Na  Na7  1  0.81550987  0.62315796  0.74810741  1
  Na  Na8  1  0.99533108  0.36844529  0.74848521  1
  Na  Na9  1  0.49498188  0.36772294  0.74803758  1
  Na  Na10  1  0.18971795  0.00854786  0.74802793  1
  Na  Na11  1  0.68890564  0.00803580  0.74787743  1
  Na  Na12  1  0.15546024  0.34782857  0.57910448  1
  Na  Na13  1  0.65339527  0.34669831  0.57891288  1
  Na  Na14  1  0.01879643  0.69338907  0.57933244  1
  Na  Na15  1  0.51890813  0.69039134  0.57869224  1
  Na  Na16  1  0.32465145  0.95804223  0.57763750  1
  Na  Na17  1  0.82877321  0.96408161  0.58085665  1
  Na  Na18  1  0.15502949  0.96125936  0.07840524  1
  Na  Na19  1  0.65499943  0.96128745  0.07885341  1
  Na  Na20  1  0.32620549  0.69160309  0.07927885  1
  Na  Na21  1  0.82626026  0.69292149  0.07882435  1
  Na  Na22  1  0.01839256  0.34569794  0.07813567  1
  Na  Na23  1  0.51886595  0.34575090  0.07845621  1
  Na  Na24  1  0.34859781  0.02781539  0.91798365  1
  Na  Na25  1  0.84844125  0.02777208  0.91807862  1
  Na  Na26  1  0.48549269  0.29518090  0.41428721  1
  Na  Na27  1  0.66165101  0.02695546  0.41324123  1
  Na  Na28  1  0.35079372  0.67563729  0.41429652  1
  Na  Na29  1  0.84934380  0.67399141  0.41564838  1
  Na  Na30  1  0.00739597  0.01397368  0.49754896  1
  Na  Na31  1  0.49933504  0.99961575  0.49436756  1
  Na  Na32  1  0.00666512  0.99987104  0.99828460  1
  Na  Na33  1  0.50681811  0.00018195  0.99857626  1
  Na  Na34  1  0.33282611  0.34111737  0.83692521  1
  Na  Na35  1  0.83269959  0.34128041  0.83722720  1
  Na  Na36  1  0.32900259  0.32779743  0.33197402  1
  Na  Na37  1  0.83721991  0.32974209  0.33263455  1
  Na  Na38  1  0.16742234  0.66729400  0.15848384  1
  Na  Na39  1  0.66649475  0.66730739  0.15865037  1
  Na  Na40  1  0.16762270  0.66784429  0.65884171  1
  Na  Na41  1  0.66616522  0.66588228  0.66049100  1
  La  La42  1  0.49893557  0.99900546  0.34177995  1
  La  La43  1  0.33288066  0.33291063  0.68529499  1
  La  La44  1  0.83332625  0.33296332  0.68698498  1
  La  La45  1  0.32984083  0.32794291  0.17644399  1
  La  La46  1  0.83661742  0.33871414  0.18017688  1
  La  La47  1  0.16403720  0.66300394  0.99999067  1
  La  La48  1  0.66410674  0.66312299  0.00114356  1
  La  La49  1  0.15859476  0.65590744  0.50287396  1
  La  La50  1  0.67229150  0.67653349  0.50721295  1
  Nb  Nb51  1  0.00284656  0.00450490  0.35253734  1
  Nb  Nb52  1  0.00178451  0.00027863  0.85329986  1
  Nb  Nb53  1  0.50184086  0.00016827  0.85318014  1
  Nb  Nb54  1  0.00036913  0.99982798  0.64579870  1
  Nb  Nb55  1  0.49956956  0.99983950  0.64492419  1
  Nb  Nb56  1  0.99990040  0.00002591  0.14502230  1
  Nb  Nb57  1  0.49965635  0.00004306  0.14752634  1
  Nb  Nb58  1  0.33375532  0.33767425  0.98034588  1
  Nb  Nb59  1  0.83390021  0.33733015  0.98060136  1
  Nb  Nb60  1  0.33015407  0.32730682  0.48117548  1
  Nb  Nb61  1  0.83704979  0.33675973  0.48092298  1
  Nb  Nb62  1  0.16656189  0.66830860  0.31679566  1
  Nb  Nb63  1  0.66651487  0.66601259  0.31519702  1
  Nb  Nb64  1  0.16633419  0.66493336  0.81736728  1
  Nb  Nb65  1  0.66616858  0.66481268  0.81747837  1
  Si  Si66  1  0.14006881  0.98310336  0.25078133  1
  Si  Si67  1  0.64923946  0.98710462  0.25098061  1
  Si  Si68  1  0.34257176  0.70093693  0.25068362  1
  Si  Si69  1  0.85353961  0.71935576  0.25249132  1
  Si  Si70  1  0.00735072  0.29535720  0.25140741  1
  Si  Si71  1  0.50679408  0.31326989  0.25092109  1
  Si  Si72  1  0.13925612  0.29544987  0.75147572  1
  Si  Si73  1  0.63889504  0.29504056  0.75131443  1
  Si  Si74  1  0.00808835  0.72103235  0.75170642  1
  Si  Si75  1  0.50787706  0.72091530  0.75132146  1
  Si  Si76  1  0.35248731  0.98386896  0.75239389  1
  Si  Si77  1  0.85238514  0.98318248  0.75241023  1
  Si  Si78  1  0.48183718  0.32509618  0.58447611  1
  Si  Si79  1  0.98191935  0.32375732  0.58598135  1
  Si  Si80  1  0.17959343  0.03345896  0.58564546  1
  Si  Si81  1  0.68105073  0.03988831  0.58454817  1
  Si  Si82  1  0.33649412  0.63865149  0.58380369  1
  Si  Si83  1  0.83910426  0.64044561  0.58563193  1
  Si  Si84  1  0.48275572  0.64072707  0.08397595  1
  Si  Si85  1  0.98435451  0.64178296  0.08388805  1
  Si  Si86  1  0.33664307  0.03011155  0.08310352  1
  Si  Si87  1  0.83718426  0.03384532  0.08262855  1
  Si  Si88  1  0.17839118  0.32497476  0.08271639  1
  Si  Si89  1  0.68048776  0.32542399  0.08466818  1
  Si  Si90  1  0.32092967  0.66477771  0.91571041  1
  Si  Si91  1  0.82079868  0.66451730  0.91579344  1
  Si  Si92  1  0.01050731  0.35804561  0.91631472  1
  Si  Si93  1  0.51066642  0.35816035  0.91649102  1
  Si  Si94  1  0.16871012  0.97931401  0.91680832  1
  Si  Si95  1  0.66870589  0.97929358  0.91685269  1
  Si  Si96  1  0.31506708  0.97577429  0.41934878  1
  Si  Si97  1  0.82178650  0.97943215  0.41484405  1
  Si  Si98  1  0.16884619  0.35961184  0.41667751  1
  Si  Si99  1  0.67258853  0.36553380  0.41856272  1
  Si  Si100  1  0.01153639  0.66485286  0.41624525  1
  Si  Si101  1  0.51023576  0.65400407  0.41858624  1
  O  O102  1  0.08363260  0.98904258  0.30412801  1
  O  O103  1  0.61904161  0.01945561  0.31352567  1
  O  O104  1  0.38923792  0.75981941  0.31313035  1
  O  O105  1  0.91043397  0.82569471  0.30728708  1
  O  O106  1  0.49091621  0.22136246  0.31357014  1
  O  O107  1  0.00268862  0.17345462  0.30395012  1
  O  O108  1  0.08273466  0.17741552  0.80452172  1
  O  O109  1  0.58267189  0.17754565  0.80456328  1
  O  O110  1  0.50327281  0.83240728  0.80421996  1
  O  O111  1  0.00314333  0.83260439  0.80424799  1
  O  O112  1  0.40960034  0.99291699  0.80723798  1
  O  O113  1  0.90964470  0.99252205  0.80714488  1
  O  O114  1  0.40183030  0.96857644  0.69191052  1
  O  O115  1  0.90173700  0.96860215  0.69175735  1
  O  O116  1  0.08370331  0.19908694  0.69045369  1
  O  O117  1  0.58363868  0.19925506  0.69030960  1
  O  O118  1  0.01629701  0.83280175  0.69058127  1
  O  O119  1  0.51639360  0.83304505  0.69027969  1
  O  O120  1  0.40288112  0.83414240  0.19582050  1
  O  O121  1  0.90214270  0.83347815  0.19174499  1
  O  O122  1  0.01566180  0.19861499  0.19038882  1
  O  O123  1  0.51376668  0.19451715  0.19570342  1
  O  O124  1  0.08423591  0.96962512  0.18989929  1
  O  O125  1  0.58301094  0.97200179  0.19593022  1
  O  O126  1  0.44947290  0.35761863  0.64684749  1
  O  O127  1  0.94919726  0.35517850  0.64811537  1
  O  O128  1  0.22767342  0.09727987  0.64816870  1
  O  O129  1  0.72989475  0.10440597  0.64653432  1
  O  O130  1  0.32085228  0.54210430  0.64632161  1
  O  O131  1  0.82317091  0.54226125  0.64748289  1
  O  O132  1  0.45049549  0.54710908  0.14636841  1
  O  O133  1  0.95723838  0.55172940  0.14785159  1
  O  O134  1  0.31896626  0.08542971  0.14705079  1
  O  O135  1  0.82294665  0.10082030  0.14483529  1
  O  O136  1  0.22312653  0.35858791  0.14622948  1
  O  O137  1  0.72753708  0.35991809  0.14769417  1
  O  O138  1  0.23986623  0.30973166  0.03033627  1
  O  O139  1  0.74011988  0.30956918  0.03091900  1
  O  O140  1  0.41572018  0.52024075  0.03022686  1
  O  O141  1  0.91579694  0.51911677  0.03135598  1
  O  O142  1  0.34583535  0.16350570  0.02865848  1
  O  O143  1  0.84594354  0.16355049  0.02704254  1
  O  O144  1  0.23889828  0.16984922  0.53203680  1
  O  O145  1  0.73796462  0.16602294  0.52801382  1
  O  O146  1  0.34564240  0.52673816  0.52797605  1
  O  O147  1  0.84641089  0.52709654  0.52937561  1
  O  O148  1  0.41607132  0.30687083  0.52915385  1
  O  O149  1  0.91699128  0.31294688  0.53085587  1
  O  O150  1  0.29736505  0.72309952  0.97598112  1
  O  O151  1  0.79691358  0.72309909  0.97603229  1
  O  O152  1  0.05551197  0.40396839  0.97922929  1
  O  O153  1  0.55594928  0.40487893  0.97935601  1
  O  O154  1  0.14801877  0.88899923  0.97978991  1
  O  O155  1  0.64808996  0.88833007  0.97985414  1
  O  O156  1  0.28213038  0.87443420  0.48009427  1
  O  O157  1  0.80152007  0.88059769  0.47680309  1
  O  O158  1  0.14624190  0.40188194  0.48035802  1
  O  O159  1  0.65814063  0.43285796  0.48030484  1
  O  O160  1  0.05441468  0.70856582  0.48005353  1
  O  O161  1  0.55978824  0.68774999  0.47973096  1
  O  O162  1  0.07037378  0.64381626  0.36402532  1
  O  O163  1  0.57149208  0.64244606  0.36312305  1
  O  O164  1  0.25071536  0.85654913  0.36315032  1
  O  O165  1  0.74966370  0.86172605  0.36331335  1
  O  O166  1  0.17969639  0.50303544  0.36513253  1
  O  O167  1  0.68041473  0.49994495  0.36326693  1
  O  O168  1  0.07138741  0.49803586  0.86401989  1
  O  O169  1  0.57137128  0.49806420  0.86410473  1
  O  O170  1  0.18005930  0.85683096  0.86499235  1
  O  O171  1  0.68016382  0.85712065  0.86496484  1
  O  O172  1  0.25065390  0.64202180  0.86274834  1
  O  O173  1  0.75070347  0.64228708  0.86275573  1
  O  O174  1  0.99082855  0.81214832  0.40194178  1
  O  O175  1  0.49167351  0.80349461  0.41275289  1
  O  O176  1  0.40843956  0.01361615  0.41294629  1
  O  O177  1  0.91245861  0.00566607  0.39934291  1
  O  O178  1  0.09363278  0.17536506  0.40028994  1
  O  O179  1  0.59729264  0.17977527  0.41290296  1
  O  O180  1  0.99168650  0.17043601  0.90196869  1
  O  O181  1  0.49179249  0.17050217  0.90210786  1
  O  O182  1  0.09231507  0.00936470  0.90082087  1
  O  O183  1  0.59232969  0.00928790  0.90097348  1
  O  O184  1  0.41163793  0.82039419  0.90012473  1
  O  O185  1  0.91144749  0.82057271  0.90024905  1
  O  O186  1  0.47811491  0.14291162  0.58674539  1
  O  O187  1  0.97729941  0.14149950  0.58644154  1
  O  O188  1  0.09318874  0.04338101  0.58699773  1
  O  O189  1  0.59359238  0.04576397  0.58653052  1
  O  O190  1  0.42745907  0.81387695  0.58699736  1
  O  O191  1  0.92963870  0.81449868  0.58707761  1
  O  O192  1  0.47932401  0.81585789  0.08684451  1
  O  O193  1  0.97847933  0.81380798  0.08543898  1
  O  O194  1  0.42856349  0.03966468  0.08742527  1
  O  O195  1  0.92788509  0.03940758  0.08644903  1
  O  O196  1  0.09199705  0.14211449  0.08511842  1
  O  O197  1  0.59320863  0.14342105  0.08784842  1
  O  O198  1  0.34178792  0.14483310  0.75622223  1
  O  O199  1  0.84168263  0.14410178  0.75667794  1
  O  O200  1  0.22956947  0.31475539  0.75625253  1
  O  O201  1  0.72920970  0.31446843  0.75663841  1
  O  O202  1  0.42722110  0.54001121  0.75605271  1
  O  O203  1  0.92751212  0.54049638  0.75660987  1
  O  O204  1  0.32395462  0.51453344  0.24400735  1
  O  O205  1  0.84266475  0.53680991  0.25598008  1
  O  O206  1  0.43161652  0.34946037  0.24460592  1
  O  O207  1  0.92719247  0.31598021  0.25535303  1
  O  O208  1  0.23102206  0.14207725  0.25473373  1
  O  O209  1  0.74210817  0.13824708  0.24511225  1
  O  O210  1  0.32287490  0.49197798  0.92186883  1
  O  O211  1  0.82296549  0.49221819  0.92198217  1
  O  O212  1  0.42036396  0.34829939  0.91968323  1
  O  O213  1  0.92036054  0.34883801  0.91950019  1
  O  O214  1  0.25822588  0.15129753  0.91896133  1
  O  O215  1  0.75808435  0.15149070  0.91906450  1
  O  O216  1  0.31498971  0.15238998  0.42191688  1
  O  O217  1  0.81783066  0.15087849  0.42034342  1
  O  O218  1  0.25978626  0.37108567  0.41954642  1
  O  O219  1  0.76224143  0.37092587  0.41987494  1
  O  O220  1  0.42423972  0.47349387  0.41964227  1
  O  O221  1  0.92197111  0.49057775  0.42060490  1
  O  O222  1  0.16163730  0.47623255  0.07344567  1
  O  O223  1  0.66319342  0.47618311  0.07517693  1
  O  O224  1  0.07665419  0.67622323  0.07441339  1
  O  O225  1  0.57521808  0.67441149  0.07550920  1
  O  O226  1  0.26164897  0.84469738  0.07386329  1
  O  O227  1  0.76136569  0.84795032  0.07547911  1
  O  O228  1  0.16126784  0.84709833  0.57784758  1
  O  O229  1  0.66237971  0.85250420  0.57908431  1
  O  O230  1  0.26070114  0.67266385  0.57611242  1
  O  O231  1  0.76471008  0.67981646  0.58089734  1
  O  O232  1  0.07488283  0.47389631  0.57966441  1
  O  O233  1  0.57522144  0.47459986  0.57761869  1
  O  O234  1  0.14235726  0.80888526  0.25687183  1
  O  O235  1  0.64671315  0.80656453  0.25265381  1
  O  O236  1  0.25597234  0.71057152  0.25254911  1
  O  O237  1  0.76324587  0.71118937  0.25792941  1
  O  O238  1  0.09300431  0.47483676  0.25815144  1
  O  O239  1  0.59859224  0.48537482  0.25285647  1
  O  O240  1  0.14391865  0.47719626  0.75644009  1
  O  O241  1  0.64392302  0.47726738  0.75645187  1
  O  O242  1  0.09405426  0.71198023  0.75753309  1
  O  O243  1  0.59392538  0.71170375  0.75751977  1
  O  O244  1  0.26124919  0.81155389  0.75666625  1
  O  O245  1  0.76113331  0.81132199  0.75646666  1
