# generated using pymatgen
data_Na12Ta4Zn2(SiO4)9
_symmetry_space_group_name_H-M   'P 1'
_cell_length_a   9.14708036
_cell_length_b   9.14708004
_cell_length_c   22.39334827
_cell_angle_alpha   90.00000000
_cell_angle_beta   90.00000000
_cell_angle_gamma   120.00000117
_symmetry_Int_Tables_number   1
_chemical_formula_structural   Na12Ta4Zn2(SiO4)9
_chemical_formula_sum   'Na24 Ta8 Zn4 Si18 O72'
_cell_volume   1622.61181811
_cell_formula_units_Z   2
loop_
 _symmetry_equiv_pos_site_id
 _symmetry_equiv_pos_as_xyz
  1  'x, y, z'
loop_
 _atom_site_type_symbol
 _atom_site_label
 _atom_site_symmetry_multiplicity
 _atom_site_fract_x
 _atom_site_fract_y
 _atom_site_fract_z
 _atom_site_occupancy
  Na  Na0  1  0.64143731  0.02351448  0.24544987  1
  Na  Na1  1  0.38207717  0.35856269  0.24544987  1
  Na  Na2  1  0.97648552  0.61792283  0.24544987  1
  Na  Na3  1  0.64143731  0.61792283  0.74544987  1
  Na  Na4  1  0.97648552  0.35856269  0.74544987  1
  Na  Na5  1  0.38207717  0.02351448  0.74544987  1
  Na  Na6  1  0.31134196  0.33537777  0.58778387  1
  Na  Na7  1  0.02403682  0.68865804  0.58778387  1
  Na  Na8  1  0.66462223  0.97596318  0.58778387  1
  Na  Na9  1  0.31134196  0.97596318  0.08778387  1
  Na  Na10  1  0.66462223  0.68865804  0.08778387  1
  Na  Na11  1  0.02403682  0.33537777  0.08778387  1
  Na  Na12  1  0.96467195  0.68694569  0.90723540  1
  Na  Na13  1  0.72227274  0.03532805  0.90723540  1
  Na  Na14  1  0.31305431  0.27772726  0.90723540  1
  Na  Na15  1  0.96467195  0.27772726  0.40723540  1
  Na  Na16  1  0.31305431  0.03532805  0.40723540  1
  Na  Na17  1  0.72227274  0.68694569  0.40723540  1
  Na  Na18  1  0.00000000  -0.00000000  0.49197644  1
  Na  Na19  1  0.00000000  -0.00000000  0.99197644  1
  Na  Na20  1  0.66666700  0.33333300  0.82148077  1
  Na  Na21  1  0.66666700  0.33333300  0.32148077  1
  Na  Na22  1  0.33333300  0.66666700  0.16796310  1
  Na  Na23  1  0.33333300  0.66666700  0.66796310  1
  Ta  Ta24  1  0.00000000  -0.00000000  0.64900414  1
  Ta  Ta25  1  0.00000000  -0.00000000  0.14900414  1
  Ta  Ta26  1  0.66666700  0.33333300  0.97946943  1
  Ta  Ta27  1  0.66666700  0.33333300  0.47946943  1
  Ta  Ta28  1  0.33333300  0.66666700  0.01942222  1
  Ta  Ta29  1  0.33333300  0.66666700  0.51942222  1
  Ta  Ta30  1  0.33333300  0.66666700  0.31119874  1
  Ta  Ta31  1  0.33333300  0.66666700  0.81119874  1
  Zn  Zn32  1  0.00000000  -0.00000000  0.34838049  1
  Zn  Zn33  1  0.00000000  -0.00000000  0.84838049  1
  Zn  Zn34  1  0.66666700  0.33333300  0.68292107  1
  Zn  Zn35  1  0.66666700  0.33333300  0.18292107  1
  Si  Si36  1  0.29222377  0.00036232  0.25368933  1
  Si  Si37  1  0.70813855  0.70777623  0.25368933  1
  Si  Si38  1  -0.00036232  0.29186145  0.25368933  1
  Si  Si39  1  0.29222377  0.29186145  0.75368933  1
  Si  Si40  1  -0.00036232  0.70777623  0.75368933  1
  Si  Si41  1  0.70813855  0.00036232  0.75368933  1
  Si  Si42  1  0.95911959  0.33314189  0.58496615  1
  Si  Si43  1  0.37402330  0.04088041  0.58496615  1
  Si  Si44  1  0.66685811  0.62597670  0.58496615  1
  Si  Si45  1  0.95911959  0.62597670  0.08496615  1
  Si  Si46  1  0.66685811  0.04088041  0.08496615  1
  Si  Si47  1  0.37402330  0.33314189  0.08496615  1
  Si  Si48  1  0.62155423  0.66189915  0.91673223  1
  Si  Si49  1  0.04034392  0.37844577  0.91673223  1
  Si  Si50  1  0.33810085  0.95965608  0.91673223  1
  Si  Si51  1  0.62155423  0.95965608  0.41673223  1
  Si  Si52  1  0.33810085  0.37844577  0.41673223  1
  Si  Si53  1  0.04034392  0.66189915  0.41673223  1
  O  O54  1  0.21168512  0.02938119  0.31247247  1
  O  O55  1  0.81769608  0.78831488  0.31247247  1
  O  O56  1  0.97061881  0.18230392  0.31247247  1
  O  O57  1  0.21168512  0.18230392  0.81247247  1
  O  O58  1  0.97061881  0.78831488  0.81247247  1
  O  O59  1  0.81769608  0.02938119  0.81247247  1
  O  O60  1  0.80452968  0.97061937  0.69324813  1
  O  O61  1  0.16608969  0.19547032  0.69324813  1
  O  O62  1  0.02938063  0.83391031  0.69324813  1
  O  O63  1  0.80452968  0.83391031  0.19324813  1
  O  O64  1  0.02938063  0.19547032  0.19324813  1
  O  O65  1  0.16608969  0.97061937  0.19324813  1
  O  O66  1  0.89080280  0.38144852  0.64260429  1
  O  O67  1  0.49064672  0.10919720  0.64260429  1
  O  O68  1  0.61855148  0.50935328  0.64260429  1
  O  O69  1  0.89080280  0.50935328  0.14260429  1
  O  O70  1  0.61855148  0.10919720  0.14260429  1
  O  O71  1  0.49064672  0.38144852  0.14260429  1
  O  O72  1  0.46962258  0.30326724  0.02614792  1
  O  O73  1  0.83364566  0.53037742  0.02614792  1
  O  O74  1  0.69673276  0.16635434  0.02614792  1
  O  O75  1  0.46962258  0.16635434  0.52614792  1
  O  O76  1  0.69673276  0.53037742  0.52614792  1
  O  O77  1  0.83364566  0.30326724  0.52614792  1
  O  O78  1  0.51733412  0.67479784  0.97484021  1
  O  O79  1  0.15746272  0.48266588  0.97484021  1
  O  O80  1  0.32520216  0.84253728  0.97484021  1
  O  O81  1  0.51733412  0.84253728  0.47484021  1
  O  O82  1  0.32520216  0.48266588  0.47484021  1
  O  O83  1  0.15746272  0.67479784  0.47484021  1
  O  O84  1  0.13564508  0.63285038  0.35867658  1
  O  O85  1  0.49720430  0.86435492  0.35867658  1
  O  O86  1  0.36714962  0.50279570  0.35867658  1
  O  O87  1  0.13564508  0.50279570  0.85867658  1
  O  O88  1  0.36714962  0.86435492  0.85867658  1
  O  O89  1  0.49720430  0.63285038  0.85867658  1
  O  O90  1  0.02240337  0.82678735  0.41806235  1
  O  O91  1  0.80438398  0.97759663  0.41806235  1
  O  O92  1  0.17321265  0.19561602  0.41806235  1
  O  O93  1  0.02240337  0.19561602  0.91806235  1
  O  O94  1  0.17321265  0.97759663  0.91806235  1
  O  O95  1  0.80438398  0.82678735  0.91806235  1
  O  O96  1  0.97425239  0.16030688  0.58909537  1
  O  O97  1  0.18605449  0.02574761  0.58909537  1
  O  O98  1  0.83969312  0.81394551  0.58909537  1
  O  O99  1  0.97425239  0.81394551  0.08909537  1
  O  O100  1  0.83969312  0.02574761  0.08909537  1
  O  O101  1  0.18605449  0.16030688  0.08909537  1
  O  O102  1  0.67873869  0.15839554  0.74577773  1
  O  O103  1  0.47965786  0.32126131  0.74577773  1
  O  O104  1  0.84160446  0.52034214  0.74577773  1
  O  O105  1  0.67873869  0.52034214  0.24577773  1
  O  O106  1  0.84160446  0.32126131  0.24577773  1
  O  O107  1  0.47965786  0.15839554  0.24577773  1
  O  O108  1  0.63027713  0.48551784  0.92292310  1
  O  O109  1  0.85524171  0.36972287  0.92292310  1
  O  O110  1  0.51448216  0.14475829  0.92292310  1
  O  O111  1  0.63027713  0.14475829  0.42292310  1
  O  O112  1  0.51448216  0.36972287  0.42292310  1
  O  O113  1  0.85524171  0.48551784  0.42292310  1
  O  O114  1  0.34045183  0.49422048  0.07468356  1
  O  O115  1  0.15376765  0.65954817  0.07468356  1
  O  O116  1  0.50577952  0.84623235  0.07468356  1
  O  O117  1  0.34045183  0.84623235  0.57468356  1
  O  O118  1  0.50577952  0.65954817  0.57468356  1
  O  O119  1  0.15376765  0.49422048  0.57468356  1
  O  O120  1  0.29628738  0.81792390  0.25500595  1
  O  O121  1  0.52163551  0.70371262  0.25500595  1
  O  O122  1  0.18207610  0.47836449  0.25500595  1
  O  O123  1  0.29628738  0.47836449  0.75500595  1
  O  O124  1  0.18207610  0.70371262  0.75500595  1
  O  O125  1  0.52163551  0.81792390  0.75500595  1
