# generated using pymatgen
data_Li8Nb2O9
_symmetry_space_group_name_H-M   'P 1'
_cell_length_a   5.86059300
_cell_length_b   8.79241979
_cell_length_c   15.17605624
_cell_angle_alpha   87.09864813
_cell_angle_beta   100.86554220
_cell_angle_gamma   109.33700738
_symmetry_Int_Tables_number   1
_chemical_formula_structural   Li8Nb2O9
_chemical_formula_sum   'Li32 Nb8 O36'
_cell_volume   724.60144831
_cell_formula_units_Z   4
loop_
 _symmetry_equiv_pos_site_id
 _symmetry_equiv_pos_as_xyz
  1  'x, y, z'
loop_
 _atom_site_type_symbol
 _atom_site_label
 _atom_site_symmetry_multiplicity
 _atom_site_fract_x
 _atom_site_fract_y
 _atom_site_fract_z
 _atom_site_occupancy
  Li  Li0  1  0.40503789  0.90804311  0.64256469  1
  Li  Li1  1  0.59496211  0.09195689  0.35743531  1
  Li  Li2  1  0.97533958  0.84083265  0.85202399  1
  Li  Li3  1  0.02466042  0.15916735  0.14797601  1
  Li  Li4  1  0.13403268  0.34024830  0.65985133  1
  Li  Li5  1  0.86596732  0.65975170  0.34014867  1
  Li  Li6  1  0.25512528  0.40827371  0.84656945  1
  Li  Li7  1  0.74487472  0.59172629  0.15343055  1
  Li  Li8  1  0.79093351  0.12418400  0.73725302  1
  Li  Li9  1  0.20906649  0.87581600  0.26274698  1
  Li  Li10  1  0.32929369  0.12343727  0.73783851  1
  Li  Li11  1  0.67070631  0.87656273  0.26216149  1
  Li  Li12  1  0.05302817  0.62444690  0.76096697  1
  Li  Li13  1  0.94697183  0.37555310  0.23903303  1
  Li  Li14  1  0.59183319  0.62189260  0.76295939  1
  Li  Li15  1  0.40816681  0.37810740  0.23704061  1
  Li  Li16  1  0.43199908  0.12173751  0.96205583  1
  Li  Li17  1  0.56800092  0.87826249  0.03794417  1
  Li  Li18  1  0.91705387  0.12150344  0.97677923  1
  Li  Li19  1  0.08294613  0.87849656  0.02322077  1
  Li  Li20  1  0.17238337  0.62789577  0.94513327  1
  Li  Li21  1  0.82761663  0.37210423  0.05486673  1
  Li  Li22  1  0.67615019  0.63041747  0.96297716  1
  Li  Li23  1  0.32384981  0.36958253  0.03702284  1
  Li  Li24  1  0.70485506  0.12570652  0.53920529  1
  Li  Li25  1  0.29514494  0.87429348  0.46079471  1
  Li  Li26  1  0.21486877  0.12728882  0.55014946  1
  Li  Li27  1  0.78513123  0.87271118  0.44985054  1
  Li  Li28  1  0.94020775  0.62263414  0.52217106  1
  Li  Li29  1  0.05979225  0.37736586  0.47782894  1
  Li  Li30  1  0.47773859  0.62636774  0.54275584  1
  Li  Li31  1  0.52226141  0.37363226  0.45724416  1
  Nb  Nb32  1  0.89298446  0.87666103  0.64419045  1
  Nb  Nb33  1  0.25681042  0.62689701  0.13825965  1
  Nb  Nb34  1  0.74318958  0.37310299  0.86174035  1
  Nb  Nb35  1  0.35782803  0.62491443  0.35680597  1
  Nb  Nb36  1  0.64217197  0.37508557  0.64319403  1
  Nb  Nb37  1  0.50555594  0.12681315  0.14991733  1
  Nb  Nb38  1  0.49444406  0.87318685  0.85008267  1
  Nb  Nb39  1  0.10701554  0.12333897  0.35580955  1
  O  O40  1  0.98636568  0.89185371  0.34441236  1
  O  O41  1  0.13899818  0.39382153  0.14364712  1
  O  O42  1  0.86100182  0.60617847  0.85635288  1
  O  O43  1  0.46422434  0.63672618  0.05345929  1
  O  O44  1  0.53577566  0.36327382  0.94654071  1
  O  O45  1  0.97115675  0.64148559  0.05797570  1
  O  O46  1  0.02884325  0.35851441  0.94202430  1
  O  O47  1  0.47736918  0.85804978  0.35632972  1
  O  O48  1  0.69464502  0.87649034  0.75051240  1
  O  O49  1  0.30535498  0.12350966  0.24948760  1
  O  O50  1  0.19179986  0.87233221  0.74704580  1
  O  O51  1  0.80820014  0.12766779  0.25295420  1
  O  O52  1  0.76447386  0.62666212  0.65691569  1
  O  O53  1  0.23552614  0.37333788  0.34308431  1
  O  O54  1  0.60417803  0.12381183  0.84240608  1
  O  O55  1  0.39582197  0.87618817  0.15759392  1
  O  O56  1  0.45576504  0.37398224  0.75223164  1
  O  O57  1  0.54423496  0.62601776  0.24776836  1
  O  O58  1  0.92759734  0.37484075  0.74945462  1
  O  O59  1  0.07240266  0.62515925  0.25054538  1
  O  O60  1  0.08082586  0.86486204  0.55513956  1
  O  O61  1  0.91917414  0.13513796  0.44486044  1
  O  O62  1  0.15943615  0.61369486  0.44524703  1
  O  O63  1  0.40196922  0.13393424  0.44163119  1
  O  O64  1  0.01363432  0.10814629  0.65558764  1
  O  O65  1  0.52263082  0.14195022  0.64367028  1
  O  O66  1  0.78053732  0.88549236  0.94189125  1
  O  O67  1  0.21946268  0.11450764  0.05810875  1
  O  O68  1  0.29396089  0.88385529  0.93755447  1
  O  O69  1  0.70603911  0.11614471  0.06244553  1
  O  O70  1  0.36968458  0.64082215  0.84378510  1
  O  O71  1  0.63031542  0.35917785  0.15621490  1
  O  O72  1  0.35179456  0.38710413  0.56185303  1
  O  O73  1  0.64820544  0.61289587  0.43814697  1
  O  O74  1  0.84056385  0.38630514  0.55475297  1
  O  O75  1  0.59803078  0.86606576  0.55836881  1
