# generated using pymatgen
data_Na2AlInP2SO12
_symmetry_space_group_name_H-M   'P 1'
_cell_length_a   8.72777130
_cell_length_b   8.73104297
_cell_length_c   22.23774441
_cell_angle_alpha   90.55590890
_cell_angle_beta   89.54175092
_cell_angle_gamma   120.10488500
_symmetry_Int_Tables_number   1
_chemical_formula_structural   Na2AlInP2SO12
_chemical_formula_sum   'Na12 Al6 In6 P12 S6 O72'
_cell_volume   1465.91095095
_cell_formula_units_Z   6
loop_
 _symmetry_equiv_pos_site_id
 _symmetry_equiv_pos_as_xyz
  1  'x, y, z'
loop_
 _atom_site_type_symbol
 _atom_site_label
 _atom_site_symmetry_multiplicity
 _atom_site_fract_x
 _atom_site_fract_y
 _atom_site_fract_z
 _atom_site_occupancy
  Na  Na0  1  0.99699365  0.63669857  0.25387521  1
  Na  Na1  1  0.36974344  0.00785885  0.75011037  1
  Na  Na2  1  0.66178051  0.95712761  0.58657003  1
  Na  Na3  1  0.03828568  0.33461266  0.08703569  1
  Na  Na4  1  0.32711946  0.30065508  0.91954406  1
  Na  Na5  1  0.69718696  0.67170175  0.41960666  1
  Na  Na6  1  0.02648047  0.99885648  0.49961597  1
  Na  Na7  1  0.00448170  0.97701791  0.00141011  1
  Na  Na8  1  0.69068042  0.33000756  0.83116497  1
  Na  Na9  1  0.66630542  0.31096134  0.33513393  1
  Na  Na10  1  0.35648073  0.66450548  0.17240562  1
  Na  Na11  1  0.33444085  0.64640578  0.66368981  1
  Al  Al12  1  0.98427576  0.99631949  0.34895830  1
  Al  Al13  1  0.00402740  0.99797121  0.64526711  1
  Al  Al14  1  0.65666393  0.33222656  0.68169224  1
  Al  Al15  1  0.66763633  0.34720416  0.18835254  1
  Al  Al16  1  0.66688279  0.33066823  0.48211420  1
  Al  Al17  1  0.33300442  0.66704034  0.31970225  1
  In  In18  1  0.99830538  0.00737820  0.84485479  1
  In  In19  1  0.00064506  0.99878965  0.15689227  1
  In  In20  1  0.66739049  0.33055831  0.98355308  1
  In  In21  1  0.32800410  0.67150018  0.02198617  1
  In  In22  1  0.33113225  0.67293975  0.51622131  1
  In  In23  1  0.33572291  0.66404411  0.80971543  1
  P  P24  1  0.69122051  0.69981311  0.25398392  1
  P  P25  1  0.00237458  0.30112512  0.25278557  1
  P  P26  1  0.29752134  0.29136652  0.74313372  1
  P  P27  1  0.71197496  0.01214875  0.74065096  1
  P  P28  1  0.37635295  0.05627475  0.58358398  1
  P  P29  1  0.67765665  0.62107249  0.58236852  1
  P  P30  1  0.95489799  0.62695046  0.08946371  1
  P  P31  1  0.37823355  0.33344102  0.08715701  1
  P  P32  1  0.03377743  0.36828033  0.91709519  1
  P  P33  1  0.33197353  0.96428456  0.91293443  1
  P  P34  1  0.63086879  0.96794334  0.41604818  1
  P  P35  1  0.03454113  0.66972090  0.41388172  1
  S  S36  1  0.30289417  0.00077765  0.25482439  1
  S  S37  1  0.98510796  0.69789630  0.74291303  1
  S  S38  1  0.94850610  0.32991969  0.58384120  1
  S  S39  1  0.66440975  0.04342852  0.09026102  1
  S  S40  1  0.63552393  0.67145787  0.91676229  1
  S  S41  1  0.32451274  0.36289746  0.41463372  1
  O  O42  1  0.20808231  0.02815907  0.30502221  1
  O  O43  1  0.82703650  0.79115580  0.30606893  1
  O  O44  1  0.97727471  0.16806252  0.30183544  1
  O  O45  1  0.23993369  0.19177337  0.80459078  1
  O  O46  1  0.95720809  0.76359574  0.80111034  1
  O  O47  1  0.80591965  0.03510747  0.80068495  1
  O  O48  1  0.80751315  0.98561299  0.68622467  1
  O  O49  1  0.16929478  0.17914652  0.69352510  1
  O  O50  1  0.01005624  0.81893843  0.69327546  1
  O  O51  1  0.76031217  0.80986631  0.19664291  1
  O  O52  1  0.04218450  0.24246993  0.19153161  1
  O  O53  1  0.19469390  0.95163747  0.19874435  1
  O  O54  1  0.86166144  0.34818723  0.63786549  1
  O  O55  1  0.49213103  0.13816008  0.63998280  1
  O  O56  1  0.65838852  0.50680140  0.63617844  1
  O  O57  1  0.85921735  0.51156341  0.14551846  1
  O  O58  1  0.65606773  0.14414074  0.14221575  1
  O  O59  1  0.49366177  0.33877801  0.13969278  1
  O  O60  1  0.44377462  0.31248208  0.02447177  1
  O  O61  1  0.86098849  0.54504632  0.03020059  1
  O  O62  1  0.68682167  0.13351138  0.03225316  1
  O  O63  1  0.47055927  0.16752764  0.52754785  1
  O  O64  1  0.69545279  0.53636103  0.52260698  1
  O  O65  1  0.84217064  0.30537241  0.52880228  1
  O  O66  1  0.55408247  0.69065722  0.97248076  1
  O  O67  1  0.14015988  0.44368405  0.97676777  1
  O  O68  1  0.32014384  0.86146433  0.96989059  1
  O  O69  1  0.57583083  0.85415808  0.47477200  1
  O  O70  1  0.28601646  0.42698362  0.47173482  1
  O  O71  1  0.14273389  0.70876362  0.47161935  1
  O  O72  1  0.12837648  0.64113012  0.35928964  1
  O  O73  1  0.49883379  0.86315913  0.36598651  1
  O  O74  1  0.35990084  0.48996686  0.36519236  1
  O  O75  1  0.12969300  0.47691458  0.86129707  1
  O  O76  1  0.35430829  0.88619922  0.85273424  1
  O  O77  1  0.53010115  0.64831678  0.86250078  1
  O  O78  1  0.00817921  0.83281269  0.40351760  1
  O  O79  1  0.81615845  0.98963922  0.40243900  1
  O  O80  1  0.17331004  0.18499163  0.40257142  1
  O  O81  1  0.01911783  0.18366986  0.91438093  1
  O  O82  1  0.16229502  0.97936906  0.91164893  1
  O  O83  1  0.81255501  0.82778545  0.91315190  1
  O  O84  1  0.96515483  0.16683817  0.58708559  1
  O  O85  1  0.18921163  0.03445694  0.59041743  1
  O  O86  1  0.84093857  0.81280057  0.58871281  1
  O  O87  1  0.97760890  0.81233031  0.09205838  1
  O  O88  1  0.82443111  0.02567509  0.09238697  1
  O  O89  1  0.18705530  0.17410998  0.09080638  1
  O  O90  1  0.68842558  0.17713840  0.73481982  1
  O  O91  1  0.48555103  0.31608007  0.73530809  1
  O  O92  1  0.83372605  0.51898945  0.73513611  1
  O  O93  1  0.68024306  0.51599766  0.24589805  1
  O  O94  1  0.83333617  0.31971491  0.24664186  1
  O  O95  1  0.47782348  0.16099481  0.24661671  1
  O  O96  1  0.64603287  0.50743087  0.91786839  1
  O  O97  1  0.85073521  0.35188898  0.91814620  1
  O  O98  1  0.49273906  0.15557247  0.91532308  1
  O  O99  1  0.64500511  0.15007314  0.42642218  1
  O  O100  1  0.49208859  0.35557252  0.42064336  1
  O  O101  1  0.84615542  0.50233600  0.42179491  1
  O  O102  1  0.36579540  0.50563947  0.08797426  1
  O  O103  1  0.13841539  0.63540240  0.09057286  1
  O  O104  1  0.50253614  0.86844070  0.09024537  1
  O  O105  1  0.36088328  0.87006461  0.58078469  1
  O  O106  1  0.51054567  0.64384992  0.58014319  1
  O  O107  1  0.12742106  0.48778255  0.58063876  1
  O  O108  1  0.32396175  0.84306642  0.26468524  1
  O  O109  1  0.50772819  0.67521984  0.26781691  1
  O  O110  1  0.16180701  0.48993230  0.26478074  1
  O  O111  1  0.30848487  0.47247799  0.74516611  1
  O  O112  1  0.15271186  0.69184572  0.74420991  1
  O  O113  1  0.52112775  0.84740680  0.74253220  1
