# generated using pymatgen
data_Na7La3ZnSi3(SO8)3
_symmetry_space_group_name_H-M   'P 1'
_cell_length_a   9.67390249
_cell_length_b   9.58958667
_cell_length_c   23.63230361
_cell_angle_alpha   89.45171722
_cell_angle_beta   90.00283946
_cell_angle_gamma   119.50106826
_symmetry_Int_Tables_number   1
_chemical_formula_structural   Na7La3ZnSi3(SO8)3
_chemical_formula_sum   'Na21 La9 Zn3 Si9 S9 O72'
_cell_volume   1907.97960750
_cell_formula_units_Z   3
loop_
 _symmetry_equiv_pos_site_id
 _symmetry_equiv_pos_as_xyz
  1  'x, y, z'
loop_
 _atom_site_type_symbol
 _atom_site_label
 _atom_site_symmetry_multiplicity
 _atom_site_fract_x
 _atom_site_fract_y
 _atom_site_fract_z
 _atom_site_occupancy
  Na  Na0  1  0.64111877  0.00909546  0.23759274  1
  Na  Na1  1  0.40610518  0.37426533  0.23468130  1
  Na  Na2  1  0.96750418  0.62167652  0.25428151  1
  Na  Na3  1  0.62645809  0.61780397  0.73187376  1
  Na  Na4  1  0.97817999  0.33938415  0.74391826  1
  Na  Na5  1  0.39731314  0.03651932  0.75287668  1
  Na  Na6  1  0.00913858  0.69408639  0.57448545  1
  Na  Na7  1  0.67107490  0.94935159  0.58968626  1
  Na  Na8  1  0.32490920  0.99507779  0.08147668  1
  Na  Na9  1  0.65488680  0.69550784  0.10126875  1
  Na  Na10  1  0.68202456  0.03546480  0.91577572  1
  Na  Na11  1  0.34041986  0.28947647  0.91899286  1
  Na  Na12  1  0.95740068  0.28698674  0.40276062  1
  Na  Na13  1  0.31452777  0.01070603  0.40788079  1
  Na  Na14  1  0.71912718  0.68490894  0.41682430  1
  Na  Na15  1  0.97887383  0.97623895  0.48798379  1
  Na  Na16  1  0.02372174  0.02022345  0.00564473  1
  Na  Na17  1  0.64508640  0.30869256  0.82354173  1
  Na  Na18  1  0.68253094  0.34961003  0.32533038  1
  Na  Na19  1  0.35347109  0.65750845  0.16287719  1
  Na  Na20  1  0.36170996  0.64703104  0.66783143  1
  La  La21  1  0.01244642  0.00669903  0.84453662  1
  La  La22  1  0.00209595  0.00808808  0.65295318  1
  La  La23  1  0.99032620  0.01364034  0.15089508  1
  La  La24  1  0.66404096  0.32469191  0.98907129  1
  La  La25  1  0.66977185  0.34305628  0.48444232  1
  La  La26  1  0.32955095  0.67284110  0.02080461  1
  La  La27  1  0.34900582  0.66864809  0.51470541  1
  La  La28  1  0.34440829  0.67683009  0.32024875  1
  La  La29  1  0.34073719  0.68103149  0.81722462  1
  Zn  Zn30  1  0.94608189  0.93829380  0.35293465  1
  Zn  Zn31  1  0.63949508  0.33410521  0.68467063  1
  Zn  Zn32  1  0.65427439  0.33013540  0.16900968  1
  Si  Si33  1  0.69530912  0.68121492  0.24915015  1
  Si  Si34  1  0.31532401  0.31331130  0.75187299  1
  Si  Si35  1  0.69357016  0.01583865  0.74673210  1
  Si  Si36  1  0.66864916  0.63444298  0.58827888  1
  Si  Si37  1  0.65917731  0.02954809  0.08841172  1
  Si  Si38  1  0.36816838  0.33581544  0.08560924  1
  Si  Si39  1  0.33276248  0.98203285  0.91713017  1
  Si  Si40  1  0.65224403  0.97962263  0.41484531  1
  Si  Si41  1  0.03185472  0.67508284  0.41671233  1
  S  S42  1  0.30282843  0.00620900  0.25200959  1
  S  S43  1  0.99687772  0.30535950  0.25712509  1
  S  S44  1  0.99070703  0.68017935  0.74630544  1
  S  S45  1  0.96618632  0.34034446  0.58650199  1
  S  S46  1  0.36873326  0.02775730  0.58617029  1
  S  S47  1  0.96453778  0.63228295  0.09003177  1
  S  S48  1  0.64063273  0.67108014  0.91722473  1
  S  S49  1  0.02667507  0.35774773  0.91408244  1
  S  S50  1  0.32015727  0.34578758  0.41332934  1
  O  O51  1  0.21994927  0.01393365  0.30355318  1
  O  O52  1  0.80172513  0.76449207  0.30644527  1
  O  O53  1  0.99379783  0.21594136  0.30892429  1
  O  O54  1  0.23830411  0.21448783  0.81169514  1
  O  O55  1  0.97577875  0.76932950  0.79508353  1
  O  O56  1  0.80360611  0.03824486  0.80368488  1
  O  O57  1  0.77579812  0.97792222  0.69207646  1
  O  O58  1  0.18801015  0.21112915  0.70202195  1
  O  O59  1  0.01736041  0.77750961  0.69376659  1
  O  O60  1  0.78062874  0.79903072  0.19408543  1
  O  O61  1  0.01908821  0.22750059  0.20650885  1
  O  O62  1  0.21060155  0.99660183  0.20032679  1
  O  O63  1  0.87892028  0.34396237  0.63663087  1
  O  O64  1  0.46126114  0.11694931  0.63570521  1
  O  O65  1  0.66495878  0.52757333  0.64358002  1
  O  O66  1  0.88032306  0.53918507  0.14143382  1
  O  O67  1  0.66032936  0.13646581  0.14338713  1
  O  O68  1  0.48096842  0.35701384  0.14086679  1
  O  O69  1  0.45255402  0.32497166  0.02643215  1
  O  O70  1  0.87800116  0.55320906  0.03792912  1
  O  O71  1  0.67125864  0.11836982  0.02746517  1
  O  O72  1  0.44242033  0.11304518  0.53211554  1
  O  O73  1  0.67580664  0.55255331  0.52815614  1
  O  O74  1  0.87891988  0.33154353  0.53314832  1
  O  O75  1  0.55115740  0.67770337  0.96752747  1
  O  O76  1  0.12739063  0.45046986  0.96227426  1
  O  O77  1  0.32951422  0.87909934  0.97372261  1
  O  O78  1  0.56533724  0.86404765  0.47089745  1
  O  O79  1  0.30712711  0.43404670  0.46275133  1
  O  O80  1  0.13810484  0.69124547  0.47405937  1
  O  O81  1  0.11593721  0.64427328  0.36137169  1
  O  O82  1  0.53917045  0.89525793  0.35970999  1
  O  O83  1  0.34914700  0.44561594  0.36143529  1
  O  O84  1  0.10286228  0.43706458  0.85984399  1
  O  O85  1  0.34034285  0.89104636  0.85922471  1
  O  O86  1  0.54637686  0.65509893  0.86527507  1
  O  O87  1  0.02675893  0.84522064  0.41203581  1
  O  O88  1  0.82949921  0.99405495  0.41003210  1
  O  O89  1  0.17468640  0.18926793  0.40977217  1
  O  O90  1  0.00954768  0.19328397  0.91769607  1
  O  O91  1  0.17874463  0.01230697  0.91901825  1
  O  O92  1  0.79436629  0.82365461  0.91483211  1
  O  O93  1  0.98501672  0.19436277  0.58564203  1
  O  O94  1  0.20124462  0.99587208  0.58763139  1
  O  O95  1  0.83540965  0.81369885  0.58637970  1
  O  O96  1  0.98067754  0.79600958  0.09034386  1
  O  O97  1  0.80246011  0.98324265  0.08707929  1
  O  O98  1  0.19877081  0.16392538  0.08774526  1
  O  O99  1  0.68310162  0.18215221  0.73853649  1
  O  O100  1  0.48995416  0.32412806  0.74627883  1
  O  O101  1  0.84645993  0.52172607  0.74416139  1
  O  O102  1  0.68524555  0.50343411  0.24401850  1
  O  O103  1  0.84572649  0.31106385  0.25290971  1
  O  O104  1  0.46541459  0.14930980  0.24947108  1
  O  O105  1  0.66273853  0.52946857  0.91980149  1
  O  O106  1  0.86496736  0.33877193  0.91664741  1
  O  O107  1  0.50081391  0.15871105  0.91480924  1
  O  O108  1  0.67281597  0.15987116  0.41956422  1
  O  O109  1  0.46135393  0.32174631  0.41940288  1
  O  O110  1  0.84696504  0.52437357  0.41919746  1
  O  O111  1  0.35392687  0.50045856  0.08528530  1
  O  O112  1  0.12861525  0.65445670  0.08931685  1
  O  O113  1  0.48742920  0.85672525  0.09087279  1
  O  O114  1  0.36242729  0.86739357  0.58620656  1
  O  O115  1  0.51592655  0.66851761  0.58944095  1
  O  O116  1  0.12472206  0.48960273  0.58453039  1
  O  O117  1  0.31983808  0.85755619  0.25178345  1
  O  O118  1  0.51203512  0.65811927  0.25116032  1
  O  O119  1  0.13410499  0.47356712  0.25648383  1
  O  O120  1  0.33917303  0.49614408  0.75084985  1
  O  O121  1  0.13169552  0.65692098  0.75275087  1
  O  O122  1  0.51094836  0.86027841  0.75125789  1
