# generated using pymatgen
data_Na3Zr3InSi3(SO8)3
_symmetry_space_group_name_H-M   'P 1'
_cell_length_a   9.04166535
_cell_length_b   9.10382032
_cell_length_c   23.44601297
_cell_angle_alpha   89.81975340
_cell_angle_beta   90.23575124
_cell_angle_gamma   120.24684218
_symmetry_Int_Tables_number   1
_chemical_formula_structural   Na3Zr3InSi3(SO8)3
_chemical_formula_sum   'Na9 Zr9 In3 Si9 S9 O72'
_cell_volume   1667.17851255
_cell_formula_units_Z   3
loop_
 _symmetry_equiv_pos_site_id
 _symmetry_equiv_pos_as_xyz
  1  'x, y, z'
loop_
 _atom_site_type_symbol
 _atom_site_label
 _atom_site_symmetry_multiplicity
 _atom_site_fract_x
 _atom_site_fract_y
 _atom_site_fract_z
 _atom_site_occupancy
  Na  Na0  1  0.35542127  0.35884568  0.24306846  1
  Na  Na1  1  0.63669950  0.62453986  0.75358361  1
  Na  Na2  1  0.96878837  0.28724111  0.41528705  1
  Na  Na3  1  0.99411418  0.00764394  0.49680087  1
  Na  Na4  1  0.99633418  0.98600178  0.00226565  1
  Na  Na5  1  0.66443479  0.34051603  0.83057982  1
  Na  Na6  1  0.66986673  0.32118120  0.32958744  1
  Na  Na7  1  0.30671076  0.65381814  0.16310457  1
  Na  Na8  1  0.29722863  0.64718347  0.66635954  1
  Zr  Zr9  1  0.00540088  0.99161534  0.85193918  1
  Zr  Zr10  1  0.01203654  0.01528265  0.64751149  1
  Zr  Zr11  1  0.00936322  0.01103366  0.14438868  1
  Zr  Zr12  1  0.66499542  0.35471448  0.98198669  1
  Zr  Zr13  1  0.66169457  0.31960240  0.47935285  1
  Zr  Zr14  1  0.33846522  0.65775492  0.02214984  1
  Zr  Zr15  1  0.33237054  0.65442000  0.51762589  1
  Zr  Zr16  1  0.33669761  0.66333310  0.31545856  1
  Zr  Zr17  1  0.32452314  0.65420673  0.81241923  1
  In  In18  1  0.99317311  0.00856414  0.35255218  1
  In  In19  1  0.67856311  0.33992549  0.68645816  1
  In  In20  1  0.68773055  0.34594490  0.18035264  1
  Si  Si21  1  0.99260165  0.29562119  0.25114783  1
  Si  Si22  1  0.29735323  0.29096557  0.75052894  1
  Si  Si23  1  0.00272286  0.71066871  0.74791827  1
  Si  Si24  1  0.95989533  0.33365047  0.58351945  1
  Si  Si25  1  0.96600560  0.63470847  0.08343457  1
  Si  Si26  1  0.37955169  0.33467669  0.08738570  1
  Si  Si27  1  0.62898850  0.67311082  0.91492529  1
  Si  Si28  1  0.62402051  0.95384945  0.41730018  1
  Si  Si29  1  0.33683862  0.37034549  0.41537952  1
  S  S30  1  0.28971028  0.99806699  0.25058391  1
  S  S31  1  0.70949953  0.70897133  0.25110097  1
  S  S32  1  0.71028618  0.99887734  0.75109392  1
  S  S33  1  0.37378415  0.03817309  0.58385449  1
  S  S34  1  0.66775984  0.62735286  0.58359078  1
  S  S35  1  0.66543548  0.04214577  0.08202189  1
  S  S36  1  0.03843186  0.37151581  0.91728512  1
  S  S37  1  0.33813165  0.95733813  0.91705778  1
  S  S38  1  0.04307476  0.66883552  0.41687504  1
  O  O39  1  0.20769879  0.01909321  0.30207247  1
  O  O40  1  0.81181734  0.78409438  0.30320100  1
  O  O41  1  0.97347514  0.19779008  0.31153262  1
  O  O42  1  0.19902296  0.17895653  0.80657701  1
  O  O43  1  0.97158134  0.80213672  0.80413501  1
  O  O44  1  0.81557404  0.02159017  0.80221568  1
  O  O45  1  0.78829547  0.97183033  0.69947936  1
  O  O46  1  0.17650837  0.20667265  0.69392741  1
  O  O47  1  0.02031827  0.82678844  0.69223950  1
  O  O48  1  0.79259038  0.80918743  0.19987898  1
  O  O49  1  0.02675696  0.19606817  0.19810293  1
  O  O50  1  0.18316402  0.97322567  0.19893994  1
  O  O51  1  0.87404961  0.36076571  0.63962008  1
  O  O52  1  0.47468979  0.11593382  0.63585477  1
  O  O53  1  0.63628219  0.52901803  0.63716983  1
  O  O54  1  0.90199941  0.52087220  0.14031144  1
  O  O55  1  0.63389748  0.11042875  0.13463479  1
  O  O56  1  0.47891758  0.35726642  0.14750586  1
  O  O57  1  0.47106105  0.30729677  0.03145304  1
  O  O58  1  0.84332042  0.53728230  0.02746728  1
  O  O59  1  0.69161790  0.14780829  0.03141491  1
  O  O60  1  0.45661024  0.14680843  0.53256966  1
  O  O61  1  0.68567435  0.53792821  0.53390863  1
  O  O62  1  0.84747793  0.31385243  0.52509104  1
  O  O63  1  0.52746752  0.68926649  0.96945011  1
  O  O64  1  0.14476034  0.45651222  0.96794501  1
  O  O65  1  0.31113151  0.85285779  0.96808385  1
  O  O66  1  0.52251494  0.84366561  0.47326523  1
  O  O67  1  0.30008757  0.46496649  0.46898586  1
  O  O68  1  0.14696482  0.69259390  0.46840258  1
  O  O69  1  0.12201638  0.63723379  0.36586107  1
  O  O70  1  0.50515967  0.86603909  0.36062123  1
  O  O71  1  0.35852769  0.48538372  0.35773877  1
  O  O72  1  0.11905975  0.47940141  0.86533110  1
  O  O73  1  0.35243204  0.87177916  0.86503153  1
  O  O74  1  0.51499947  0.65030376  0.85694156  1
  O  O75  1  0.02357577  0.81760416  0.40971613  1
  O  O76  1  0.81381970  0.97566212  0.41583740  1
  O  O77  1  0.16592184  0.18374208  0.41308125  1
  O  O78  1  0.02743619  0.20510493  0.91108052  1
  O  O79  1  0.18421577  0.97879781  0.91173555  1
  O  O80  1  0.81949022  0.84428940  0.91089319  1
  O  O81  1  0.97559594  0.16032499  0.58789104  1
  O  O82  1  0.20095742  0.02163885  0.58693788  1
  O  O83  1  0.82259832  0.79797397  0.58751097  1
  O  O84  1  0.97367965  0.81791740  0.09067175  1
  O  O85  1  0.81925277  0.02221315  0.08844433  1
  O  O86  1  0.18530746  0.16656960  0.08917376  1
  O  O87  1  0.68692788  0.14701579  0.74656495  1
  O  O88  1  0.48775657  0.31600050  0.74426218  1
  O  O89  1  0.82873857  0.52541525  0.74760808  1
  O  O90  1  0.67459811  0.53105881  0.24774455  1
  O  O91  1  0.82190647  0.31175460  0.24574099  1
  O  O92  1  0.45858182  0.15569411  0.24531682  1
  O  O93  1  0.64402149  0.49955757  0.92011925  1
  O  O94  1  0.86653059  0.35034584  0.92227207  1
  O  O95  1  0.49378606  0.12648134  0.92133401  1
  O  O96  1  0.65367222  0.15031370  0.42247510  1
  O  O97  1  0.51168631  0.36477915  0.42468276  1
  O  O98  1  0.87332365  0.50963870  0.42265828  1
  O  O99  1  0.35800351  0.50248294  0.07798014  1
  O  O100  1  0.15770157  0.66481436  0.07080089  1
  O  O101  1  0.51380860  0.86867315  0.07505983  1
  O  O102  1  0.35379908  0.86839200  0.57656007  1
  O  O103  1  0.51497689  0.64886189  0.57657653  1
  O  O104  1  0.15143425  0.50421201  0.57681841  1
  O  O105  1  0.30912520  0.84579493  0.25505207  1
  O  O106  1  0.53624155  0.69665499  0.25505692  1
  O  O107  1  0.17525931  0.48502248  0.25437111  1
  O  O108  1  0.32305071  0.48516289  0.75657019  1
  O  O109  1  0.17474185  0.69684746  0.75673466  1
  O  O110  1  0.54028290  0.83961277  0.75653616  1
