# generated using pymatgen
data_Na3Ta3InSi3(PO8)3
_symmetry_space_group_name_H-M   'P 1'
_cell_length_a   8.90955613
_cell_length_b   8.91569364
_cell_length_c   22.71925804
_cell_angle_alpha   89.95119524
_cell_angle_beta   90.01250131
_cell_angle_gamma   119.84064548
_symmetry_Int_Tables_number   1
_chemical_formula_structural   Na3Ta3InSi3(PO8)3
_chemical_formula_sum   'Na9 Ta9 In3 Si9 P9 O72'
_cell_volume   1565.42025081
_cell_formula_units_Z   3
loop_
 _symmetry_equiv_pos_site_id
 _symmetry_equiv_pos_as_xyz
  1  'x, y, z'
loop_
 _atom_site_type_symbol
 _atom_site_label
 _atom_site_symmetry_multiplicity
 _atom_site_fract_x
 _atom_site_fract_y
 _atom_site_fract_z
 _atom_site_occupancy
  Na  Na0  1  0.64256324  0.00441563  0.24802651  1
  Na  Na1  1  0.37128525  0.35846791  0.24553775  1
  Na  Na2  1  0.71026298  0.67664201  0.41330073  1
  Na  Na3  1  0.01099001  0.01128852  0.49263410  1
  Na  Na4  1  0.00287889  0.00259668  0.99915251  1
  Na  Na5  1  0.66770009  0.33362257  0.82881121  1
  Na  Na6  1  0.68255314  0.34264911  0.33132177  1
  Na  Na7  1  0.32333280  0.66090339  0.16277928  1
  Na  Na8  1  0.33872148  0.66480033  0.66428630  1
  Ta  Ta9  1  0.00085661  0.00167393  0.85702587  1
  Ta  Ta10  1  0.99875430  0.99830718  0.64347530  1
  Ta  Ta11  1  0.99745192  0.99620638  0.14458880  1
  Ta  Ta12  1  0.66098429  0.33181899  0.97744541  1
  Ta  Ta13  1  0.66766996  0.33439961  0.47941039  1
  Ta  Ta14  1  0.33537073  0.66507557  0.01750700  1
  Ta  Ta15  1  0.33443923  0.66571426  0.52063866  1
  Ta  Ta16  1  0.33170897  0.66737860  0.31423638  1
  Ta  Ta17  1  0.33330790  0.66622095  0.81185779  1
  In  In18  1  0.00347251  0.00046589  0.35666159  1
  In  In19  1  0.66422325  0.33398686  0.68765619  1
  In  In20  1  0.67181986  0.34626661  0.17985678  1
  Si  Si21  1  0.70762572  0.70418253  0.25307958  1
  Si  Si22  1  0.66346236  0.62206926  0.58565916  1
  Si  Si23  1  0.36954050  0.33329054  0.08465162  1
  Si  Si24  1  0.62081578  0.66605875  0.91508186  1
  Si  Si25  1  0.04476658  0.38173110  0.91540480  1
  Si  Si26  1  0.33562049  0.95354416  0.91560837  1
  Si  Si27  1  0.61793766  0.96038877  0.41722138  1
  Si  Si28  1  0.33305976  0.37643858  0.41745506  1
  Si  Si29  1  0.04380181  0.66190250  0.41879852  1
  P  P30  1  0.28751487  0.99433407  0.24863710  1
  P  P31  1  0.00125480  0.28991482  0.24887652  1
  P  P32  1  0.28389277  0.28674256  0.75071884  1
  P  P33  1  0.00420887  0.71708683  0.75072711  1
  P  P34  1  0.71307699  0.99744197  0.75031646  1
  P  P35  1  0.95724480  0.33451855  0.58525065  1
  P  P36  1  0.37780333  0.04271142  0.58507205  1
  P  P37  1  0.96183619  0.62672094  0.08160996  1
  P  P38  1  0.66524871  0.04064670  0.08366504  1
  O  O39  1  0.21718695  0.03881103  0.30246191  1
  O  O40  1  0.80540373  0.78543374  0.31342783  1
  O  O41  1  0.97008779  0.18205422  0.30382717  1
  O  O42  1  0.18344866  0.17848112  0.80524290  1
  O  O43  1  0.99288400  0.81575973  0.80511523  1
  O  O44  1  0.82183027  0.00896666  0.80514075  1
  O  O45  1  0.80732037  0.98017926  0.69469055  1
  O  O46  1  0.17446434  0.19567092  0.69491364  1
  O  O47  1  0.02209041  0.82819635  0.69495793  1
  O  O48  1  0.81145474  0.83443401  0.19569922  1
  O  O49  1  0.03008626  0.19771041  0.19382512  1
  O  O50  1  0.17401447  0.97725229  0.19309453  1
  O  O51  1  0.88700056  0.36724764  0.64130492  1
  O  O52  1  0.48356543  0.10703619  0.64092140  1
  O  O53  1  0.62355960  0.51033503  0.64393074  1
  O  O54  1  0.90212356  0.52450383  0.13852238  1
  O  O55  1  0.63637145  0.10733618  0.14200166  1
  O  O56  1  0.46719273  0.36854296  0.14692779  1
  O  O57  1  0.47830719  0.31094209  0.02991904  1
  O  O58  1  0.84194210  0.53357086  0.02890950  1
  O  O59  1  0.69326424  0.16333959  0.03142763  1
  O  O60  1  0.46844923  0.16231087  0.53119010  1
  O  O61  1  0.69506663  0.53136451  0.52688144  1
  O  O62  1  0.83721205  0.30270156  0.53111977  1
  O  O63  1  0.53181388  0.69850372  0.97249683  1
  O  O64  1  0.16927029  0.47253546  0.97200904  1
  O  O65  1  0.30410612  0.83432250  0.97286785  1
  O  O66  1  0.51311765  0.83584363  0.47238764  1
  O  O67  1  0.32139657  0.48192409  0.47402989  1
  O  O68  1  0.15811254  0.67640314  0.47568514  1
  O  O69  1  0.13792793  0.63842805  0.35925802  1
  O  O70  1  0.50208145  0.86826195  0.35590775  1
  O  O71  1  0.36573210  0.49864136  0.35729743  1
  O  O72  1  0.13751636  0.50304310  0.85729082  1
  O  O73  1  0.36452843  0.86085846  0.85765459  1
  O  O74  1  0.49809189  0.63512997  0.85741240  1
  O  O75  1  0.01192506  0.82264507  0.41780643  1
  O  O76  1  0.80040925  0.96822741  0.41674693  1
  O  O77  1  0.16649820  0.19130802  0.41610932  1
  O  O78  1  0.02430930  0.18965077  0.90717328  1
  O  O79  1  0.16659039  0.97828625  0.90671619  1
  O  O80  1  0.81239710  0.83619481  0.90703706  1
  O  O81  1  0.97693816  0.16880334  0.59124715  1
  O  O82  1  0.19618646  0.03182202  0.59171263  1
  O  O83  1  0.84126636  0.81611016  0.59252665  1
  O  O84  1  0.97169745  0.80708069  0.08869463  1
  O  O85  1  0.83120404  0.02117199  0.08876031  1
  O  O86  1  0.17776793  0.15662159  0.08877658  1
  O  O87  1  0.69614145  0.15912920  0.74887017  1
  O  O88  1  0.46093456  0.30004465  0.75158351  1
  O  O89  1  0.84442333  0.53835007  0.75025105  1
  O  O90  1  0.66839964  0.50752103  0.24837972  1
  O  O91  1  0.84086688  0.30788749  0.24031132  1
  O  O92  1  0.47529770  0.14152043  0.24096435  1
  O  O93  1  0.64066485  0.49517467  0.92548091  1
  O  O94  1  0.85478137  0.36027424  0.92670147  1
  O  O95  1  0.50762111  0.14403404  0.92547385  1
  O  O96  1  0.62624121  0.14545031  0.42516953  1
  O  O97  1  0.51701641  0.37606246  0.42478608  1
  O  O98  1  0.85408834  0.48240368  0.42506714  1
  O  O99  1  0.34326734  0.50060525  0.07343227  1
  O  O100  1  0.14824386  0.66194549  0.07140218  1
  O  O101  1  0.50818007  0.85847577  0.07321024  1
  O  O102  1  0.33997434  0.85628842  0.57405954  1
  O  O103  1  0.50326509  0.66029259  0.57600119  1
  O  O104  1  0.14119610  0.48831661  0.57513118  1
  O  O105  1  0.29202574  0.82131429  0.25305911  1
  O  O106  1  0.51501248  0.69832972  0.25309611  1
  O  O107  1  0.17230242  0.46852709  0.25298522  1
  O  O108  1  0.29577374  0.46763401  0.75506007  1
  O  O109  1  0.17495385  0.70778437  0.75456777  1
  O  O110  1  0.53369012  0.82797755  0.75452090  1
