# generated using pymatgen
data_NaCaSc3(SO4)6
_symmetry_space_group_name_H-M   'P 1'
_cell_length_a   8.89797069
_cell_length_b   8.89797039
_cell_length_c   23.38599018
_cell_angle_alpha   90.00000000
_cell_angle_beta   90.00000000
_cell_angle_gamma   120.00000107
_symmetry_Int_Tables_number   1
_chemical_formula_structural   NaCaSc3(SO4)6
_chemical_formula_sum   'Na3 Ca3 Sc9 S18 O72'
_cell_volume   1603.49761099
_cell_formula_units_Z   3
loop_
 _symmetry_equiv_pos_site_id
 _symmetry_equiv_pos_as_xyz
  1  'x, y, z'
loop_
 _atom_site_type_symbol
 _atom_site_label
 _atom_site_symmetry_multiplicity
 _atom_site_fract_x
 _atom_site_fract_y
 _atom_site_fract_z
 _atom_site_occupancy
  Na  Na0  1  -0.00000000  -0.00000000  0.99722362  1
  Na  Na1  1  0.66666700  0.33333300  0.83614889  1
  Na  Na2  1  0.66666700  0.33333300  0.33337598  1
  Ca  Ca3  1  -0.00000000  -0.00000000  0.35686347  1
  Ca  Ca4  1  -0.00000000  -0.00000000  0.85152764  1
  Ca  Ca5  1  0.66666700  0.33333300  0.98161637  1
  Sc  Sc6  1  -0.00000000  -0.00000000  0.64789622  1
  Sc  Sc7  1  -0.00000000  -0.00000000  0.15439075  1
  Sc  Sc8  1  0.66666700  0.33333300  0.68140063  1
  Sc  Sc9  1  0.66666700  0.33333300  0.18009839  1
  Sc  Sc10  1  0.66666700  0.33333300  0.48219007  1
  Sc  Sc11  1  0.33333300  0.66666700  0.02312820  1
  Sc  Sc12  1  0.33333300  0.66666700  0.52282995  1
  Sc  Sc13  1  0.33333300  0.66666700  0.31260961  1
  Sc  Sc14  1  0.33333300  0.66666700  0.80967116  1
  S  S15  1  0.30346435  0.00452264  0.24993586  1
  S  S16  1  0.70105829  0.69653565  0.24993586  1
  S  S17  1  0.99547736  0.29894171  0.24993586  1
  S  S18  1  0.30110971  0.29680886  0.74757787  1
  S  S19  1  0.99569915  0.69889029  0.74757787  1
  S  S20  1  0.70319114  0.00430085  0.74757787  1
  S  S21  1  0.95534452  0.33056371  0.58300701  1
  S  S22  1  0.37522019  0.04465548  0.58300701  1
  S  S23  1  0.66943629  0.62477981  0.58300701  1
  S  S24  1  0.96607897  0.63871552  0.08460542  1
  S  S25  1  0.67263755  0.03392103  0.08460542  1
  S  S26  1  0.36128448  0.32736245  0.08460542  1
  S  S27  1  0.61335667  0.66678398  0.91653344  1
  S  S28  1  0.05342631  0.38664333  0.91653344  1
  S  S29  1  0.33321602  0.94657369  0.91653344  1
  S  S30  1  0.60744121  0.95660174  0.41834494  1
  S  S31  1  0.34915953  0.39255879  0.41834494  1
  S  S32  1  0.04339826  0.65084047  0.41834494  1
  O  O33  1  0.23520898  0.04435916  0.30102657  1
  O  O34  1  0.80915018  0.76479102  0.30102657  1
  O  O35  1  0.95564084  0.19084982  0.30102657  1
  O  O36  1  0.23529786  0.19101262  0.79951737  1
  O  O37  1  0.95571476  0.76470214  0.79951737  1
  O  O38  1  0.80898738  0.04428524  0.79951737  1
  O  O39  1  0.79291420  0.97861026  0.69797654  1
  O  O40  1  0.18569607  0.20708580  0.69797654  1
  O  O41  1  0.02138974  0.81430393  0.69797654  1
  O  O42  1  0.78819168  0.81079603  0.19971676  1
  O  O43  1  0.02260435  0.21180832  0.19971676  1
  O  O44  1  0.18920397  0.97739565  0.19971676  1
  O  O45  1  0.87670901  0.36654826  0.63329887  1
  O  O46  1  0.48984025  0.12329099  0.63329887  1
  O  O47  1  0.63345174  0.51015975  0.63329887  1
  O  O48  1  0.87648748  0.52221094  0.13401603  1
  O  O49  1  0.64572446  0.12351252  0.13401603  1
  O  O50  1  0.47778906  0.35427554  0.13401603  1
  O  O51  1  0.42825516  0.28787883  0.03279003  1
  O  O52  1  0.85962466  0.57174484  0.03279003  1
  O  O53  1  0.71212117  0.14037534  0.03279003  1
  O  O54  1  0.45512323  0.15857484  0.53228613  1
  O  O55  1  0.70345261  0.54487677  0.53228613  1
  O  O56  1  0.84142516  0.29654739  0.53228613  1
  O  O57  1  0.51869567  0.66427671  0.96924314  1
  O  O58  1  0.14558003  0.48130433  0.96924314  1
  O  O59  1  0.33572329  0.85441997  0.96924314  1
  O  O60  1  0.51790961  0.85428467  0.46995998  1
  O  O61  1  0.33637406  0.48209039  0.46995998  1
  O  O62  1  0.14571533  0.66362594  0.46995998  1
  O  O63  1  0.12533403  0.62783073  0.36593630  1
  O  O64  1  0.50249571  0.87466597  0.36593630  1
  O  O65  1  0.37216927  0.49750429  0.36593630  1
  O  O66  1  0.14834887  0.47920113  0.86389005  1
  O  O67  1  0.33085127  0.85165113  0.86389005  1
  O  O68  1  0.52079887  0.66914873  0.86389005  1
  O  O69  1  0.02664864  0.80494547  0.41475830  1
  O  O70  1  0.77829684  0.97335136  0.41475830  1
  O  O71  1  0.19505453  0.22170316  0.41475830  1
  O  O72  1  0.04005964  0.21393587  0.91854288  1
  O  O73  1  0.17387623  0.95994036  0.91854288  1
  O  O74  1  0.78606413  0.82612377  0.91854288  1
  O  O75  1  0.97204998  0.17567549  0.59292123  1
  O  O76  1  0.20362551  0.02795002  0.59292123  1
  O  O77  1  0.82432451  0.79637449  0.59292123  1
  O  O78  1  0.99320738  0.81567874  0.09555202  1
  O  O79  1  0.82247136  0.00679262  0.09555202  1
  O  O80  1  0.18432126  0.17752864  0.09555202  1
  O  O81  1  0.67566530  0.15453095  0.73738642  1
  O  O82  1  0.47886665  0.32433470  0.73738642  1
  O  O83  1  0.84546905  0.52113335  0.73738642  1
  O  O84  1  0.67292714  0.51848410  0.23889997  1
  O  O85  1  0.84555796  0.32707286  0.23889997  1
  O  O86  1  0.48151590  0.15444204  0.23889997  1
  O  O87  1  0.62681399  0.50745951  0.91454427  1
  O  O88  1  0.88064652  0.37318601  0.91454427  1
  O  O89  1  0.49254049  0.11935348  0.91454427  1
  O  O90  1  0.62054028  0.13151548  0.42285429  1
  O  O91  1  0.51097621  0.37945972  0.42285429  1
  O  O92  1  0.86848452  0.48902379  0.42285429  1
  O  O93  1  0.34789267  0.48574061  0.07817222  1
  O  O94  1  0.13784694  0.65210733  0.07817222  1
  O  O95  1  0.51425939  0.86215306  0.07817222  1
  O  O96  1  0.35690991  0.87199006  0.57421300  1
  O  O97  1  0.51507915  0.64309009  0.57421300  1
  O  O98  1  0.12800994  0.48492085  0.57421300  1
  O  O99  1  0.31634004  0.84571366  0.25697379  1
  O  O100  1  0.52937262  0.68365996  0.25697379  1
  O  O101  1  0.15428634  0.47062738  0.25697379  1
  O  O102  1  0.31525055  0.46907263  0.75408432  1
  O  O103  1  0.15382108  0.68474945  0.75408432  1
  O  O104  1  0.53092737  0.84617892  0.75408432  1
