# generated using pymatgen
data_Na6MgTa5Si6(PO12)3
_symmetry_space_group_name_H-M   'P 1'
_cell_length_a   8.93900906
_cell_length_b   8.93900875
_cell_length_c   22.69348604
_cell_angle_alpha   89.90419713
_cell_angle_beta   90.09580286
_cell_angle_gamma   120.09483638
_symmetry_Int_Tables_number   1
_chemical_formula_structural   Na6MgTa5Si6(PO12)3
_chemical_formula_sum   'Na12 Mg2 Ta10 Si12 P6 O72'
_cell_volume   1568.89528179
_cell_formula_units_Z   2
loop_
 _symmetry_equiv_pos_site_id
 _symmetry_equiv_pos_as_xyz
  1  'x, y, z'
loop_
 _atom_site_type_symbol
 _atom_site_label
 _atom_site_symmetry_multiplicity
 _atom_site_fract_x
 _atom_site_fract_y
 _atom_site_fract_z
 _atom_site_occupancy
  Na  Na0  1  0.37517928  0.36667392  0.24302953  1
  Na  Na1  1  0.98541539  0.61872959  0.24404425  1
  Na  Na2  1  0.63332608  0.62482072  0.74302953  1
  Na  Na3  1  0.38127041  0.01458461  0.74404425  1
  Na  Na4  1  0.66072323  0.97366011  0.58528566  1
  Na  Na5  1  0.02633989  0.33927677  0.08528566  1
  Na  Na6  1  0.00879502  0.99839926  0.49886552  1
  Na  Na7  1  0.00160074  0.99120498  0.99886552  1
  Na  Na8  1  0.67651397  0.32928210  0.83140469  1
  Na  Na9  1  0.67071790  0.32348603  0.33140469  1
  Na  Na10  1  0.34586315  0.67932569  0.16381722  1
  Na  Na11  1  0.32067431  0.65413685  0.66381722  1
  Mg  Mg12  1  0.67131639  0.33107079  0.68394645  1
  Mg  Mg13  1  0.66892921  0.32868361  0.18394645  1
  Ta  Ta14  1  0.99744418  0.00373624  0.35732125  1
  Ta  Ta15  1  0.99626376  0.00255582  0.85732125  1
  Ta  Ta16  1  0.99963190  0.99778213  0.64380327  1
  Ta  Ta17  1  0.00221787  0.00036810  0.14380327  1
  Ta  Ta18  1  0.66391616  0.33712191  0.97848522  1
  Ta  Ta19  1  0.66287809  0.33608384  0.47848522  1
  Ta  Ta20  1  0.33377779  0.66772630  0.01987077  1
  Ta  Ta21  1  0.33227370  0.66622221  0.51987077  1
  Ta  Ta22  1  0.33277417  0.66650607  0.31466252  1
  Ta  Ta23  1  0.33349393  0.66722583  0.81466252  1
  Si  Si24  1  0.99247102  0.28808731  0.24990068  1
  Si  Si25  1  0.71191269  0.00752898  0.74990068  1
  Si  Si26  1  0.37833989  0.04585154  0.58559191  1
  Si  Si27  1  0.66266369  0.61566252  0.58675680  1
  Si  Si28  1  0.95414846  0.62166011  0.08559191  1
  Si  Si29  1  0.38433748  0.33733631  0.08675680  1
  Si  Si30  1  0.62111058  0.66501751  0.91683080  1
  Si  Si31  1  0.04216185  0.37877683  0.91739444  1
  Si  Si32  1  0.33490755  0.95706704  0.91653248  1
  Si  Si33  1  0.62122317  0.95783815  0.41739444  1
  Si  Si34  1  0.33498249  0.37888942  0.41683080  1
  Si  Si35  1  0.04293296  0.66509245  0.41653248  1
  P  P36  1  0.28741748  0.00008633  0.25087737  1
  P  P37  1  0.71250116  0.71619982  0.25064508  1
  P  P38  1  0.28380018  0.28749884  0.75064508  1
  P  P39  1  -0.00008633  0.71258252  0.75087737  1
  P  P40  1  0.95565367  0.33755724  0.58432790  1
  P  P41  1  0.66244276  0.04434633  0.08432790  1
  O  O42  1  0.19213997  0.01887847  0.30462700  1
  O  O43  1  0.82855939  0.80678981  0.30469862  1
  O  O44  1  0.98280876  0.16670782  0.30602204  1
  O  O45  1  0.19321019  0.17144061  0.80469862  1
  O  O46  1  0.98112153  0.80786003  0.80462700  1
  O  O47  1  0.83329218  0.01719124  0.80602204  1
  O  O48  1  0.80249659  0.96875716  0.69221672  1
  O  O49  1  0.16999439  0.19779425  0.69558145  1
  O  O50  1  0.03400491  0.83345274  0.69569928  1
  O  O51  1  0.80220575  0.83000561  0.19558145  1
  O  O52  1  0.03124284  0.19750341  0.19221672  1
  O  O53  1  0.16654726  0.96599509  0.19569928  1
  O  O54  1  0.88108063  0.36684628  0.63956419  1
  O  O55  1  0.49188336  0.11106650  0.64408150  1
  O  O56  1  0.63370871  0.51505339  0.64689072  1
  O  O57  1  0.88893350  0.50811664  0.14408150  1
  O  O58  1  0.63315372  0.11891937  0.13956419  1
  O  O59  1  0.48494661  0.36629129  0.14689072  1
  O  O60  1  0.47204321  0.30330103  0.02793664  1
  O  O61  1  0.83309125  0.52568361  0.02726295  1
  O  O62  1  0.70156655  0.16101235  0.02904703  1
  O  O63  1  0.47431639  0.16690875  0.52726295  1
  O  O64  1  0.69669897  0.52795679  0.52793664  1
  O  O65  1  0.83898765  0.29843345  0.52904703  1
  O  O66  1  0.52902642  0.69605189  0.97287229  1
  O  O67  1  0.16276691  0.46669869  0.97516437  1
  O  O68  1  0.30413830  0.83200097  0.97248725  1
  O  O69  1  0.53330131  0.83723309  0.47516437  1
  O  O70  1  0.30394811  0.47097358  0.47287229  1
  O  O71  1  0.16799903  0.69586170  0.47248725  1
  O  O72  1  0.13586206  0.63818354  0.35727215  1
  O  O73  1  0.49901672  0.86064656  0.35957344  1
  O  O74  1  0.36232529  0.49716593  0.35735467  1
  O  O75  1  0.13935344  0.50098328  0.85957344  1
  O  O76  1  0.36181646  0.86413794  0.85727215  1
  O  O77  1  0.50283407  0.63767471  0.85735467  1
  O  O78  1  0.02465555  0.83569148  0.40656674  1
  O  O79  1  0.80980469  0.97206408  0.40825561  1
  O  O80  1  0.16546690  0.18717017  0.40819129  1
  O  O81  1  0.02793592  0.19019531  0.90825561  1
  O  O82  1  0.16430852  0.97534445  0.90656674  1
  O  O83  1  0.81282983  0.83453310  0.90819129  1
  O  O84  1  0.97215537  0.16853515  0.59101917  1
  O  O85  1  0.18431421  0.02563409  0.59121411  1
  O  O86  1  0.83476644  0.81916154  0.59087670  1
  O  O87  1  0.97436591  0.81568579  0.09121411  1
  O  O88  1  0.83146485  0.02784463  0.09101917  1
  O  O89  1  0.18083846  0.16523356  0.09087670  1
  O  O90  1  0.68105813  0.16740925  0.74868781  1
  O  O91  1  0.46423097  0.30993727  0.74733990  1
  O  O92  1  0.83830541  0.53742752  0.74580728  1
  O  O93  1  0.69006273  0.53576903  0.24733990  1
  O  O94  1  0.83259075  0.31894187  0.24868781  1
  O  O95  1  0.46257248  0.16169459  0.24580728  1
  O  O96  1  0.63989766  0.49426424  0.92356340  1
  O  O97  1  0.85210017  0.35552214  0.92496128  1
  O  O98  1  0.50648544  0.14456422  0.92466473  1
  O  O99  1  0.64447786  0.14789983  0.42496128  1
  O  O100  1  0.50573576  0.36010234  0.42356340  1
  O  O101  1  0.85543578  0.49351456  0.42466473  1
  O  O102  1  0.34639537  0.49891459  0.07470945  1
  O  O103  1  0.14895085  0.64761041  0.07330983  1
  O  O104  1  0.50828269  0.85926961  0.07417616  1
  O  O105  1  0.35238959  0.85104915  0.57330983  1
  O  O106  1  0.50108541  0.65360463  0.57470945  1
  O  O107  1  0.14073039  0.49171731  0.57417616  1
  O  O108  1  0.29626584  0.82961162  0.25594368  1
  O  O109  1  0.52952795  0.69900478  0.25620094  1
  O  O110  1  0.17837890  0.47999609  0.25609886  1
  O  O111  1  0.30099522  0.47047205  0.75620094  1
  O  O112  1  0.17038838  0.70373416  0.75594368  1
  O  O113  1  0.52000391  0.82162110  0.75609886  1
