# generated using pymatgen
data_Na14Ti3Zn5(PO4)12
_symmetry_space_group_name_H-M   'P 1'
_cell_length_a   17.94926365
_cell_length_b   8.97461414
_cell_length_c   21.91473797
_cell_angle_alpha   90.04918785
_cell_angle_beta   89.92363499
_cell_angle_gamma   120.03503707
_symmetry_Int_Tables_number   1
_chemical_formula_structural   Na14Ti3Zn5(PO4)12
_chemical_formula_sum   'Na42 Ti9 Zn15 P36 O144'
_cell_volume   3056.15587223
_cell_formula_units_Z   3
loop_
 _symmetry_equiv_pos_site_id
 _symmetry_equiv_pos_as_xyz
  1  'x, y, z'
loop_
 _atom_site_type_symbol
 _atom_site_label
 _atom_site_symmetry_multiplicity
 _atom_site_fract_x
 _atom_site_fract_y
 _atom_site_fract_z
 _atom_site_occupancy
  Na  Na0  1  0.18520106  0.36206835  0.24717180  1
  Na  Na1  1  0.68560132  0.36269272  0.24723481  1
  Na  Na2  1  0.99461637  0.62874802  0.24761681  1
  Na  Na3  1  0.49482467  0.62842323  0.24689371  1
  Na  Na4  1  0.31851572  0.62858146  0.74726126  1
  Na  Na5  1  0.81926567  0.62976901  0.74770611  1
  Na  Na6  1  0.18503479  0.01102675  0.74727599  1
  Na  Na7  1  0.68544596  0.01030869  0.74708568  1
  Na  Na8  1  0.15523975  0.34205223  0.57988045  1
  Na  Na9  1  0.65555343  0.34266717  0.57978732  1
  Na  Na10  1  0.01542751  0.68879816  0.58039835  1
  Na  Na11  1  0.51538232  0.68827800  0.58024299  1
  Na  Na12  1  0.32841531  0.96798836  0.57997066  1
  Na  Na13  1  0.82865454  0.96778493  0.58017002  1
  Na  Na14  1  0.15422897  0.96782744  0.07971189  1
  Na  Na15  1  0.65365597  0.96490720  0.08160288  1
  Na  Na16  1  0.32850830  0.68780770  0.07973459  1
  Na  Na17  1  0.01843499  0.34487239  0.08181356  1
  Na  Na18  1  0.51685424  0.34338093  0.07924992  1
  Na  Na19  1  0.48172855  0.66945834  0.91759359  1
  Na  Na20  1  0.98544230  0.67607207  0.91414159  1
  Na  Na21  1  0.35300045  0.03788472  0.91707321  1
  Na  Na22  1  0.16581870  0.29184140  0.91745260  1
  Na  Na23  1  0.66353464  0.29769934  0.91447931  1
  Na  Na24  1  0.48126968  0.29434033  0.41719018  1
  Na  Na25  1  0.98129891  0.29429152  0.41709859  1
  Na  Na26  1  0.16571381  0.03846442  0.41760844  1
  Na  Na27  1  0.66579517  0.03852005  0.41764869  1
  Na  Na28  1  0.35316556  0.66706439  0.41755471  1
  Na  Na29  1  0.85322800  0.66717329  0.41756324  1
  Na  Na30  1  0.00009702  0.00008366  0.49603732  1
  Na  Na31  1  0.50002615  0.00013836  0.49583840  1
  Na  Na32  1  0.98879945  0.99104575  0.99523320  1
  Na  Na33  1  0.49953414  0.99955420  0.99595767  1
  Na  Na34  1  0.33907926  0.33409664  0.83079629  1
  Na  Na35  1  0.84066191  0.32528897  0.82867604  1
  Na  Na36  1  0.33277659  0.32131123  0.33077248  1
  Na  Na37  1  0.83307543  0.32149033  0.33100623  1
  Na  Na38  1  0.17138999  0.67711890  0.16450756  1
  Na  Na39  1  0.67718726  0.67756195  0.16195032  1
  Na  Na40  1  0.16123061  0.65726640  0.66432186  1
  Na  Na41  1  0.66150052  0.65754949  0.66447394  1
  Ti  Ti42  1  0.99970688  0.00252941  0.65061832  1
  Ti  Ti43  1  0.50010080  0.00245831  0.65063338  1
  Ti  Ti44  1  0.99599504  0.99519364  0.14890384  1
  Ti  Ti45  1  0.49923021  0.99917231  0.15009464  1
  Ti  Ti46  1  0.83358654  0.32937009  0.98192077  1
  Ti  Ti47  1  0.16885540  0.67159203  0.31475266  1
  Ti  Ti48  1  0.66900865  0.67205746  0.31473040  1
  Ti  Ti49  1  0.16284857  0.66123900  0.81520252  1
  Ti  Ti50  1  0.66679401  0.66486018  0.81566682  1
  Zn  Zn51  1  0.99937829  0.00132558  0.34697697  1
  Zn  Zn52  1  0.49949191  0.00131758  0.34716073  1
  Zn  Zn53  1  0.99640237  0.00140046  0.84922598  1
  Zn  Zn54  1  0.49943374  0.00091298  0.84703023  1
  Zn  Zn55  1  0.33667291  0.33369382  0.68183882  1
  Zn  Zn56  1  0.83691910  0.33412802  0.68157843  1
  Zn  Zn57  1  0.33272306  0.32601622  0.18164802  1
  Zn  Zn58  1  0.83297442  0.32813900  0.18266154  1
  Zn  Zn59  1  0.33311395  0.33220628  0.98625447  1
  Zn  Zn60  1  0.33391327  0.33353637  0.48610979  1
  Zn  Zn61  1  0.83397957  0.33369663  0.48610903  1
  Zn  Zn62  1  0.16688109  0.66700704  0.01461539  1
  Zn  Zn63  1  0.67069619  0.66802423  0.01575267  1
  Zn  Zn64  1  0.16642942  0.66648514  0.51469261  1
  Zn  Zn65  1  0.66654009  0.66643923  0.51469962  1
  P  P66  1  0.14663415  0.99871723  0.25069235  1
  P  P67  1  0.64768603  0.99942319  0.25171399  1
  P  P68  1  0.35220719  0.70796629  0.25170896  1
  P  P69  1  0.85228909  0.70874564  0.25197418  1
  P  P70  1  0.99957327  0.29423147  0.25175355  1
  P  P71  1  0.50009135  0.29532665  0.25182554  1
  P  P72  1  0.14550632  0.29473378  0.75247278  1
  P  P73  1  0.64637878  0.29694269  0.75200055  1
  P  P74  1  0.00046321  0.70533831  0.75194100  1
  P  P75  1  0.50077713  0.70492286  0.75212753  1
  P  P76  1  0.35183461  -0.00020364  0.75243441  1
  P  P77  1  0.85280513  0.00032164  0.75174888  1
  P  P78  1  0.48117692  0.33047549  0.58329228  1
  P  P79  1  0.98133468  0.33062990  0.58314619  1
  P  P80  1  0.18339793  0.03752819  0.58478690  1
  P  P81  1  0.68339396  0.03751421  0.58475544  1
  P  P82  1  0.33499096  0.63247058  0.58500284  1
  P  P83  1  0.83501269  0.63243752  0.58492410  1
  P  P84  1  0.48113670  0.63197991  0.08474041  1
  P  P85  1  0.97798398  0.62868267  0.08452479  1
  P  P86  1  0.33489791  0.03772503  0.08323049  1
  P  P87  1  0.83356554  0.04030411  0.08454794  1
  P  P88  1  0.18327674  0.32910096  0.08499017  1
  P  P89  1  0.68696668  0.33429204  0.08542494  1
  P  P90  1  0.31291690  0.66655112  0.91659721  1
  P  P91  1  0.81350305  0.66618481  0.91763764  1
  P  P92  1  0.01903431  0.37196056  0.91898886  1
  P  P93  1  0.52065351  0.37483661  0.91792498  1
  P  P94  1  0.16676120  0.96015087  0.91672825  1
  P  P95  1  0.66876109  0.96038795  0.91831099  1
  P  P96  1  0.31334507  0.95913438  0.41778045  1
  P  P97  1  0.81339587  0.95929351  0.41783924  1
  P  P98  1  0.16662858  0.37390605  0.41658145  1
  P  P99  1  0.66660394  0.37388633  0.41655744  1
  P  P100  1  0.02040677  0.66730510  0.41662376  1
  P  P101  1  0.52041897  0.66722147  0.41662795  1
  O  O102  1  0.10728527  0.02590526  0.30867075  1
  O  O103  1  0.60756756  0.02590466  0.30929527  1
  O  O104  1  0.40616256  0.78476197  0.30892909  1
  O  O105  1  0.90555938  0.78322246  0.30970454  1
  O  O106  1  0.48942875  0.19466027  0.30997247  1
  O  O107  1  0.98932292  0.19483501  0.31018775  1
  O  O108  1  0.10707849  0.18573045  0.80926430  1
  O  O109  1  0.60785848  0.18875179  0.80917558  1
  O  O110  1  0.48716076  0.78425557  0.80987357  1
  O  O111  1  0.98812158  0.78589683  0.80962358  1
  O  O112  1  0.40229096  0.02108948  0.81055366  1
  O  O113  1  0.90586299  0.02353663  0.80757703  1
  O  O114  1  0.39961652  0.97327891  0.69616470  1
  O  O115  1  0.89779501  0.97214559  0.69381878  1
  O  O116  1  0.08763021  0.20133814  0.69510520  1
  O  O117  1  0.58827236  0.20229538  0.69508902  1
  O  O118  1  0.01461621  0.82795423  0.69562054  1
  O  O119  1  0.51495904  0.82833598  0.69593030  1
  O  O120  1  0.39990472  0.82476572  0.19478246  1
  O  O121  1  0.90148125  0.82940282  0.19636273  1
  O  O122  1  0.01239897  0.19878323  0.19527194  1
  O  O123  1  0.51385220  0.20018525  0.19535325  1
  O  O124  1  0.08490424  0.96863688  0.19444250  1
  O  O125  1  0.58647186  0.97187949  0.19542168  1
  O  O126  1  0.43911664  0.36497339  0.63751359  1
  O  O127  1  0.93931432  0.36505864  0.63742382  1
  O  O128  1  0.23873808  0.11884475  0.64152231  1
  O  O129  1  0.73865641  0.11913647  0.64147996  1
  O  O130  1  0.31940866  0.52089294  0.64157721  1
  O  O131  1  0.81933198  0.52084964  0.64152733  1
  O  O132  1  0.43993357  0.52223272  0.14157395  1
  O  O133  1  0.93976609  0.52083552  0.14174718  1
  O  O134  1  0.31789387  0.12153239  0.13760534  1
  O  O135  1  0.81825877  0.12122799  0.14028622  1
  O  O136  1  0.23951334  0.36181131  0.14148534  1
  O  O137  1  0.73726248  0.35501635  0.14343939  1
  O  O138  1  0.21987520  0.29095370  0.02680805  1
  O  O139  1  0.73298227  0.30450681  0.02846651  1
  O  O140  1  0.42544243  0.55986011  0.02668905  1
  O  O141  1  0.92087532  0.53485763  0.02698968  1
  O  O142  1  0.35594754  0.14590907  0.02418159  1
  O  O143  1  0.84891461  0.16581784  0.02822312  1
  O  O144  1  0.22019833  0.14889590  0.52668212  1
  O  O145  1  0.71997861  0.14873942  0.52663726  1
  O  O146  1  0.35490223  0.56060043  0.52686918  1
  O  O147  1  0.85452016  0.55996026  0.52677892  1
  O  O148  1  0.42704040  0.28827042  0.52424187  1
  O  O149  1  0.92703247  0.28844829  0.52413172  1
  O  O150  1  0.27379496  0.69375886  0.97478009  1
  O  O151  1  0.77122036  0.68789230  0.97330306  1
  O  O152  1  0.07109239  0.45022754  0.97709925  1
  O  O153  1  0.57227588  0.45140552  0.97627053  1
  O  O154  1  0.15278651  0.85292570  0.97451020  1
  O  O155  1  0.65264352  0.85233458  0.97542568  1
  O  O156  1  0.27488952  0.85496930  0.47614316  1
  O  O157  1  0.77485758  0.85505129  0.47615255  1
  O  O158  1  0.15352949  0.45310182  0.47470226  1
  O  O159  1  0.65346564  0.45298813  0.47468478  1
  O  O160  1  0.07340625  0.69469803  0.47453676  1
  O  O161  1  0.57343810  0.69471056  0.47457963  1
  O  O162  1  0.07024371  0.64863917  0.35966271  1
  O  O163  1  0.57028152  0.64858344  0.35966943  1
  O  O164  1  0.25201315  0.85414664  0.36246545  1
  O  O165  1  0.75207467  0.85429068  0.36252335  1
  O  O166  1  0.17552416  0.49188383  0.35975695  1
  O  O167  1  0.67555539  0.49188494  0.35973068  1
  O  O168  1  0.06749880  0.49750010  0.86349586  1
  O  O169  1  0.57437773  0.49957814  0.86308466  1
  O  O170  1  0.17543618  0.85893021  0.85989373  1
  O  O171  1  0.68074293  0.86913376  0.86048515  1
  O  O172  1  0.25270154  0.64754302  0.86033998  1
  O  O173  1  0.75550150  0.63868613  0.85889683  1
  O  O174  1  0.01030205  0.82764138  0.41118002  1
  O  O175  1  0.51018782  0.82746391  0.41119478  1
  O  O176  1  0.40331098  0.97871242  0.41134066  1
  O  O177  1  0.90331501  0.97884300  0.41141620  1
  O  O178  1  0.08638960  0.19302525  0.41145555  1
  O  O179  1  0.58634361  0.19310430  0.41147525  1
  O  O180  1  0.01056502  0.19572669  0.91101088  1
  O  O181  1  0.51079778  0.19467630  0.91096751  1
  O  O182  1  0.08702182  0.98151941  0.91125091  1
  O  O183  1  0.59018443  0.98602757  0.91153755  1
  O  O184  1  0.40358932  0.82707265  0.91127736  1
  O  O185  1  0.90561999  0.81518338  0.91131491  1
  O  O186  1  0.48996395  0.16356719  0.59280224  1
  O  O187  1  0.99033117  0.16399381  0.59238244  1
  O  O188  1  0.09105286  0.01953591  0.59200001  1
  O  O189  1  0.59099996  0.01948688  0.59210142  1
  O  O190  1  0.41822417  0.81756494  0.59280027  1
  O  O191  1  0.91840804  0.81700815  0.59237658  1
  O  O192  1  0.49006365  0.81734908  0.09210426  1
  O  O193  1  0.98687432  0.81219125  0.08827926  1
  O  O194  1  0.41885065  0.02049199  0.09242121  1
  O  O195  1  0.91986425  0.03557353  0.08835046  1
  O  O196  1  0.09111229  0.16194230  0.09292560  1
  O  O197  1  0.59587354  0.16073084  0.08790806  1
  O  O198  1  0.33551384  0.15028289  0.74504117  1
  O  O199  1  0.83511058  0.14970168  0.74436241  1
  O  O200  1  0.23671349  0.32093401  0.74475873  1
  O  O201  1  0.73718129  0.32106976  0.74488484  1
  O  O202  1  0.42097391  0.52814223  0.74399005  1
  O  O203  1  0.92067694  0.52784169  0.74425762  1
  O  O204  1  0.33981645  0.52630657  0.24443061  1
  O  O205  1  0.84025702  0.52763493  0.24416727  1
  O  O206  1  0.42465232  0.32752713  0.24458098  1
  O  O207  1  0.92475156  0.32844016  0.24510835  1
  O  O208  1  0.23535906  0.15809847  0.24319923  1
  O  O209  1  0.73624899  0.15861483  0.24445421  1
  O  O210  1  0.31782472  0.49960029  0.91600550  1
  O  O211  1  0.81748631  0.49249991  0.92078690  1
  O  O212  1  0.43264740  0.36609981  0.91610103  1
  O  O213  1  0.93044054  0.36781812  0.92169260  1
  O  O214  1  0.25088009  0.13597846  0.91624660  1
  O  O215  1  0.75144476  0.14450902  0.92252918  1
  O  O216  1  0.31724124  0.13452847  0.41649421  1
  O  O217  1  0.81720278  0.13452555  0.41652620  1
  O  O218  1  0.25026662  0.36428951  0.41613664  1
  O  O219  1  0.75020730  0.36415107  0.41612517  1
  O  O220  1  0.43202360  0.49967718  0.41630612  1
  O  O221  1  0.93206303  0.49980306  0.41627911  1
  O  O222  1  0.17007011  0.48663572  0.08013264  1
  O  O223  1  0.66925148  0.48284628  0.07859143  1
  O  O224  1  0.06973426  0.65548472  0.07810227  1
  O  O225  1  0.57284176  0.65852928  0.08028611  1
  O  O226  1  0.25688525  0.85292815  0.07906810  1
  O  O227  1  0.75507698  0.86291348  0.07606544  1
  O  O228  1  0.17006712  0.85365732  0.58016292  1
  O  O229  1  0.66995447  0.85363321  0.58019285  1
  O  O230  1  0.25629390  0.65884267  0.58012636  1
  O  O231  1  0.75629327  0.65883740  0.58012813  1
  O  O232  1  0.07353746  0.48627270  0.57886136  1
  O  O233  1  0.57346959  0.48605821  0.57897056  1
  O  O234  1  0.15006065  0.82677199  0.25401752  1
  O  O235  1  0.65031800  0.82694994  0.25432777  1
  O  O236  1  0.26104223  0.69133825  0.25447948  1
  O  O237  1  0.76122567  0.69201997  0.25452012  1
  O  O238  1  0.08629562  0.47516317  0.25291619  1
  O  O239  1  0.58650154  0.47585566  0.25307435  1
  O  O240  1  0.15365446  0.47733030  0.75583864  1
  O  O241  1  0.65483565  0.47950286  0.75504067  1
  O  O242  1  0.08642485  0.69833198  0.75452337  1
  O  O243  1  0.58712648  0.70007662  0.75537734  1
  O  O244  1  0.26159329  0.82676676  0.75377907  1
  O  O245  1  0.76230757  0.82737375  0.75419465  1
