# generated using pymatgen
data_MgCuPO4
_symmetry_space_group_name_H-M   'P 1'
_cell_length_a   5.77396200
_cell_length_b   4.86959549
_cell_length_c   5.77396200
_cell_angle_alpha   53.63988896
_cell_angle_beta   90.00000000
_cell_angle_gamma   53.63987435
_symmetry_Int_Tables_number   1
_chemical_formula_structural   MgCuPO4
_chemical_formula_sum   'Mg1 Cu1 P1 O4'
_cell_volume   88.48027633
_cell_formula_units_Z   1
loop_
 _symmetry_equiv_pos_site_id
 _symmetry_equiv_pos_as_xyz
  1  'x, y, z'
loop_
 _atom_site_type_symbol
 _atom_site_label
 _atom_site_symmetry_multiplicity
 _atom_site_fract_x
 _atom_site_fract_y
 _atom_site_fract_z
 _atom_site_occupancy
  Mg  Mg0  1  0.75000000  0.50000000  0.25000000  1
  Cu  Cu1  1  0.00000000  0.00000000  0.00000000  1
  P  P2  1  0.25000000  0.50000000  0.75000000  1
  O  O3  1  0.26979200  0.13141500  0.06721800  1
  O  O4  1  0.93278200  0.86858500  0.40120700  1
  O  O5  1  0.59879300  0.13141500  0.80136700  1
  O  O6  1  0.19863300  0.86858500  0.73020800  1
