# generated using pymatgen
data_MgV4O8
_symmetry_space_group_name_H-M   'P 1'
_cell_length_a   5.63445076
_cell_length_b   5.63242235
_cell_length_c   6.61606385
_cell_angle_alpha   89.76943166
_cell_angle_beta   89.83391211
_cell_angle_gamma   61.14395648
_symmetry_Int_Tables_number   1
_chemical_formula_structural   MgV4O8
_chemical_formula_sum   'Mg1 V4 O8'
_cell_volume   183.89292802
_cell_formula_units_Z   1
loop_
 _symmetry_equiv_pos_site_id
 _symmetry_equiv_pos_as_xyz
  1  'x, y, z'
loop_
 _atom_site_type_symbol
 _atom_site_label
 _atom_site_symmetry_multiplicity
 _atom_site_fract_x
 _atom_site_fract_y
 _atom_site_fract_z
 _atom_site_occupancy
  Mg  Mg0  1  0.15866537  0.15957419  0.24595766  1
  V  V1  1  0.92801707  0.92764459  0.97014371  1
  V  V2  1  0.93055884  0.93024201  0.52885389  1
  V  V3  1  0.42595092  0.42607451  0.25043052  1
  V  V4  1  0.60666763  0.60648259  0.75091783  1
  O  O5  1  0.31474706  0.31271390  0.05238894  1
  O  O6  1  0.30888704  0.31129112  0.44475791  1
  O  O7  1  0.22010953  0.78735962  0.25011048  1
  O  O8  1  0.23851937  0.76342410  0.75039369  1
  O  O9  1  0.78703726  0.22012791  0.25224161  1
  O  O10  1  0.76349612  0.23825832  0.74990638  1
  O  O11  1  0.71451511  0.71252152  0.96018943  1
  O  O12  1  0.71532870  0.71678561  0.54370796  1
