# generated using pymatgen
data_MgV5O10
_symmetry_space_group_name_H-M   'P 1'
_cell_length_a   5.60694271
_cell_length_b   7.29838018
_cell_length_c   5.37897697
_cell_angle_alpha   70.63719761
_cell_angle_beta   62.30310739
_cell_angle_gamma   78.67183936
_symmetry_Int_Tables_number   1
_chemical_formula_structural   MgV5O10
_chemical_formula_sum   'Mg1 V5 O10'
_cell_volume   183.63532722
_cell_formula_units_Z   1
loop_
 _symmetry_equiv_pos_site_id
 _symmetry_equiv_pos_as_xyz
  1  'x, y, z'
loop_
 _atom_site_type_symbol
 _atom_site_label
 _atom_site_symmetry_multiplicity
 _atom_site_fract_x
 _atom_site_fract_y
 _atom_site_fract_z
 _atom_site_occupancy
  Mg  Mg0  1  0.95832700  0.56437600  0.16070600  1
  V  V1  1  0.99834200  0.01593800  0.00124100  1
  V  V2  1  0.51620800  0.62070700  0.70527500  1
  V  V3  1  0.49886000  0.17254000  0.88951100  1
  V  V4  1  0.48363600  0.38837700  0.30862500  1
  V  V5  1  0.01324000  0.79399500  0.57389900  1
  O  O6  1  0.73605100  0.60384200  0.91712700  1
  O  O7  1  0.81226100  0.78939300  0.36648200  1
  O  O8  1  0.77968800  0.99981500  0.77282500  1
  O  O9  1  0.68758700  0.39774500  0.53153500  1
  O  O10  1  0.71888000  0.18814200  0.11712300  1
  O  O11  1  0.18449400  0.79172000  0.84010500  1
  O  O12  1  0.28690600  0.18813500  0.69397900  1
  O  O13  1  0.27099400  0.60948200  0.46879900  1
  O  O14  1  0.20416300  0.00159500  0.20575400  1
  O  O15  1  0.29877700  0.39939900  0.06307500  1
