# generated using pymatgen
data_Na2ZrIn(PO4)3
_symmetry_space_group_name_H-M   'P 1'
_cell_length_a   9.04272482
_cell_length_b   9.04272451
_cell_length_c   23.17226875
_cell_angle_alpha   89.98446830
_cell_angle_beta   90.01553171
_cell_angle_gamma   120.44166198
_symmetry_Int_Tables_number   1
_chemical_formula_structural   Na2ZrIn(PO4)3
_chemical_formula_sum   'Na12 Zr6 In6 P18 O72'
_cell_volume   1633.60746215
_cell_formula_units_Z   6
loop_
 _symmetry_equiv_pos_site_id
 _symmetry_equiv_pos_as_xyz
  1  'x, y, z'
loop_
 _atom_site_type_symbol
 _atom_site_label
 _atom_site_symmetry_multiplicity
 _atom_site_fract_x
 _atom_site_fract_y
 _atom_site_fract_z
 _atom_site_occupancy
  Na  Na0  1  0.36535458  0.36088398  0.24892407  1
  Na  Na1  1  0.63911602  0.63464542  0.74892407  1
  Na  Na2  1  0.03202158  0.69421698  0.58225707  1
  Na  Na3  1  0.30578302  0.96797842  0.08225707  1
  Na  Na4  1  0.69868758  0.02755098  0.91559107  1
  Na  Na5  1  0.97244902  0.30131242  0.41559107  1
  Na  Na6  1  0.99960386  0.99876597  0.49707534  1
  Na  Na7  1  0.00123403  0.00039614  0.99707534  1
  Na  Na8  1  0.66627086  0.33209897  0.83040834  1
  Na  Na9  1  0.66790103  0.33372914  0.33040834  1
  Na  Na10  1  0.33293686  0.66543297  0.16374234  1
  Na  Na11  1  0.33456703  0.66706314  0.66374234  1
  Zr  Zr12  1  0.00198410  0.00856976  0.64745198  1
  Zr  Zr13  1  0.99143024  0.99801590  0.14745198  1
  Zr  Zr14  1  0.66865110  0.34190276  0.98078498  1
  Zr  Zr15  1  0.65809724  0.33134890  0.48078498  1
  Zr  Zr16  1  0.33531710  0.67523676  0.31411898  1
  Zr  Zr17  1  0.32476324  0.66468290  0.81411898  1
  In  In18  1  0.99842982  0.99187561  0.35038204  1
  In  In19  1  0.00812439  0.00157018  0.85038204  1
  In  In20  1  0.66509682  0.32520861  0.68371504  1
  In  In21  1  0.67479139  0.33490318  0.18371504  1
  In  In22  1  0.33176282  0.65854261  0.01704904  1
  In  In23  1  0.34145739  0.66823718  0.51704904  1
  P  P24  1  0.29305053  0.00161452  0.24887502  1
  P  P25  1  0.70573880  0.70367760  0.25067410  1
  P  P26  1  0.99715278  0.29172904  0.25194545  1
  P  P27  1  0.29632240  0.29426120  0.75067410  1
  P  P28  1  0.99838548  0.70694947  0.74887502  1
  P  P29  1  0.70827096  0.00284722  0.75194545  1
  P  P30  1  0.95971753  0.33494752  0.58220802  1
  P  P31  1  0.37240580  0.03701060  0.58400710  1
  P  P32  1  0.66381978  0.62506204  0.58527845  1
  P  P33  1  0.96298940  0.62759420  0.08400710  1
  P  P34  1  0.66505248  0.04028247  0.08220802  1
  P  P35  1  0.37493796  0.33618022  0.08527845  1
  P  P36  1  0.62638353  0.66828152  0.91554202  1
  P  P37  1  0.03907180  0.37034460  0.91734110  1
  P  P38  1  0.33048578  0.95839604  0.91861245  1
  P  P39  1  0.62965540  0.96092820  0.41734110  1
  P  P40  1  0.33171848  0.37361647  0.41554202  1
  P  P41  1  0.04160396  0.66951422  0.41861245  1
  O  O42  1  0.21461929  0.03626222  0.30207940  1
  O  O43  1  0.81174673  0.78159955  0.30477147  1
  O  O44  1  0.97347494  0.19054361  0.30768007  1
  O  O45  1  0.21840045  0.18825327  0.80477147  1
  O  O46  1  0.96373778  0.78538071  0.80207940  1
  O  O47  1  0.80945639  0.02652506  0.80768007  1
  O  O48  1  0.79705173  0.97169975  0.69902835  1
  O  O49  1  0.18225204  0.20721467  0.69675669  1
  O  O50  1  0.02572449  0.81760592  0.69380938  1
  O  O51  1  0.79278533  0.81774796  0.19675669  1
  O  O52  1  0.02830025  0.20294827  0.19902835  1
  O  O53  1  0.18239408  0.97427551  0.19380938  1
  O  O54  1  0.88128629  0.36959522  0.63541240  1
  O  O55  1  0.47841373  0.11493255  0.63810447  1
  O  O56  1  0.64014194  0.52387661  0.64101307  1
  O  O57  1  0.88506745  0.52158627  0.13810447  1
  O  O58  1  0.63040478  0.11871371  0.13541240  1
  O  O59  1  0.47612339  0.35985806  0.14101307  1
  O  O60  1  0.46371873  0.30503275  0.03236135  1
  O  O61  1  0.84891904  0.54054767  0.03008969  1
  O  O62  1  0.69239149  0.15093892  0.02714238  1
  O  O63  1  0.45945233  0.15108096  0.53008969  1
  O  O64  1  0.69496725  0.53628127  0.53236135  1
  O  O65  1  0.84906108  0.30760851  0.52714238  1
  O  O66  1  0.54795229  0.70292922  0.96874640  1
  O  O67  1  0.14507973  0.44826655  0.97143847  1
  O  O68  1  0.30680794  0.85721061  0.97434707  1
  O  O69  1  0.55173345  0.85492027  0.47143847  1
  O  O70  1  0.29707078  0.45204771  0.46874640  1
  O  O71  1  0.14278939  0.69319206  0.47434707  1
  O  O72  1  0.13038473  0.63836675  0.36569535  1
  O  O73  1  0.51558504  0.87388167  0.36342369  1
  O  O74  1  0.35905749  0.48427292  0.36047638  1
  O  O75  1  0.12611833  0.48441496  0.86342369  1
  O  O76  1  0.36163325  0.86961527  0.86569535  1
  O  O77  1  0.51572708  0.64094251  0.86047638  1
  O  O78  1  0.01914850  0.82506674  0.41176939  1
  O  O79  1  0.81316200  0.99183371  0.41116589  1
  O  O80  1  0.16855350  0.19501345  0.41012726  1
  O  O81  1  0.00816629  0.18683800  0.91116589  1
  O  O82  1  0.17493326  0.98085150  0.91176939  1
  O  O83  1  0.80498655  0.83144650  0.91012726  1
  O  O84  1  0.97541834  0.17233915  0.58912290  1
  O  O85  1  0.19010586  0.01784955  0.58895355  1
  O  O86  1  0.83487787  0.80330496  0.58940767  1
  O  O87  1  0.98215045  0.80989414  0.08895355  1
  O  O88  1  0.82766085  0.02458166  0.08912290  1
  O  O89  1  0.19669504  0.16512213  0.08940767  1
  O  O90  1  0.68581550  0.15839974  0.74510239  1
  O  O91  1  0.47982900  0.32516671  0.74449889  1
  O  O92  1  0.83522050  0.52834645  0.74346026  1
  O  O93  1  0.67483329  0.52017100  0.24449889  1
  O  O94  1  0.84160026  0.31418450  0.24510239  1
  O  O95  1  0.47165355  0.16477950  0.24346026  1
  O  O96  1  0.64208534  0.50567215  0.92245590  1
  O  O97  1  0.85677286  0.35118255  0.92228655  1
  O  O98  1  0.50154487  0.13663796  0.92274067  1
  O  O99  1  0.64881745  0.14322714  0.42228655  1
  O  O100  1  0.49432785  0.35791466  0.42245590  1
  O  O101  1  0.86336204  0.49845513  0.42274067  1
  O  O102  1  0.35248150  0.49173374  0.07843639  1
  O  O103  1  0.14649500  0.65850071  0.07783289  1
  O  O104  1  0.50188650  0.86168045  0.07679426  1
  O  O105  1  0.34149929  0.85350500  0.57783289  1
  O  O106  1  0.50826626  0.64751850  0.57843639  1
  O  O107  1  0.13831955  0.49811350  0.57679426  1
  O  O108  1  0.30875134  0.83900615  0.25578990  1
  O  O109  1  0.52343886  0.68451655  0.25562055  1
  O  O110  1  0.16821087  0.46997196  0.25607467  1
  O  O111  1  0.31548345  0.47656114  0.75562055  1
  O  O112  1  0.16099385  0.69124866  0.75578990  1
  O  O113  1  0.53002804  0.83178913  0.75607467  1
