# generated using pymatgen
data_Na2Zr2Zn2SiS5O24
_symmetry_space_group_name_H-M   'P 1'
_cell_length_a   8.86955965
_cell_length_b   8.87371756
_cell_length_c   23.28796076
_cell_angle_alpha   89.89965068
_cell_angle_beta   89.92114920
_cell_angle_gamma   119.83039252
_symmetry_Int_Tables_number   1
_chemical_formula_structural   Na2Zr2Zn2SiS5O24
_chemical_formula_sum   'Na6 Zr6 Zn6 Si3 S15 O72'
_cell_volume   1590.03739204
_cell_formula_units_Z   3
loop_
 _symmetry_equiv_pos_site_id
 _symmetry_equiv_pos_as_xyz
  1  'x, y, z'
loop_
 _atom_site_type_symbol
 _atom_site_label
 _atom_site_symmetry_multiplicity
 _atom_site_fract_x
 _atom_site_fract_y
 _atom_site_fract_z
 _atom_site_occupancy
  Na  Na0  1  0.00267921  0.00131039  0.49680282  1
  Na  Na1  1  0.99866901  0.99464003  0.99592364  1
  Na  Na2  1  0.66807222  0.32359211  0.82386909  1
  Na  Na3  1  0.65727505  0.32654894  0.33919125  1
  Na  Na4  1  0.32334707  0.67060616  0.16301266  1
  Na  Na5  1  0.33825207  0.67159929  0.66139651  1
  Zr  Zr6  1  0.98696652  0.99611349  0.64655536  1
  Zr  Zr7  1  0.00835632  0.98734918  0.14718634  1
  Zr  Zr8  1  0.67080160  0.33362403  0.18690534  1
  Zr  Zr9  1  0.67682561  0.34533068  0.97936458  1
  Zr  Zr10  1  0.33144875  0.67564892  0.31748184  1
  Zr  Zr11  1  0.34204031  0.67534173  0.80970183  1
  Zn  Zn12  1  0.01622565  0.00588740  0.35294747  1
  Zn  Zn13  1  0.99305247  0.00309855  0.84464452  1
  Zn  Zn14  1  0.66622127  0.31659480  0.68348287  1
  Zn  Zn15  1  0.66341803  0.33252806  0.48580086  1
  Zn  Zn16  1  0.31791181  0.66571651  0.01753622  1
  Zn  Zn17  1  0.33364359  0.66616834  0.51763317  1
  Si  Si18  1  0.29189986  0.00115271  0.25391979  1
  Si  Si19  1  0.71551018  0.01540180  0.75220607  1
  Si  Si20  1  0.96956867  0.62625208  0.08291607  1
  S  S21  1  0.70929251  0.71065863  0.25192140  1
  S  S22  1  0.00155961  0.28803892  0.25146110  1
  S  S23  1  0.29285539  0.28757342  0.75102740  1
  S  S24  1  0.99416111  0.70715619  0.75118098  1
  S  S25  1  0.95956792  0.34003682  0.58209658  1
  S  S26  1  0.37787093  0.04076595  0.58226926  1
  S  S27  1  0.66151129  0.61690203  0.58315201  1
  S  S28  1  0.66438848  0.03920080  0.08261291  1
  S  S29  1  0.37674094  0.33816736  0.08258800  1
  S  S30  1  0.62391574  0.67192285  0.91861399  1
  S  S31  1  0.04699102  0.37208478  0.91758032  1
  S  S32  1  0.32766504  0.95713082  0.91717956  1
  S  S33  1  0.63083550  0.96208116  0.41856004  1
  S  S34  1  0.33384944  0.37439160  0.41855863  1
  S  S35  1  0.03617587  0.66498094  0.41962668  1
  O  O36  1  0.20540894  0.03410903  0.30791946  1
  O  O37  1  0.81269415  0.78693064  0.30274695  1
  O  O38  1  0.96874315  0.18345688  0.30277071  1
  O  O39  1  0.21722333  0.18524641  0.80341627  1
  O  O40  1  0.97647070  0.78782022  0.80365065  1
  O  O41  1  0.82158577  0.03241556  0.80902441  1
  O  O42  1  0.79949428  0.97122000  0.69488875  1
  O  O43  1  0.18238719  0.20852803  0.69900629  1
  O  O44  1  0.03144702  0.81936599  0.69883038  1
  O  O45  1  0.78605733  0.81632915  0.19843912  1
  O  O46  1  0.02378181  0.20963588  0.19799749  1
  O  O47  1  0.17612776  0.96941581  0.19434757  1
  O  O48  1  0.88231636  0.36374149  0.63464280  1
  O  O49  1  0.47959594  0.11881468  0.63457031  1
  O  O50  1  0.64072476  0.51687820  0.63583051  1
  O  O51  1  0.86579764  0.50730444  0.13864138  1
  O  O52  1  0.63871160  0.12206668  0.13470995  1
  O  O53  1  0.48077910  0.35533742  0.13467093  1
  O  O54  1  0.45522695  0.30350124  0.03110858  1
  O  O55  1  0.83841429  0.53162525  0.02757226  1
  O  O56  1  0.68915596  0.15001756  0.03109748  1
  O  O57  1  0.45213671  0.14726328  0.53010935  1
  O  O58  1  0.69529556  0.54595034  0.53073992  1
  O  O59  1  0.85260052  0.30456393  0.53028718  1
  O  O60  1  0.53963971  0.69039865  0.97026001  1
  O  O61  1  0.14797811  0.45458184  0.96945128  1
  O  O62  1  0.30641663  0.85382904  0.96891966  1
  O  O63  1  0.54706968  0.85220576  0.46886492  1
  O  O64  1  0.30972806  0.45901135  0.46923607  1
  O  O65  1  0.14809560  0.69161758  0.46924898  1
  O  O66  1  0.12382510  0.64202182  0.36583244  1
  O  O67  1  0.51794316  0.87487243  0.36524672  1
  O  O68  1  0.35684592  0.48299085  0.36505341  1
  O  O69  1  0.12217011  0.48174089  0.86558734  1
  O  O70  1  0.35797355  0.87516237  0.86516779  1
  O  O71  1  0.51503906  0.64145577  0.86611721  1
  O  O72  1  0.01872597  0.82062217  0.41147485  1
  O  O73  1  0.80232915  0.97613515  0.40859813  1
  O  O74  1  0.17490654  0.20235467  0.41222829  1
  O  O75  1  0.02430905  0.19754459  0.91225967  1
  O  O76  1  0.17491765  0.97830104  0.90910811  1
  O  O77  1  0.80032046  0.81862709  0.91226110  1
  O  O78  1  0.98069114  0.17902383  0.58953735  1
  O  O79  1  0.19898719  0.02195690  0.58998434  1
  O  O80  1  0.82521184  0.79770115  0.58928611  1
  O  O81  1  0.97247658  0.81409600  0.08739569  1
  O  O82  1  0.82645928  0.03116978  0.08959570  1
  O  O83  1  0.20023032  0.18132945  0.08911452  1
  O  O84  1  0.68349055  0.17634653  0.74369571  1
  O  O85  1  0.46878809  0.31767989  0.74270951  1
  O  O86  1  0.84265395  0.53592856  0.74291744  1
  O  O87  1  0.68961039  0.53467728  0.24294329  1
  O  O88  1  0.84655289  0.31250562  0.24366431  1
  O  O89  1  0.48517391  0.16882521  0.24150800  1
  O  O90  1  0.63500376  0.50564554  0.92290840  1
  O  O91  1  0.86642131  0.35423865  0.92362546  1
  O  O92  1  0.48904912  0.13253598  0.92321843  1
  O  O93  1  0.64237376  0.13402842  0.42183634  1
  O  O94  1  0.49309956  0.35919366  0.42216270  1
  O  O95  1  0.86489827  0.50430625  0.42256273  1
  O  O96  1  0.36356850  0.49430039  0.07623558  1
  O  O97  1  0.15812478  0.64628154  0.07786237  1
  O  O98  1  0.51291566  0.86683309  0.07650825  1
  O  O99  1  0.35559993  0.86350818  0.57589278  1
  O  O100  1  0.51053708  0.64524714  0.57693891  1
  O  O101  1  0.13735617  0.49192479  0.57576295  1
  O  O102  1  0.31334822  0.82607416  0.25745810  1
  O  O103  1  0.53077963  0.68667103  0.25656716  1
  O  O104  1  0.15845390  0.46479701  0.25678274  1
  O  O105  1  0.30258251  0.46305318  0.75772074  1
  O  O106  1  0.15515312  0.68859958  0.75727605  1
  O  O107  1  0.52043217  0.83091260  0.75748646  1
