# generated using pymatgen
data_Na4TaGa(SiO4)3
_symmetry_space_group_name_H-M   'P 1'
_cell_length_a   9.03078849
_cell_length_b   9.03078818
_cell_length_c   22.17717419
_cell_angle_alpha   90.00000000
_cell_angle_beta   90.00000000
_cell_angle_gamma   120.00000116
_symmetry_Int_Tables_number   1
_chemical_formula_structural   Na4TaGa(SiO4)3
_chemical_formula_sum   'Na24 Ta6 Ga6 Si18 O72'
_cell_volume   1566.34765421
_cell_formula_units_Z   6
loop_
 _symmetry_equiv_pos_site_id
 _symmetry_equiv_pos_as_xyz
  1  'x, y, z'
loop_
 _atom_site_type_symbol
 _atom_site_label
 _atom_site_symmetry_multiplicity
 _atom_site_fract_x
 _atom_site_fract_y
 _atom_site_fract_z
 _atom_site_occupancy
  Na  Na0  1  0.63756271  0.01054851  0.24801598  1
  Na  Na1  1  0.37298580  0.36243729  0.24801598  1
  Na  Na2  1  0.98945149  0.62701420  0.24801598  1
  Na  Na3  1  0.63756271  0.62701420  0.74801598  1
  Na  Na4  1  0.98945149  0.36243729  0.74801598  1
  Na  Na5  1  0.37298580  0.01054851  0.74801598  1
  Na  Na6  1  0.30422971  0.34388151  0.58134898  1
  Na  Na7  1  0.03965280  0.69577029  0.58134898  1
  Na  Na8  1  0.65611849  0.96034720  0.58134898  1
  Na  Na9  1  0.30422971  0.96034720  0.08134898  1
  Na  Na10  1  0.65611849  0.69577029  0.08134898  1
  Na  Na11  1  0.03965280  0.34388151  0.08134898  1
  Na  Na12  1  0.97089571  0.67721551  0.91468298  1
  Na  Na13  1  0.70631880  0.02910429  0.91468298  1
  Na  Na14  1  0.32278449  0.29368120  0.91468298  1
  Na  Na15  1  0.97089571  0.29368120  0.41468298  1
  Na  Na16  1  0.32278449  0.02910429  0.41468298  1
  Na  Na17  1  0.70631880  0.67721551  0.41468298  1
  Na  Na18  1  -0.00000000  -0.00000000  0.49510351  1
  Na  Na19  1  -0.00000000  -0.00000000  0.99510351  1
  Na  Na20  1  0.66666700  0.33333300  0.82843651  1
  Na  Na21  1  0.66666700  0.33333300  0.32843651  1
  Na  Na22  1  0.33333300  0.66666700  0.16177051  1
  Na  Na23  1  0.33333300  0.66666700  0.66177051  1
  Ta  Ta24  1  0.00000000  -0.00000000  0.64651634  1
  Ta  Ta25  1  0.00000000  -0.00000000  0.14651634  1
  Ta  Ta26  1  0.66666700  0.33333300  0.97984934  1
  Ta  Ta27  1  0.66666700  0.33333300  0.47984934  1
  Ta  Ta28  1  0.33333300  0.66666700  0.31318334  1
  Ta  Ta29  1  0.33333300  0.66666700  0.81318334  1
  Ga  Ga30  1  0.00000000  -0.00000000  0.35099121  1
  Ga  Ga31  1  0.00000000  -0.00000000  0.85099121  1
  Ga  Ga32  1  0.66666700  0.33333300  0.68432421  1
  Ga  Ga33  1  0.66666700  0.33333300  0.18432421  1
  Ga  Ga34  1  0.33333300  0.66666700  0.01765821  1
  Ga  Ga35  1  0.33333300  0.66666700  0.51765821  1
  Si  Si36  1  0.29293964  0.00446675  0.25185597  1
  Si  Si37  1  0.71152711  0.70706036  0.25185597  1
  Si  Si38  1  0.99553325  0.28847289  0.25185597  1
  Si  Si39  1  0.29293964  0.28847289  0.75185597  1
  Si  Si40  1  0.99553325  0.70706036  0.75185597  1
  Si  Si41  1  0.71152711  0.00446675  0.75185597  1
  Si  Si42  1  0.95960664  0.33779975  0.58518897  1
  Si  Si43  1  0.37819411  0.04039336  0.58518897  1
  Si  Si44  1  0.66220025  0.62180589  0.58518897  1
  Si  Si45  1  0.95960664  0.62180589  0.08518897  1
  Si  Si46  1  0.66220025  0.04039336  0.08518897  1
  Si  Si47  1  0.37819411  0.33779975  0.08518897  1
  Si  Si48  1  0.62627264  0.67113375  0.91852297  1
  Si  Si49  1  0.04486011  0.37372736  0.91852297  1
  Si  Si50  1  0.32886625  0.95513989  0.91852297  1
  Si  Si51  1  0.62627264  0.95513989  0.41852297  1
  Si  Si52  1  0.32886625  0.37372736  0.41852297  1
  Si  Si53  1  0.04486011  0.67113375  0.41852297  1
  O  O54  1  0.20642331  0.03653491  0.31007061  1
  O  O55  1  0.83011160  0.79357669  0.31007061  1
  O  O56  1  0.96346509  0.16988840  0.31007061  1
  O  O57  1  0.20642331  0.16988840  0.81007061  1
  O  O58  1  0.96346509  0.79357669  0.81007061  1
  O  O59  1  0.83011160  0.03653491  0.81007061  1
  O  O60  1  0.79946546  0.96456788  0.69207881  1
  O  O61  1  0.16510242  0.20053454  0.69207881  1
  O  O62  1  0.03543212  0.83489758  0.69207881  1
  O  O63  1  0.79946546  0.83489758  0.19207881  1
  O  O64  1  0.03543212  0.20053454  0.19207881  1
  O  O65  1  0.16510242  0.96456788  0.19207881  1
  O  O66  1  0.87309031  0.36986791  0.64340361  1
  O  O67  1  0.49677860  0.12690969  0.64340361  1
  O  O68  1  0.63013209  0.50322140  0.64340361  1
  O  O69  1  0.87309031  0.50322140  0.14340361  1
  O  O70  1  0.63013209  0.12690969  0.14340361  1
  O  O71  1  0.49677860  0.36986791  0.14340361  1
  O  O72  1  0.46613246  0.29790088  0.02541181  1
  O  O73  1  0.83176942  0.53386754  0.02541181  1
  O  O74  1  0.70209912  0.16823058  0.02541181  1
  O  O75  1  0.46613246  0.16823058  0.52541181  1
  O  O76  1  0.70209912  0.53386754  0.52541181  1
  O  O77  1  0.83176942  0.29790088  0.52541181  1
  O  O78  1  0.53975631  0.70320191  0.97673761  1
  O  O79  1  0.16344460  0.46024369  0.97673761  1
  O  O80  1  0.29679809  0.83655540  0.97673761  1
  O  O81  1  0.53975631  0.83655540  0.47673761  1
  O  O82  1  0.29679809  0.46024369  0.47673761  1
  O  O83  1  0.16344460  0.70320191  0.47673761  1
  O  O84  1  0.13279846  0.63123488  0.35874581  1
  O  O85  1  0.49843542  0.86720154  0.35874581  1
  O  O86  1  0.36876512  0.50156458  0.35874581  1
  O  O87  1  0.13279846  0.50156458  0.85874581  1
  O  O88  1  0.36876512  0.86720154  0.85874581  1
  O  O89  1  0.49843542  0.63123488  0.85874581  1
  O  O90  1  0.02054464  0.83580443  0.41124503  1
  O  O91  1  0.81525979  0.97945536  0.41124503  1
  O  O92  1  0.16419557  0.18474021  0.41124503  1
  O  O93  1  0.02054464  0.18474021  0.91124503  1
  O  O94  1  0.16419557  0.97945536  0.91124503  1
  O  O95  1  0.81525979  0.83580443  0.91124503  1
  O  O96  1  0.97227092  0.15989618  0.58919657  1
  O  O97  1  0.18762526  0.02772908  0.58919657  1
  O  O98  1  0.84010382  0.81237474  0.58919657  1
  O  O99  1  0.97227092  0.81237474  0.08919657  1
  O  O100  1  0.84010382  0.02772908  0.08919657  1
  O  O101  1  0.18762526  0.15989618  0.08919657  1
  O  O102  1  0.68721164  0.16913743  0.74457803  1
  O  O103  1  0.48192679  0.31278836  0.74457803  1
  O  O104  1  0.83086257  0.51807321  0.74457803  1
  O  O105  1  0.68721164  0.51807321  0.24457803  1
  O  O106  1  0.83086257  0.31278836  0.24457803  1
  O  O107  1  0.48192679  0.16913743  0.24457803  1
  O  O108  1  0.63893792  0.49322918  0.92252957  1
  O  O109  1  0.85429226  0.36106208  0.92252957  1
  O  O110  1  0.50677082  0.14570774  0.92252957  1
  O  O111  1  0.63893792  0.14570774  0.42252957  1
  O  O112  1  0.50677082  0.36106208  0.42252957  1
  O  O113  1  0.85429226  0.49322918  0.42252957  1
  O  O114  1  0.35387764  0.50247143  0.07791203  1
  O  O115  1  0.14859279  0.64612236  0.07791203  1
  O  O116  1  0.49752857  0.85140721  0.07791203  1
  O  O117  1  0.35387764  0.85140721  0.57791203  1
  O  O118  1  0.49752857  0.64612236  0.57791203  1
  O  O119  1  0.14859279  0.50247143  0.57791203  1
  O  O120  1  0.30560392  0.82656318  0.25586357  1
  O  O121  1  0.52095826  0.69439608  0.25586357  1
  O  O122  1  0.17343682  0.47904174  0.25586357  1
  O  O123  1  0.30560392  0.47904174  0.75586357  1
  O  O124  1  0.17343682  0.69439608  0.75586357  1
  O  O125  1  0.52095826  0.82656318  0.75586357  1
