# generated using pymatgen
data_Hg2MoO4
_symmetry_space_group_name_H-M   'P 1'
_cell_length_a   9.11768554
_cell_length_b   5.16752255
_cell_length_c   10.94092311
_cell_angle_alpha   79.03774885
_cell_angle_beta   90.00000000
_cell_angle_gamma   90.00000000
_symmetry_Int_Tables_number   1
_chemical_formula_structural   Hg2MoO4
_chemical_formula_sum   'Hg8 Mo4 O16'
_cell_volume   506.08451903
_cell_formula_units_Z   4
loop_
 _symmetry_equiv_pos_site_id
 _symmetry_equiv_pos_as_xyz
  1  'x, y, z'
loop_
 _atom_site_type_symbol
 _atom_site_label
 _atom_site_symmetry_multiplicity
 _atom_site_fract_x
 _atom_site_fract_y
 _atom_site_fract_z
 _atom_site_occupancy
  Hg  Hg0  1  0.87738678  0.34243193  0.93745511  1
  Hg  Hg1  1  0.37738678  0.65756807  0.56254489  1
  Hg  Hg2  1  0.12261322  0.65756807  0.06254489  1
  Hg  Hg3  1  0.62261322  0.34243193  0.43745511  1
  Hg  Hg4  1  0.79037436  0.55640133  0.57860499  1
  Hg  Hg5  1  0.29037436  0.44359867  0.92139501  1
  Hg  Hg6  1  0.20962564  0.44359867  0.42139501  1
  Hg  Hg7  1  0.70962564  0.55640133  0.07860499  1
  Mo  Mo8  1  0.04166461  0.96900391  0.71669014  1
  Mo  Mo9  1  0.54166461  0.03099609  0.78330986  1
  Mo  Mo10  1  0.95833539  0.03099609  0.28330986  1
  Mo  Mo11  1  0.45833539  0.96900391  0.21669014  1
  O  O12  1  0.91178755  0.70367492  0.72141821  1
  O  O13  1  0.41178755  0.29632508  0.77858179  1
  O  O14  1  0.08821245  0.29632508  0.27858179  1
  O  O15  1  0.58821245  0.70367492  0.22141821  1
  O  O16  1  0.51128212  0.78511455  0.91336112  1
  O  O17  1  0.01128212  0.21488545  0.58663888  1
  O  O18  1  0.48871788  0.21488545  0.08663888  1
  O  O19  1  0.98871788  0.78511455  0.41336112  1
  O  O20  1  0.21844848  0.84277908  0.70840605  1
  O  O21  1  0.71844848  0.15722092  0.79159395  1
  O  O22  1  0.78155152  0.15722092  0.29159395  1
  O  O23  1  0.28155152  0.84277908  0.20840605  1
  O  O24  1  0.96471174  0.89922498  0.14302925  1
  O  O25  1  0.46471174  0.10077502  0.35697075  1
  O  O26  1  0.03528826  0.10077502  0.85697075  1
  O  O27  1  0.53528826  0.89922498  0.64302925  1
