# generated using pymatgen
data_BaSn2S3
_symmetry_space_group_name_H-M   'P 1'
_cell_length_a   13.71842834
_cell_length_b   6.23033321
_cell_length_c   11.98821929
_cell_angle_alpha   79.20643046
_cell_angle_beta   90.00000000
_cell_angle_gamma   90.00000000
_symmetry_Int_Tables_number   1
_chemical_formula_structural   BaSn2S3
_chemical_formula_sum   'Ba6 Sn12 S18'
_cell_volume   1006.51004694
_cell_formula_units_Z   6
loop_
 _symmetry_equiv_pos_site_id
 _symmetry_equiv_pos_as_xyz
  1  'x, y, z'
loop_
 _atom_site_type_symbol
 _atom_site_label
 _atom_site_symmetry_multiplicity
 _atom_site_fract_x
 _atom_site_fract_y
 _atom_site_fract_z
 _atom_site_occupancy
  Ba  Ba0  1  0.75000000  0.88357678  0.47674671  1
  Ba  Ba1  1  0.25000000  0.11642322  0.52325329  1
  Ba  Ba2  1  0.42269809  0.20736904  0.13025303  1
  Ba  Ba3  1  0.92269809  0.79263096  0.86974697  1
  Ba  Ba4  1  0.57730191  0.79263096  0.86974697  1
  Ba  Ba5  1  0.07730191  0.20736904  0.13025303  1
  Sn  Sn6  1  0.88355385  0.54940841  0.22684639  1
  Sn  Sn7  1  0.25000000  0.62620413  0.20513956  1
  Sn  Sn8  1  0.45120958  0.77500584  0.44912908  1
  Sn  Sn9  1  0.95120958  0.22499416  0.55087092  1
  Sn  Sn10  1  0.54879042  0.22499416  0.55087092  1
  Sn  Sn11  1  0.04879042  0.77500584  0.44912908  1
  Sn  Sn12  1  0.75000000  0.15783164  0.09955259  1
  Sn  Sn13  1  0.25000000  0.84216836  0.90044741  1
  Sn  Sn14  1  0.38355385  0.45059159  0.77315361  1
  Sn  Sn15  1  0.11644615  0.45059159  0.77315361  1
  Sn  Sn16  1  0.61644615  0.54940841  0.22684639  1
  Sn  Sn17  1  0.75000000  0.37379587  0.79486044  1
  S  S18  1  0.75000000  0.75337381  0.07177947  1
  S  S19  1  0.25000000  0.24662619  0.92822053  1
  S  S20  1  0.75000000  0.43362160  0.37625753  1
  S  S21  1  0.25000000  0.56637840  0.62374247  1
  S  S22  1  0.75000000  0.03304758  0.72107422  1
  S  S23  1  0.25000000  0.96695242  0.27892578  1
  S  S24  1  0.39104977  0.74438091  0.04977256  1
  S  S25  1  0.89104977  0.25561909  0.95022744  1
  S  S26  1  0.60895023  0.25561909  0.95022744  1
  S  S27  1  0.10895023  0.74438091  0.04977256  1
  S  S28  1  0.42112753  0.09077648  0.70868190  1
  S  S29  1  0.92112753  0.90922352  0.29131810  1
  S  S30  1  0.57887247  0.90922352  0.29131810  1
  S  S31  1  0.07887247  0.09077648  0.70868190  1
  S  S32  1  0.07093088  0.40702405  0.38842028  1
  S  S33  1  0.92906912  0.59297595  0.61157972  1
  S  S34  1  0.57093088  0.59297595  0.61157972  1
  S  S35  1  0.42906912  0.40702405  0.38842028  1
