# generated using pymatgen
data_Na6Zr4Si7Ge4S5O48
_symmetry_space_group_name_H-M   'P 1'
_cell_length_a   17.66455825
_cell_length_b   8.83257490
_cell_length_c   22.67748310
_cell_angle_alpha   89.90167343
_cell_angle_beta   89.60501861
_cell_angle_gamma   119.90974122
_symmetry_Int_Tables_number   1
_chemical_formula_structural   Na6Zr4Si7Ge4S5O48
_chemical_formula_sum   'Na18 Zr12 Si21 Ge12 S15 O144'
_cell_volume   3066.84532963
_cell_formula_units_Z   3
loop_
 _symmetry_equiv_pos_site_id
 _symmetry_equiv_pos_as_xyz
  1  'x, y, z'
loop_
 _atom_site_type_symbol
 _atom_site_label
 _atom_site_symmetry_multiplicity
 _atom_site_fract_x
 _atom_site_fract_y
 _atom_site_fract_z
 _atom_site_occupancy
  Na  Na0  1  0.99915031  0.62889764  0.25163399  1
  Na  Na1  1  0.49856639  0.63914125  0.24665201  1
  Na  Na2  1  0.99930773  0.35718632  0.75231142  1
  Na  Na3  1  0.49889107  0.37044066  0.75327493  1
  Na  Na4  1  0.66600679  0.31560358  0.91796595  1
  Na  Na5  1  0.16682017  0.02021592  0.41484943  1
  Na  Na6  1  0.99804279  0.99014132  0.50528007  1
  Na  Na7  1  0.49808792  0.99507454  0.49741392  1
  Na  Na8  1  0.99879489  0.00134184  0.99854993  1
  Na  Na9  1  0.49742425  0.00125374  0.00711690  1
  Na  Na10  1  0.33187938  0.33442644  0.83545256  1
  Na  Na11  1  0.83408322  0.33263340  0.83475123  1
  Na  Na12  1  0.33394378  0.33613826  0.32990499  1
  Na  Na13  1  0.83227304  0.32825285  0.33172142  1
  Na  Na14  1  0.17448044  0.67152318  0.16679099  1
  Na  Na15  1  0.67015283  0.66757205  0.16052443  1
  Na  Na16  1  0.17440415  0.67727112  0.66379256  1
  Na  Na17  1  0.67295159  0.67639178  0.66847973  1
  Zr  Zr18  1  0.99703972  0.99290385  0.35167584  1
  Zr  Zr19  1  0.49630972  0.99937559  0.85306397  1
  Zr  Zr20  1  0.32108075  0.32290358  0.69003758  1
  Zr  Zr21  1  0.82718916  0.33301919  0.68531399  1
  Zr  Zr22  1  0.33293244  0.32884095  0.18209111  1
  Zr  Zr23  1  0.82118745  0.31862237  0.18970652  1
  Zr  Zr24  1  0.83447513  0.34121943  0.98200438  1
  Zr  Zr25  1  0.33482638  0.32884006  0.48101921  1
  Zr  Zr26  1  0.16850871  0.67321420  0.30751530  1
  Zr  Zr27  1  0.66699268  0.67353036  0.30949058  1
  Zr  Zr28  1  0.16968285  0.66357972  0.81245137  1
  Zr  Zr29  1  0.66828895  0.66446361  0.80968619  1
  Si  Si30  1  0.14642731  0.00917018  0.24808784  1
  Si  Si31  1  0.63199965  0.00310400  0.25092056  1
  Si  Si32  1  0.36159279  0.72193020  0.24615495  1
  Si  Si33  1  0.85500033  0.71215343  0.24643526  1
  Si  Si34  1  0.99955598  0.28638683  0.24791846  1
  Si  Si35  1  0.13185647  0.26331233  0.75155135  1
  Si  Si36  1  0.64362943  0.28407581  0.74903186  1
  Si  Si37  1  0.49994134  0.71200108  0.74801950  1
  Si  Si38  1  0.35393251  0.99653124  0.74691160  1
  Si  Si39  1  0.86137247  0.99889259  0.74675629  1
  Si  Si40  1  0.17914632  0.03062889  0.58336490  1
  Si  Si41  1  0.83079257  0.63781663  0.58155428  1
  Si  Si42  1  0.48671483  0.62944752  0.08045320  1
  Si  Si43  1  0.33011565  0.02502433  0.08152437  1
  Si  Si44  1  0.67934822  0.32595099  0.08376513  1
  Si  Si45  1  0.81503292  0.68341665  0.91784809  1
  Si  Si46  1  0.02599926  0.38175903  0.91957857  1
  Si  Si47  1  0.51726473  0.37731149  0.91848097  1
  Si  Si48  1  0.31955835  0.95556688  0.41426552  1
  Si  Si49  1  0.01786747  0.65681122  0.41951813  1
  Si  Si50  1  0.52633579  0.67325519  0.41950707  1
  Ge  Ge51  1  0.49271946  0.95789058  0.35458082  1
  Ge  Ge52  1  0.99266935  0.02867145  0.85748308  1
  Ge  Ge53  1  0.99805812  0.99360900  0.64648308  1
  Ge  Ge54  1  0.49838759  0.99510151  0.66203376  1
  Ge  Ge55  1  0.99940788  0.00396853  0.15956868  1
  Ge  Ge56  1  0.49621631  0.97646917  0.13867912  1
  Ge  Ge57  1  0.35487120  0.33669267  0.98914465  1
  Ge  Ge58  1  0.84161691  0.36674332  0.48446860  1
  Ge  Ge59  1  0.16741273  0.66794438  0.01759910  1
  Ge  Ge60  1  0.66271722  0.63313125  0.02015768  1
  Ge  Ge61  1  0.17543471  0.71154899  0.51429211  1
  Ge  Ge62  1  0.66712325  0.66550772  0.51684437  1
  S  S63  1  0.49942259  0.27724012  0.25078827  1
  S  S64  1  0.00016879  0.71960417  0.75028440  1
  S  S65  1  0.48535075  0.33234944  0.58384208  1
  S  S66  1  0.98238180  0.33699102  0.58051323  1
  S  S67  1  0.68527301  0.03816141  0.57979254  1
  S  S68  1  0.33367853  0.63802054  0.58263462  1
  S  S69  1  0.98516179  0.63845094  0.08409934  1
  S  S70  1  0.83561520  0.03158051  0.08338039  1
  S  S71  1  0.18489056  0.33103195  0.07934937  1
  S  S72  1  0.31000897  0.65565219  0.92145110  1
  S  S73  1  0.16760540  0.96203532  0.91895839  1
  S  S74  1  0.66610094  0.95112867  0.91998879  1
  S  S75  1  0.80998209  0.96179347  0.42167209  1
  S  S76  1  0.16563924  0.38259821  0.42094966  1
  S  S77  1  0.66788660  0.37510044  0.41981404  1
  O  O78  1  0.10499235  0.03196489  0.30996120  1
  O  O79  1  0.59239244  0.03538118  0.31273240  1
  O  O80  1  0.41830802  0.79382878  0.30773384  1
  O  O81  1  0.91356510  0.79165184  0.30538315  1
  O  O82  1  0.48644471  0.17851826  0.30550841  1
  O  O83  1  0.98263694  0.17062385  0.30713786  1
  O  O84  1  0.09008017  0.14617705  0.81179808  1
  O  O85  1  0.60422956  0.17580064  0.80972718  1
  O  O86  1  0.48236939  0.79487160  0.80637583  1
  O  O87  1  0.98482434  0.79071717  0.80336305  1
  O  O88  1  0.41377614  0.03508910  0.80480093  1
  O  O89  1  0.92013804  0.04426934  0.80702231  1
  O  O90  1  0.39783410  0.96350757  0.68749765  1
  O  O91  1  0.90520527  0.96610882  0.68831751  1
  O  O92  1  0.07456090  0.18566840  0.69156589  1
  O  O93  1  0.58046289  0.19659470  0.69046774  1
  O  O94  1  0.01473106  0.81964827  0.69523160  1
  O  O95  1  0.51904271  0.83423348  0.68771118  1
  O  O96  1  0.40570654  0.84532567  0.18902608  1
  O  O97  1  0.89943342  0.83466936  0.18778702  1
  O  O98  1  0.01862885  0.20257278  0.18847206  1
  O  O99  1  0.51382923  0.20771303  0.19715593  1
  O  O100  1  0.07979521  0.96414736  0.19101485  1
  O  O101  1  0.57479762  0.96251672  0.19197784  1
  O  O102  1  0.44673526  0.36346120  0.63702708  1
  O  O103  1  0.94276694  0.36458727  0.63471694  1
  O  O104  1  0.24464440  0.12077556  0.63807923  1
  O  O105  1  0.73907539  0.11488069  0.63335661  1
  O  O106  1  0.32069130  0.52953968  0.63566265  1
  O  O107  1  0.81200805  0.50696515  0.63727084  1
  O  O108  1  0.44542379  0.51132415  0.14008234  1
  O  O109  1  0.94675323  0.53062581  0.13740511  1
  O  O110  1  0.30796845  0.11167432  0.13741540  1
  O  O111  1  0.82392490  0.11740994  0.13620755  1
  O  O112  1  0.23751107  0.36241518  0.13354019  1
  O  O113  1  0.74609031  0.36585481  0.13803413  1
  O  O114  1  0.22755175  0.30503272  0.02708320  1
  O  O115  1  0.72307629  0.29438732  0.02390683  1
  O  O116  1  0.41649087  0.53631311  0.02513232  1
  O  O117  1  0.92959367  0.55195894  0.03197247  1
  O  O118  1  0.34786414  0.15352413  0.02330714  1
  O  O119  1  0.85012126  0.14491751  0.03070503  1
  O  O120  1  0.22155078  0.14619439  0.52335525  1
  O  O121  1  0.72974895  0.15355085  0.52671459  1
  O  O122  1  0.34756274  0.55374893  0.53034168  1
  O  O123  1  0.85043155  0.54402602  0.52432669  1
  O  O124  1  0.42950702  0.30781324  0.53184291  1
  O  O125  1  0.92187541  0.30541041  0.52825488  1
  O  O126  1  0.26890901  0.69147690  0.97333154  1
  O  O127  1  0.76572887  0.70774890  0.97617788  1
  O  O128  1  0.09015639  0.48323838  0.97592410  1
  O  O129  1  0.58447058  0.46767046  0.97315095  1
  O  O130  1  0.15316071  0.84585843  0.97194044  1
  O  O131  1  0.65526000  0.84882714  0.97190086  1
  O  O132  1  0.27580574  0.83595056  0.47524914  1
  O  O133  1  0.76919595  0.84652622  0.47409788  1
  O  O134  1  0.15459877  0.46644228  0.47384783  1
  O  O135  1  0.65462751  0.46097969  0.47309133  1
  O  O136  1  0.08510536  0.69662243  0.47561520  1
  O  O137  1  0.58973195  0.69874104  0.47680101  1
  O  O138  1  0.05640805  0.62624270  0.35868871  1
  O  O139  1  0.56565848  0.63594741  0.36026845  1
  O  O140  1  0.25051255  0.87064620  0.36152990  1
  O  O141  1  0.75957964  0.88222059  0.36758408  1
  O  O142  1  0.17849061  0.48166232  0.36600536  1
  O  O143  1  0.68606412  0.48504821  0.36673071  1
  O  O144  1  0.06445569  0.49251740  0.85870592  1
  O  O145  1  0.55607958  0.48504971  0.85708886  1
  O  O146  1  0.18330918  0.88119868  0.86546255  1
  O  O147  1  0.67872127  0.87842181  0.86458312  1
  O  O148  1  0.25944914  0.63885553  0.86671901  1
  O  O149  1  0.75189251  0.63319265  0.86112821  1
  O  O150  1  0.01249397  0.83669467  0.41900027  1
  O  O151  1  0.51903467  0.85109505  0.41441811  1
  O  O152  1  0.41819432  0.98512650  0.40607052  1
  O  O153  1  0.89721318  0.98041034  0.41764776  1
  O  O154  1  0.08871973  0.20363536  0.41774731  1
  O  O155  1  0.58978146  0.20497710  0.41517205  1
  O  O156  1  0.01972245  0.18989576  0.91499587  1
  O  O157  1  0.51138933  0.18579255  0.91666649  1
  O  O158  1  0.08695051  0.97010035  0.91339439  1
  O  O159  1  0.58899783  0.97765091  0.91566653  1
  O  O160  1  0.39697119  0.81289244  0.91660488  1
  O  O161  1  0.91527636  0.85064966  0.90703632  1
  O  O162  1  0.49336285  0.17367601  0.58786149  1
  O  O163  1  0.98730745  0.17568563  0.58467625  1
  O  O164  1  0.08336249  0.01388160  0.59414282  1
  O  O165  1  0.59858515  0.02310538  0.58573330  1
  O  O166  1  0.41353172  0.81328424  0.58770335  1
  O  O167  1  0.91854641  0.82640819  0.59038117  1
  O  O168  1  0.49035205  0.81620277  0.08543158  1
  O  O169  1  0.99305549  0.81284848  0.08796890  1
  O  O170  1  0.41784709  0.01381661  0.08946370  1
  O  O171  1  0.91720913  0.01888918  0.08831622  1
  O  O172  1  0.09670002  0.17251681  0.08615671  1
  O  O173  1  0.58403167  0.15622724  0.09436885  1
  O  O174  1  0.35162753  0.17643388  0.74185306  1
  O  O175  1  0.85706067  0.18049857  0.73947779  1
  O  O176  1  0.23117705  0.29910076  0.74800063  1
  O  O177  1  0.73976205  0.30454999  0.74496511  1
  O  O178  1  0.41607006  0.51874988  0.73985094  1
  O  O179  1  0.92431009  0.53632692  0.74303313  1
  O  O180  1  0.35467836  0.53000868  0.24214499  1
  O  O181  1  0.85217263  0.52681392  0.24227363  1
  O  O182  1  0.42291809  0.30851182  0.24660154  1
  O  O183  1  0.91630074  0.31432642  0.24122231  1
  O  O184  1  0.24196392  0.17803480  0.24502832  1
  O  O185  1  0.73216167  0.16439084  0.24896107  1
  O  O186  1  0.31432113  0.49533964  0.92643170  1
  O  O187  1  0.82226522  0.50431420  0.92552154  1
  O  O188  1  0.41900902  0.35807562  0.92498898  1
  O  O189  1  0.92812942  0.35115613  0.92645614  1
  O  O190  1  0.24530146  0.13633411  0.92551351  1
  O  O191  1  0.74502310  0.13336558  0.92244798  1
  O  O192  1  0.32298127  0.14340247  0.42473169  1
  O  O193  1  0.81592339  0.13532864  0.42838847  1
  O  O194  1  0.24419151  0.35909215  0.42440851  1
  O  O195  1  0.74859763  0.35576982  0.42734465  1
  O  O196  1  0.42869114  0.50732256  0.42797455  1
  O  O197  1  0.91972876  0.47646954  0.42679109  1
  O  O198  1  0.17642351  0.49296629  0.07436993  1
  O  O199  1  0.67836242  0.51040778  0.07715786  1
  O  O200  1  0.07252095  0.65113456  0.07534475  1
  O  O201  1  0.58432343  0.65610314  0.06834625  1
  O  O202  1  0.24067841  0.83113307  0.06861583  1
  O  O203  1  0.75635447  0.86267831  0.07774527  1
  O  O204  1  0.17426947  0.83660185  0.57646105  1
  O  O205  1  0.67804620  0.86287048  0.57450595  1
  O  O206  1  0.25160805  0.64633317  0.57645696  1
  O  O207  1  0.74142528  0.65090329  0.56873481  1
  O  O208  1  0.06931273  0.49138577  0.57332274  1
  O  O209  1  0.57285528  0.49400431  0.57515889  1
  O  O210  1  0.14754911  0.82638228  0.25024417  1
  O  O211  1  0.64360994  0.82737337  0.25697476  1
  O  O212  1  0.26474439  0.69626913  0.25341972  1
  O  O213  1  0.75956391  0.69126922  0.25218342  1
  O  O214  1  0.08527947  0.47849041  0.25135565  1
  O  O215  1  0.57809706  0.46102280  0.25649120  1
  O  O216  1  0.14319163  0.46157610  0.75622996  1
  O  O217  1  0.64807262  0.47068670  0.74988883  1
  O  O218  1  0.07859278  0.69578171  0.75454464  1
  O  O219  1  0.58553292  0.69122368  0.75063117  1
  O  O220  1  0.25816715  0.82651145  0.75119442  1
  O  O221  1  0.76456615  0.83438626  0.75276208  1
