# generated using pymatgen
data_Na4Ti2In2Si3(SO8)3
_symmetry_space_group_name_H-M   'P 1'
_cell_length_a   8.97851304
_cell_length_b   8.96807193
_cell_length_c   22.76280164
_cell_angle_alpha   90.12901600
_cell_angle_beta   89.08800978
_cell_angle_gamma   119.77313519
_symmetry_Int_Tables_number   1
_chemical_formula_structural   Na4Ti2In2Si3(SO8)3
_chemical_formula_sum   'Na12 Ti6 In6 Si9 S9 O72'
_cell_volume   1590.68395671
_cell_formula_units_Z   3
loop_
 _symmetry_equiv_pos_site_id
 _symmetry_equiv_pos_as_xyz
  1  'x, y, z'
loop_
 _atom_site_type_symbol
 _atom_site_label
 _atom_site_symmetry_multiplicity
 _atom_site_fract_x
 _atom_site_fract_y
 _atom_site_fract_z
 _atom_site_occupancy
  Na  Na0  1  0.98788327  0.63786150  0.25281368  1
  Na  Na1  1  0.99081309  0.35727304  0.74436840  1
  Na  Na2  1  0.65927388  0.97260834  0.59025455  1
  Na  Na3  1  0.66630445  0.69948804  0.08066944  1
  Na  Na4  1  0.33304796  0.30237860  0.90722584  1
  Na  Na5  1  0.32079952  0.02271664  0.41959228  1
  Na  Na6  1  0.00722715  0.99098448  0.50318278  1
  Na  Na7  1  0.98954201  0.98772262  0.99742918  1
  Na  Na8  1  0.65527010  0.32021178  0.82341760  1
  Na  Na9  1  0.65856779  0.34169162  0.33370658  1
  Na  Na10  1  0.32887105  0.66970414  0.16945498  1
  Na  Na11  1  0.32154811  0.66997206  0.66064263  1
  Ti  Ti12  1  0.01765911  0.03165722  0.64610150  1
  Ti  Ti13  1  0.99548096  0.97266954  0.15281412  1
  Ti  Ti14  1  0.68301087  0.36093560  0.98002868  1
  Ti  Ti15  1  0.68210852  0.33644867  0.48716201  1
  Ti  Ti16  1  0.32718761  0.67264062  0.31163191  1
  Ti  Ti17  1  0.36386809  0.66799348  0.80694540  1
  In  In18  1  0.99887901  0.99122820  0.35024454  1
  In  In19  1  0.99002410  0.98883621  0.84704986  1
  In  In20  1  0.65333138  0.32255284  0.68415644  1
  In  In21  1  0.66441591  0.33228545  0.18581131  1
  In  In22  1  0.33184070  0.67577160  0.01555948  1
  In  In23  1  0.31262459  0.65768167  0.51884083  1
  Si  Si24  1  0.29736358  0.00089033  0.25247881  1
  Si  Si25  1  0.69495529  0.70314943  0.25166592  1
  Si  Si26  1  0.29531897  0.29157179  0.75398889  1
  Si  Si27  1  0.71419805  0.00264170  0.74828455  1
  Si  Si28  1  0.96320260  0.33570646  0.58790175  1
  Si  Si29  1  0.37062060  0.04161809  0.58091501  1
  Si  Si30  1  0.96642172  0.62904691  0.08515803  1
  Si  Si31  1  0.63097663  0.67311237  0.91876335  1
  Si  Si32  1  0.02952072  0.65957724  0.41624002  1
  S  S33  1  0.00693357  0.29022317  0.24937078  1
  S  S34  1  0.00769226  0.70768742  0.74968118  1
  S  S35  1  0.67235641  0.62813783  0.58159658  1
  S  S36  1  0.67345718  0.04717018  0.08139832  1
  S  S37  1  0.36835579  0.32653398  0.08117761  1
  S  S38  1  0.03452089  0.37380053  0.91760161  1
  S  S39  1  0.33867242  0.96630689  0.91589957  1
  S  S40  1  0.62272390  0.95887814  0.41566338  1
  S  S41  1  0.33616231  0.37878381  0.41417080  1
  O  O42  1  0.22833846  0.03897070  0.31253555  1
  O  O43  1  0.82323361  0.78923619  0.30448708  1
  O  O44  1  0.98200282  0.19506689  0.30420077  1
  O  O45  1  0.21937211  0.19075817  0.81566952  1
  O  O46  1  0.97905567  0.77307154  0.80609717  1
  O  O47  1  0.82136261  0.03684122  0.80733855  1
  O  O48  1  0.80387394  0.96948415  0.68946965  1
  O  O49  1  0.16173956  0.19595861  0.69813847  1
  O  O50  1  0.03162404  0.81877513  0.69899119  1
  O  O51  1  0.79550033  0.82736804  0.19007221  1
  O  O52  1  0.02459627  0.20045440  0.19684636  1
  O  O53  1  0.15594378  0.96265569  0.19673993  1
  O  O54  1  0.88529723  0.36727477  0.64709351  1
  O  O55  1  0.48959145  0.11912341  0.63693024  1
  O  O56  1  0.64213349  0.53079254  0.63631955  1
  O  O57  1  0.88056691  0.51879563  0.14346470  1
  O  O58  1  0.64441205  0.11725538  0.13591840  1
  O  O59  1  0.47699937  0.35682727  0.13278989  1
  O  O60  1  0.45514235  0.30597432  0.02673124  1
  O  O61  1  0.82979934  0.52608243  0.02809668  1
  O  O62  1  0.68350887  0.15135032  0.02917021  1
  O  O63  1  0.46860925  0.16683528  0.52081217  1
  O  O64  1  0.69102769  0.53314549  0.52968451  1
  O  O65  1  0.82970842  0.30681426  0.53138253  1
  O  O66  1  0.54741542  0.68752378  0.98057492  1
  O  O67  1  0.14010053  0.45464323  0.96980496  1
  O  O68  1  0.30648738  0.86745407  0.97120380  1
  O  O69  1  0.55475713  0.85949827  0.47066515  1
  O  O70  1  0.32058648  0.45629481  0.46928608  1
  O  O71  1  0.16403571  0.70991108  0.46821986  1
  O  O72  1  0.13500390  0.63929788  0.35608739  1
  O  O73  1  0.50918560  0.86529747  0.36461612  1
  O  O74  1  0.35312060  0.48717738  0.36204482  1
  O  O75  1  0.10918509  0.47727413  0.86370018  1
  O  O76  1  0.35657833  0.87515246  0.86465590  1
  O  O77  1  0.49524774  0.63358000  0.86361991  1
  O  O78  1  0.01515719  0.83442197  0.41401744  1
  O  O79  1  0.79959993  0.99335542  0.40797318  1
  O  O80  1  0.17877889  0.20509107  0.41152138  1
  O  O81  1  0.01909522  0.20210800  0.91493469  1
  O  O82  1  0.19014672  0.99682226  0.91245721  1
  O  O83  1  0.82461993  0.82815189  0.91390604  1
  O  O84  1  0.95913217  0.14693463  0.58941436  1
  O  O85  1  0.17825025  0.02209868  0.59160883  1
  O  O86  1  0.83015673  0.79842376  0.58332009  1
  O  O87  1  0.96671473  0.81641870  0.08904035  1
  O  O88  1  0.83260233  0.03357716  0.08388100  1
  O  O89  1  0.19762516  0.17317521  0.08718108  1
  O  O90  1  0.69159830  0.17007906  0.74657362  1
  O  O91  1  0.49069059  0.33862964  0.74699466  1
  O  O92  1  0.85737904  0.53268883  0.74479222  1
  O  O93  1  0.68811312  0.52032155  0.24445731  1
  O  O94  1  0.85876959  0.32021024  0.24497318  1
  O  O95  1  0.48861566  0.15212405  0.24114052  1
  O  O96  1  0.63497757  0.48426949  0.92672904  1
  O  O97  1  0.85796921  0.35358784  0.92667231  1
  O  O98  1  0.49733097  0.13939601  0.92130321  1
  O  O99  1  0.62355190  0.12689017  0.41902514  1
  O  O100  1  0.48904844  0.35515317  0.41565258  1
  O  O101  1  0.84109032  0.48190421  0.42518053  1
  O  O102  1  0.35581638  0.48598643  0.07657659  1
  O  O103  1  0.15590581  0.65560576  0.07717529  1
  O  O104  1  0.52460659  0.86675485  0.07834229  1
  O  O105  1  0.36872337  0.85928327  0.57543146  1
  O  O106  1  0.52404669  0.65542254  0.57334906  1
  O  O107  1  0.15861669  0.48437469  0.58134032  1
  O  O108  1  0.29272830  0.81206095  0.25666683  1
  O  O109  1  0.50668763  0.68909291  0.25885299  1
  O  O110  1  0.16577991  0.46493232  0.25185997  1
  O  O111  1  0.29300603  0.47927300  0.75990610  1
  O  O112  1  0.16483041  0.68804910  0.75540696  1
  O  O113  1  0.52006258  0.82316453  0.75782279  1
