# generated using pymatgen
data_Na3NbZnSi(PO6)2
_symmetry_space_group_name_H-M   'P 1'
_cell_length_a   9.04352830
_cell_length_b   9.08795018
_cell_length_c   22.07781524
_cell_angle_alpha   89.71296990
_cell_angle_beta   90.00000000
_cell_angle_gamma   119.83843765
_symmetry_Int_Tables_number   1
_chemical_formula_structural   Na3NbZnSi(PO6)2
_chemical_formula_sum   'Na18 Nb6 Zn6 Si6 P12 O72'
_cell_volume   1573.93958761
_cell_formula_units_Z   6
loop_
 _symmetry_equiv_pos_site_id
 _symmetry_equiv_pos_as_xyz
  1  'x, y, z'
loop_
 _atom_site_type_symbol
 _atom_site_label
 _atom_site_symmetry_multiplicity
 _atom_site_fract_x
 _atom_site_fract_y
 _atom_site_fract_z
 _atom_site_occupancy
  Na  Na0  1  0.99727202  0.00557507  0.48882184  1
  Na  Na1  1  0.00830305  0.00557507  0.98882184  1
  Na  Na2  1  0.67069280  0.32826261  0.82258919  1
  Na  Na3  1  0.65757081  0.32826261  0.32258919  1
  Na  Na4  1  0.34740386  0.65479507  0.15546256  1
  Na  Na5  1  0.30739021  0.65479507  0.65546256  1
  Na  Na6  1  0.65356466  0.02315910  0.24450693  1
  Na  Na7  1  0.98455642  0.62179390  0.24132282  1
  Na  Na8  1  0.63723748  0.62179390  0.74132282  1
  Na  Na9  1  0.36959444  0.02315910  0.74450693  1
  Na  Na10  1  0.31634824  0.35572515  0.58074855  1
  Na  Na11  1  0.64371952  0.95143769  0.57543089  1
  Na  Na12  1  0.30771917  0.95143769  0.07543089  1
  Na  Na13  1  0.03937791  0.35572515  0.08074855  1
  Na  Na14  1  0.97866999  0.68659068  0.91380126  1
  Na  Na15  1  0.70458065  0.02075807  0.90919046  1
  Na  Na16  1  0.31617642  0.02075807  0.40919046  1
  Na  Na17  1  0.70791969  0.68659068  0.41380126  1
  Nb  Nb18  1  0.99440576  0.99565137  0.64657282  1
  Nb  Nb19  1  0.00124561  0.99565137  0.14657282  1
  Nb  Nb20  1  0.66167639  0.33544777  0.97972379  1
  Nb  Nb21  1  0.67377238  0.33544777  0.47972379  1
  Nb  Nb22  1  0.33310295  0.66828141  0.31322153  1
  Nb  Nb23  1  0.33517746  0.66828141  0.81322153  1
  Zn  Zn24  1  0.00423814  0.01086172  0.34912486  1
  Zn  Zn25  1  0.00662357  0.01086172  0.84912486  1
  Zn  Zn26  1  0.67486373  0.33140849  0.68215087  1
  Zn  Zn27  1  0.65654576  0.33140849  0.18215087  1
  Zn  Zn28  1  0.32769600  0.66919252  0.01486645  1
  Zn  Zn29  1  0.34149552  0.66919252  0.51486645  1
  Si  Si30  1  0.29777607  0.00441339  0.25537647  1
  Si  Si31  1  0.70663732  0.00441339  0.75537647  1
  Si  Si32  1  0.66728157  0.62549163  0.58744203  1
  Si  Si33  1  0.95821106  0.62549163  0.08744203  1
  Si  Si34  1  0.33043993  0.96595693  0.91928601  1
  Si  Si35  1  0.63551599  0.96595693  0.41928601  1
  P  P36  1  0.70513074  0.70657759  0.25389049  1
  P  P37  1  0.00590273  0.29467358  0.25031298  1
  P  P38  1  0.28877085  0.29467358  0.75031298  1
  P  P39  1  0.00144685  0.70657759  0.75389049  1
  P  P40  1  0.96105967  0.33268568  0.58585092  1
  P  P41  1  0.36950346  0.04067914  0.58537087  1
  P  P42  1  0.67117669  0.04067914  0.08537087  1
  P  P43  1  0.37162700  0.33268568  0.08585092  1
  P  P44  1  0.61838595  0.65988458  0.91900912  1
  P  P45  1  0.03828117  0.37410662  0.92146234  1
  P  P46  1  0.33582445  0.37410662  0.42146234  1
  P  P47  1  0.04149762  0.65988458  0.41900912  1
  O  O48  1  0.20801204  0.01241184  0.31616667  1
  O  O49  1  0.80310730  0.78436733  0.31192022  1
  O  O50  1  0.97201714  0.17941571  0.30383843  1
  O  O51  1  0.20739856  0.17941571  0.80383843  1
  O  O52  1  0.98126003  0.78436733  0.81192022  1
  O  O53  1  0.80439980  0.01241184  0.81616667  1
  O  O54  1  0.81217401  0.97885333  0.69574878  1
  O  O55  1  0.18280564  0.20696526  0.69056842  1
  O  O56  1  0.02994984  0.83423901  0.69853559  1
  O  O57  1  0.80428917  0.83423901  0.19853559  1
  O  O58  1  0.02415962  0.20696526  0.19056842  1
  O  O59  1  0.16667932  0.97885333  0.19574878  1
  O  O60  1  0.87907532  0.34733391  0.64284597  1
  O  O61  1  0.47209581  0.11784301  0.64298873  1
  O  O62  1  0.64151771  0.51352256  0.64650480  1
  O  O63  1  0.87200584  0.51352256  0.14650480  1
  O  O64  1  0.64574819  0.11784301  0.14298873  1
  O  O65  1  0.46825958  0.34733391  0.14284597  1
  O  O66  1  0.46552686  0.30575460  0.02878609  1
  O  O67  1  0.83437845  0.52430577  0.02675573  1
  O  O68  1  0.69010237  0.16163120  0.02914492  1
  O  O69  1  0.47152983  0.16163120  0.52914492  1
  O  O70  1  0.68992832  0.52430577  0.52675573  1
  O  O71  1  0.84022874  0.30575460  0.52878609  1
  O  O72  1  0.52770237  0.68110862  0.97250087  1
  O  O73  1  0.12862327  0.45022150  0.98089637  1
  O  O74  1  0.30430616  0.85760021  0.97975614  1
  O  O75  1  0.55329305  0.85760021  0.47975614  1
  O  O76  1  0.32159723  0.45022150  0.48089637  1
  O  O77  1  0.15340525  0.68110862  0.47250087  1
  O  O78  1  0.12717098  0.63877871  0.35885409  1
  O  O79  1  0.49808596  0.85729402  0.36052953  1
  O  O80  1  0.35350145  0.49535927  0.36651246  1
  O  O81  1  0.14185682  0.49535927  0.86651246  1
  O  O82  1  0.35920706  0.85729402  0.86052953  1
  O  O83  1  0.51160673  0.63877871  0.85885409  1
  O  O84  1  0.00867602  0.80877494  0.41427449  1
  O  O85  1  0.81948880  0.98508499  0.40960661  1
  O  O86  1  0.19407443  0.19202962  0.41505804  1
  O  O87  1  0.99795520  0.19202962  0.91505804  1
  O  O88  1  0.16559619  0.98508499  0.90960661  1
  O  O89  1  0.80009892  0.80877494  0.91427449  1
  O  O90  1  0.96521844  0.15843789  0.58634320  1
  O  O91  1  0.19790295  0.04558259  0.58624391  1
  O  O92  1  0.84670538  0.81753079  0.59019030  1
  O  O93  1  0.97082541  0.81753079  0.09019030  1
  O  O94  1  0.84767964  0.04558259  0.08624391  1
  O  O95  1  0.19321946  0.15843789  0.08634320  1
  O  O96  1  0.66125208  0.15238223  0.74690026  1
  O  O97  1  0.47262763  0.32903521  0.74538613  1
  O  O98  1  0.84862807  0.53183658  0.74485433  1
  O  O99  1  0.68320951  0.53183658  0.24485433  1
  O  O100  1  0.85640858  0.32903521  0.24538613  1
  O  O101  1  0.49113115  0.15238223  0.24690026  1
  O  O102  1  0.63132566  0.49245008  0.92171413  1
  O  O103  1  0.86172186  0.37560383  0.91985954  1
  O  O104  1  0.51739800  0.14820286  0.92091613  1
  O  O105  1  0.63080586  0.14820286  0.42091613  1
  O  O106  1  0.51388296  0.37560383  0.41985954  1
  O  O107  1  0.86112541  0.49245008  0.42171413  1
  O  O108  1  0.33541824  0.47699600  0.07707487  1
  O  O109  1  0.15097972  0.65834580  0.08238475  1
  O  O110  1  0.52274182  0.86229887  0.07714701  1
  O  O111  1  0.33955605  0.86229887  0.57714701  1
  O  O112  1  0.50736508  0.65834580  0.58238475  1
  O  O113  1  0.14157675  0.47699600  0.57707487  1
  O  O114  1  0.29741231  0.81530754  0.25505255  1
  O  O115  1  0.52826538  0.70251164  0.25416285  1
  O  O116  1  0.17562590  0.47187291  0.25444106  1
  O  O117  1  0.29624601  0.47187291  0.75444106  1
  O  O118  1  0.17424526  0.70251164  0.75416285  1
  O  O119  1  0.51789423  0.81530754  0.75505255  1
