# generated using pymatgen
data_Na4YHfSi2PO12
_symmetry_space_group_name_H-M   'P 1'
_cell_length_a   9.34961360
_cell_length_b   9.34961325
_cell_length_c   22.82806466
_cell_angle_alpha   90.02612655
_cell_angle_beta   89.97387345
_cell_angle_gamma   119.80868143
_symmetry_Int_Tables_number   1
_chemical_formula_structural   Na4YHfSi2PO12
_chemical_formula_sum   'Na24 Y6 Hf6 Si12 P6 O72'
_cell_volume   1731.49406268
_cell_formula_units_Z   6
loop_
 _symmetry_equiv_pos_site_id
 _symmetry_equiv_pos_as_xyz
  1  'x, y, z'
loop_
 _atom_site_type_symbol
 _atom_site_label
 _atom_site_symmetry_multiplicity
 _atom_site_fract_x
 _atom_site_fract_y
 _atom_site_fract_z
 _atom_site_occupancy
  Na  Na0  1  0.64479065  0.00635047  0.25139969  1
  Na  Na1  1  0.36972880  0.36876835  0.24477963  1
  Na  Na2  1  0.98836842  0.62515882  0.24960511  1
  Na  Na3  1  0.63123165  0.63027120  0.74477963  1
  Na  Na4  1  0.99364953  0.35520935  0.75139969  1
  Na  Na5  1  0.37484118  0.01163158  0.74960511  1
  Na  Na6  1  0.31145765  0.33968347  0.58473269  1
  Na  Na7  1  0.03639580  0.70210135  0.57811263  1
  Na  Na8  1  0.65503542  0.95849182  0.58293811  1
  Na  Na9  1  0.29789865  0.96360420  0.07811263  1
  Na  Na10  1  0.66031653  0.68854235  0.08473269  1
  Na  Na11  1  0.04150818  0.34496458  0.08293811  1
  Na  Na12  1  0.97812365  0.67301747  0.91806669  1
  Na  Na13  1  0.70306180  0.03543535  0.91144663  1
  Na  Na14  1  0.32170142  0.29182582  0.91627211  1
  Na  Na15  1  0.96456465  0.29693820  0.41144663  1
  Na  Na16  1  0.32698253  0.02187635  0.41806669  1
  Na  Na17  1  0.70817418  0.67829858  0.41627211  1
  Na  Na18  1  0.99360659  0.98856681  0.49847165  1
  Na  Na19  1  0.01143319  0.00639341  0.99847165  1
  Na  Na20  1  0.66027359  0.32189981  0.83180465  1
  Na  Na21  1  0.67810019  0.33972641  0.33180465  1
  Na  Na22  1  0.32693959  0.65523381  0.16513865  1
  Na  Na23  1  0.34476619  0.67306041  0.66513865  1
  Y  Y24  1  0.99556657  0.99671685  0.34924885  1
  Y  Y25  1  0.00328315  0.00443343  0.84924885  1
  Y  Y26  1  0.66223357  0.33004985  0.68258185  1
  Y  Y27  1  0.66995015  0.33776643  0.18258185  1
  Y  Y28  1  0.32889957  0.66338385  0.01591585  1
  Y  Y29  1  0.33661615  0.67110043  0.51591585  1
  Hf  Hf30  1  0.99895006  0.00108968  0.64874127  1
  Hf  Hf31  1  0.99891032  0.00104994  0.14874127  1
  Hf  Hf32  1  0.66561706  0.33442268  0.98207427  1
  Hf  Hf33  1  0.66557732  0.33438294  0.48207427  1
  Hf  Hf34  1  0.33228306  0.66775668  0.31540827  1
  Hf  Hf35  1  0.33224332  0.66771694  0.81540827  1
  Si  Si36  1  0.69716279  0.70305290  0.25022617  1
  Si  Si37  1  0.00578256  0.30176849  0.25079236  1
  Si  Si38  1  0.29694710  0.30283721  0.75022617  1
  Si  Si39  1  0.69823151  0.99421744  0.75079236  1
  Si  Si40  1  0.36382979  0.03638590  0.58355917  1
  Si  Si41  1  0.67244956  0.63510149  0.58412536  1
  Si  Si42  1  0.96361410  0.63617021  0.08355917  1
  Si  Si43  1  0.36489851  0.32755044  0.08412536  1
  Si  Si44  1  0.03049579  0.36971990  0.91689317  1
  Si  Si45  1  0.33911556  0.96843549  0.91745936  1
  Si  Si46  1  0.63028010  0.96950421  0.41689317  1
  Si  Si47  1  0.03156451  0.66088444  0.41745936  1
  P  P48  1  0.29239948  0.99245064  0.24978852  1
  P  P49  1  0.00754936  0.70760052  0.74978852  1
  P  P50  1  0.95906648  0.32578364  0.58312152  1
  P  P51  1  0.67421636  0.04093352  0.08312152  1
  P  P52  1  0.62573248  0.65911764  0.91645552  1
  P  P53  1  0.34088236  0.37426752  0.41645552  1
  O  O54  1  0.22170682  0.02480528  0.30553091  1
  O  O55  1  0.80871149  0.77914001  0.30820672  1
  O  O56  1  0.97990308  0.19649716  0.30959870  1
  O  O57  1  0.22085999  0.19128851  0.80820672  1
  O  O58  1  0.97519472  0.77829318  0.80553091  1
  O  O59  1  0.80350284  0.02009692  0.80959870  1
  O  O60  1  0.79621903  0.96932466  0.69365879  1
  O  O61  1  0.17361711  0.20411600  0.69331717  1
  O  O62  1  0.02956233  0.82205174  0.69621503  1
  O  O63  1  0.79588400  0.82638289  0.19331717  1
  O  O64  1  0.03067534  0.20378097  0.19365879  1
  O  O65  1  0.17794826  0.97043767  0.19621503  1
  O  O66  1  0.88837382  0.35813828  0.63886391  1
  O  O67  1  0.47537849  0.11247301  0.64153972  1
  O  O68  1  0.64657008  0.52983016  0.64293170  1
  O  O69  1  0.88752699  0.52462151  0.14153972  1
  O  O70  1  0.64186172  0.11162618  0.13886391  1
  O  O71  1  0.47016984  0.35342992  0.14293170  1
  O  O72  1  0.46288603  0.30265766  0.02699179  1
  O  O73  1  0.84028411  0.53744900  0.02665017  1
  O  O74  1  0.69622933  0.15538474  0.02954803  1
  O  O75  1  0.46255100  0.15971589  0.52665017  1
  O  O76  1  0.69734234  0.53711397  0.52699179  1
  O  O77  1  0.84461526  0.30377067  0.52954803  1
  O  O78  1  0.55503982  0.69147228  0.97219791  1
  O  O79  1  0.14204449  0.44580701  0.97487372  1
  O  O80  1  0.31323608  0.86316416  0.97626570  1
  O  O81  1  0.55419299  0.85795551  0.47487372  1
  O  O82  1  0.30852772  0.44496018  0.47219791  1
  O  O83  1  0.13683584  0.68676392  0.47626570  1
  O  O84  1  0.12955203  0.63599166  0.36032579  1
  O  O85  1  0.50695011  0.87078300  0.35998417  1
  O  O86  1  0.36289533  0.48871874  0.36288203  1
  O  O87  1  0.12921700  0.49304989  0.85998417  1
  O  O88  1  0.36400834  0.87044797  0.86032579  1
  O  O89  1  0.51128126  0.63710467  0.86288203  1
  O  O90  1  0.01273488  0.82504581  0.41369110  1
  O  O91  1  0.81752488  0.99950788  0.41316996  1
  O  O92  1  0.19434141  0.19802332  0.40969243  1
  O  O93  1  0.00049212  0.18247512  0.91316996  1
  O  O94  1  0.17495419  0.98726512  0.91369110  1
  O  O95  1  0.80197668  0.80565859  0.90969243  1
  O  O96  1  0.96599292  0.16236530  0.58779990  1
  O  O97  1  0.18310798  0.02988700  0.58833826  1
  O  O98  1  0.84331889  0.81840958  0.58772777  1
  O  O99  1  0.97011300  0.81689202  0.08833826  1
  O  O100  1  0.83763470  0.03400708  0.08779990  1
  O  O101  1  0.18159042  0.15668111  0.08772777  1
  O  O102  1  0.67940188  0.15837881  0.74702410  1
  O  O103  1  0.48419188  0.33284088  0.74650296  1
  O  O104  1  0.86100841  0.53135632  0.74302543  1
  O  O105  1  0.66715912  0.51580812  0.24650296  1
  O  O106  1  0.84162119  0.32059812  0.24702410  1
  O  O107  1  0.46864368  0.13899159  0.24302543  1
  O  O108  1  0.63265992  0.49569830  0.92113290  1
  O  O109  1  0.84977498  0.36322000  0.92167126  1
  O  O110  1  0.50998589  0.15174258  0.92106077  1
  O  O111  1  0.63678000  0.15022502  0.42167126  1
  O  O112  1  0.50430170  0.36734008  0.42113290  1
  O  O113  1  0.84825742  0.49001411  0.42106077  1
  O  O114  1  0.34606788  0.49171281  0.08035810  1
  O  O115  1  0.15085788  0.66617488  0.07983696  1
  O  O116  1  0.52767441  0.86469032  0.07635943  1
  O  O117  1  0.33382512  0.84914212  0.57983696  1
  O  O118  1  0.50828719  0.65393212  0.58035810  1
  O  O119  1  0.13530968  0.47232559  0.57635943  1
  O  O120  1  0.29932592  0.82903230  0.25446690  1
  O  O121  1  0.51644098  0.69655400  0.25500526  1
  O  O122  1  0.17665189  0.48507658  0.25439477  1
  O  O123  1  0.30344600  0.48355902  0.75500526  1
  O  O124  1  0.17096770  0.70067408  0.75446690  1
  O  O125  1  0.51492342  0.82334811  0.75439477  1
