# generated using pymatgen
data_Na4Hf2(SiO4)3
_symmetry_space_group_name_H-M   'P 1'
_cell_length_a   9.20205782
_cell_length_b   9.20205749
_cell_length_c   23.02128608
_cell_angle_alpha   90.00000000
_cell_angle_beta   90.00000000
_cell_angle_gamma   120.00000118
_symmetry_Int_Tables_number   1
_chemical_formula_structural   Na4Hf2(SiO4)3
_chemical_formula_sum   'Na24 Hf12 Si18 O72'
_cell_volume   1688.22414915
_cell_formula_units_Z   6
loop_
 _symmetry_equiv_pos_site_id
 _symmetry_equiv_pos_as_xyz
  1  'x, y, z'
loop_
 _atom_site_type_symbol
 _atom_site_label
 _atom_site_symmetry_multiplicity
 _atom_site_fract_x
 _atom_site_fract_y
 _atom_site_fract_z
 _atom_site_occupancy
  Na  Na0  1  0.63429676  0.00000000  0.25000000  1
  Na  Na1  1  0.36570324  0.36570324  0.25000000  1
  Na  Na2  1  1.00000000  0.63429676  0.25000000  1
  Na  Na3  1  0.63429676  0.63429676  0.75000000  1
  Na  Na4  1  0.00000000  0.36570324  0.75000000  1
  Na  Na5  1  0.36570324  0.00000000  0.75000000  1
  Na  Na6  1  0.30096376  0.33333300  0.58333300  1
  Na  Na7  1  0.03237024  0.69903624  0.58333300  1
  Na  Na8  1  0.66666700  0.96762976  0.58333300  1
  Na  Na9  1  0.30096376  0.96762976  0.08333300  1
  Na  Na10  1  0.66666700  0.69903624  0.08333300  1
  Na  Na11  1  0.03237024  0.33333300  0.08333300  1
  Na  Na12  1  0.96762976  0.66666700  0.91666700  1
  Na  Na13  1  0.69903624  0.03237024  0.91666700  1
  Na  Na14  1  0.33333300  0.30096376  0.91666700  1
  Na  Na15  1  0.96762976  0.30096376  0.41666700  1
  Na  Na16  1  0.33333300  0.03237024  0.41666700  1
  Na  Na17  1  0.69903624  0.66666700  0.41666700  1
  Na  Na18  1  -0.00000000  0.00000000  0.50000000  1
  Na  Na19  1  -0.00000000  0.00000000  -0.00000000  1
  Na  Na20  1  0.66666700  0.33333300  0.83333300  1
  Na  Na21  1  0.66666700  0.33333300  0.33333300  1
  Na  Na22  1  0.33333300  0.66666700  0.16666700  1
  Na  Na23  1  0.33333300  0.66666700  0.66666700  1
  Hf  Hf24  1  -0.00000000  0.00000000  0.35130378  1
  Hf  Hf25  1  -0.00000000  0.00000000  0.85130378  1
  Hf  Hf26  1  -0.00000000  0.00000000  0.64869622  1
  Hf  Hf27  1  -0.00000000  0.00000000  0.14869622  1
  Hf  Hf28  1  0.66666700  0.33333300  0.68463678  1
  Hf  Hf29  1  0.66666700  0.33333300  0.18463678  1
  Hf  Hf30  1  0.66666700  0.33333300  0.98202922  1
  Hf  Hf31  1  0.66666700  0.33333300  0.48202922  1
  Hf  Hf32  1  0.33333300  0.66666700  0.01797078  1
  Hf  Hf33  1  0.33333300  0.66666700  0.51797078  1
  Hf  Hf34  1  0.33333300  0.66666700  0.31536322  1
  Hf  Hf35  1  0.33333300  0.66666700  0.81536322  1
  Si  Si36  1  0.29195759  0.00000000  0.25000000  1
  Si  Si37  1  0.70804241  0.70804241  0.25000000  1
  Si  Si38  1  0.00000000  0.29195759  0.25000000  1
  Si  Si39  1  0.29195759  0.29195759  0.75000000  1
  Si  Si40  1  1.00000000  0.70804241  0.75000000  1
  Si  Si41  1  0.70804241  0.00000000  0.75000000  1
  Si  Si42  1  0.95862459  0.33333300  0.58333300  1
  Si  Si43  1  0.37470941  0.04137541  0.58333300  1
  Si  Si44  1  0.66666700  0.62529059  0.58333300  1
  Si  Si45  1  0.95862459  0.62529059  0.08333300  1
  Si  Si46  1  0.66666700  0.04137541  0.08333300  1
  Si  Si47  1  0.37470941  0.33333300  0.08333300  1
  Si  Si48  1  0.62529059  0.66666700  0.91666700  1
  Si  Si49  1  0.04137541  0.37470941  0.91666700  1
  Si  Si50  1  0.33333300  0.95862459  0.91666700  1
  Si  Si51  1  0.62529059  0.95862459  0.41666700  1
  Si  Si52  1  0.33333300  0.37470941  0.41666700  1
  Si  Si53  1  0.04137541  0.66666700  0.41666700  1
  O  O54  1  0.20608625  0.03473005  0.30671725  1
  O  O55  1  0.82864380  0.79391375  0.30671725  1
  O  O56  1  0.96526995  0.17135620  0.30671725  1
  O  O57  1  0.20608625  0.17135620  0.80671725  1
  O  O58  1  0.96526995  0.79391375  0.80671725  1
  O  O59  1  0.82864380  0.03473005  0.80671725  1
  O  O60  1  0.79391375  0.96526995  0.69328275  1
  O  O61  1  0.17135620  0.20608625  0.69328275  1
  O  O62  1  0.03473005  0.82864380  0.69328275  1
  O  O63  1  0.79391375  0.82864380  0.19328275  1
  O  O64  1  0.03473005  0.20608625  0.19328275  1
  O  O65  1  0.17135620  0.96526995  0.19328275  1
  O  O66  1  0.87275325  0.36806305  0.64005025  1
  O  O67  1  0.49531080  0.12724675  0.64005025  1
  O  O68  1  0.63193695  0.50468920  0.64005025  1
  O  O69  1  0.87275325  0.50468920  0.14005025  1
  O  O70  1  0.63193695  0.12724675  0.14005025  1
  O  O71  1  0.49531080  0.36806305  0.14005025  1
  O  O72  1  0.46058075  0.29860295  0.02661575  1
  O  O73  1  0.83802320  0.53941925  0.02661575  1
  O  O74  1  0.70139705  0.16197680  0.02661575  1
  O  O75  1  0.46058075  0.16197680  0.52661575  1
  O  O76  1  0.70139705  0.53941925  0.52661575  1
  O  O77  1  0.83802320  0.29860295  0.52661575  1
  O  O78  1  0.53941925  0.70139705  0.97338425  1
  O  O79  1  0.16197680  0.46058075  0.97338425  1
  O  O80  1  0.29860295  0.83802320  0.97338425  1
  O  O81  1  0.53941925  0.83802320  0.47338425  1
  O  O82  1  0.29860295  0.46058075  0.47338425  1
  O  O83  1  0.16197680  0.70139705  0.47338425  1
  O  O84  1  0.12724675  0.63193695  0.35994975  1
  O  O85  1  0.50468920  0.87275325  0.35994975  1
  O  O86  1  0.36806305  0.49531080  0.35994975  1
  O  O87  1  0.12724675  0.49531080  0.85994975  1
  O  O88  1  0.36806305  0.87275325  0.85994975  1
  O  O89  1  0.50468920  0.63193695  0.85994975  1
  O  O90  1  0.02334894  0.83468198  0.40981582  1
  O  O91  1  0.81133304  0.97665106  0.40981582  1
  O  O92  1  0.16531802  0.18866696  0.40981582  1
  O  O93  1  0.02334894  0.18866696  0.90981582  1
  O  O94  1  0.16531802  0.97665106  0.90981582  1
  O  O95  1  0.81133304  0.83468198  0.90981582  1
  O  O96  1  0.97665106  0.16531802  0.59018418  1
  O  O97  1  0.18866696  0.02334894  0.59018418  1
  O  O98  1  0.83468198  0.81133304  0.59018418  1
  O  O99  1  0.97665106  0.81133304  0.09018418  1
  O  O100  1  0.83468198  0.02334894  0.09018418  1
  O  O101  1  0.18866696  0.16531802  0.09018418  1
  O  O102  1  0.69001594  0.16801498  0.74314882  1
  O  O103  1  0.47800004  0.30998406  0.74314882  1
  O  O104  1  0.83198502  0.52199996  0.74314882  1
  O  O105  1  0.69001594  0.52199996  0.24314882  1
  O  O106  1  0.83198502  0.30998406  0.24314882  1
  O  O107  1  0.47800004  0.16801498  0.24314882  1
  O  O108  1  0.64331806  0.49865102  0.92351718  1
  O  O109  1  0.85533396  0.35668194  0.92351718  1
  O  O110  1  0.50134898  0.14466604  0.92351718  1
  O  O111  1  0.64331806  0.14466604  0.42351718  1
  O  O112  1  0.50134898  0.35668194  0.42351718  1
  O  O113  1  0.85533396  0.49865102  0.42351718  1
  O  O114  1  0.35668194  0.50134898  0.07648282  1
  O  O115  1  0.14466604  0.64331806  0.07648282  1
  O  O116  1  0.49865102  0.85533396  0.07648282  1
  O  O117  1  0.35668194  0.85533396  0.57648282  1
  O  O118  1  0.49865102  0.64331806  0.57648282  1
  O  O119  1  0.14466604  0.50134898  0.57648282  1
  O  O120  1  0.30998406  0.83198502  0.25685118  1
  O  O121  1  0.52199996  0.69001594  0.25685118  1
  O  O122  1  0.16801498  0.47800004  0.25685118  1
  O  O123  1  0.30998406  0.47800004  0.75685118  1
  O  O124  1  0.16801498  0.69001594  0.75685118  1
  O  O125  1  0.52199996  0.83198502  0.75685118  1
