# generated using pymatgen
data_Na7Sc3NbSi3(PO8)3
_symmetry_space_group_name_H-M   'P 1'
_cell_length_a   9.13357641
_cell_length_b   9.11168921
_cell_length_c   22.70574850
_cell_angle_alpha   90.00912416
_cell_angle_beta   90.03224983
_cell_angle_gamma   120.00796251
_symmetry_Int_Tables_number   1
_chemical_formula_structural   Na7Sc3NbSi3(PO8)3
_chemical_formula_sum   'Na21 Sc9 Nb3 Si9 P9 O72'
_cell_volume   1636.33131814
_cell_formula_units_Z   3
loop_
 _symmetry_equiv_pos_site_id
 _symmetry_equiv_pos_as_xyz
  1  'x, y, z'
loop_
 _atom_site_type_symbol
 _atom_site_label
 _atom_site_symmetry_multiplicity
 _atom_site_fract_x
 _atom_site_fract_y
 _atom_site_fract_z
 _atom_site_occupancy
  Na  Na0  1  0.63275347  0.99855643  0.25152545  1
  Na  Na1  1  0.36603714  0.36774184  0.25147289  1
  Na  Na2  1  0.00169464  0.63487754  0.25251250  1
  Na  Na3  1  0.63846003  0.63094643  0.74721923  1
  Na  Na4  1  0.99458398  0.35766140  0.74610384  1
  Na  Na5  1  0.29909305  0.33878160  0.58371451  1
  Na  Na6  1  0.03420849  0.69812257  0.58293280  1
  Na  Na7  1  0.66636292  0.96252811  0.58185326  1
  Na  Na8  1  0.30196893  0.96731934  0.08374972  1
  Na  Na9  1  0.66258480  0.69992636  0.08396600  1
  Na  Na10  1  0.03777741  0.33265331  0.08233908  1
  Na  Na11  1  0.32557248  0.29791332  0.91465560  1
  Na  Na12  1  0.97424052  0.30085717  0.41674223  1
  Na  Na13  1  0.32883526  0.02718326  0.41675242  1
  Na  Na14  1  0.69782865  0.67258160  0.41673431  1
  Na  Na15  1  0.99778827  0.99971870  0.49976376  1
  Na  Na16  1  0.99439495  0.99886435  0.99746468  1
  Na  Na17  1  0.66336361  0.32715346  0.82997171  1
  Na  Na18  1  0.66583146  0.33270723  0.33410991  1
  Na  Na19  1  0.33642184  0.66701880  0.16626097  1
  Na  Na20  1  0.33363505  0.66893409  0.66201559  1
  Sc  Sc21  1  0.99957095  0.99993097  0.35364834  1
  Sc  Sc22  1  -0.00025279  0.00253583  0.85162684  1
  Sc  Sc23  1  0.00016811  0.00473035  0.64845753  1
  Sc  Sc24  1  0.00129738  0.00449192  0.14776792  1
  Sc  Sc25  1  0.66057643  0.33103425  0.68395611  1
  Sc  Sc26  1  0.66159120  0.33075573  0.18242002  1
  Sc  Sc27  1  0.33508712  0.66382576  0.01673544  1
  Sc  Sc28  1  0.33306581  0.66292776  0.51645111  1
  Sc  Sc29  1  0.33382456  0.66677850  0.32034648  1
  Nb  Nb30  1  0.66954564  0.32757880  0.97948038  1
  Nb  Nb31  1  0.67260200  0.33758748  0.48096093  1
  Nb  Nb32  1  0.32701637  0.66408520  0.81385070  1
  Si  Si33  1  0.29569577  0.28789263  0.75127068  1
  Si  Si34  1  0.96108352  0.33471217  0.58561242  1
  Si  Si35  1  0.66647092  0.62836457  0.58504773  1
  Si  Si36  1  0.66505245  0.03772139  0.08460711  1
  Si  Si37  1  0.37472434  0.33418994  0.08319303  1
  Si  Si38  1  0.03871913  0.37256302  0.91813162  1
  Si  Si39  1  0.62625989  0.95992801  0.41700862  1
  Si  Si40  1  0.33350391  0.37220141  0.41665854  1
  Si  Si41  1  0.04197099  0.66819491  0.41690664  1
  P  P42  1  0.29305736  0.99927784  0.24950272  1
  P  P43  1  0.70680174  0.70666050  0.24938050  1
  P  P44  1  0.00033149  0.29497475  0.24972445  1
  P  P45  1  0.00144264  0.71067370  0.75051342  1
  P  P46  1  0.70650888  0.99953386  0.75096538  1
  P  P47  1  0.37638869  0.04224929  0.58318012  1
  P  P48  1  0.95668603  0.62248027  0.08325733  1
  P  P49  1  0.62654096  0.66861714  0.91709385  1
  P  P50  1  0.33209778  0.95578545  0.91782496  1
  O  O51  1  0.21128031  0.02993577  0.30413935  1
  O  O52  1  0.81857676  0.78885823  0.30420706  1
  O  O53  1  0.96936490  0.18187363  0.30419365  1
  O  O54  1  0.20512670  0.18104317  0.81000314  1
  O  O55  1  0.97073569  0.79339573  0.80409296  1
  O  O56  1  0.82122455  0.02683375  0.80411565  1
  O  O57  1  0.77724170  0.95814531  0.69490599  1
  O  O58  1  0.17368000  0.21784088  0.69312880  1
  O  O59  1  0.03369824  0.81535774  0.69400455  1
  O  O60  1  0.79091200  0.81853544  0.19404916  1
  O  O61  1  0.02861567  0.21042468  0.19444148  1
  O  O62  1  0.18110662  0.97093154  0.19416803  1
  O  O63  1  0.87135622  0.36462210  0.64220534  1
  O  O64  1  0.49123331  0.12628178  0.63641782  1
  O  O65  1  0.63230639  0.50644788  0.64148824  1
  O  O66  1  0.87852849  0.51221661  0.13863978  1
  O  O67  1  0.63320538  0.12628946  0.14127502  1
  O  O68  1  0.49481078  0.37009304  0.14056617  1
  O  O69  1  0.47461574  0.30616478  0.02563000  1
  O  O70  1  0.83517826  0.52994043  0.02942437  1
  O  O71  1  0.69671553  0.17156170  0.02770635  1
  O  O72  1  0.46240500  0.15790977  0.52737943  1
  O  O73  1  0.69323419  0.52780520  0.52681139  1
  O  O74  1  0.83337862  0.30392399  0.52694770  1
  O  O75  1  0.54408251  0.69194091  0.97231946  1
  O  O76  1  0.15684405  0.46011796  0.97482390  1
  O  O77  1  0.31084376  0.85361283  0.97328344  1
  O  O78  1  0.54531431  0.84356899  0.47494928  1
  O  O79  1  0.29678619  0.45321628  0.47441271  1
  O  O80  1  0.15689185  0.70310012  0.47505519  1
  O  O81  1  0.11511520  0.62305836  0.35795035  1
  O  O82  1  0.50826067  0.88427589  0.35790278  1
  O  O83  1  0.37695756  0.49146106  0.35789730  1
  O  O84  1  0.13809087  0.50042310  0.86017526  1
  O  O85  1  0.36152637  0.86739948  0.86346043  1
  O  O86  1  0.50581592  0.63673980  0.86229668  1
  O  O87  1  0.01422616  0.83052191  0.40978591  1
  O  O88  1  0.81532293  0.98506530  0.40971791  1
  O  O89  1  0.16844060  0.18361128  0.40959965  1
  O  O90  1  0.02547086  0.19000102  0.90999001  1
  O  O91  1  0.18110089  0.98450596  0.91025827  1
  O  O92  1  0.80261224  0.82092829  0.90903806  1
  O  O93  1  0.97259359  0.16071299  0.58673921  1
  O  O94  1  0.20035223  0.02844907  0.58788450  1
  O  O95  1  0.84179927  0.81116219  0.58733835  1
  O  O96  1  0.97013406  0.79851159  0.08760695  1
  O  O97  1  0.83696231  0.02475936  0.08717935  1
  O  O98  1  0.19044797  0.16014606  0.08716459  1
  O  O99  1  0.69154410  0.15950799  0.74497899  1
  O  O100  1  0.48996334  0.32930844  0.74723848  1
  O  O101  1  0.84830053  0.52757570  0.74608284  1
  O  O102  1  0.69028480  0.52777029  0.24448181  1
  O  O103  1  0.84023472  0.31388031  0.24402023  1
  O  O104  1  0.47221019  0.16123288  0.24467842  1
  O  O105  1  0.63141384  0.49801839  0.92294446  1
  O  O106  1  0.85195867  0.36162076  0.92401146  1
  O  O107  1  0.49607114  0.13986204  0.92324972  1
  O  O108  1  0.64333778  0.15042598  0.42463963  1
  O  O109  1  0.50449841  0.35245796  0.42506484  1
  O  O110  1  0.84995665  0.49430133  0.42437148  1
  O  O111  1  0.35520049  0.50192959  0.07719104  1
  O  O112  1  0.13324504  0.64260442  0.07585759  1
  O  O113  1  0.49554317  0.85485005  0.07658634  1
  O  O114  1  0.35802388  0.86542110  0.57733667  1
  O  O115  1  0.49905117  0.64701440  0.57882106  1
  O  O116  1  0.14508307  0.50457984  0.57875222  1
  O  O117  1  0.31097793  0.83810073  0.25357844  1
  O  O118  1  0.52812779  0.68890240  0.25352660  1
  O  O119  1  0.16222349  0.47324236  0.25361717  1
  O  O120  1  0.31373380  0.48696153  0.76113622  1
  O  O121  1  0.16422885  0.68906276  0.75951608  1
  O  O122  1  0.52743149  0.83468204  0.76077188  1
