# generated using pymatgen
data_MgV2(CoO4)2
_symmetry_space_group_name_H-M   'P 1'
_cell_length_a   5.98936189
_cell_length_b   6.24148275
_cell_length_c   6.24148275
_cell_angle_alpha   54.97717154
_cell_angle_beta   93.74752544
_cell_angle_gamma   120.62345507
_symmetry_Int_Tables_number   1
_chemical_formula_structural   MgV2(CoO4)2
_chemical_formula_sum   'Mg1 V2 Co2 O8'
_cell_volume   155.66225087
_cell_formula_units_Z   1
loop_
 _symmetry_equiv_pos_site_id
 _symmetry_equiv_pos_as_xyz
  1  'x, y, z'
loop_
 _atom_site_type_symbol
 _atom_site_label
 _atom_site_symmetry_multiplicity
 _atom_site_fract_x
 _atom_site_fract_y
 _atom_site_fract_z
 _atom_site_occupancy
  Mg  Mg0  1  0.00000000  0.00000000  0.00000000  1
  V  V1  1  0.17333900  0.32794000  0.15460000  1
  V  V2  1  0.82666100  0.67206000  0.84540000  1
  Co  Co3  1  0.50000000  0.00000000  0.50000000  1
  Co  Co4  1  0.00000000  0.50000000  0.50000000  1
  O  O5  1  0.82797300  0.07397400  0.24600100  1
  O  O6  1  0.75512500  0.49745700  0.21388200  1
  O  O7  1  0.24487500  0.03099100  0.25766800  1
  O  O8  1  0.25516700  0.53264400  0.27747800  1
  O  O9  1  0.74483300  0.46735600  0.72252200  1
  O  O10  1  0.75512500  0.96900900  0.74233200  1
  O  O11  1  0.24487500  0.50254300  0.78611800  1
  O  O12  1  0.17202700  0.92602600  0.75399900  1
