# generated using pymatgen
data_Na10Mg2Ti6Si7S5O48
_symmetry_space_group_name_H-M   'P 1'
_cell_length_a   17.75131353
_cell_length_b   8.92336335
_cell_length_c   22.33119466
_cell_angle_alpha   90.04588711
_cell_angle_beta   89.73707381
_cell_angle_gamma   120.10781441
_symmetry_Int_Tables_number   1
_chemical_formula_structural   Na10Mg2Ti6Si7S5O48
_chemical_formula_sum   'Na30 Mg6 Ti18 Si21 S15 O144'
_cell_volume   3060.01522309
_cell_formula_units_Z   3
loop_
 _symmetry_equiv_pos_site_id
 _symmetry_equiv_pos_as_xyz
  1  'x, y, z'
loop_
 _atom_site_type_symbol
 _atom_site_label
 _atom_site_symmetry_multiplicity
 _atom_site_fract_x
 _atom_site_fract_y
 _atom_site_fract_z
 _atom_site_occupancy
  Na  Na0  1  0.81494704  0.00606448  0.24946288  1
  Na  Na1  1  0.18684812  0.37436540  0.24831023  1
  Na  Na2  1  0.68680501  0.36387030  0.25066108  1
  Na  Na3  1  0.99610106  0.62154693  0.25111103  1
  Na  Na4  1  0.49659893  0.63311561  0.24638743  1
  Na  Na5  1  0.31589029  0.62403454  0.74978686  1
  Na  Na6  1  0.99643093  0.35878902  0.74720421  1
  Na  Na7  1  0.49621531  0.37244417  0.75075498  1
  Na  Na8  1  0.18901037  0.01391838  0.74736133  1
  Na  Na9  1  0.68636243  0.99773669  0.74855111  1
  Na  Na10  1  0.14968182  0.33025367  0.58208268  1
  Na  Na11  1  0.01579618  0.69493495  0.58407516  1
  Na  Na12  1  0.48516295  0.66526390  0.91734293  1
  Na  Na13  1  0.99013714  0.67578026  0.91958134  1
  Na  Na14  1  0.84988635  0.02719068  0.91571204  1
  Na  Na15  1  0.48972097  0.30609132  0.41934337  1
  Na  Na16  1  0.16428604  0.02806058  0.41751245  1
  Na  Na17  1  0.35064898  0.66920446  0.41496108  1
  Na  Na18  1  0.99511165  0.99892477  0.49972055  1
  Na  Na19  1  0.50795704  0.00721776  0.49841541  1
  Na  Na20  1  0.00676681  0.00770033  0.99885868  1
  Na  Na21  1  0.50166388  0.00882388  0.00152652  1
  Na  Na22  1  0.32950545  0.32331439  0.83133696  1
  Na  Na23  1  0.83093425  0.33376922  0.83160707  1
  Na  Na24  1  0.33549136  0.33632736  0.33138662  1
  Na  Na25  1  0.83177687  0.33406224  0.33222380  1
  Na  Na26  1  0.17151544  0.67138065  0.16432244  1
  Na  Na27  1  0.66398040  0.66779354  0.16338251  1
  Na  Na28  1  0.16887959  0.67270224  0.66461138  1
  Na  Na29  1  0.67058949  0.67156219  0.66434135  1
  Mg  Mg30  1  0.33242055  0.32616056  0.68743590  1
  Mg  Mg31  1  0.83489148  0.32998240  0.68213351  1
  Mg  Mg32  1  0.33690943  0.34092798  0.18181571  1
  Mg  Mg33  1  0.83310473  0.33385049  0.18708412  1
  Mg  Mg34  1  0.16340197  0.66765867  0.01766634  1
  Mg  Mg35  1  0.66285533  0.65973343  0.51714065  1
  Ti  Ti36  1  0.99253143  0.99504563  0.35459887  1
  Ti  Ti37  1  0.50651359  0.99099267  0.35623632  1
  Ti  Ti38  1  0.00484314  0.01961591  0.85653898  1
  Ti  Ti39  1  0.49651595  0.00185499  0.85413186  1
  Ti  Ti40  1  0.99789953  0.02118391  0.64546200  1
  Ti  Ti41  1  0.49687615  0.98699588  0.64958935  1
  Ti  Ti42  1  0.99503784  0.00742030  0.14876333  1
  Ti  Ti43  1  0.49535296  0.96736320  0.14639656  1
  Ti  Ti44  1  0.33734192  0.32331385  0.98101689  1
  Ti  Ti45  1  0.83175720  0.33781421  0.97425660  1
  Ti  Ti46  1  0.32804669  0.32237883  0.47632394  1
  Ti  Ti47  1  0.83707636  0.34069466  0.47742530  1
  Ti  Ti48  1  0.65785513  0.65839353  0.01510779  1
  Ti  Ti49  1  0.16230945  0.67232223  0.51623395  1
  Ti  Ti50  1  0.17108320  0.66329803  0.31703555  1
  Ti  Ti51  1  0.66422977  0.65731630  0.31730425  1
  Ti  Ti52  1  0.16497930  0.67213029  0.81744217  1
  Ti  Ti53  1  0.67257903  0.68057859  0.81740084  1
  Si  Si54  1  0.64537397  0.99697554  0.24990703  1
  Si  Si55  1  0.35328567  0.70980103  0.25209855  1
  Si  Si56  1  0.85402130  0.71010287  0.25057338  1
  Si  Si57  1  0.00118609  0.29292946  0.25134356  1
  Si  Si58  1  0.14554314  0.29482048  0.75072779  1
  Si  Si59  1  0.50099907  0.70935642  0.75182088  1
  Si  Si60  1  0.35415072  0.99814673  0.75063480  1
  Si  Si61  1  0.85363315  0.99598549  0.75145982  1
  Si  Si62  1  0.97707515  0.33486629  0.58327616  1
  Si  Si63  1  0.18857982  0.03843504  0.58543015  1
  Si  Si64  1  0.47951665  0.61974976  0.08332930  1
  Si  Si65  1  0.80884357  0.66661699  0.91825666  1
  Si  Si66  1  0.02546113  0.38024434  0.91963343  1
  Si  Si67  1  0.52248549  0.37347600  0.91447291  1
  Si  Si68  1  0.16875056  0.96340667  0.91883457  1
  Si  Si69  1  0.66439114  0.95848316  0.91768615  1
  Si  Si70  1  0.31172826  0.95322069  0.41671233  1
  Si  Si71  1  0.16234894  0.37339808  0.41851817  1
  Si  Si72  1  0.66843188  0.37466365  0.41876019  1
  Si  Si73  1  0.01993532  0.66409010  0.41388126  1
  Si  Si74  1  0.52403687  0.66868367  0.41983959  1
  S  S75  1  0.14475500  0.00029939  0.24912660  1
  S  S76  1  0.49759149  0.28390419  0.25010251  1
  S  S77  1  0.64438665  0.28883190  0.74929340  1
  S  S78  1  0.99739534  0.70967381  0.75018906  1
  S  S79  1  0.48010167  0.33348157  0.58443395  1
  S  S80  1  0.68711931  0.04105061  0.58385504  1
  S  S81  1  0.33567501  0.62731314  0.58333373  1
  S  S82  1  0.83027863  0.62034746  0.58421752  1
  S  S83  1  0.97939168  0.62601821  0.08445090  1
  S  S84  1  0.33294050  0.04133790  0.08513111  1
  S  S85  1  0.83314084  0.04228810  0.08340552  1
  S  S86  1  0.18730876  0.33275188  0.08401238  1
  S  S87  1  0.68845281  0.33512206  0.08368305  1
  S  S88  1  0.31055370  0.66541931  0.91729262  1
  S  S89  1  0.81006857  0.95530676  0.41787032  1
  O  O90  1  0.10694641  0.03199445  0.30449437  1
  O  O91  1  0.59733791  0.03215394  0.30648531  1
  O  O92  1  0.41673249  0.80544995  0.30901457  1
  O  O93  1  0.91958144  0.80935638  0.30728288  1
  O  O94  1  0.48670245  0.18558965  0.30553270  1
  O  O95  1  0.98800570  0.16047963  0.30688201  1
  O  O96  1  0.09549780  0.16067605  0.80608653  1
  O  O97  1  0.60529169  0.17775695  0.80337289  1
  O  O98  1  0.48759797  0.81022178  0.80887809  1
  O  O99  1  0.98674212  0.78891480  0.80490000  1
  O  O100  1  0.41980663  0.02631608  0.80694759  1
  O  O101  1  0.91650283  0.02783297  0.80900447  1
  O  O102  1  0.40542640  0.96604252  0.69320999  1
  O  O103  1  0.90293452  0.96978067  0.69222584  1
  O  O104  1  0.08203163  0.20169974  0.69088687  1
  O  O105  1  0.58797378  0.20633017  0.69579663  1
  O  O106  1  0.01409184  0.81723996  0.69581992  1
  O  O107  1  0.51880187  0.84483616  0.69365322  1
  O  O108  1  0.40111679  0.83305633  0.19216857  1
  O  O109  1  0.90551592  0.84553517  0.19325578  1
  O  O110  1  0.01897844  0.19453049  0.19298874  1
  O  O111  1  0.51490704  0.20773664  0.19689388  1
  O  O112  1  0.08750391  0.97049056  0.19630535  1
  O  O113  1  0.57912089  0.96359820  0.19253010  1
  O  O114  1  0.43899837  0.35698361  0.63834723  1
  O  O115  1  0.94328066  0.38105104  0.64311810  1
  O  O116  1  0.24391018  0.12300685  0.64392153  1
  O  O117  1  0.73691688  0.12100626  0.63941699  1
  O  O118  1  0.32209421  0.52188496  0.63728254  1
  O  O119  1  0.81761761  0.51501577  0.63782958  1
  O  O120  1  0.44277180  0.51587235  0.14423877  1
  O  O121  1  0.93696503  0.51978310  0.13788987  1
  O  O122  1  0.31852701  0.12121596  0.13753132  1
  O  O123  1  0.82228618  0.12248709  0.13760814  1
  O  O124  1  0.23688657  0.35265712  0.13943410  1
  O  O125  1  0.74001857  0.35940997  0.13801246  1
  O  O126  1  0.22974449  0.30543505  0.03070085  1
  O  O127  1  0.73272307  0.30887263  0.03025501  1
  O  O128  1  0.41677401  0.52625344  0.02366043  1
  O  O129  1  0.92476437  0.54270479  0.02951819  1
  O  O130  1  0.34547950  0.15352653  0.03007735  1
  O  O131  1  0.84723410  0.14960909  0.02897735  1
  O  O132  1  0.23504655  0.16913567  0.52533543  1
  O  O133  1  0.72875971  0.15250874  0.53062147  1
  O  O134  1  0.34916636  0.54868699  0.52856791  1
  O  O135  1  0.84678443  0.53846788  0.53020774  1
  O  O136  1  0.42521975  0.30686075  0.52964049  1
  O  O137  1  0.91323586  0.30724085  0.52590774  1
  O  O138  1  0.27261893  0.69531795  0.97044530  1
  O  O139  1  0.76458632  0.70509434  0.97524372  1
  O  O140  1  0.08267082  0.45994106  0.97636262  1
  O  O141  1  0.58303012  0.46676926  0.97320927  1
  O  O142  1  0.14559301  0.83422668  0.97316092  1
  O  O143  1  0.64722472  0.82802690  0.97324719  1
  O  O144  1  0.26478111  0.82554789  0.47371465  1
  O  O145  1  0.77352077  0.85114866  0.47048329  1
  O  O146  1  0.15137040  0.46517755  0.47753206  1
  O  O147  1  0.64586809  0.45746337  0.47330316  1
  O  O148  1  0.08192497  0.70343199  0.47358815  1
  O  O149  1  0.58256187  0.70694831  0.47605282  1
  O  O150  1  0.06593445  0.63437857  0.35509061  1
  O  O151  1  0.56626146  0.63046774  0.35777587  1
  O  O152  1  0.24560974  0.86741426  0.35960367  1
  O  O153  1  0.75845734  0.87696916  0.36156450  1
  O  O154  1  0.18590471  0.49999562  0.35897532  1
  O  O155  1  0.68345029  0.49854142  0.35642270  1
  O  O156  1  0.06515308  0.50169787  0.85772201  1
  O  O157  1  0.56469375  0.50108691  0.85606602  1
  O  O158  1  0.18324060  0.86804695  0.85654340  1
  O  O159  1  0.68760069  0.87758902  0.85816074  1
  O  O160  1  0.25808586  0.64073752  0.86163490  1
  O  O161  1  0.74731272  0.63024430  0.85900131  1
  O  O162  1  0.01397985  0.84117446  0.40790438  1
  O  O163  1  0.50589622  0.83040390  0.40929038  1
  O  O164  1  0.40835846  0.98165399  0.40962193  1
  O  O165  1  0.89953648  0.97654264  0.40989633  1
  O  O166  1  0.08206815  0.17762398  0.40869774  1
  O  O167  1  0.58006961  0.18755134  0.40498745  1
  O  O168  1  0.00502294  0.18109931  0.90966554  1
  O  O169  1  0.51129934  0.18179551  0.90799813  1
  O  O170  1  0.08014985  0.97330756  0.90490760  1
  O  O171  1  0.57736792  0.97075012  0.90891024  1
  O  O172  1  0.40036050  0.82154023  0.91006882  1
  O  O173  1  0.90681019  0.83095899  0.90910061  1
  O  O174  1  0.48758528  0.17264891  0.58974738  1
  O  O175  1  0.98852253  0.16054617  0.58686962  1
  O  O176  1  0.08857521  0.01284536  0.58905110  1
  O  O177  1  0.59829618  0.02697364  0.58973515  1
  O  O178  1  0.41537192  0.80441627  0.58847489  1
  O  O179  1  0.91374433  0.79246296  0.58875073  1
  O  O180  1  0.48855373  0.81757019  0.08713075  1
  O  O181  1  0.98718559  0.80153812  0.08951368  1
  O  O182  1  0.41496176  0.03435619  0.08830756  1
  O  O183  1  0.91530561  0.02817578  0.08849243  1
  O  O184  1  0.09856950  0.16993664  0.08923498  1
  O  O185  1  0.60021928  0.17914756  0.08817767  1
  O  O186  1  0.34824699  0.17016155  0.74759548  1
  O  O187  1  0.84183993  0.16625026  0.74692574  1
  O  O188  1  0.24034019  0.31667181  0.74596437  1
  O  O189  1  0.73117366  0.30602870  0.74250161  1
  O  O190  1  0.41526762  0.52504937  0.74384557  1
  O  O191  1  0.92126326  0.53334412  0.74544776  1
  O  O192  1  0.34117007  0.51629904  0.24743679  1
  O  O193  1  0.84601341  0.52452778  0.24425771  1
  O  O194  1  0.42166514  0.30898969  0.24515670  1
  O  O195  1  0.91515158  0.30536679  0.24448375  1
  O  O196  1  0.23148312  0.15611487  0.24216558  1
  O  O197  1  0.73925016  0.16703898  0.24369959  1
  O  O198  1  0.32210544  0.51181136  0.92070964  1
  O  O199  1  0.82293385  0.49664968  0.92689826  1
  O  O200  1  0.42693135  0.36159610  0.92510674  1
  O  O201  1  0.92484331  0.35730695  0.92601233  1
  O  O202  1  0.25440166  0.15854421  0.92608154  1
  O  O203  1  0.75384661  0.14643630  0.92741145  1
  O  O204  1  0.32122304  0.14716279  0.42491871  1
  O  O205  1  0.82010070  0.13113930  0.42141511  1
  O  O206  1  0.25273177  0.35975142  0.42477307  1
  O  O207  1  0.75351002  0.34886515  0.42599970  1
  O  O208  1  0.42465140  0.49265749  0.42491610  1
  O  O209  1  0.92436355  0.49224106  0.42507413  1
  O  O210  1  0.17824511  0.48746351  0.07798575  1
  O  O211  1  0.68107309  0.49271323  0.07637637  1
  O  O212  1  0.06653664  0.64526926  0.07928232  1
  O  O213  1  0.57886305  0.64988717  0.07396786  1
  O  O214  1  0.25702666  0.86687420  0.07646696  1
  O  O215  1  0.75714883  0.86676549  0.07776200  1
  O  O216  1  0.17461125  0.84299505  0.57498703  1
  O  O217  1  0.67821485  0.86893358  0.57823107  1
  O  O218  1  0.25651950  0.64301447  0.57800008  1
  O  O219  1  0.75590838  0.64658700  0.57661389  1
  O  O220  1  0.07737072  0.50105139  0.57462029  1
  O  O221  1  0.56726312  0.48730757  0.57889310  1
  O  O222  1  0.15015896  0.84039996  0.25408488  1
  O  O223  1  0.65172653  0.82065188  0.25740399  1
  O  O224  1  0.25651009  0.69197006  0.25666143  1
  O  O225  1  0.75929288  0.69909471  0.25601980  1
  O  O226  1  0.08882899  0.48340096  0.25514210  1
  O  O227  1  0.57933521  0.46444790  0.25470608  1
  O  O228  1  0.15099263  0.48359693  0.75757198  1
  O  O229  1  0.64961722  0.45877534  0.75485111  1
  O  O230  1  0.07915026  0.69371844  0.75459866  1
  O  O231  1  0.58887608  0.69404825  0.75512003  1
  O  O232  1  0.25936151  0.81952181  0.75613681  1
  O  O233  1  0.75650647  0.82162695  0.75616008  1
