# generated using pymatgen
data_Na2Hf6Zn2Si3(S3O16)3
_symmetry_space_group_name_H-M   'P 1'
_cell_length_a   17.78288286
_cell_length_b   8.87622594
_cell_length_c   23.15463389
_cell_angle_alpha   90.10418937
_cell_angle_beta   90.08109696
_cell_angle_gamma   119.92603686
_symmetry_Int_Tables_number   1
_chemical_formula_structural   Na2Hf6Zn2Si3(S3O16)3
_chemical_formula_sum   'Na6 Hf18 Zn6 Si9 S27 O144'
_cell_volume   3167.52452980
_cell_formula_units_Z   3
loop_
 _symmetry_equiv_pos_site_id
 _symmetry_equiv_pos_as_xyz
  1  'x, y, z'
loop_
 _atom_site_type_symbol
 _atom_site_label
 _atom_site_symmetry_multiplicity
 _atom_site_fract_x
 _atom_site_fract_y
 _atom_site_fract_z
 _atom_site_occupancy
  Na  Na0  1  0.00269021  0.99232491  0.49301688  1
  Na  Na1  1  0.50110248  0.01173016  0.99820257  1
  Na  Na2  1  0.32891382  0.32186802  0.83931836  1
  Na  Na3  1  0.83484185  0.33365815  0.84030639  1
  Na  Na4  1  0.32394669  0.32136388  0.33500588  1
  Na  Na5  1  0.83149776  0.33857636  0.33659944  1
  Hf  Hf6  1  0.50781182  0.00791167  0.35544751  1
  Hf  Hf7  1  0.00844728  0.00833426  0.85631486  1
  Hf  Hf8  1  0.50312463  0.00174545  0.64269874  1
  Hf  Hf9  1  0.00838605  0.00435497  0.14500845  1
  Hf  Hf10  1  0.32652831  0.32882106  0.68701161  1
  Hf  Hf11  1  0.83390322  0.32662177  0.68322798  1
  Hf  Hf12  1  0.32828508  0.33425103  0.18671447  1
  Hf  Hf13  1  0.82765496  0.32291517  0.18762494  1
  Hf  Hf14  1  0.32946660  0.32245495  0.97744476  1
  Hf  Hf15  1  0.82823450  0.33473815  0.47560539  1
  Hf  Hf16  1  0.16535370  0.67162939  0.02431106  1
  Hf  Hf17  1  0.66269580  0.65683187  0.02188623  1
  Hf  Hf18  1  0.16322279  0.66904183  0.51913840  1
  Hf  Hf19  1  0.66594893  0.66315786  0.52172295  1
  Hf  Hf20  1  0.15966111  0.66700251  0.31070437  1
  Hf  Hf21  1  0.66846662  0.66571255  0.30967994  1
  Hf  Hf22  1  0.16764233  0.66905333  0.81080637  1
  Hf  Hf23  1  0.66176975  0.66107836  0.81413568  1
  Zn  Zn24  1  0.01199882  0.98342966  0.35388161  1
  Zn  Zn25  1  0.50017351  0.01443134  0.85643127  1
  Zn  Zn26  1  0.00447060  0.01033600  0.65278153  1
  Zn  Zn27  1  0.50260984  0.99387375  0.15460616  1
  Zn  Zn28  1  0.83317667  0.33146611  0.98540637  1
  Zn  Zn29  1  0.33085289  0.33005432  0.48078125  1
  Si  Si30  1  0.14633077  0.00609624  0.25240644  1
  Si  Si31  1  0.64289782  0.99799125  0.24786101  1
  Si  Si32  1  0.14270485  0.28774707  0.74797631  1
  Si  Si33  1  0.68998454  0.04204385  0.58193018  1
  Si  Si34  1  0.18891987  0.33558610  0.08165116  1
  Si  Si35  1  0.51996284  0.36796019  0.91683090  1
  Si  Si36  1  0.16700342  0.95304719  0.91619164  1
  Si  Si37  1  0.66533258  0.37941553  0.41601528  1
  Si  Si38  1  0.01899500  0.67089957  0.41682632  1
  S  S39  1  0.35561812  0.71181988  0.25076793  1
  S  S40  1  0.85626773  0.71098361  0.24917411  1
  S  S41  1  0.99731001  0.28277552  0.25099870  1
  S  S42  1  0.49862543  0.28741838  0.24940927  1
  S  S43  1  0.64614377  0.28878793  0.75066012  1
  S  S44  1  0.99719890  0.70779252  0.74983498  1
  S  S45  1  0.49918928  0.71422795  0.75104866  1
  S  S46  1  0.35750824  0.00231511  0.74978546  1
  S  S47  1  0.85435708  0.99942411  0.75046431  1
  S  S48  1  0.47498386  0.33229123  0.58292339  1
  S  S49  1  0.97858446  0.32864003  0.58157482  1
  S  S50  1  0.18757957  0.04426966  0.58064571  1
  S  S51  1  0.33319299  0.62063078  0.58235333  1
  S  S52  1  0.83802744  0.63069008  0.58370702  1
  S  S53  1  0.47779426  0.62778690  0.08214914  1
  S  S54  1  0.97365564  0.61797175  0.08222167  1
  S  S55  1  0.33897986  0.04676358  0.08369684  1
  S  S56  1  0.83333281  0.04436791  0.08162648  1
  S  S57  1  0.68758556  0.32930425  0.08079183  1
  S  S58  1  0.31196193  0.66986489  0.91702303  1
  S  S59  1  0.80996504  0.66305963  0.91610216  1
  S  S60  1  0.01900945  0.38035591  0.91663746  1
  S  S61  1  0.66880269  0.95889600  0.91720950  1
  S  S62  1  0.31043802  0.95698121  0.41630750  1
  S  S63  1  0.81236708  0.95354885  0.41672494  1
  S  S64  1  0.16939932  0.37942663  0.41801369  1
  S  S65  1  0.51909758  0.65810020  0.41646333  1
  O  O66  1  0.11088281  0.05769508  0.30754330  1
  O  O67  1  0.59962462  0.03343478  0.30568087  1
  O  O68  1  0.41104495  0.79729444  0.30208171  1
  O  O69  1  0.90628705  0.78094884  0.30194066  1
  O  O70  1  0.48258688  0.17505001  0.30116326  1
  O  O71  1  0.97777595  0.17881515  0.30263518  1
  O  O72  1  0.09924613  0.16600850  0.80568977  1
  O  O73  1  0.60998754  0.18072604  0.80172136  1
  O  O74  1  0.48333265  0.78809988  0.80264865  1
  O  O75  1  0.98123286  0.78858724  0.80142111  1
  O  O76  1  0.40962104  0.03438722  0.80172720  1
  O  O77  1  0.90894380  0.02744739  0.80202189  1
  O  O78  1  0.39879604  0.97807347  0.69775878  1
  O  O79  1  0.88830098  0.96876310  0.69746305  1
  O  O80  1  0.08928038  0.21119412  0.69003206  1
  O  O81  1  0.59158329  0.20761156  0.69856691  1
  O  O82  1  0.01017041  0.80562219  0.69702524  1
  O  O83  1  0.51025578  0.82095951  0.69881299  1
  O  O84  1  0.38893772  0.81188252  0.19777694  1
  O  O85  1  0.89544570  0.81712922  0.19716415  1
  O  O86  1  0.00664519  0.19747654  0.19826936  1
  O  O87  1  0.51203123  0.21447440  0.19676814  1
  O  O88  1  0.08604820  0.97307295  0.19447652  1
  O  O89  1  0.59022921  0.96757464  0.18962608  1
  O  O90  1  0.43422428  0.36036752  0.63494032  1
  O  O91  1  0.93909477  0.35932883  0.63549706  1
  O  O92  1  0.24222768  0.12983244  0.63410366  1
  O  O93  1  0.74941768  0.13611544  0.63999677  1
  O  O94  1  0.32034131  0.51000864  0.63461258  1
  O  O95  1  0.82479687  0.51833742  0.63601487  1
  O  O96  1  0.44107016  0.52180868  0.13473492  1
  O  O97  1  0.93274306  0.50771428  0.13358825  1
  O  O98  1  0.32584793  0.13071203  0.13519069  1
  O  O99  1  0.81832266  0.12933159  0.13313850  1
  O  O100  1  0.24938514  0.36510143  0.13861379  1
  O  O101  1  0.74244690  0.35398600  0.13315083  1
  O  O102  1  0.23685587  0.30521000  0.02705523  1
  O  O103  1  0.72848216  0.30475576  0.02909667  1
  O  O104  1  0.42472129  0.53511375  0.03072208  1
  O  O105  1  0.92306380  0.54263164  0.02946847  1
  O  O106  1  0.35111867  0.15409066  0.03114725  1
  O  O107  1  0.85043806  0.15277992  0.03023230  1
  O  O108  1  0.22928941  0.15282496  0.53014425  1
  O  O109  1  0.73690466  0.16910188  0.52851290  1
  O  O110  1  0.35176965  0.54773933  0.53154974  1
  O  O111  1  0.85070065  0.54673222  0.53219533  1
  O  O112  1  0.42237323  0.29936616  0.53122178  1
  O  O113  1  0.92434748  0.31327333  0.53145444  1
  O  O114  1  0.26804530  0.68938211  0.96855798  1
  O  O115  1  0.76990659  0.68978985  0.96836210  1
  O  O116  1  0.07260817  0.45761345  0.96892371  1
  O  O117  1  0.58290345  0.47480729  0.97226509  1
  O  O118  1  0.15665557  0.83777289  0.97261248  1
  O  O119  1  0.66166185  0.85231256  0.96887473  1
  O  O120  1  0.27012172  0.85136199  0.46967358  1
  O  O121  1  0.76717301  0.84639004  0.46896767  1
  O  O122  1  0.16506952  0.47751675  0.47058508  1
  O  O123  1  0.65597713  0.47306109  0.47381673  1
  O  O124  1  0.08174391  0.69158007  0.47326851  1
  O  O125  1  0.57345218  0.68916698  0.46936035  1
  O  O126  1  0.06786354  0.64457589  0.36104233  1
  O  O127  1  0.56300294  0.63758701  0.36527551  1
  O  O128  1  0.25468534  0.86913867  0.36540650  1
  O  O129  1  0.75786278  0.87319484  0.36472528  1
  O  O130  1  0.18164503  0.48569863  0.36583667  1
  O  O131  1  0.67927196  0.49977544  0.36053023  1
  O  O132  1  0.06300964  0.48797471  0.86483495  1
  O  O133  1  0.56939531  0.49183412  0.85972653  1
  O  O134  1  0.18013325  0.86154582  0.85938775  1
  O  O135  1  0.68083546  0.87236597  0.86432832  1
  O  O136  1  0.25843058  0.64314689  0.86415454  1
  O  O137  1  0.75360716  0.63977231  0.86414286  1
  O  O138  1  0.00725312  0.83850652  0.41780850  1
  O  O139  1  0.50909283  0.81361424  0.40864738  1
  O  O140  1  0.39548285  0.96892585  0.40818229  1
  O  O141  1  0.89812565  0.97372872  0.41178119  1
  O  O142  1  0.08797350  0.21301651  0.41719708  1
  O  O143  1  0.57803884  0.19140234  0.40893188  1
  O  O144  1  0.00853674  0.20407836  0.90798582  1
  O  O145  1  0.51342259  0.18043630  0.91458653  1
  O  O146  1  0.07900593  0.96568585  0.90858588  1
  O  O147  1  0.58838115  0.96519860  0.91160375  1
  O  O148  1  0.39858955  0.82252102  0.91151882  1
  O  O149  1  0.89451641  0.82111920  0.90632969  1
  O  O150  1  0.48556653  0.17777090  0.59497505  1
  O  O151  1  0.98511741  0.17164524  0.58719809  1
  O  O152  1  0.09943914  0.01455034  0.58752083  1
  O  O153  1  0.59519951  0.02333155  0.59623570  1
  O  O154  1  0.40917162  0.79595553  0.59546964  1
  O  O155  1  0.91377765  0.80356645  0.59177621  1
  O  O156  1  0.48551656  0.79985081  0.08561438  1
  O  O157  1  0.98186960  0.79048498  0.09137110  1
  O  O158  1  0.41470790  0.02412843  0.09006519  1
  O  O159  1  0.90724193  0.01952972  0.09437973  1
  O  O160  1  0.09289681  0.16891566  0.09237038  1
  O  O161  1  0.59960235  0.18313934  0.08708310  1
  O  O162  1  0.34709910  0.15908529  0.73991765  1
  O  O163  1  0.84643218  0.16282466  0.74514139  1
  O  O164  1  0.24245847  0.31162389  0.74249780  1
  O  O165  1  0.73583240  0.31604865  0.74074459  1
  O  O166  1  0.42475154  0.53453562  0.74013080  1
  O  O167  1  0.91890026  0.52782792  0.74504355  1
  O  O168  1  0.35164843  0.53771743  0.24554719  1
  O  O169  1  0.84553742  0.53260806  0.23895245  1
  O  O170  1  0.42240267  0.31418282  0.24429608  1
  O  O171  1  0.92378751  0.31887999  0.23919444  1
  O  O172  1  0.24592542  0.17157319  0.24176980  1
  O  O173  1  0.74221674  0.17304267  0.24250474  1
  O  O174  1  0.31914210  0.51001398  0.92254444  1
  O  O175  1  0.81816659  0.50642304  0.92077702  1
  O  O176  1  0.42838591  0.36526576  0.92269429  1
  O  O177  1  0.93226818  0.36341193  0.92169747  1
  O  O178  1  0.25186297  0.14723231  0.92031269  1
  O  O179  1  0.74753879  0.13276308  0.92130789  1
  O  O180  1  0.31970930  0.13121425  0.42240464  1
  O  O181  1  0.81827092  0.12721486  0.42344510  1
  O  O182  1  0.24773280  0.36069388  0.42377897  1
  O  O183  1  0.75056575  0.35499442  0.42027732  1
  O  O184  1  0.43278810  0.50181299  0.42275137  1
  O  O185  1  0.92727778  0.48951765  0.42439139  1
  O  O186  1  0.17835518  0.50431216  0.07112377  1
  O  O187  1  0.68593974  0.49769986  0.07560667  1
  O  O188  1  0.06198130  0.63855957  0.07649381  1
  O  O189  1  0.56702293  0.64825339  0.07391407  1
  O  O190  1  0.25842320  0.87435569  0.07585701  1
  O  O191  1  0.75399849  0.87221221  0.07361083  1
  O  O192  1  0.18603141  0.87389473  0.57582872  1
  O  O193  1  0.67685243  0.85088447  0.57333335  1
  O  O194  1  0.25598048  0.63937788  0.57581180  1
  O  O195  1  0.75755237  0.64107037  0.57672064  1
  O  O196  1  0.06617645  0.48673199  0.57557599  1
  O  O197  1  0.56274849  0.48650066  0.57686015  1
  O  O198  1  0.15789784  0.83420910  0.25920298  1
  O  O199  1  0.65848240  0.83723906  0.26340408  1
  O  O200  1  0.26696033  0.67860113  0.26232571  1
  O  O201  1  0.76726573  0.68648613  0.25487253  1
  O  O202  1  0.07807880  0.45553194  0.25626259  1
  O  O203  1  0.57604845  0.46177781  0.25998518  1
  O  O204  1  0.15892712  0.48053542  0.76289868  1
  O  O205  1  0.65620215  0.46536622  0.75741511  1
  O  O206  1  0.07334670  0.68478698  0.76022562  1
  O  O207  1  0.57931205  0.70013256  0.75704427  1
  O  O208  1  0.26974852  0.84810519  0.75524595  1
  O  O209  1  0.76545038  0.85108830  0.76148784  1
