# generated using pymatgen
data_MgNi2(SbO3)4
_symmetry_space_group_name_H-M   'P 1'
_cell_length_a   5.24246564
_cell_length_b   5.24174459
_cell_length_c   9.44495429
_cell_angle_alpha   91.63211710
_cell_angle_beta   91.63415776
_cell_angle_gamma   78.50452052
_symmetry_Int_Tables_number   1
_chemical_formula_structural   MgNi2(SbO3)4
_chemical_formula_sum   'Mg1 Ni2 Sb4 O12'
_cell_volume   254.16553169
_cell_formula_units_Z   1
loop_
 _symmetry_equiv_pos_site_id
 _symmetry_equiv_pos_as_xyz
  1  'x, y, z'
loop_
 _atom_site_type_symbol
 _atom_site_label
 _atom_site_symmetry_multiplicity
 _atom_site_fract_x
 _atom_site_fract_y
 _atom_site_fract_z
 _atom_site_occupancy
  Mg  Mg0  1  0.78469223  0.78416992  0.50274618  1
  Ni  Ni1  1  0.93433537  0.93360192  0.99268379  1
  Ni  Ni2  1  0.46029363  0.45961407  0.50631360  1
  Sb  Sb3  1  0.50876356  0.50802474  0.83322557  1
  Sb  Sb4  1  0.08345958  0.08259428  0.30325948  1
  Sb  Sb5  1  0.51387069  0.51309497  0.15980628  1
  Sb  Sb6  1  0.06532193  0.06458116  0.68338524  1
  O  O7  1  0.64486287  0.64437189  0.66913449  1
  O  O8  1  0.30465595  0.30377681  0.68069580  1
  O  O9  1  0.64672961  0.64626590  0.33751977  1
  O  O10  1  0.20888601  0.81586252  0.14849977  1
  O  O11  1  0.81681890  0.20826560  0.14851053  1
  O  O12  1  0.81094755  0.19258774  0.83530409  1
  O  O13  1  0.35551928  0.35454579  0.99075401  1
  O  O14  1  0.16365650  0.78229207  0.53610517  1
  O  O15  1  0.78312239  0.16314519  0.53608720  1
  O  O16  1  0.68117968  0.68057756  0.99721034  1
  O  O17  1  0.33134380  0.33030310  0.30345209  1
  O  O18  1  0.19320847  0.81010277  0.83530662  1
