# generated using pymatgen
data_MgCo2(SbO3)4
_symmetry_space_group_name_H-M   'P 1'
_cell_length_a   5.33390400
_cell_length_b   5.33394947
_cell_length_c   9.61642279
_cell_angle_alpha   84.59072896
_cell_angle_beta   84.59071591
_cell_angle_gamma   77.15196772
_symmetry_Int_Tables_number   1
_chemical_formula_structural   MgCo2(SbO3)4
_chemical_formula_sum   'Mg1 Co2 Sb4 O12'
_cell_volume   264.79839665
_cell_formula_units_Z   1
loop_
 _symmetry_equiv_pos_site_id
 _symmetry_equiv_pos_as_xyz
  1  'x, y, z'
loop_
 _atom_site_type_symbol
 _atom_site_label
 _atom_site_symmetry_multiplicity
 _atom_site_fract_x
 _atom_site_fract_y
 _atom_site_fract_z
 _atom_site_occupancy
  Mg  Mg0  1  0.21035812  0.21034468  0.85342288  1
  Co  Co1  1  0.91403557  0.91402736  0.01464166  1
  Co  Co2  1  0.50278636  0.50280128  0.49942240  1
  Sb  Sb3  1  0.95753247  0.95758454  0.64258017  1
  Sb  Sb4  1  0.04140593  0.04139227  0.31270865  1
  Sb  Sb5  1  0.48130424  0.48129090  0.17105050  1
  Sb  Sb6  1  0.55323010  0.55322940  0.84160439  1
  O  O7  1  0.27436016  0.27435077  0.30780365  1
  O  O8  1  0.36060628  0.36060139  0.00224085  1
  O  O9  1  0.23901660  0.83842133  0.85936598  1
  O  O10  1  0.67787828  0.67787724  0.01094237  1
  O  O11  1  0.39202414  0.39198859  0.70375092  1
  O  O12  1  0.16863122  0.79024922  0.16679556  1
  O  O13  1  0.83843080  0.23902692  0.85937223  1
  O  O14  1  0.62234197  0.62235490  0.31376280  1
  O  O15  1  0.16752054  0.78599226  0.47229575  1
  O  O16  1  0.78596499  0.16751626  0.47227816  1
  O  O17  1  0.71674822  0.71676923  0.67202689  1
  O  O18  1  0.79026802  0.16862546  0.16679120  1
