# generated using pymatgen
data_Na2Nb2In6Si3(S3O16)3
_symmetry_space_group_name_H-M   'P 1'
_cell_length_a   17.85608479
_cell_length_b   8.90540474
_cell_length_c   23.34743170
_cell_angle_alpha   89.99891150
_cell_angle_beta   90.15630068
_cell_angle_gamma   120.14700717
_symmetry_Int_Tables_number   1
_chemical_formula_structural   Na2Nb2In6Si3(S3O16)3
_chemical_formula_sum   'Na6 Nb6 In18 Si9 S27 O144'
_cell_volume   3210.42297391
_cell_formula_units_Z   3
loop_
 _symmetry_equiv_pos_site_id
 _symmetry_equiv_pos_as_xyz
  1  'x, y, z'
loop_
 _atom_site_type_symbol
 _atom_site_label
 _atom_site_symmetry_multiplicity
 _atom_site_fract_x
 _atom_site_fract_y
 _atom_site_fract_z
 _atom_site_occupancy
  Na  Na0  1  0.99791900  0.98540465  0.49903105  1
  Na  Na1  1  0.50156478  0.01247516  0.99627253  1
  Na  Na2  1  0.34510785  0.33890395  0.83507587  1
  Na  Na3  1  0.83483110  0.35300362  0.83047994  1
  Na  Na4  1  0.33772159  0.32013679  0.33608566  1
  Na  Na5  1  0.84203253  0.34399658  0.34205741  1
  Nb  Nb6  1  0.49297676  0.00648174  0.35657457  1
  Nb  Nb7  1  0.99222042  0.97796106  0.85362094  1
  Nb  Nb8  1  0.50213221  0.99143191  0.64116529  1
  Nb  Nb9  1  0.99686078  0.00392446  0.14453257  1
  Nb  Nb10  1  0.67224640  0.66398128  0.01634644  1
  Nb  Nb11  1  0.17133903  0.67908302  0.51819354  1
  In  In12  1  0.00404273  0.98855621  0.35704839  1
  In  In13  1  0.50215074  0.01592696  0.85443567  1
  In  In14  1  0.99820792  0.99509559  0.65109105  1
  In  In15  1  0.50002598  0.00347380  0.15248457  1
  In  In16  1  0.32979947  0.33516778  0.68327362  1
  In  In17  1  0.83871594  0.34311858  0.68497534  1
  In  In18  1  0.34253408  0.33441457  0.18801791  1
  In  In19  1  0.82687144  0.32033796  0.18352851  1
  In  In20  1  0.33690016  0.33607888  0.98222178  1
  In  In21  1  0.83754836  0.33372582  0.98224271  1
  In  In22  1  0.33800480  0.34111569  0.48366120  1
  In  In23  1  0.83378029  0.33309741  0.48468401  1
  In  In24  1  0.16397789  0.66425872  0.01696879  1
  In  In25  1  0.66594689  0.67510679  0.52053318  1
  In  In26  1  0.16186305  0.67570997  0.31691829  1
  In  In27  1  0.66664556  0.66556215  0.31093585  1
  In  In28  1  0.16825603  0.67212428  0.80920729  1
  In  In29  1  0.66147309  0.64697766  0.81377461  1
  Si  Si30  1  0.50006406  0.29492776  0.24972011  1
  Si  Si31  1  0.99779562  0.70013149  0.74805854  1
  Si  Si32  1  0.69491309  0.04832647  0.58445854  1
  Si  Si33  1  0.32940466  0.61548945  0.58338135  1
  Si  Si34  1  0.82931078  0.04328573  0.08295991  1
  Si  Si35  1  0.81083340  0.65362559  0.91394572  1
  Si  Si36  1  0.51725474  0.37231653  0.91568748  1
  Si  Si37  1  0.30984950  0.96866798  0.41499448  1
  Si  Si38  1  0.01575040  0.65595946  0.41678859  1
  S  S39  1  0.14383548  0.00319990  0.24747458  1
  S  S40  1  0.64700616  0.00688234  0.25296525  1
  S  S41  1  0.35140530  0.70553577  0.25236962  1
  S  S42  1  0.85776873  0.70840671  0.24792542  1
  S  S43  1  0.00026163  0.28645297  0.25109133  1
  S  S44  1  0.14664623  0.28580499  0.75287204  1
  S  S45  1  0.64380631  0.28648343  0.74834739  1
  S  S46  1  0.49987052  0.71403112  0.75130119  1
  S  S47  1  0.35703632  0.00807921  0.74844826  1
  S  S48  1  0.85228707  0.99842625  0.75303691  1
  S  S49  1  0.48125212  0.33008812  0.58573611  1
  S  S50  1  0.98552847  0.33136186  0.58276552  1
  S  S51  1  0.18358841  0.03667228  0.58227610  1
  S  S52  1  0.83545576  0.63738086  0.58177832  1
  S  S53  1  0.48230994  0.63639174  0.08289381  1
  S  S54  1  0.98287670  0.63242781  0.08601056  1
  S  S55  1  0.33173194  0.03182397  0.08229176  1
  S  S56  1  0.18878334  0.33365223  0.08518478  1
  S  S57  1  0.68360748  0.33089724  0.08201530  1
  S  S58  1  0.31113576  0.66560691  0.91629471  1
  S  S59  1  0.02259121  0.37237847  0.91453428  1
  S  S60  1  0.16585809  0.96199003  0.91575480  1
  S  S61  1  0.66578195  0.95353520  0.91621292  1
  S  S62  1  0.81256395  0.95644521  0.41377811  1
  S  S63  1  0.16668290  0.37771348  0.41647750  1
  S  S64  1  0.66654481  0.37519042  0.41526505  1
  S  S65  1  0.52013441  0.67041548  0.41346091  1
  O  O66  1  0.10729686  0.03127620  0.30028820  1
  O  O67  1  0.59781634  0.01955391  0.30207275  1
  O  O68  1  0.41042728  0.79842635  0.30260422  1
  O  O69  1  0.91082582  0.78341294  0.29944706  1
  O  O70  1  0.48872840  0.16258899  0.30630254  1
  O  O71  1  0.98635417  0.17620779  0.30138978  1
  O  O72  1  0.09701189  0.17402855  0.80284052  1
  O  O73  1  0.60747087  0.18690038  0.80247886  1
  O  O74  1  0.48600704  0.79425311  0.80309437  1
  O  O75  1  0.98571804  0.80778510  0.80630190  1
  O  O76  1  0.40745528  0.03949923  0.80244408  1
  O  O77  1  0.91110746  0.01645210  0.80409445  1
  O  O78  1  0.40273699  0.99248008  0.69839958  1
  O  O79  1  0.89076013  0.97909380  0.70019861  1
  O  O80  1  0.09888636  0.21738161  0.69892767  1
  O  O81  1  0.58754161  0.18699490  0.69896016  1
  O  O82  1  0.01261227  0.81663607  0.69276533  1
  O  O83  1  0.50380080  0.81724357  0.69929149  1
  O  O84  1  0.38944734  0.80196640  0.19864412  1
  O  O85  1  0.90522782  0.81848257  0.19608559  1
  O  O86  1  0.00466018  0.18857816  0.19776924  1
  O  O87  1  0.51098168  0.21111681  0.19177701  1
  O  O88  1  0.08778009  0.98901066  0.19694708  1
  O  O89  1  0.60006513  0.97930810  0.19798316  1
  O  O90  1  0.44228896  0.36258135  0.63645140  1
  O  O91  1  0.95153856  0.36703007  0.63488191  1
  O  O92  1  0.23428820  0.10618173  0.63532545  1
  O  O93  1  0.75237178  0.13315798  0.64134071  1
  O  O94  1  0.30719483  0.50362928  0.64118564  1
  O  O95  1  0.82760066  0.54156812  0.63477969  1
  O  O96  1  0.44492595  0.53033407  0.13507289  1
  O  O97  1  0.94303505  0.52365331  0.13681626  1
  O  O98  1  0.31967759  0.11237342  0.13417396  1
  O  O99  1  0.81088610  0.11089917  0.14183730  1
  O  O100  1  0.24447571  0.36436365  0.13555918  1
  O  O101  1  0.73428627  0.36385047  0.13537503  1
  O  O102  1  0.22162379  0.29132279  0.03332862  1
  O  O103  1  0.72616405  0.30771522  0.03186635  1
  O  O104  1  0.42339804  0.55996983  0.03272371  1
  O  O105  1  0.92908520  0.57021083  0.03447660  1
  O  O106  1  0.34525400  0.13985631  0.03068748  1
  O  O107  1  0.85963181  0.16785270  0.02827497  1
  O  O108  1  0.22577270  0.14352703  0.53154760  1
  O  O109  1  0.72602844  0.16443232  0.52687380  1
  O  O110  1  0.35720395  0.55087570  0.52756562  1
  O  O111  1  0.85326475  0.56254971  0.53063449  1
  O  O112  1  0.42622842  0.28563228  0.53438135  1
  O  O113  1  0.92919500  0.29281450  0.53200668  1
  O  O114  1  0.27354305  0.69526443  0.96926956  1
  O  O115  1  0.76401154  0.68393003  0.97187376  1
  O  O116  1  0.07152725  0.44180008  0.96961331  1
  O  O117  1  0.58095041  0.48393297  0.97187444  1
  O  O118  1  0.14768807  0.85684419  0.96883776  1
  O  O119  1  0.65933229  0.84791305  0.96843173  1
  O  O120  1  0.26324057  0.84418893  0.47175238  1
  O  O121  1  0.77337215  0.84866056  0.46489368  1
  O  O122  1  0.15990946  0.47001902  0.46749939  1
  O  O123  1  0.64974548  0.44721425  0.46702916  1
  O  O124  1  0.08114172  0.67380318  0.47112927  1
  O  O125  1  0.56949691  0.69805286  0.46643281  1
  O  O126  1  0.05021609  0.62312359  0.35630750  1
  O  O127  1  0.56124015  0.64194703  0.36320545  1
  O  O128  1  0.25950557  0.88867561  0.35623225  1
  O  O129  1  0.76265780  0.87296044  0.36057662  1
  O  O130  1  0.17807162  0.47434267  0.36276080  1
  O  O131  1  0.68010348  0.48305409  0.36413439  1
  O  O132  1  0.06658322  0.48940469  0.86665173  1
  O  O133  1  0.55368663  0.47884525  0.85725496  1
  O  O134  1  0.18362383  0.88334575  0.86663800  1
  O  O135  1  0.67681958  0.87795112  0.86374548  1
  O  O136  1  0.25966358  0.64658967  0.86471205  1
  O  O137  1  0.75762546  0.63256166  0.85729507  1
  O  O138  1  0.01504449  0.84028474  0.41949269  1
  O  O139  1  0.51387584  0.83068835  0.40335473  1
  O  O140  1  0.40575431  0.97352403  0.40667502  1
  O  O141  1  0.90125949  0.97988383  0.40944427  1
  O  O142  1  0.08400007  0.20684357  0.41543178  1
  O  O143  1  0.58643517  0.19720598  0.40552888  1
  O  O144  1  0.01567938  0.20083921  0.90518926  1
  O  O145  1  0.51466197  0.18531963  0.91879924  1
  O  O146  1  0.08734545  0.97800024  0.90528193  1
  O  O147  1  0.58357485  0.95891569  0.91583618  1
  O  O148  1  0.39995354  0.81730053  0.91185754  1
  O  O149  1  0.90648963  0.83978884  0.90643518  1
  O  O150  1  0.48978439  0.17235886  0.59757698  1
  O  O151  1  0.99767674  0.17750002  0.58972177  1
  O  O152  1  0.09640763  0.01649828  0.58616703  1
  O  O153  1  0.59477893  0.02455004  0.59931224  1
  O  O154  1  0.41343466  0.81374747  0.59923177  1
  O  O155  1  0.91102538  0.82003611  0.58516275  1
  O  O156  1  0.49362421  0.81355827  0.08993411  1
  O  O157  1  0.99530499  0.81203061  0.09812507  1
  O  O158  1  0.40878712  0.00950381  0.08657883  1
  O  O159  1  0.91455004  0.01225847  0.09916380  1
  O  O160  1  0.09958795  0.17574022  0.09681830  1
  O  O161  1  0.59619643  0.17492802  0.08612276  1
  O  O162  1  0.34505677  0.16243110  0.74255119  1
  O  O163  1  0.84968043  0.16055847  0.75424577  1
  O  O164  1  0.23131215  0.28894038  0.75245690  1
  O  O165  1  0.73009890  0.30614317  0.74366712  1
  O  O166  1  0.42311912  0.53641607  0.74628190  1
  O  O167  1  0.90848230  0.51428175  0.74894224  1
  O  O168  1  0.34538049  0.53259323  0.25004974  1
  O  O169  1  0.84808539  0.53403812  0.23967129  1
  O  O170  1  0.40952786  0.29947801  0.25252577  1
  O  O171  1  0.92377366  0.30835012  0.24417083  1
  O  O172  1  0.22922343  0.16148727  0.24028582  1
  O  O173  1  0.73227822  0.17481873  0.25204511  1
  O  O174  1  0.31441339  0.50275062  0.92189979  1
  O  O175  1  0.82988031  0.49766669  0.92457846  1
  O  O176  1  0.42054813  0.34822387  0.92167058  1
  O  O177  1  0.93498849  0.35028959  0.91861989  1
  O  O178  1  0.23993475  0.13973572  0.92303236  1
  O  O179  1  0.74131948  0.13011408  0.92258287  1
  O  O180  1  0.32988102  0.16361781  0.42450281  1
  O  O181  1  0.81820649  0.12692875  0.41773424  1
  O  O182  1  0.24150212  0.35106849  0.42215083  1
  O  O183  1  0.74079320  0.34859566  0.41928561  1
  O  O184  1  0.43129184  0.52026872  0.41688758  1
  O  O185  1  0.91939409  0.48821796  0.42391085  1
  O  O186  1  0.17424647  0.48084441  0.07675482  1
  O  O187  1  0.67374784  0.48753909  0.07356437  1
  O  O188  1  0.07035595  0.65750832  0.07791765  1
  O  O189  1  0.56726352  0.65242496  0.07197651  1
  O  O190  1  0.25275096  0.85865445  0.07545506  1
  O  O191  1  0.74806529  0.84980126  0.06790177  1
  O  O192  1  0.17354342  0.85924147  0.57411348  1
  O  O193  1  0.67134705  0.84987885  0.57723942  1
  O  O194  1  0.24752554  0.64450745  0.56745238  1
  O  O195  1  0.75491809  0.64345685  0.57463136  1
  O  O196  1  0.07248323  0.48521009  0.57137344  1
  O  O197  1  0.56841288  0.47616099  0.57689054  1
  O  O198  1  0.14806935  0.84333143  0.24853863  1
  O  O199  1  0.66226612  0.86105156  0.25970170  1
  O  O200  1  0.26630142  0.68865509  0.26017237  1
  O  O201  1  0.77470520  0.70246644  0.25045751  1
  O  O202  1  0.08201841  0.45152361  0.25154964  1
  O  O203  1  0.58507840  0.47795917  0.25929749  1
  O  O204  1  0.16130778  0.46199168  0.76050535  1
  O  O205  1  0.64666993  0.45470066  0.74867467  1
  O  O206  1  0.08263602  0.68967952  0.76074247  1
  O  O207  1  0.58125175  0.71116592  0.75333771  1
  O  O208  1  0.27252287  0.84747318  0.75277527  1
  O  O209  1  0.76732013  0.84366450  0.76089481  1
