# generated using pymatgen
data_Na2Te2O5
_symmetry_space_group_name_H-M   'P 1'
_cell_length_a   11.96096353
_cell_length_b   11.96096353
_cell_length_c   9.69013719
_cell_angle_alpha   77.80150558
_cell_angle_beta   77.80150558
_cell_angle_gamma   23.50885744
_symmetry_Int_Tables_number   1
_chemical_formula_structural   Na2Te2O5
_chemical_formula_sum   'Na8 Te8 O20'
_cell_volume   539.95596531
_cell_formula_units_Z   4
loop_
 _symmetry_equiv_pos_site_id
 _symmetry_equiv_pos_as_xyz
  1  'x, y, z'
loop_
 _atom_site_type_symbol
 _atom_site_label
 _atom_site_symmetry_multiplicity
 _atom_site_fract_x
 _atom_site_fract_y
 _atom_site_fract_z
 _atom_site_occupancy
  Na  Na0  1  0.83602083  0.82287056  0.20677166  1
  Na  Na1  1  0.17712944  0.16397917  0.29322834  1
  Na  Na2  1  0.16397917  0.17712944  0.79322834  1
  Na  Na3  1  0.82287056  0.83602083  0.70677166  1
  Na  Na4  1  0.93158289  0.96608064  0.41101758  1
  Na  Na5  1  0.03391936  0.06841711  0.08898242  1
  Na  Na6  1  0.06841711  0.03391936  0.58898242  1
  Na  Na7  1  0.96608064  0.93158289  0.91101758  1
  Te  Te8  1  0.44381675  0.43665970  0.17682727  1
  Te  Te9  1  0.56334030  0.55618325  0.32317273  1
  Te  Te10  1  0.55618325  0.56334030  0.82317273  1
  Te  Te11  1  0.43665970  0.44381675  0.67682727  1
  Te  Te12  1  0.39737006  0.22318947  0.45430174  1
  Te  Te13  1  0.77681053  0.60262994  0.04569826  1
  Te  Te14  1  0.60262994  0.77681053  0.54569826  1
  Te  Te15  1  0.22318947  0.39737006  0.95430174  1
  O  O16  1  0.50084702  0.00511112  0.36515751  1
  O  O17  1  0.99488888  0.49915298  0.13484249  1
  O  O18  1  0.49915298  0.99488888  0.63484249  1
  O  O19  1  0.00511112  0.50084702  0.86515751  1
  O  O20  1  0.35733268  0.35077072  0.24791159  1
  O  O21  1  0.64922928  0.64266732  0.25208841  1
  O  O22  1  0.64266732  0.64922928  0.75208841  1
  O  O23  1  0.35077072  0.35733268  0.74791159  1
  O  O24  1  0.42416333  0.48468302  0.36103687  1
  O  O25  1  0.51531698  0.57583667  0.13896313  1
  O  O26  1  0.57583667  0.51531698  0.63896313  1
  O  O27  1  0.48468302  0.42416333  0.86103687  1
  O  O28  1  0.82909251  0.06617547  0.15480035  1
  O  O29  1  0.93382453  0.17090749  0.34519965  1
  O  O30  1  0.17090749  0.93382453  0.84519965  1
  O  O31  1  0.06617547  0.82909251  0.65480035  1
  O  O32  1  0.95063516  0.75418672  0.96207805  1
  O  O33  1  0.24581328  0.04936484  0.53792195  1
  O  O34  1  0.04936484  0.24581328  0.03792195  1
  O  O35  1  0.75418672  0.95063516  0.46207805  1
