# generated using pymatgen
data_Na2HfTaSi2PO12
_symmetry_space_group_name_H-M   'P 1'
_cell_length_a   8.99318662
_cell_length_b   8.99318632
_cell_length_c   22.73801374
_cell_angle_alpha   90.11137486
_cell_angle_beta   89.88862509
_cell_angle_gamma   119.73551698
_symmetry_Int_Tables_number   1
_chemical_formula_structural   Na2HfTaSi2PO12
_chemical_formula_sum   'Na12 Hf6 Ta6 Si12 P6 O72'
_cell_volume   1596.83682230
_cell_formula_units_Z   6
loop_
 _symmetry_equiv_pos_site_id
 _symmetry_equiv_pos_as_xyz
  1  'x, y, z'
loop_
 _atom_site_type_symbol
 _atom_site_label
 _atom_site_symmetry_multiplicity
 _atom_site_fract_x
 _atom_site_fract_y
 _atom_site_fract_z
 _atom_site_occupancy
  Na  Na0  1  0.99254327  0.62931294  0.25083981  1
  Na  Na1  1  0.37068706  0.00745673  0.75083981  1
  Na  Na2  1  0.65921027  0.96264594  0.58417281  1
  Na  Na3  1  0.03735406  0.34078973  0.08417281  1
  Na  Na4  1  0.32587627  0.29597994  0.91750681  1
  Na  Na5  1  0.70402006  0.67412373  0.41750681  1
  Na  Na6  1  0.01906766  0.00317540  0.49814530  1
  Na  Na7  1  0.99682460  0.98093234  0.99814530  1
  Na  Na8  1  0.68573466  0.33650840  0.83147830  1
  Na  Na9  1  0.66349160  0.31426534  0.33147830  1
  Na  Na10  1  0.35240066  0.66984240  0.16481230  1
  Na  Na11  1  0.33015760  0.64759934  0.66481230  1
  Hf  Hf12  1  0.99862906  0.00350345  0.35406260  1
  Hf  Hf13  1  0.99649655  0.00137094  0.85406260  1
  Hf  Hf14  1  0.66529606  0.33683645  0.68739560  1
  Hf  Hf15  1  0.66316355  0.33470394  0.18739560  1
  Hf  Hf16  1  0.33196206  0.67017045  0.02072960  1
  Hf  Hf17  1  0.32982955  0.66803794  0.52072960  1
  Ta  Ta18  1  0.00068247  -0.00001827  0.64600265  1
  Ta  Ta19  1  0.00001827  0.99931753  0.14600265  1
  Ta  Ta20  1  0.66734947  0.33331473  0.97933565  1
  Ta  Ta21  1  0.66668527  0.33265053  0.47933565  1
  Ta  Ta22  1  0.33401547  0.66664873  0.31266965  1
  Ta  Ta23  1  0.33335127  0.66598453  0.81266965  1
  Si  Si24  1  0.70735476  0.71291454  0.25092361  1
  Si  Si25  1  0.00171433  0.29167401  0.24955858  1
  Si  Si26  1  0.28708546  0.29264524  0.75092361  1
  Si  Si27  1  0.70832599  0.99828567  0.74955858  1
  Si  Si28  1  0.37402176  0.04624754  0.58425661  1
  Si  Si29  1  0.66838133  0.62500701  0.58289158  1
  Si  Si30  1  0.95375246  0.62597824  0.08425661  1
  Si  Si31  1  0.37499299  0.33161867  0.08289158  1
  Si  Si32  1  0.04068776  0.37958154  0.91759061  1
  Si  Si33  1  0.33504733  0.95834101  0.91622558  1
  Si  Si34  1  0.62041846  0.95931224  0.41759061  1
  Si  Si35  1  0.04165899  0.66495267  0.41622558  1
  P  P36  1  0.28821798  0.99929943  0.25061200  1
  P  P37  1  0.00070057  0.71178202  0.75061200  1
  P  P38  1  0.95488498  0.33263243  0.58394500  1
  P  P39  1  0.66736757  0.04511502  0.08394500  1
  P  P40  1  0.62155098  0.66596643  0.91727900  1
  P  P41  1  0.33403357  0.37844902  0.41727900  1
  O  O42  1  0.20447994  0.02176750  0.30511402  1
  O  O43  1  0.82593247  0.79444926  0.30875611  1
  O  O44  1  0.98087968  0.17525582  0.30567203  1
  O  O45  1  0.20555074  0.17406753  0.80875611  1
  O  O46  1  0.97823250  0.79552006  0.80511402  1
  O  O47  1  0.82474418  0.01912032  0.80567203  1
  O  O48  1  0.79917962  0.97168488  0.68968535  1
  O  O49  1  0.16275620  0.18980735  0.69389874  1
  O  O50  1  0.02884691  0.82912304  0.69546264  1
  O  O51  1  0.81019265  0.83724380  0.19389874  1
  O  O52  1  0.02831512  0.20082038  0.18968535  1
  O  O53  1  0.17087696  0.97115309  0.19546264  1
  O  O54  1  0.87114694  0.35510050  0.63844702  1
  O  O55  1  0.49259947  0.12778226  0.64208911  1
  O  O56  1  0.64754668  0.50858882  0.63900503  1
  O  O57  1  0.87221774  0.50740053  0.14208911  1
  O  O58  1  0.64489950  0.12885306  0.13844702  1
  O  O59  1  0.49141118  0.35245332  0.13900503  1
  O  O60  1  0.46584662  0.30501788  0.02301835  1
  O  O61  1  0.82942320  0.52314035  0.02723174  1
  O  O62  1  0.69551391  0.16245604  0.02879564  1
  O  O63  1  0.47685965  0.17057680  0.52723174  1
  O  O64  1  0.69498212  0.53415338  0.52301835  1
  O  O65  1  0.83754396  0.30448609  0.52879564  1
  O  O66  1  0.53781294  0.68843450  0.97178102  1
  O  O67  1  0.15926547  0.46111626  0.97542311  1
  O  O68  1  0.31421268  0.84192282  0.97233903  1
  O  O69  1  0.53888374  0.84073453  0.47542311  1
  O  O70  1  0.31156550  0.46218706  0.47178102  1
  O  O71  1  0.15807718  0.68578732  0.47233903  1
  O  O72  1  0.13251262  0.63835188  0.35635235  1
  O  O73  1  0.49608920  0.85647435  0.36056574  1
  O  O74  1  0.36217991  0.49579004  0.36212964  1
  O  O75  1  0.14352565  0.50391080  0.86056574  1
  O  O76  1  0.36164812  0.86748738  0.85635235  1
  O  O77  1  0.50420996  0.63782009  0.86212964  1
  O  O78  1  0.01392140  0.82955475  0.41168491  1
  O  O79  1  0.80826310  0.97675367  0.41020448  1
  O  O80  1  0.18266474  0.19875881  0.40995706  1
  O  O81  1  0.02324633  0.19173690  0.91020448  1
  O  O82  1  0.17044525  0.98607860  0.91168491  1
  O  O83  1  0.80124119  0.81733526  0.90995706  1
  O  O84  1  0.96232169  0.16197060  0.58877382  1
  O  O85  1  0.18490350  0.02992816  0.59077436  1
  O  O86  1  0.84021745  0.81836088  0.58987192  1
  O  O87  1  0.97007184  0.81509650  0.09077436  1
  O  O88  1  0.83802940  0.03767831  0.08877382  1
  O  O89  1  0.18163912  0.15978255  0.08987192  1
  O  O90  1  0.68058840  0.16288775  0.74501791  1
  O  O91  1  0.47493010  0.31008667  0.74353748  1
  O  O92  1  0.84933174  0.53209181  0.74329006  1
  O  O93  1  0.68991333  0.52506990  0.24353748  1
  O  O94  1  0.83711225  0.31941160  0.24501791  1
  O  O95  1  0.46790819  0.15066826  0.24329006  1
  O  O96  1  0.62898869  0.49530360  0.92210682  1
  O  O97  1  0.85157050  0.36326116  0.92410736  1
  O  O98  1  0.50688445  0.15169388  0.92320492  1
  O  O99  1  0.63673884  0.14842950  0.42410736  1
  O  O100  1  0.50469640  0.37101131  0.42210682  1
  O  O101  1  0.84830612  0.49311555  0.42320492  1
  O  O102  1  0.34725440  0.49622175  0.07835191  1
  O  O103  1  0.14159610  0.64342067  0.07687148  1
  O  O104  1  0.51599774  0.86542581  0.07662406  1
  O  O105  1  0.35657933  0.85840390  0.57687148  1
  O  O106  1  0.50377825  0.65274560  0.57835191  1
  O  O107  1  0.13457419  0.48400226  0.57662406  1
  O  O108  1  0.29565469  0.82863760  0.25544082  1
  O  O109  1  0.51823650  0.69659516  0.25744136  1
  O  O110  1  0.17355045  0.48502788  0.25653892  1
  O  O111  1  0.30340484  0.48176350  0.75744136  1
  O  O112  1  0.17136240  0.70434531  0.75544082  1
  O  O113  1  0.51497212  0.82644955  0.75653892  1
