# generated using pymatgen
data_Na6Mg4Si3Sn4(S3O16)3
_symmetry_space_group_name_H-M   'P 1'
_cell_length_a   17.68689190
_cell_length_b   8.80187162
_cell_length_c   22.78121878
_cell_angle_alpha   90.09134504
_cell_angle_beta   89.94837153
_cell_angle_gamma   120.00298076
_symmetry_Int_Tables_number   1
_chemical_formula_structural   Na6Mg4Si3Sn4(S3O16)3
_chemical_formula_sum   'Na18 Mg12 Si9 Sn12 S27 O144'
_cell_volume   3071.28796144
_cell_formula_units_Z   3
loop_
 _symmetry_equiv_pos_site_id
 _symmetry_equiv_pos_as_xyz
  1  'x, y, z'
loop_
 _atom_site_type_symbol
 _atom_site_label
 _atom_site_symmetry_multiplicity
 _atom_site_fract_x
 _atom_site_fract_y
 _atom_site_fract_z
 _atom_site_occupancy
  Na  Na0  1  0.00033562  0.63555998  0.25134361  1
  Na  Na1  1  0.49884137  0.62478454  0.24129856  1
  Na  Na2  1  0.00458350  0.36735836  0.73994660  1
  Na  Na3  1  0.50103672  0.36933624  0.75097766  1
  Na  Na4  1  0.67225019  0.32014702  0.90943771  1
  Na  Na5  1  0.17022868  0.02712611  0.41522741  1
  Na  Na6  1  0.99164240  0.01180903  0.50129116  1
  Na  Na7  1  0.50635247  0.01444308  0.50095457  1
  Na  Na8  1  0.00664480  0.99928452  0.99519435  1
  Na  Na9  1  0.48998834  0.96665973  0.99584272  1
  Na  Na10  1  0.30405725  0.30324070  0.83062851  1
  Na  Na11  1  0.83731405  0.35884882  0.83671950  1
  Na  Na12  1  0.33062819  0.30912285  0.34076482  1
  Na  Na13  1  0.82004171  0.32688802  0.33913489  1
  Na  Na14  1  0.17591135  0.65384057  0.16354470  1
  Na  Na15  1  0.66724745  0.66313928  0.16221434  1
  Na  Na16  1  0.16445344  0.64775664  0.67187060  1
  Na  Na17  1  0.67915057  0.70457969  0.66695289  1
  Mg  Mg18  1  0.99745707  0.00193696  0.35062655  1
  Mg  Mg19  1  0.49746793  0.99257263  0.84952274  1
  Mg  Mg20  1  0.32256678  0.32908044  0.68788149  1
  Mg  Mg21  1  0.83322050  0.31686422  0.67891996  1
  Mg  Mg22  1  0.33046470  0.34669909  0.17676694  1
  Mg  Mg23  1  0.83096126  0.32961435  0.18303634  1
  Mg  Mg24  1  0.83847735  0.34322032  0.98042784  1
  Mg  Mg25  1  0.33736641  0.33285501  0.48284092  1
  Mg  Mg26  1  0.17131446  0.67210575  0.31885238  1
  Mg  Mg27  1  0.67348796  0.66037348  0.31841249  1
  Mg  Mg28  1  0.17132933  0.67666633  0.81420756  1
  Mg  Mg29  1  0.67361083  0.67431045  0.81734438  1
  Si  Si30  1  0.15021754  0.30333187  0.75373408  1
  Si  Si31  1  0.98125899  0.33712240  0.58331577  1
  Si  Si32  1  0.68267515  0.02981857  0.58500336  1
  Si  Si33  1  0.48298256  0.62204091  0.08465327  1
  Si  Si34  1  0.18364055  0.33921640  0.08496534  1
  Si  Si35  1  0.81308227  0.66485188  0.91567403  1
  Si  Si36  1  0.17321452  0.96014976  0.91718428  1
  Si  Si37  1  0.31026994  0.96146853  0.41655916  1
  Si  Si38  1  0.67401831  0.38098498  0.41658660  1
  Sn  Sn39  1  0.50075493  0.01601922  0.36030430  1
  Sn  Sn40  1  0.00765321  0.99195691  0.85734641  1
  Sn  Sn41  1  0.00259339  0.02126091  0.64818181  1
  Sn  Sn42  1  0.50334153  0.99468683  0.64789397  1
  Sn  Sn43  1  0.00335290  0.01072457  0.14688955  1
  Sn  Sn44  1  0.49937339  0.99046622  0.14499421  1
  Sn  Sn45  1  0.32584883  0.33507658  0.98321512  1
  Sn  Sn46  1  0.82558941  0.31862510  0.48681168  1
  Sn  Sn47  1  0.16616589  0.66329814  0.01528631  1
  Sn  Sn48  1  0.66900606  0.67538759  0.01522974  1
  Sn  Sn49  1  0.16842578  0.66294750  0.51841337  1
  Sn  Sn50  1  0.66564201  0.66292240  0.51840226  1
  S  S51  1  0.14782086  -0.00157378  0.25177088  1
  S  S52  1  0.64698872  0.00053540  0.25171829  1
  S  S53  1  0.35449162  0.70930693  0.25235507  1
  S  S54  1  0.85424769  0.71176034  0.24761107  1
  S  S55  1  0.99896745  0.29758617  0.25160518  1
  S  S56  1  0.49896772  0.29107046  0.24773215  1
  S  S57  1  0.64766702  0.29737433  0.75202675  1
  S  S58  1  0.99492969  0.70250634  0.74722993  1
  S  S59  1  0.50226682  0.70331795  0.75149542  1
  S  S60  1  0.35711392  -0.00034383  0.74740683  1
  S  S61  1  0.85129978  0.99754200  0.75155034  1
  S  S62  1  0.47778501  0.33173599  0.58731270  1
  S  S63  1  0.18643730  0.03966604  0.58217941  1
  S  S64  1  0.33434966  0.62348895  0.58364531  1
  S  S65  1  0.83581503  0.62983764  0.58609265  1
  S  S66  1  0.97865371  0.62488547  0.08766056  1
  S  S67  1  0.33474550  0.04251109  0.08575501  1
  S  S68  1  0.83295982  0.04332103  0.08499897  1
  S  S69  1  0.68745146  0.33314029  0.08430251  1
  S  S70  1  0.31763940  0.67298367  0.91451841  1
  S  S71  1  0.01697829  0.37019601  0.91478987  1
  S  S72  1  0.51780294  0.36964819  0.91381667  1
  S  S73  1  0.66404399  0.96345753  0.91518500  1
  S  S74  1  0.81608452  0.96199991  0.41407215  1
  S  S75  1  0.16461169  0.36688036  0.41459437  1
  S  S76  1  0.01765725  0.66599614  0.41296049  1
  S  S77  1  0.51925582  0.66374392  0.41236063  1
  O  O78  1  0.10487996  0.01875405  0.30465681  1
  O  O79  1  0.60462280  0.02824880  0.30362110  1
  O  O80  1  0.41612018  0.80229099  0.30206905  1
  O  O81  1  0.91175328  0.79733904  0.29818206  1
  O  O82  1  0.48902466  0.18377274  0.30071895  1
  O  O83  1  0.98744998  0.18590895  0.30211123  1
  O  O84  1  0.09885156  0.17392708  0.80970341  1
  O  O85  1  0.60487280  0.19119084  0.80505588  1
  O  O86  1  0.49016574  0.79148662  0.80207899  1
  O  O87  1  0.97942718  0.78066355  0.80073044  1
  O  O88  1  0.41512530  0.02792954  0.79770951  1
  O  O89  1  0.90778186  0.01808327  0.80209313  1
  O  O90  1  0.39689177  0.96769223  0.69219397  1
  O  O91  1  0.88722563  0.96333047  0.69580935  1
  O  O92  1  0.08534957  0.22262456  0.69396881  1
  O  O93  1  0.58706422  0.21055594  0.69929602  1
  O  O94  1  0.00495454  0.81065320  0.69373066  1
  O  O95  1  0.51689073  0.80849091  0.69581061  1
  O  O96  1  0.39265253  0.81695762  0.19699339  1
  O  O97  1  0.89571867  0.81860528  0.19245099  1
  O  O98  1  0.01190710  0.22083269  0.19578930  1
  O  O99  1  0.51330628  0.20732820  0.19415302  1
  O  O100  1  0.08679544  0.96313057  0.19910045  1
  O  O101  1  0.58949043  0.96541918  0.19799065  1
  O  O102  1  0.43823284  0.34961207  0.64157720  1
  O  O103  1  0.94552047  0.36266763  0.64462554  1
  O  O104  1  0.23817344  0.12908127  0.63401314  1
  O  O105  1  0.73738428  0.11167734  0.64284485  1
  O  O106  1  0.32976532  0.52614533  0.63653833  1
  O  O107  1  0.82350716  0.52052652  0.63678274  1
  O  O108  1  0.44894627  0.53052405  0.14758633  1
  O  O109  1  0.93979010  0.53023022  0.14321895  1
  O  O110  1  0.32587194  0.12676102  0.13840028  1
  O  O111  1  0.82611078  0.12740560  0.13906909  1
  O  O112  1  0.23675996  0.37095595  0.14432056  1
  O  O113  1  0.73697423  0.34593066  0.13755014  1
  O  O114  1  0.22103173  0.30155616  0.02467282  1
  O  O115  1  0.72425107  0.30713038  0.03040523  1
  O  O116  1  0.42230000  0.52809680  0.02718364  1
  O  O117  1  0.92668854  0.53468453  0.03613348  1
  O  O118  1  0.34778009  0.14242518  0.03133555  1
  O  O119  1  0.84218852  0.14324166  0.03195100  1
  O  O120  1  0.22310409  0.13704912  0.52716637  1
  O  O121  1  0.71745222  0.13784456  0.52325867  1
  O  O122  1  0.34341577  0.54424201  0.52946056  1
  O  O123  1  0.84885519  0.55830845  0.53008136  1
  O  O124  1  0.42836644  0.31872416  0.53431834  1
  O  O125  1  0.92435011  0.31507169  0.52336876  1
  O  O126  1  0.28045879  0.69171164  0.97201450  1
  O  O127  1  0.77422446  0.70578263  0.97838274  1
  O  O128  1  0.07090962  0.44731436  0.97010291  1
  O  O129  1  0.57632675  0.45025357  0.96697263  1
  O  O130  1  0.15772211  0.85250832  0.98054986  1
  O  O131  1  0.64345554  0.85501985  0.97078730  1
  O  O132  1  0.26867333  0.84077495  0.47672224  1
  O  O133  1  0.77656870  0.86345848  0.46965313  1
  O  O134  1  0.14582143  0.43772397  0.46914158  1
  O  O135  1  0.65455500  0.46100468  0.47688766  1
  O  O136  1  0.07623461  0.70070119  0.46490853  1
  O  O137  1  0.57457865  0.69452705  0.46541421  1
  O  O138  1  0.05549371  0.63878025  0.35864374  1
  O  O139  1  0.56004153  0.64475808  0.35838857  1
  O  O140  1  0.24716635  0.87803690  0.36103017  1
  O  O141  1  0.76090279  0.87812631  0.36247571  1
  O  O142  1  0.17264391  0.47186822  0.36267465  1
  O  O143  1  0.68485640  0.48387433  0.35724529  1
  O  O144  1  0.05937936  0.47490130  0.86277457  1
  O  O145  1  0.55667035  0.47418105  0.86051732  1
  O  O146  1  0.18197520  0.86688271  0.86059785  1
  O  O147  1  0.67176961  0.87160195  0.86446067  1
  O  O148  1  0.26242299  0.64981671  0.86470914  1
  O  O149  1  0.74346558  0.61435947  0.86370759  1
  O  O150  1  0.01121281  0.82807300  0.40783374  1
  O  O151  1  0.51135213  0.82557289  0.40926955  1
  O  O152  1  0.40552576  0.96724636  0.41411404  1
  O  O153  1  0.90300117  0.97778637  0.40887438  1
  O  O154  1  0.08905895  0.18350506  0.40938743  1
  O  O155  1  0.58901834  0.17777792  0.41612804  1
  O  O156  1  0.00651145  0.19220332  0.91257650  1
  O  O157  1  0.51082512  0.19439363  0.90891923  1
  O  O158  1  0.08719995  0.98612005  0.91844634  1
  O  O159  1  0.58921154  0.99664859  0.90964212  1
  O  O160  1  0.40530841  0.83112483  0.91008551  1
  O  O161  1  0.90753305  0.84680576  0.90967768  1
  O  O162  1  0.48541824  0.16763491  0.58938093  1
  O  O163  1  0.98764233  0.15457757  0.58243095  1
  O  O164  1  0.09460619  0.00951095  0.58675778  1
  O  O165  1  0.58256351  0.00345004  0.58683495  1
  O  O166  1  0.41197558  0.80745661  0.58687920  1
  O  O167  1  0.91535595  0.80866703  0.59067777  1
  O  O168  1  0.49296842  0.82288485  0.08494872  1
  O  O169  1  0.98460277  0.80311732  0.08967286  1
  O  O170  1  0.41601952  0.02411608  0.08894219  1
  O  O171  1  0.91054951  0.01631142  0.08893930  1
  O  O172  1  0.08302790  0.16424160  0.08686508  1
  O  O173  1  0.59527073  0.17630193  0.08914098  1
  O  O174  1  0.35482765  0.16406017  0.73948592  1
  O  O175  1  0.84928310  0.16350977  0.74705968  1
  O  O176  1  0.24296626  0.31435447  0.74774200  1
  O  O177  1  0.73359728  0.31676633  0.74408506  1
  O  O178  1  0.42573899  0.52639742  0.74442917  1
  O  O179  1  0.91760023  0.52470245  0.74287130  1
  O  O180  1  0.35077542  0.53843191  0.24802640  1
  O  O181  1  0.84758282  0.53699778  0.24085092  1
  O  O182  1  0.41918935  0.30247433  0.24407114  1
  O  O183  1  0.92061061  0.31858046  0.24562000  1
  O  O184  1  0.23388108  0.15196819  0.24362628  1
  O  O185  1  0.73299875  0.15692112  0.24370179  1
  O  O186  1  0.32909065  0.51452565  0.91773045  1
  O  O187  1  0.82333266  0.49325403  0.92494889  1
  O  O188  1  0.43179095  0.35245701  0.92330084  1
  O  O189  1  0.93028718  0.35251311  0.92258070  1
  O  O190  1  0.26353433  0.15531717  0.92252423  1
  O  O191  1  0.74427083  0.13504754  0.92273944  1
  O  O192  1  0.32245424  0.15506758  0.42499101  1
  O  O193  1  0.82708286  0.14208162  0.41786120  1
  O  O194  1  0.24483105  0.35550785  0.42147397  1
  O  O195  1  0.76324421  0.36807390  0.42423650  1
  O  O196  1  0.43194670  0.51076079  0.41994591  1
  O  O197  1  0.93084335  0.51077045  0.42139852  1
  O  O198  1  0.17210264  0.51482556  0.07668490  1
  O  O199  1  0.67858458  0.49295935  0.08167536  1
  O  O200  1  0.06857562  0.65196229  0.08427120  1
  O  O201  1  0.58245409  0.64913368  0.07550771  1
  O  O202  1  0.25847248  0.86260791  0.08162096  1
  O  O203  1  0.75261884  0.86447117  0.08292852  1
  O  O204  1  0.17908759  0.86206323  0.57980380  1
  O  O205  1  0.67138835  0.83043960  0.57696762  1
  O  O206  1  0.25372916  0.64026608  0.58197077  1
  O  O207  1  0.75806714  0.65491912  0.58092604  1
  O  O208  1  0.08105581  0.50934033  0.57516615  1
  O  O209  1  0.56898965  0.48695818  0.58381352  1
  O  O210  1  0.15083365  0.83254067  0.25409196  1
  O  O211  1  0.65212182  0.83848555  0.25708542  1
  O  O212  1  0.26817609  0.68995069  0.25918147  1
  O  O213  1  0.76803612  0.69671005  0.25147534  1
  O  O214  1  0.07717660  0.47517446  0.25622130  1
  O  O215  1  0.57650744  0.46907042  0.25218491  1
  O  O216  1  0.15296323  0.48992714  0.75790464  1
  O  O217  1  0.65041587  0.46893615  0.75456914  1
  O  O218  1  0.07454064  0.68975058  0.75202928  1
  O  O219  1  0.58113819  0.68506853  0.75671698  1
  O  O220  1  0.27047210  0.84719430  0.75172755  1
  O  O221  1  0.76227435  0.84627710  0.75686419  1
