# generated using pymatgen
data_Na3Zn2Ge2P3(SO8)3
_symmetry_space_group_name_H-M   'P 1'
_cell_length_a   8.59178089
_cell_length_b   8.57960171
_cell_length_c   22.01012887
_cell_angle_alpha   90.32073597
_cell_angle_beta   89.60293455
_cell_angle_gamma   120.07004040
_symmetry_Int_Tables_number   1
_chemical_formula_structural   Na3Zn2Ge2P3(SO8)3
_chemical_formula_sum   'Na9 Zn6 Ge6 P9 S9 O72'
_cell_volume   1404.05736491
_cell_formula_units_Z   3
loop_
 _symmetry_equiv_pos_site_id
 _symmetry_equiv_pos_as_xyz
  1  'x, y, z'
loop_
 _atom_site_type_symbol
 _atom_site_label
 _atom_site_symmetry_multiplicity
 _atom_site_fract_x
 _atom_site_fract_y
 _atom_site_fract_z
 _atom_site_occupancy
  Na  Na0  1  0.66146929  0.69067901  0.08210402  1
  Na  Na1  1  0.33249316  0.29642838  0.91698288  1
  Na  Na2  1  0.33227001  0.03587822  0.41698055  1
  Na  Na3  1  0.99265093  0.99994496  0.50054485  1
  Na  Na4  1  0.00390814  0.99744768  0.99979381  1
  Na  Na5  1  0.67935530  0.33459791  0.83179983  1
  Na  Na6  1  0.67898391  0.34357217  0.33153615  1
  Na  Na7  1  0.31769785  0.66009739  0.16544088  1
  Na  Na8  1  0.33413239  0.67213597  0.66456935  1
  Zn  Zn9  1  0.99759151  0.00304000  0.34282545  1
  Zn  Zn10  1  0.99420491  0.99339532  0.84231574  1
  Zn  Zn11  1  0.67227226  0.34046050  0.98684599  1
  Zn  Zn12  1  0.66458148  0.33258792  0.48597069  1
  Zn  Zn13  1  0.31659188  0.65805062  0.02328021  1
  Zn  Zn14  1  0.33388930  0.67436151  0.52331502  1
  Ge  Ge15  1  0.00794735  0.00028207  0.65421770  1
  Ge  Ge16  1  0.01269349  0.00232111  0.15421691  1
  Ge  Ge17  1  0.66099262  0.32583094  0.68682124  1
  Ge  Ge18  1  0.66872162  0.33969178  0.18662335  1
  Ge  Ge19  1  0.33229485  0.66304739  0.30871616  1
  Ge  Ge20  1  0.33299537  0.67016142  0.80834054  1
  P  P21  1  0.30112262  0.00271076  0.25155859  1
  P  P22  1  0.70624683  0.70568620  0.24961355  1
  P  P23  1  0.99585807  0.29286234  0.24942324  1
  P  P24  1  0.29720448  0.29633538  0.75122658  1
  P  P25  1  0.99608814  0.70033423  0.74925883  1
  P  P26  1  0.70853317  0.00179064  0.74909618  1
  P  P27  1  0.36827073  0.04362399  0.58529323  1
  P  P28  1  0.95786624  0.62984140  0.08733723  1
  P  P29  1  0.36846748  0.32192058  0.08500113  1
  S  S30  1  0.95541640  0.32473480  0.58642672  1
  S  S31  1  0.67479261  0.62999289  0.58671152  1
  S  S32  1  0.67474403  0.04726221  0.08594181  1
  S  S33  1  0.62460237  0.67233875  0.91584390  1
  S  S34  1  0.04076095  0.37722484  0.91414150  1
  S  S35  1  0.33402759  0.95343158  0.91511356  1
  S  S36  1  0.62537816  0.95318018  0.41535449  1
  S  S37  1  0.33288143  0.38203911  0.41572381  1
  S  S38  1  0.04113026  0.66223747  0.41520028  1
  O  O39  1  0.23523550  0.04172059  0.31074199  1
  O  O40  1  0.81723712  0.77711986  0.30628985  1
  O  O41  1  0.95739428  0.18716153  0.30741451  1
  O  O42  1  0.23165055  0.19256342  0.81023250  1
  O  O43  1  0.95479231  0.76695679  0.80720873  1
  O  O44  1  0.81542101  0.04278653  0.80673482  1
  O  O45  1  0.79469150  0.96202182  0.69247262  1
  O  O46  1  0.16988764  0.20902261  0.69578456  1
  O  O47  1  0.03857843  0.82594904  0.69297131  1
  O  O48  1  0.78893923  0.82630811  0.19154685  1
  O  O49  1  0.03626061  0.20701406  0.19285015  1
  O  O50  1  0.17333471  0.96047030  0.19621176  1
  O  O51  1  0.87020806  0.35892339  0.64071401  1
  O  O52  1  0.49625315  0.14096301  0.63985138  1
  O  O53  1  0.64699190  0.51446563  0.64096132  1
  O  O54  1  0.86600001  0.50526829  0.14275148  1
  O  O55  1  0.64337560  0.13081416  0.14056470  1
  O  O56  1  0.50056934  0.35874836  0.13880467  1
  O  O57  1  0.43408750  0.28556149  0.02431652  1
  O  O58  1  0.84213586  0.56364160  0.03003125  1
  O  O59  1  0.70553552  0.14951652  0.02982596  1
  O  O60  1  0.43548174  0.14665012  0.52504253  1
  O  O61  1  0.70966868  0.55937301  0.53035190  1
  O  O62  1  0.85166628  0.29384703  0.53038551  1
  O  O63  1  0.54259488  0.69048986  0.97279011  1
  O  O64  1  0.15361268  0.45674261  0.96839974  1
  O  O65  1  0.31268394  0.84855205  0.96984787  1
  O  O66  1  0.54199694  0.84920122  0.47053075  1
  O  O67  1  0.31103284  0.46551153  0.47074243  1
  O  O68  1  0.15307685  0.69376676  0.46924363  1
  O  O69  1  0.12731331  0.63574451  0.35797309  1
  O  O70  1  0.50379711  0.86844701  0.35956561  1
  O  O71  1  0.35974487  0.49233351  0.35840831  1
  O  O72  1  0.12806012  0.49084574  0.85765002  1
  O  O73  1  0.36020124  0.86856481  0.85751335  1
  O  O74  1  0.50178336  0.63787172  0.86100568  1
  O  O75  1  0.02683017  0.82674609  0.40953597  1
  O  O76  1  0.80288372  0.97083034  0.40918809  1
  O  O77  1  0.17256839  0.19954916  0.41101758  1
  O  O78  1  0.02640399  0.19826519  0.90847089  1
  O  O79  1  0.17313025  0.97385458  0.91046426  1
  O  O80  1  0.80183445  0.83337037  0.90994191  1
  O  O81  1  0.96600170  0.15602595  0.59440356  1
  O  O82  1  0.18006718  0.03211928  0.59524694  1
  O  O83  1  0.84061426  0.81286865  0.59409998  1
  O  O84  1  0.96801218  0.81827273  0.09695029  1
  O  O85  1  0.83826175  0.02712303  0.09290251  1
  O  O86  1  0.18005199  0.15209425  0.09550169  1
  O  O87  1  0.68350949  0.16731093  0.73861671  1
  O  O88  1  0.48687539  0.32074364  0.73965093  1
  O  O89  1  0.83089652  0.51065794  0.73731499  1
  O  O90  1  0.67974025  0.51406326  0.24023037  1
  O  O91  1  0.83035028  0.31597416  0.23864134  1
  O  O92  1  0.48895941  0.16795777  0.23891089  1
  O  O93  1  0.63617690  0.50480957  0.91645570  1
  O  O94  1  0.86365863  0.36279276  0.91850810  1
  O  O95  1  0.49705323  0.13485418  0.91639407  1
  O  O96  1  0.63762815  0.13301248  0.41761936  1
  O  O97  1  0.49626508  0.36360599  0.41679345  1
  O  O98  1  0.86317728  0.49880674  0.41917295  1
  O  O99  1  0.35700960  0.49512722  0.08339198  1
  O  O100  1  0.14506328  0.65499124  0.08407265  1
  O  O101  1  0.51648310  0.86350900  0.08291912  1
  O  O102  1  0.34650065  0.85592022  0.58418945  1
  O  O103  1  0.51359008  0.64739836  0.58362802  1
  O  O104  1  0.13699006  0.48252179  0.58331396  1
  O  O105  1  0.31842950  0.82982621  0.25615633  1
  O  O106  1  0.51483714  0.68589115  0.25483805  1
  O  O107  1  0.16907601  0.48478442  0.25432280  1
  O  O108  1  0.31720499  0.48788510  0.75579748  1
  O  O109  1  0.16861703  0.68197482  0.75451566  1
  O  O110  1  0.51615706  0.82993014  0.75424993  1
