# generated using pymatgen
data_K6MgV2(SO3)2
_symmetry_space_group_name_H-M   'P 1'
_cell_length_a   6.07181600
_cell_length_b   6.72357983
_cell_length_c   9.18541173
_cell_angle_alpha   106.68529972
_cell_angle_beta   90.00000000
_cell_angle_gamma   90.00000000
_symmetry_Int_Tables_number   1
_chemical_formula_structural   K6MgV2(SO3)2
_chemical_formula_sum   'K6 Mg1 V2 S2 O6'
_cell_volume   359.19992894
_cell_formula_units_Z   1
loop_
 _symmetry_equiv_pos_site_id
 _symmetry_equiv_pos_as_xyz
  1  'x, y, z'
loop_
 _atom_site_type_symbol
 _atom_site_label
 _atom_site_symmetry_multiplicity
 _atom_site_fract_x
 _atom_site_fract_y
 _atom_site_fract_z
 _atom_site_occupancy
  K  K0  1  0.75000000  0.32379249  0.45367687  1
  K  K1  1  0.25000000  0.68742066  0.08373139  1
  K  K2  1  0.25000000  0.66299882  0.47543749  1
  K  K3  1  0.75000000  0.25088745  0.00286547  1
  K  K4  1  0.25000000  0.27200207  0.71158050  1
  K  K5  1  0.75000000  0.78273597  0.28670963  1
  Mg  Mg6  1  0.25000000  0.83161472  0.81627468  1
  V  V7  1  0.75000000  0.74719039  0.81428025  1
  V  V8  1  0.25000000  0.25981699  0.18255225  1
  S  S9  1  0.75000000  0.98900928  0.67122055  1
  S  S10  1  0.25000000  0.06580029  0.35787161  1
  O  O11  1  0.25000000  0.09010640  0.97806690  1
  O  O12  1  0.75000000  0.84830523  0.00967668  1
  O  O13  1  0.01550275  0.61998658  0.74457283  1
  O  O14  1  0.01559013  0.42417305  0.22631203  1
  O  O15  1  0.48449725  0.61998658  0.74457283  1
  O  O16  1  0.48440987  0.42417305  0.22631203  1
