# generated using pymatgen
data_Na6La8Si3(S3O16)3
_symmetry_space_group_name_H-M   'P 1'
_cell_length_a   19.17899489
_cell_length_b   9.57850790
_cell_length_c   25.01704576
_cell_angle_alpha   89.98679695
_cell_angle_beta   89.49739647
_cell_angle_gamma   119.87845780
_symmetry_Int_Tables_number   1
_chemical_formula_structural   Na6La8Si3(S3O16)3
_chemical_formula_sum   'Na18 La24 Si9 S27 O144'
_cell_volume   3984.72297170
_cell_formula_units_Z   3
loop_
 _symmetry_equiv_pos_site_id
 _symmetry_equiv_pos_as_xyz
  1  'x, y, z'
loop_
 _atom_site_type_symbol
 _atom_site_label
 _atom_site_symmetry_multiplicity
 _atom_site_fract_x
 _atom_site_fract_y
 _atom_site_fract_z
 _atom_site_occupancy
  Na  Na0  1  0.00616237  0.65154150  0.25448884  1
  Na  Na1  1  0.50561976  0.36175842  0.73873026  1
  Na  Na2  1  0.16126949  0.30480074  0.91036701  1
  Na  Na3  1  0.66061705  0.30457458  0.91018607  1
  Na  Na4  1  0.16258955  0.02126379  0.41758303  1
  Na  Na5  1  0.65805635  0.00749614  0.41764086  1
  Na  Na6  1  0.99252616  0.97777702  0.49917905  1
  Na  Na7  1  0.49213363  0.00296045  0.50538131  1
  Na  Na8  1  0.99453955  0.01117075  0.99203484  1
  Na  Na9  1  0.49287239  0.00912377  0.99447045  1
  Na  Na10  1  0.32855739  0.33121188  0.82251067  1
  Na  Na11  1  0.84064349  0.33480706  0.82612031  1
  Na  Na12  1  0.34752790  0.36030366  0.33893210  1
  Na  Na13  1  0.82921087  0.32815209  0.33661657  1
  Na  Na14  1  0.17667873  0.69232115  0.17298764  1
  Na  Na15  1  0.66293472  0.68706747  0.17650103  1
  Na  Na16  1  0.16823092  0.64275499  0.67290740  1
  Na  Na17  1  0.66033724  0.63954394  0.66061398  1
  La  La18  1  0.00202375  0.99737616  0.34996933  1
  La  La19  1  0.50230870  0.99061146  0.34791269  1
  La  La20  1  0.00341931  0.01647234  0.84570476  1
  La  La21  1  0.50219030  0.00810823  0.84739292  1
  La  La22  1  0.00826634  0.01680185  0.65285170  1
  La  La23  1  0.50576956  0.01838773  0.64836868  1
  La  La24  1  0.00700571  0.00521571  0.15082229  1
  La  La25  1  0.50763262  0.99968350  0.15269219  1
  La  La26  1  0.32911318  0.33318041  0.68017863  1
  La  La27  1  0.82547753  0.33450265  0.68577351  1
  La  La28  1  0.32671470  0.31857591  0.18724866  1
  La  La29  1  0.82076541  0.31063477  0.18521908  1
  La  La30  1  0.34384364  0.33245725  0.98068376  1
  La  La31  1  0.84391445  0.33383465  0.98164394  1
  La  La32  1  0.35092107  0.35429308  0.48573185  1
  La  La33  1  0.84313875  0.35443301  0.48195550  1
  La  La34  1  0.16047616  0.65874206  0.01581753  1
  La  La35  1  0.65971200  0.65752812  0.01569301  1
  La  La36  1  0.16092086  0.66253206  0.51576984  1
  La  La37  1  0.65105619  0.64737965  0.51920104  1
  La  La38  1  0.16518151  0.66945614  0.31807091  1
  La  La39  1  0.65936878  0.66993139  0.31576196  1
  La  La40  1  0.15916468  0.64681944  0.81363672  1
  La  La41  1  0.66368715  0.65876797  0.81586694  1
  Si  Si42  1  0.14870710  0.99287418  0.25201984  1
  Si  Si43  1  0.65231961  0.99737412  0.25234930  1
  Si  Si44  1  0.15627042  0.30602900  0.75259590  1
  Si  Si45  1  0.65035112  0.30339784  0.75417443  1
  Si  Si46  1  0.48552758  0.33214747  0.58932667  1
  Si  Si47  1  0.01811538  0.36035699  0.91792161  1
  Si  Si48  1  0.51829995  0.36115673  0.91487653  1
  Si  Si49  1  0.01766633  0.67185767  0.41346608  1
  Si  Si50  1  0.51583140  0.67280720  0.41600197  1
  S  S51  1  0.34791242  0.69752028  0.24835799  1
  S  S52  1  0.85232447  0.69952414  0.24824251  1
  S  S53  1  0.99965638  0.30598984  0.24872933  1
  S  S54  1  0.49978090  0.30010542  0.24873491  1
  S  S55  1  0.99865989  0.69859333  0.74928824  1
  S  S56  1  0.49891470  0.69446204  0.74975497  1
  S  S57  1  0.35007706  0.00297957  0.75017746  1
  S  S58  1  0.84885293  0.00133957  0.74915164  1
  S  S59  1  0.98226892  0.33144948  0.58424045  1
  S  S60  1  0.18104092  0.02993112  0.57935428  1
  S  S61  1  0.68672320  0.03640638  0.58043269  1
  S  S62  1  0.33123005  0.63967200  0.58280467  1
  S  S63  1  0.83562318  0.64183433  0.58368112  1
  S  S64  1  0.48206773  0.63312646  0.08427508  1
  S  S65  1  0.98282446  0.63366980  0.08648824  1
  S  S66  1  0.33361645  0.02769491  0.08380409  1
  S  S67  1  0.83355987  0.02642416  0.08316082  1
  S  S68  1  0.18508958  0.33574622  0.08095452  1
  S  S69  1  0.68313159  0.33358537  0.07998070  1
  S  S70  1  0.31425291  0.66261258  0.91781260  1
  S  S71  1  0.81543150  0.66376453  0.91839752  1
  S  S72  1  0.16616813  0.97113557  0.91718991  1
  S  S73  1  0.66672474  0.97299145  0.91808056  1
  S  S74  1  0.31482475  0.96768833  0.41730598  1
  S  S75  1  0.81360191  0.96517831  0.41809950  1
  S  S76  1  0.16700696  0.36059441  0.41720344  1
  S  S77  1  0.66786404  0.36171468  0.41584381  1
  O  O78  1  0.10772815  0.01104716  0.30778731  1
  O  O79  1  0.61044339  0.01059724  0.30805673  1
  O  O80  1  0.39276362  0.77749223  0.29758307  1
  O  O81  1  0.90001019  0.78148359  0.29677591  1
  O  O82  1  0.49189850  0.20659040  0.29766059  1
  O  O83  1  0.99038931  0.21039188  0.29756134  1
  O  O84  1  0.11368266  0.21279172  0.80991888  1
  O  O85  1  0.61313868  0.20817153  0.81166726  1
  O  O86  1  0.49321670  0.77542293  0.79901899  1
  O  O87  1  0.99131788  0.77776238  0.79838424  1
  O  O88  1  0.39784504  0.01326388  0.79850719  1
  O  O89  1  0.89482981  0.01275581  0.79841035  1
  O  O90  1  0.38894390  0.98165547  0.70198956  1
  O  O91  1  0.89114203  0.98665705  0.70138741  1
  O  O92  1  0.09737205  0.19881370  0.70299224  1
  O  O93  1  0.58855897  0.20073208  0.70588230  1
  O  O94  1  0.00121989  0.79140208  0.70106863  1
  O  O95  1  0.50161773  0.78549356  0.70162515  1
  O  O96  1  0.39008799  0.79605634  0.20044792  1
  O  O97  1  0.89172911  0.80014055  0.20022584  1
  O  O98  1  0.00325746  0.21991507  0.20051438  1
  O  O99  1  0.50251888  0.21250071  0.20036287  1
  O  O100  1  0.08797523  0.97441712  0.20243118  1
  O  O101  1  0.59809845  0.99267883  0.20069598  1
  O  O102  1  0.44128508  0.33857241  0.64552273  1
  O  O103  1  0.94008017  0.34252155  0.63235212  1
  O  O104  1  0.22890928  0.11676360  0.62705268  1
  O  O105  1  0.73441427  0.12792588  0.62782233  1
  O  O106  1  0.32240759  0.54180345  0.63133457  1
  O  O107  1  0.82916890  0.54361606  0.63172473  1
  O  O108  1  0.43985033  0.53725094  0.13226097  1
  O  O109  1  0.94316352  0.54278192  0.13599591  1
  O  O110  1  0.32689727  0.11233292  0.13177153  1
  O  O111  1  0.82677741  0.10958384  0.13160850  1
  O  O112  1  0.23297885  0.34315100  0.12851497  1
  O  O113  1  0.73145415  0.34358095  0.12767482  1
  O  O114  1  0.22414390  0.32401898  0.03110351  1
  O  O115  1  0.72321123  0.32183842  0.03059583  1
  O  O116  1  0.43685532  0.55103790  0.03513985  1
  O  O117  1  0.93502714  0.54666423  0.03872932  1
  O  O118  1  0.33975961  0.12311250  0.03501957  1
  O  O119  1  0.84064324  0.12433073  0.03496585  1
  O  O120  1  0.21993500  0.11951667  0.52944185  1
  O  O121  1  0.72640697  0.12809812  0.53061278  1
  O  O122  1  0.33594636  0.55494484  0.53431336  1
  O  O123  1  0.84238978  0.55779320  0.53516664  1
  O  O124  1  0.43299153  0.32917255  0.53720344  1
  O  O125  1  0.93704722  0.32328689  0.53515614  1
  O  O126  1  0.27564828  0.68456535  0.96642673  1
  O  O127  1  0.77625185  0.68529909  0.96664624  1
  O  O128  1  0.07333987  0.45590845  0.97028343  1
  O  O129  1  0.57737123  0.46316041  0.96524190  1
  O  O130  1  0.16219471  0.87884353  0.96610844  1
  O  O131  1  0.66315439  0.87970498  0.96635711  1
  O  O132  1  0.27519391  0.86787573  0.46549210  1
  O  O133  1  0.77509514  0.86741974  0.46618114  1
  O  O134  1  0.16287779  0.44687454  0.46520781  1
  O  O135  1  0.66436799  0.44536995  0.46475400  1
  O  O136  1  0.07866368  0.68925821  0.46246772  1
  O  O137  1  0.57283642  0.69384486  0.46748802  1
  O  O138  1  0.05626385  0.65349202  0.35646114  1
  O  O139  1  0.56228460  0.65806039  0.36278043  1
  O  O140  1  0.26744589  0.88219965  0.36894512  1
  O  O141  1  0.76720747  0.88405478  0.36906605  1
  O  O142  1  0.17464010  0.45518035  0.36822057  1
  O  O143  1  0.67778662  0.45872241  0.36743060  1
  O  O144  1  0.06346278  0.46725666  0.86497347  1
  O  O145  1  0.55995452  0.46193299  0.85983065  1
  O  O146  1  0.17627896  0.89450469  0.86903914  1
  O  O147  1  0.67675355  0.89763773  0.86935546  1
  O  O148  1  0.26700367  0.65042069  0.86973049  1
  O  O149  1  0.76785524  0.64979184  0.87007685  1
  O  O150  1  0.01577787  0.84336732  0.41521968  1
  O  O151  1  0.51337737  0.84333434  0.41403261  1
  O  O152  1  0.39796683  0.99889260  0.41325527  1
  O  O153  1  0.89779673  0.99745936  0.41342582  1
  O  O154  1  0.09140762  0.19947993  0.41589080  1
  O  O155  1  0.59364575  0.20019780  0.41384111  1
  O  O156  1  0.01533520  0.18467491  0.91683847  1
  O  O157  1  0.51500544  0.18477756  0.91608790  1
  O  O158  1  0.09151173  0.98429828  0.91543000  1
  O  O159  1  0.59182316  0.98484781  0.91664150  1
  O  O160  1  0.39813306  0.79903520  0.91412591  1
  O  O161  1  0.89897259  0.80050761  0.91429281  1
  O  O162  1  0.49439220  0.16971381  0.58528508  1
  O  O163  1  0.99020690  0.18445393  0.58532227  1
  O  O164  1  0.09889272  0.01136961  0.58335176  1
  O  O165  1  0.60448398  0.01513083  0.58372544  1
  O  O166  1  0.40501670  0.79909298  0.58539544  1
  O  O167  1  0.90952076  0.80282550  0.58604357  1
  O  O168  1  0.48995548  0.79587146  0.08549946  1
  O  O169  1  0.99045500  0.79628670  0.08652049  1
  O  O170  1  0.40674556  0.01188706  0.08613715  1
  O  O171  1  0.90688662  0.01105634  0.08562133  1
  O  O172  1  0.10291562  0.19033365  0.08461715  1
  O  O173  1  0.60139781  0.18788922  0.08381696  1
  O  O174  1  0.35061323  0.15982350  0.74791767  1
  O  O175  1  0.84344070  0.15131421  0.74623316  1
  O  O176  1  0.24503603  0.31981069  0.74902119  1
  O  O177  1  0.74101680  0.32615968  0.74751319  1
  O  O178  1  0.42844453  0.52624150  0.74929226  1
  O  O179  1  0.92767654  0.53254752  0.74727206  1
  O  O180  1  0.34202967  0.53660639  0.24543719  1
  O  O181  1  0.85428435  0.54493493  0.24426270  1
  O  O182  1  0.42881595  0.32460955  0.24602386  1
  O  O183  1  0.93025674  0.33632925  0.24579194  1
  O  O184  1  0.23843974  0.15040870  0.24470637  1
  O  O185  1  0.74214952  0.16260016  0.24893085  1
  O  O186  1  0.31366128  0.50552214  0.92196797  1
  O  O187  1  0.81495797  0.50671130  0.92265286  1
  O  O188  1  0.42794404  0.33870858  0.92116166  1
  O  O189  1  0.92715366  0.33676642  0.92161266  1
  O  O190  1  0.23554608  0.14104478  0.92074239  1
  O  O191  1  0.73596386  0.14244641  0.92148583  1
  O  O192  1  0.31237325  0.12160706  0.42014615  1
  O  O193  1  0.81370700  0.12302215  0.42107430  1
  O  O194  1  0.23579763  0.32982841  0.41954137  1
  O  O195  1  0.73781095  0.33100951  0.41853311  1
  O  O196  1  0.42554730  0.51387725  0.41762429  1
  O  O197  1  0.92722428  0.51380110  0.41971046  1
  O  O198  1  0.17748932  0.48324785  0.08100277  1
  O  O199  1  0.67550018  0.48067357  0.07947891  1
  O  O200  1  0.06492627  0.65249322  0.08278453  1
  O  O201  1  0.56429144  0.65195338  0.08205473  1
  O  O202  1  0.26003185  0.86571154  0.08168117  1
  O  O203  1  0.76045213  0.86526039  0.08023435  1
  O  O204  1  0.17333375  0.86725318  0.57921604  1
  O  O205  1  0.68220931  0.87731567  0.58065980  1
  O  O206  1  0.25865833  0.65870533  0.58024629  1
  O  O207  1  0.76287142  0.65753095  0.58106027  1
  O  O208  1  0.06435943  0.47700731  0.58194789  1
  O  O209  1  0.57536549  0.49599829  0.58721033  1
  O  O210  1  0.15092632  0.82190310  0.25118032  1
  O  O211  1  0.66286968  0.83758848  0.24952904  1
  O  O212  1  0.26566161  0.67656300  0.25019987  1
  O  O213  1  0.76902931  0.66780516  0.25245142  1
  O  O214  1  0.07437061  0.46712830  0.25027019  1
  O  O215  1  0.57490285  0.45988670  0.24933166  1
  O  O216  1  0.16363226  0.48538586  0.74996994  1
  O  O217  1  0.65255388  0.47858635  0.75322757  1
  O  O218  1  0.07370458  0.68891923  0.75013401  1
  O  O219  1  0.57319445  0.67973627  0.75088775  1
  O  O220  1  0.26702109  0.86702629  0.75463960  1
  O  O221  1  0.76743795  0.85907122  0.75209402  1
