# generated using pymatgen
data_Na3ReO5
_symmetry_space_group_name_H-M   'P 1'
_cell_length_a   5.48409375
_cell_length_b   5.48412176
_cell_length_c   13.57794765
_cell_angle_alpha   89.99765512
_cell_angle_beta   90.00098744
_cell_angle_gamma   120.00221124
_symmetry_Int_Tables_number   1
_chemical_formula_structural   Na3ReO5
_chemical_formula_sum   'Na9 Re3 O15'
_cell_volume   353.64460988
_cell_formula_units_Z   3
loop_
 _symmetry_equiv_pos_site_id
 _symmetry_equiv_pos_as_xyz
  1  'x, y, z'
loop_
 _atom_site_type_symbol
 _atom_site_label
 _atom_site_symmetry_multiplicity
 _atom_site_fract_x
 _atom_site_fract_y
 _atom_site_fract_z
 _atom_site_occupancy
  Na  Na0  1  0.62315792  0.92601268  0.58269178  1
  Na  Na1  1  0.30270912  0.37676805  0.24937083  1
  Na  Na2  1  0.07412262  0.69729288  0.91603655  1
  Na  Na3  1  0.69718998  0.07397868  0.08396907  1
  Na  Na4  1  0.37682943  0.30272578  0.75063196  1
  Na  Na5  1  0.92592321  0.62315185  0.41729978  1
  Na  Na6  1  0.99986527  0.72284911  0.16665937  1
  Na  Na7  1  0.72312493  0.00025233  0.83330938  1
  Na  Na8  1  0.27691182  0.27727699  0.50003024  1
  Re  Re9  1  0.00002381  0.62316597  0.66665881  1
  Re  Re10  1  0.62304337  -0.00007776  0.33331902  1
  Re  Re11  1  0.37696929  0.37687210  0.00003266  1
  O  O12  1  0.16363870  0.50513772  0.06314005  1
  O  O13  1  0.34158463  0.83641466  0.72977807  1
  O  O14  1  0.49482631  0.65841254  0.39644075  1
  O  O15  1  -0.00000181  0.29740979  0.66666166  1
  O  O16  1  0.29735777  0.99990822  0.33331086  1
  O  O17  1  0.70266831  0.70258701  0.00002595  1
  O  O18  1  0.65844559  0.49486065  0.60352879  1
  O  O19  1  0.83638153  0.34149549  0.27020317  1
  O  O20  1  0.50521302  0.16360974  0.93690735  1
  O  O21  1  0.32410647  0.15922620  0.10814785  1
  O  O22  1  0.83519118  0.67589750  0.77479544  1
  O  O23  1  0.84064339  0.16476004  0.44144969  1
  O  O24  1  0.16485804  0.84077497  0.55852071  1
  O  O25  1  0.15937584  0.32412521  0.89188277  1
  O  O26  1  0.67584129  0.83511159  0.22519947  1
