# generated using pymatgen
data_Na2ScInSi(SO6)2
_symmetry_space_group_name_H-M   'P 1'
_cell_length_a   9.04110372
_cell_length_b   9.02827855
_cell_length_c   23.01545421
_cell_angle_alpha   90.42766484
_cell_angle_beta   89.92922380
_cell_angle_gamma   119.94157770
_symmetry_Int_Tables_number   1
_chemical_formula_structural   Na2ScInSi(SO6)2
_chemical_formula_sum   'Na12 Sc6 In6 Si6 S12 O72'
_cell_volume   1627.86378343
_cell_formula_units_Z   6
loop_
 _symmetry_equiv_pos_site_id
 _symmetry_equiv_pos_as_xyz
  1  'x, y, z'
loop_
 _atom_site_type_symbol
 _atom_site_label
 _atom_site_symmetry_multiplicity
 _atom_site_fract_x
 _atom_site_fract_y
 _atom_site_fract_z
 _atom_site_occupancy
  Na  Na0  1  0.00146308  0.62794695  0.25146421  1
  Na  Na1  1  0.37456968  0.99830165  0.75141135  1
  Na  Na2  1  0.66065230  0.97012896  0.59158114  1
  Na  Na3  1  0.03059257  0.33780043  0.09185418  1
  Na  Na4  1  0.98168702  0.67683265  0.92472313  1
  Na  Na5  1  0.32200993  0.01512943  0.42429955  1
  Na  Na6  1  0.01256189  0.98496692  0.50120937  1
  Na  Na7  1  0.01338856  0.98746583  0.00098980  1
  Na  Na8  1  0.66004073  0.30585666  0.83492173  1
  Na  Na9  1  0.69055304  0.33987593  0.33489230  1
  Na  Na10  1  0.33372750  0.66262908  0.16707702  1
  Na  Na11  1  0.33749786  0.66865534  0.66649918  1
  Sc  Sc12  1  0.99270692  0.00390283  0.35100056  1
  Sc  Sc13  1  0.00397057  0.99834225  0.64808170  1
  Sc  Sc14  1  0.66412363  0.31940590  0.68471648  1
  Sc  Sc15  1  0.67902392  0.33619183  0.18554257  1
  Sc  Sc16  1  0.66947837  0.33931894  0.48185297  1
  Sc  Sc17  1  0.31183621  0.64763079  0.31580559  1
  In  In18  1  0.99900793  0.00680089  0.84918716  1
  In  In19  1  0.00156906  0.99449875  0.15064537  1
  In  In20  1  0.65930663  0.33026926  0.98336559  1
  In  In21  1  0.32728652  0.68321058  0.01790387  1
  In  In22  1  0.31864534  0.67164063  0.51716115  1
  In  In23  1  0.35360198  0.68503383  0.81553548  1
  Si  Si24  1  0.00007613  0.29219997  0.24731225  1
  Si  Si25  1  0.70875557  0.00029959  0.74715289  1
  Si  Si26  1  0.36921408  0.03947693  0.58139741  1
  Si  Si27  1  0.96050089  0.63091492  0.08267638  1
  Si  Si28  1  0.33242684  0.97311683  0.91349493  1
  Si  Si29  1  0.02804388  0.66622530  0.41415767  1
  S  S30  1  0.29956312  0.00146426  0.25248819  1
  S  S31  1  0.70105440  0.70457717  0.25069489  1
  S  S32  1  0.29643922  0.29842052  0.74917999  1
  S  S33  1  0.99593278  0.70031593  0.74986603  1
  S  S34  1  0.96002220  0.33262962  0.58345897  1
  S  S35  1  0.66538244  0.62509430  0.58358477  1
  S  S36  1  0.66647304  0.03752424  0.08394628  1
  S  S37  1  0.37196945  0.33622271  0.08404395  1
  S  S38  1  0.62693884  0.66521208  0.91819809  1
  S  S39  1  0.04378340  0.37490820  0.91685835  1
  S  S40  1  0.62694549  0.95801540  0.41717248  1
  S  S41  1  0.33369335  0.37321783  0.41745969  1
  O  O42  1  0.21703220  0.02354388  0.30493504  1
  O  O43  1  0.81794981  0.78635862  0.30092513  1
  O  O44  1  0.97987473  0.17106099  0.30196192  1
  O  O45  1  0.22929520  0.19099224  0.80200071  1
  O  O46  1  0.97309213  0.77032032  0.80571764  1
  O  O47  1  0.81812876  0.02618912  0.80597472  1
  O  O48  1  0.80155657  0.98322426  0.68831949  1
  O  O49  1  0.18838274  0.21061079  0.69791435  1
  O  O50  1  0.02699991  0.82079534  0.70140092  1
  O  O51  1  0.77349932  0.80430919  0.19694421  1
  O  O52  1  0.02538154  0.21431329  0.18590273  1
  O  O53  1  0.18582244  0.95888943  0.20064215  1
  O  O54  1  0.88091027  0.35876358  0.63581535  1
  O  O55  1  0.49180279  0.13377027  0.63859613  1
  O  O56  1  0.65019415  0.52602576  0.63583950  1
  O  O57  1  0.86357936  0.50806539  0.13898905  1
  O  O58  1  0.64283116  0.12165667  0.13564630  1
  O  O59  1  0.47313657  0.34834068  0.13579749  1
  O  O60  1  0.44417598  0.30876766  0.03000484  1
  O  O61  1  0.85669227  0.54549027  0.02171101  1
  O  O62  1  0.68763858  0.13719503  0.03057521  1
  O  O63  1  0.46373763  0.14982243  0.52271427  1
  O  O64  1  0.68908219  0.54482960  0.53068114  1
  O  O65  1  0.85569792  0.31309566  0.53117957  1
  O  O66  1  0.54073836  0.67980025  0.97083606  1
  O  O67  1  0.14099747  0.44791768  0.97184450  1
  O  O68  1  0.28673175  0.84280542  0.96822693  1
  O  O69  1  0.56061200  0.86097819  0.47224880  1
  O  O70  1  0.31241979  0.45184676  0.47121599  1
  O  O71  1  0.16053457  0.71889400  0.46918562  1
  O  O72  1  0.11878123  0.63918850  0.35569707  1
  O  O73  1  0.51385027  0.86672430  0.36749073  1
  O  O74  1  0.35676523  0.47929284  0.36602395  1
  O  O75  1  0.13330135  0.48209092  0.86573322  1
  O  O76  1  0.35691374  0.89402715  0.85211617  1
  O  O77  1  0.52468566  0.63698617  0.86478892  1
  O  O78  1  0.01953494  0.84354302  0.40689071  1
  O  O79  1  0.80120934  0.98512504  0.41004261  1
  O  O80  1  0.18064601  0.19917696  0.41149231  1
  O  O81  1  0.01761706  0.20057332  0.91300677  1
  O  O82  1  0.15117695  0.97849031  0.90986136  1
  O  O83  1  0.79798132  0.82197493  0.91502748  1
  O  O84  1  0.96648462  0.17106050  0.58739320  1
  O  O85  1  0.17889701  0.01590844  0.58886731  1
  O  O86  1  0.81681925  0.80203074  0.58726380  1
  O  O87  1  0.98472978  0.82250605  0.08822601  1
  O  O88  1  0.82603551  0.02902156  0.08782297  1
  O  O89  1  0.19404182  0.18757840  0.08684936  1
  O  O90  1  0.67732462  0.16710666  0.74446667  1
  O  O91  1  0.47016810  0.32098979  0.74162309  1
  O  O92  1  0.84291197  0.53306510  0.74038347  1
  O  O93  1  0.68657735  0.53232780  0.24484350  1
  O  O94  1  0.83209612  0.32104693  0.24508572  1
  O  O95  1  0.46575492  0.15720973  0.24434631  1
  O  O96  1  0.65568978  0.51668429  0.92041913  1
  O  O97  1  0.87584668  0.36966176  0.91900998  1
  O  O98  1  0.50405344  0.15989836  0.92124653  1
  O  O99  1  0.63439964  0.12738453  0.42123086  1
  O  O100  1  0.48520396  0.34945474  0.42100075  1
  O  O101  1  0.84221244  0.49496347  0.42297017  1
  O  O102  1  0.35960421  0.49521766  0.08044227  1
  O  O103  1  0.14503307  0.63159370  0.08258952  1
  O  O104  1  0.51633665  0.86266566  0.08091281  1
  O  O105  1  0.36886606  0.85432112  0.58148262  1
  O  O106  1  0.50982433  0.64273627  0.57846169  1
  O  O107  1  0.13570329  0.48058780  0.57963309  1
  O  O108  1  0.32226610  0.84930271  0.25859042  1
  O  O109  1  0.53202539  0.68651931  0.25967661  1
  O  O110  1  0.16778667  0.48813164  0.25290030  1
  O  O111  1  0.30534419  0.46584320  0.75553665  1
  O  O112  1  0.15199090  0.68291931  0.75200112  1
  O  O113  1  0.51376449  0.82942444  0.74794135  1
