# generated using pymatgen
data_Fe(SbO2)2
_symmetry_space_group_name_H-M   'P 1'
_cell_length_a   5.84965238
_cell_length_b   8.59529217
_cell_length_c   8.59464266
_cell_angle_alpha   90.05841629
_cell_angle_beta   90.07076922
_cell_angle_gamma   89.92998729
_symmetry_Int_Tables_number   1
_chemical_formula_structural   Fe(SbO2)2
_chemical_formula_sum   'Fe4 Sb8 O16'
_cell_volume   432.13321266
_cell_formula_units_Z   4
loop_
 _symmetry_equiv_pos_site_id
 _symmetry_equiv_pos_as_xyz
  1  'x, y, z'
loop_
 _atom_site_type_symbol
 _atom_site_label
 _atom_site_symmetry_multiplicity
 _atom_site_fract_x
 _atom_site_fract_y
 _atom_site_fract_z
 _atom_site_occupancy
  Fe  Fe0  1  0.75007119  0.99976369  0.49976003  1
  Fe  Fe1  1  0.25014115  0.50014330  0.00009708  1
  Fe  Fe2  1  0.74995355  0.50027966  0.00029580  1
  Fe  Fe3  1  0.24987464  1.00008145  0.50008286  1
  Sb  Sb4  1  0.50031494  0.33383655  0.32702548  1
  Sb  Sb5  1  0.99965702  0.32831789  0.66593660  1
  Sb  Sb6  1  0.50008510  0.16588584  0.82831134  1
  Sb  Sb7  1  0.99966474  0.82700059  0.83385963  1
  Sb  Sb8  1  0.49931187  0.66549000  0.67279980  1
  Sb  Sb9  1  0.00051010  0.67329194  0.33424432  1
  Sb  Sb10  1  0.49968275  0.83425151  0.17333622  1
  Sb  Sb11  1  0.00069437  0.17298158  0.16548239  1
  O  O12  1  0.74988491  0.32696616  0.82706896  1
  O  O13  1  0.24897069  0.82416017  0.67514942  1
  O  O14  1  0.75056183  0.17285441  0.32620160  1
  O  O15  1  0.24992883  0.32457296  0.82452419  1
  O  O16  1  0.74948865  0.82617270  0.67283049  1
  O  O17  1  0.25101304  0.17519047  0.32416188  1
  O  O18  1  0.25007223  0.67571436  0.17567736  1
  O  O19  1  0.75005395  0.67312226  0.17318240  1
  O  O20  1  0.49825044  0.85378703  0.39963607  1
  O  O21  1  0.00281757  0.39913614  0.14570029  1
  O  O22  1  0.49721322  0.64557635  0.89895268  1
  O  O23  1  0.00181468  0.89959947  0.35374224  1
  O  O24  1  0.49780138  0.14340892  0.60242357  1
  O  O25  1  0.00217523  0.60106641  0.85502001  1
  O  O26  1  0.49784552  0.35489568  0.10104328  1
  O  O27  1  0.00214740  0.10245351  0.64345500  1
