# generated using pymatgen
data_Na6Zn2Si3Ge2(SO8)3
_symmetry_space_group_name_H-M   'P 1'
_cell_length_a   8.86836843
_cell_length_b   8.93464532
_cell_length_c   21.86220211
_cell_angle_alpha   89.84493165
_cell_angle_beta   91.60361755
_cell_angle_gamma   118.83892851
_symmetry_Int_Tables_number   1
_chemical_formula_structural   Na6Zn2Si3Ge2(SO8)3
_chemical_formula_sum   'Na18 Zn6 Si9 Ge6 S9 O72'
_cell_volume   1516.72069064
_cell_formula_units_Z   3
loop_
 _symmetry_equiv_pos_site_id
 _symmetry_equiv_pos_as_xyz
  1  'x, y, z'
loop_
 _atom_site_type_symbol
 _atom_site_label
 _atom_site_symmetry_multiplicity
 _atom_site_fract_x
 _atom_site_fract_y
 _atom_site_fract_z
 _atom_site_occupancy
  Na  Na0  1  0.37341076  0.35520788  0.24636480  1
  Na  Na1  1  0.99830085  0.63250004  0.23918404  1
  Na  Na2  1  0.98946010  0.36031684  0.74559079  1
  Na  Na3  1  0.38199445  0.02474371  0.74648067  1
  Na  Na4  1  0.30115345  0.34118303  0.57904256  1
  Na  Na5  1  0.64802503  0.96671643  0.59128616  1
  Na  Na6  1  0.30784809  0.95958080  0.07000478  1
  Na  Na7  1  0.65083103  0.68499191  0.08314681  1
  Na  Na8  1  0.98533711  0.68201445  0.91701841  1
  Na  Na9  1  0.32343001  0.28971677  0.91064320  1
  Na  Na10  1  0.98026279  0.30153719  0.42608971  1
  Na  Na11  1  0.32703842  0.03465723  0.41547475  1
  Na  Na12  1  0.99809693  0.98335495  0.50092709  1
  Na  Na13  1  0.99850214  0.01578208  0.99152755  1
  Na  Na14  1  0.66059334  0.32164252  0.82724372  1
  Na  Na15  1  0.65836792  0.32470913  0.33160118  1
  Na  Na16  1  0.31822651  0.64850498  0.15874660  1
  Na  Na17  1  0.31502418  0.66655935  0.66116390  1
  Zn  Zn18  1  0.02840359  0.01827242  0.34782456  1
  Zn  Zn19  1  0.03184991  0.01576766  0.84326095  1
  Zn  Zn20  1  0.65366185  0.31547519  0.68562810  1
  Zn  Zn21  1  0.65118686  0.32410110  0.17971044  1
  Zn  Zn22  1  0.30020771  0.65050728  0.01942010  1
  Zn  Zn23  1  0.30035230  0.65005307  0.52345786  1
  Si  Si24  1  0.31065955  0.99151406  0.25406868  1
  Si  Si25  1  0.31059003  0.31936669  0.75428432  1
  Si  Si26  1  0.72161149  0.99702707  0.75036921  1
  Si  Si27  1  0.94290293  0.33166953  0.58618108  1
  Si  Si28  1  0.34900874  0.02543073  0.58887549  1
  Si  Si29  1  0.94382430  0.61142879  0.08751047  1
  Si  Si30  1  0.36516766  0.33297453  0.08602611  1
  Si  Si31  1  0.34671537  0.96163460  0.91834778  1
  Si  Si32  1  0.34636421  0.38481631  0.41973846  1
  Ge  Ge33  1  0.01306922  0.04690617  0.64933162  1
  Ge  Ge34  1  0.03168247  0.98858044  0.14090707  1
  Ge  Ge35  1  0.64776262  0.31707971  0.98670011  1
  Ge  Ge36  1  0.62547953  0.32572970  0.49647547  1
  Ge  Ge37  1  0.34865537  0.67218609  0.31737078  1
  Ge  Ge38  1  0.37478501  0.70116276  0.80634737  1
  S  S39  1  0.70522569  0.72025940  0.25249968  1
  S  S40  1  0.00410586  0.29193923  0.25158374  1
  S  S41  1  0.00929978  0.71639982  0.75218520  1
  S  S42  1  0.68021634  0.63200014  0.58422684  1
  S  S43  1  0.68326832  0.04739451  0.08478728  1
  S  S44  1  0.62511565  0.66165872  0.91864437  1
  S  S45  1  0.02400919  0.36799792  0.91683099  1
  S  S46  1  0.62936663  0.96086937  0.41666023  1
  S  S47  1  0.03421683  0.66206775  0.41159253  1
  O  O48  1  0.22817491  0.02348452  0.31352824  1
  O  O49  1  0.80745548  0.82114930  0.30483569  1
  O  O50  1  0.99056644  0.20747227  0.31066949  1
  O  O51  1  0.24296861  0.19871553  0.81285271  1
  O  O52  1  0.99726316  0.78285861  0.81217192  1
  O  O53  1  0.83598186  0.01244132  0.80878138  1
  O  O54  1  0.80773619  0.97251976  0.68473936  1
  O  O55  1  0.16854446  0.23315877  0.69307844  1
  O  O56  1  0.03280301  0.83433856  0.70086602  1
  O  O57  1  0.77407274  0.80408101  0.19261383  1
  O  O58  1  0.02226936  0.19625793  0.19880176  1
  O  O59  1  0.17238663  0.94330843  0.19065297  1
  O  O60  1  0.86292639  0.35160804  0.64694803  1
  O  O61  1  0.46998658  0.10364572  0.64777306  1
  O  O62  1  0.65894824  0.52471070  0.63634383  1
  O  O63  1  0.86033866  0.51729937  0.14942161  1
  O  O64  1  0.65571001  0.12314998  0.13892896  1
  O  O65  1  0.46644803  0.36448449  0.15057672  1
  O  O66  1  0.45500353  0.28222055  0.02781069  1
  O  O67  1  0.81157470  0.51192572  0.02652934  1
  O  O68  1  0.70294825  0.15160420  0.02779585  1
  O  O69  1  0.42886053  0.16362118  0.52744511  1
  O  O70  1  0.69376282  0.54357162  0.52481276  1
  O  O71  1  0.80610162  0.30078893  0.52240098  1
  O  O72  1  0.54725701  0.67790815  0.97417489  1
  O  O73  1  0.13606107  0.44621832  0.97137999  1
  O  O74  1  0.32190659  0.85145693  0.97860894  1
  O  O75  1  0.55366007  0.86956219  0.47225849  1
  O  O76  1  0.31753777  0.47546784  0.47694301  1
  O  O77  1  0.14764616  0.70149248  0.46590336  1
  O  O78  1  0.12415562  0.63906251  0.35526654  1
  O  O79  1  0.50839779  0.87203054  0.36015858  1
  O  O80  1  0.37260461  0.50097839  0.35413110  1
  O  O81  1  0.09857900  0.46807188  0.86089882  1
  O  O82  1  0.36909737  0.86479521  0.85481285  1
  O  O83  1  0.51067842  0.63556572  0.86201563  1
  O  O84  1  0.00124697  0.80807889  0.40472523  1
  O  O85  1  0.80292452  0.98309545  0.40867810  1
  O  O86  1  0.17881460  0.19331514  0.41379419  1
  O  O87  1  0.00057471  0.19363577  0.91360733  1
  O  O88  1  0.17427781  0.98516212  0.91357609  1
  O  O89  1  0.79934866  0.80354450  0.91262606  1
  O  O90  1  0.95113557  0.14520454  0.58353044  1
  O  O91  1  0.16100987  0.02469407  0.59572264  1
  O  O92  1  0.83791195  0.79760412  0.58330164  1
  O  O93  1  0.95151220  0.81054479  0.08677023  1
  O  O94  1  0.84532653  0.03296107  0.08829083  1
  O  O95  1  0.17688029  0.14658049  0.08914454  1
  O  O96  1  0.68964631  0.16055525  0.74966241  1
  O  O97  1  0.49799509  0.34582529  0.74201597  1
  O  O98  1  0.86381495  0.54471108  0.74434603  1
  O  O99  1  0.69114180  0.54768168  0.25553750  1
  O  O100  1  0.85850273  0.32608950  0.24583220  1
  O  O101  1  0.49388070  0.15750257  0.24455602  1
  O  O102  1  0.63301606  0.49377983  0.91873047  1
  O  O103  1  0.85372895  0.36940429  0.92314477  1
  O  O104  1  0.52163920  0.16151388  0.92447719  1
  O  O105  1  0.63778807  0.13248050  0.41467880  1
  O  O106  1  0.52404246  0.35641345  0.42616468  1
  O  O107  1  0.87278536  0.49870990  0.41444764  1
  O  O108  1  0.35147187  0.50252112  0.07353902  1
  O  O109  1  0.14320679  0.66408088  0.08259759  1
  O  O110  1  0.53540240  0.87391836  0.07707243  1
  O  O111  1  0.34424157  0.84861265  0.57254333  1
  O  O112  1  0.52682289  0.65655523  0.57767702  1
  O  O113  1  0.13976669  0.47774162  0.58033955  1
  O  O114  1  0.30561738  0.79961498  0.25992933  1
  O  O115  1  0.52062118  0.69341443  0.25314428  1
  O  O116  1  0.17080610  0.46507925  0.25197296  1
  O  O117  1  0.29919123  0.50091180  0.76387975  1
  O  O118  1  0.17634516  0.70191260  0.75198339  1
  O  O119  1  0.52187960  0.82423215  0.74864575  1
