# generated using pymatgen
data_MgV2Zn4O8
_symmetry_space_group_name_H-M   'P 1'
_cell_length_a   6.28508855
_cell_length_b   6.28508749
_cell_length_c   6.19467783
_cell_angle_alpha   60.47472117
_cell_angle_beta   60.47472671
_cell_angle_gamma   56.95855131
_symmetry_Int_Tables_number   1
_chemical_formula_structural   MgV2Zn4O8
_chemical_formula_sum   'Mg1 V2 Zn4 O8'
_cell_volume   169.85798285
_cell_formula_units_Z   1
loop_
 _symmetry_equiv_pos_site_id
 _symmetry_equiv_pos_as_xyz
  1  'x, y, z'
loop_
 _atom_site_type_symbol
 _atom_site_label
 _atom_site_symmetry_multiplicity
 _atom_site_fract_x
 _atom_site_fract_y
 _atom_site_fract_z
 _atom_site_occupancy
  Mg  Mg0  1  0.91061225  0.91061225  0.08938775  1
  V  V1  1  0.59432249  0.59432249  0.14988429  1
  V  V2  1  0.59432249  0.59432249  0.66147073  1
  Zn  Zn3  1  0.19641371  0.19641371  0.80358629  1
  Zn  Zn4  1  0.24440861  0.24440861  0.25559139  1
  Zn  Zn5  1  0.11040330  0.68033005  0.60463332  1
  Zn  Zn6  1  0.68033005  0.11040330  0.60463332  1
  O  O7  1  0.36269570  0.36269570  0.41356376  1
  O  O8  1  0.37794144  0.83849914  0.39177971  1
  O  O9  1  0.36269570  0.36269570  0.86104284  1
  O  O10  1  0.32403434  0.80728323  0.93434172  1
  O  O11  1  0.83849914  0.37794044  0.39177971  1
  O  O12  1  0.81190829  0.81190829  0.46609959  1
  O  O13  1  0.80728223  0.32403434  0.93434172  1
  O  O14  1  0.81190829  0.81190829  0.91008584  1
