# generated using pymatgen
data_Na7NbSi6(SnO8)3
_symmetry_space_group_name_H-M   'P 1'
_cell_length_a   9.12180571
_cell_length_b   9.11935500
_cell_length_c   22.43370089
_cell_angle_alpha   90.06450370
_cell_angle_beta   89.89769619
_cell_angle_gamma   120.03242022
_symmetry_Int_Tables_number   1
_chemical_formula_structural   Na7NbSi6(SnO8)3
_chemical_formula_sum   'Na21 Nb3 Si18 Sn9 O72'
_cell_volume   1615.59989977
_cell_formula_units_Z   3
loop_
 _symmetry_equiv_pos_site_id
 _symmetry_equiv_pos_as_xyz
  1  'x, y, z'
loop_
 _atom_site_type_symbol
 _atom_site_label
 _atom_site_symmetry_multiplicity
 _atom_site_fract_x
 _atom_site_fract_y
 _atom_site_fract_z
 _atom_site_occupancy
  Na  Na0  1  0.37106330  0.36618351  0.24927009  1
  Na  Na1  1  0.63671481  0.63328836  0.74890010  1
  Na  Na2  1  0.99661599  0.36413478  0.74876103  1
  Na  Na3  1  0.36617293  0.00359166  0.74901858  1
  Na  Na4  1  0.29873837  0.33340200  0.58226228  1
  Na  Na5  1  0.03438015  0.70110529  0.58217987  1
  Na  Na6  1  0.66661890  0.96534496  0.58215758  1
  Na  Na7  1  0.30581494  0.96951951  0.08273363  1
  Na  Na8  1  0.66373615  0.69671389  0.08285070  1
  Na  Na9  1  0.03225975  0.33709904  0.08239088  1
  Na  Na10  1  0.96291714  0.66631449  0.91878701  1
  Na  Na11  1  0.70559966  0.03492930  0.91881635  1
  Na  Na12  1  0.96594849  0.29681664  0.41461243  1
  Na  Na13  1  0.33161209  0.03560896  0.41523176  1
  Na  Na14  1  0.70274531  0.66781288  0.41447689  1
  Na  Na15  1  0.00016969  0.00025959  0.49880197  1
  Na  Na16  1  0.01103783  0.01039945  0.99724251  1
  Na  Na17  1  0.65734167  0.33255213  0.83608228  1
  Na  Na18  1  0.67613555  0.33312109  0.32803649  1
  Na  Na19  1  0.33241986  0.67452684  0.16731990  1
  Na  Na20  1  0.33319855  0.66669080  0.66423412  1
  Nb  Nb21  1  0.99886450  0.99891887  0.14834562  1
  Nb  Nb22  1  0.33316908  0.67003364  0.31034576  1
  Nb  Nb23  1  0.33384472  0.66611141  0.81523603  1
  Si  Si24  1  0.29388376  0.00066151  0.25075789  1
  Si  Si25  1  0.70810195  0.70537224  0.25156028  1
  Si  Si26  1  0.99520501  0.29198330  0.25170089  1
  Si  Si27  1  0.29240570  0.29124259  0.74899496  1
  Si  Si28  1  0.99890339  0.70772564  0.75003139  1
  Si  Si29  1  0.70848966  0.00120699  0.74988196  1
  Si  Si30  1  0.95953998  0.33322083  0.58293107  1
  Si  Si31  1  0.37375209  0.04022352  0.58311533  1
  Si  Si32  1  0.66670669  0.62648830  0.58305941  1
  Si  Si33  1  0.95794918  0.62416571  0.08203999  1
  Si  Si34  1  0.66604840  0.04318042  0.08210731  1
  Si  Si35  1  0.37671214  0.33370624  0.08383330  1
  Si  Si36  1  0.62677140  0.66465239  0.91762080  1
  Si  Si37  1  0.04047877  0.37104347  0.91851866  1
  Si  Si38  1  0.33275353  0.96179062  0.91800597  1
  Si  Si39  1  0.62538738  0.95759805  0.41717188  1
  Si  Si40  1  0.33248014  0.37451055  0.41640880  1
  Si  Si41  1  0.04243926  0.66733249  0.41703258  1
  Sn  Sn42  1  0.99890768  0.99930430  0.35086482  1
  Sn  Sn43  1  0.00364298  0.00329060  0.85291276  1
  Sn  Sn44  1  0.00049888  0.00060565  0.64773555  1
  Sn  Sn45  1  0.66685833  0.33356165  0.68479750  1
  Sn  Sn46  1  0.66984712  0.33307135  0.18672383  1
  Sn  Sn47  1  0.66338557  0.33282392  0.97942859  1
  Sn  Sn48  1  0.66659017  0.33336664  0.47955480  1
  Sn  Sn49  1  0.33326157  0.66571782  0.01879591  1
  Sn  Sn50  1  0.33323416  0.66665022  0.51808315  1
  O  O51  1  0.21421901  0.03812996  0.31022497  1
  O  O52  1  0.81741299  0.78582510  0.31179134  1
  O  O53  1  0.97117530  0.18410156  0.31223833  1
  O  O54  1  0.20901099  0.16312767  0.80483915  1
  O  O55  1  0.95775455  0.78717187  0.80842041  1
  O  O56  1  0.82811821  0.04037237  0.80828017  1
  O  O57  1  0.78291976  0.95518282  0.69074731  1
  O  O58  1  0.17421670  0.22085607  0.68912601  1
  O  O59  1  0.04515864  0.82800033  0.69084709  1
  O  O60  1  0.80475206  0.82847028  0.19302479  1
  O  O61  1  0.02741606  0.19556411  0.19376584  1
  O  O62  1  0.17010254  0.97433198  0.19236620  1
  O  O63  1  0.88180717  0.37322574  0.64278180  1
  O  O64  1  0.49163655  0.11841291  0.64276575  1
  O  O65  1  0.62707800  0.50859081  0.64272534  1
  O  O66  1  0.87385674  0.49660773  0.13791496  1
  O  O67  1  0.61986658  0.12526623  0.13795500  1
  O  O68  1  0.49360865  0.37568682  0.14334147  1
  O  O69  1  0.45366126  0.28290202  0.02692783  1
  O  O70  1  0.84011694  0.55337200  0.02177850  1
  O  O71  1  0.71456381  0.16088930  0.02163975  1
  O  O72  1  0.45364133  0.16087474  0.52405074  1
  O  O73  1  0.70770618  0.54663668  0.52399231  1
  O  O74  1  0.83875068  0.29268449  0.52401003  1
  O  O75  1  0.54757524  0.70515251  0.97624879  1
  O  O76  1  0.15057389  0.45359019  0.97825678  1
  O  O77  1  0.29588392  0.84292024  0.97678408  1
  O  O78  1  0.55084846  0.84334928  0.47785687  1
  O  O79  1  0.29263655  0.45046194  0.47677574  1
  O  O80  1  0.15687836  0.70793480  0.47765406  1
  O  O81  1  0.14246562  0.63681115  0.36157668  1
  O  O82  1  0.49526552  0.85662063  0.36179178  1
  O  O83  1  0.36300999  0.49915558  0.35915326  1
  O  O84  1  0.14011136  0.49650152  0.86000994  1
  O  O85  1  0.35781748  0.86070135  0.85941934  1
  O  O86  1  0.50493509  0.64454228  0.85891885  1
  O  O87  1  0.02302743  0.83600715  0.41156167  1
  O  O88  1  0.81383289  0.97779819  0.41217985  1
  O  O89  1  0.16420239  0.18501666  0.41234516  1
  O  O90  1  0.01183509  0.18065814  0.91253925  1
  O  O91  1  0.15710744  0.96605655  0.91158590  1
  O  O92  1  0.81194798  0.83732636  0.91114897  1
  O  O93  1  0.97579950  0.16182487  0.58732205  1
  O  O94  1  0.18575452  0.02326976  0.58749630  1
  O  O95  1  0.83799108  0.81438443  0.58760942  1
  O  O96  1  0.97787949  0.81484700  0.09021376  1
  O  O97  1  0.83634841  0.02290244  0.09093938  1
  O  O98  1  0.18454388  0.16416401  0.09069696  1
  O  O99  1  0.68664602  0.16873663  0.74553786  1
  O  O100  1  0.48253691  0.31466903  0.74514828  1
  O  O101  1  0.83142431  0.51825722  0.74548217  1
  O  O102  1  0.67637258  0.51437632  0.24537156  1
  O  O103  1  0.83085101  0.31283839  0.24555779  1
  O  O104  1  0.47494570  0.17368719  0.24423728  1
  O  O105  1  0.64746193  0.49791778  0.91799939  1
  O  O106  1  0.85731299  0.36526148  0.91816518  1
  O  O107  1  0.51221488  0.13923067  0.91839896  1
  O  O108  1  0.63669495  0.14322372  0.41915941  1
  O  O109  1  0.50675168  0.36257431  0.41937557  1
  O  O110  1  0.85673025  0.49304613  0.41920531  1
  O  O111  1  0.35410854  0.50141360  0.07879327  1
  O  O112  1  0.14952356  0.64944327  0.07896751  1
  O  O113  1  0.49972078  0.85168590  0.07827770  1
  O  O114  1  0.35610528  0.85203986  0.57932954  1
  O  O115  1  0.49590183  0.64370690  0.57928141  1
  O  O116  1  0.14773293  0.50397012  0.57918281  1
  O  O117  1  0.30618061  0.82824819  0.25586603  1
  O  O118  1  0.51910887  0.68893144  0.25584524  1
  O  O119  1  0.17645029  0.47391362  0.25560727  1
  O  O120  1  0.31179554  0.48144669  0.75719258  1
  O  O121  1  0.16954321  0.68773935  0.75725300  1
  O  O122  1  0.51767569  0.83031844  0.75669472  1
