# generated using pymatgen
data_NiH12(ClO3)2
_symmetry_space_group_name_H-M   'P 1'
_cell_length_a   6.17342466
_cell_length_b   6.17342466
_cell_length_c   6.51344697
_cell_angle_alpha   63.19848578
_cell_angle_beta   63.19848578
_cell_angle_gamma   68.30890881
_symmetry_Int_Tables_number   1
_chemical_formula_structural   NiH12(ClO3)2
_chemical_formula_sum   'Ni1 H12 Cl2 O6'
_cell_volume   193.40995596
_cell_formula_units_Z   1
loop_
 _symmetry_equiv_pos_site_id
 _symmetry_equiv_pos_as_xyz
  1  'x, y, z'
loop_
 _atom_site_type_symbol
 _atom_site_label
 _atom_site_symmetry_multiplicity
 _atom_site_fract_x
 _atom_site_fract_y
 _atom_site_fract_z
 _atom_site_occupancy
  Ni  Ni0  1  0.00000000  0.00000000  -0.00000000  1
  H  H1  1  0.73639121  0.73639121  0.83186121  1
  H  H2  1  0.26360879  0.26360879  0.16813879  1
  H  H3  1  0.81870605  0.81870605  0.54401708  1
  H  H4  1  0.18129395  0.18129395  0.45598292  1
  H  H5  1  0.67477691  0.21245400  0.77211854  1
  H  H6  1  0.78754600  0.32522309  0.22788146  1
  H  H7  1  0.32522309  0.78754600  0.22788146  1
  H  H8  1  0.21245400  0.67477691  0.77211854  1
  H  H9  1  0.41658936  0.80440866  0.71958915  1
  H  H10  1  0.80440866  0.41658936  0.71958915  1
  H  H11  1  0.19559134  0.58341064  0.28041085  1
  H  H12  1  0.58341064  0.19559134  0.28041085  1
  Cl  Cl13  1  0.72505428  0.72505428  0.16688195  1
  Cl  Cl14  1  0.27494572  0.27494572  0.83311805  1
  O  O15  1  0.71751092  0.71751092  0.69918197  1
  O  O16  1  0.28248908  0.28248908  0.30081803  1
  O  O17  1  0.23872090  0.83422041  0.74366872  1
  O  O18  1  0.16577959  0.76127910  0.25633128  1
  O  O19  1  0.83422041  0.23872090  0.74366872  1
  O  O20  1  0.76127910  0.16577959  0.25633128  1
