# generated using pymatgen
data_CsV2O5
_symmetry_space_group_name_H-M   'P 1'
_cell_length_a   5.91618817
_cell_length_b   5.97662557
_cell_length_c   5.97465341
_cell_angle_alpha   122.16420234
_cell_angle_beta   86.81071836
_cell_angle_gamma   93.18672375
_symmetry_Int_Tables_number   1
_chemical_formula_structural   CsV2O5
_chemical_formula_sum   'Cs1 V2 O5'
_cell_volume   178.47307241
_cell_formula_units_Z   1
loop_
 _symmetry_equiv_pos_site_id
 _symmetry_equiv_pos_as_xyz
  1  'x, y, z'
loop_
 _atom_site_type_symbol
 _atom_site_label
 _atom_site_symmetry_multiplicity
 _atom_site_fract_x
 _atom_site_fract_y
 _atom_site_fract_z
 _atom_site_occupancy
  Cs  Cs0  1  0.13696500  0.95148100  0.54860600  1
  V  V1  1  0.58826500  0.33876800  0.16121700  1
  V  V2  1  0.60906600  0.66203300  0.83807200  1
  O  O3  1  0.48971600  0.00427900  0.99216000  1
  O  O4  1  0.48981200  0.50778100  0.49564000  1
  O  O5  1  0.86687700  0.35544500  0.14440000  1
  O  O6  1  0.88818600  0.68418400  0.81599400  1
  O  O7  1  0.47411300  0.49603000  0.00391100  1
