# generated using pymatgen
data_Na14La4Si9Sn4(SO16)3
_symmetry_space_group_name_H-M   'P 1'
_cell_length_a   18.93702442
_cell_length_b   9.45473344
_cell_length_c   23.13358858
_cell_angle_alpha   89.95328265
_cell_angle_beta   89.41737020
_cell_angle_gamma   119.95779370
_symmetry_Int_Tables_number   1
_chemical_formula_structural   Na14La4Si9Sn4(SO16)3
_chemical_formula_sum   'Na42 La12 Si27 Sn12 S9 O144'
_cell_volume   3588.28320993
_cell_formula_units_Z   3
loop_
 _symmetry_equiv_pos_site_id
 _symmetry_equiv_pos_as_xyz
  1  'x, y, z'
loop_
 _atom_site_type_symbol
 _atom_site_label
 _atom_site_symmetry_multiplicity
 _atom_site_fract_x
 _atom_site_fract_y
 _atom_site_fract_z
 _atom_site_occupancy
  Na  Na0  1  0.82351222  0.01542986  0.25489928  1
  Na  Na1  1  0.17831955  0.35802652  0.25317916  1
  Na  Na2  1  0.69521289  0.36997729  0.25242885  1
  Na  Na3  1  0.00023841  0.63126363  0.24407174  1
  Na  Na4  1  0.49902116  0.64902072  0.24563542  1
  Na  Na5  1  0.32287630  0.63065918  0.74932069  1
  Na  Na6  1  0.99628588  0.34820064  0.73598703  1
  Na  Na7  1  0.50340466  0.37282045  0.73975837  1
  Na  Na8  1  0.19311805  0.01819551  0.74626952  1
  Na  Na9  1  0.68210964  0.00328479  0.74450288  1
  Na  Na10  1  0.14141186  0.31222702  0.58031802  1
  Na  Na11  1  0.65654769  0.33175482  0.58426740  1
  Na  Na12  1  0.33548674  0.98516400  0.58723514  1
  Na  Na13  1  0.83253035  0.96824867  0.58589011  1
  Na  Na14  1  0.14898844  0.97931697  0.08043795  1
  Na  Na15  1  0.64447285  0.97093193  0.07956196  1
  Na  Na16  1  0.33244477  0.68687572  0.08370726  1
  Na  Na17  1  0.83561099  0.68822303  0.08827959  1
  Na  Na18  1  0.47917789  0.67700214  0.91657948  1
  Na  Na19  1  0.97912833  0.68199561  0.92835041  1
  Na  Na20  1  0.34209964  0.01827285  0.90635597  1
  Na  Na21  1  0.84132306  0.01925545  0.90830166  1
  Na  Na22  1  0.17341848  0.29193237  0.91020317  1
  Na  Na23  1  0.66987456  0.28791773  0.90817733  1
  Na  Na24  1  0.48405771  0.28606865  0.43306916  1
  Na  Na25  1  0.97730535  0.27851741  0.42285362  1
  Na  Na26  1  0.16839134  0.05220918  0.41315808  1
  Na  Na27  1  0.67693083  0.05606599  0.41899655  1
  Na  Na28  1  0.34319069  0.66626853  0.41280066  1
  Na  Na29  1  0.84369474  0.66680863  0.42337838  1
  Na  Na30  1  0.99481360  0.99487227  0.50603635  1
  Na  Na31  1  0.50951713  0.01491634  0.50744404  1
  Na  Na32  1  0.00467349  0.99689963  0.00439397  1
  Na  Na33  1  0.50480618  0.99239110  0.99945379  1
  Na  Na34  1  0.32984203  0.33501380  0.82346364  1
  Na  Na35  1  0.81680925  0.32645858  0.82422030  1
  Na  Na36  1  0.31568113  0.30409302  0.33232956  1
  Na  Na37  1  0.82794066  0.32045244  0.33242727  1
  Na  Na38  1  0.15721050  0.65223872  0.16807162  1
  Na  Na39  1  0.66499181  0.66087785  0.16577950  1
  Na  Na40  1  0.16249286  0.66774175  0.66300710  1
  Na  Na41  1  0.66514173  0.66474236  0.66447694  1
  La  La42  1  0.00334765  0.01023572  0.34804443  1
  La  La43  1  0.49886784  0.00625536  0.34921266  1
  La  La44  1  0.99594084  0.99205938  0.84517799  1
  La  La45  1  0.50401007  0.99699431  0.84550862  1
  La  La46  1  0.33723033  0.32985717  0.67492222  1
  La  La47  1  0.83697317  0.34410862  0.17609047  1
  La  La48  1  0.32989312  0.33505448  0.99021024  1
  La  La49  1  0.82380965  0.33815093  0.98839261  1
  La  La50  1  0.32572470  0.31241232  0.48860535  1
  La  La51  1  0.83102119  0.33552444  0.49466367  1
  La  La52  1  0.67491447  0.67602670  0.31624015  1
  La  La53  1  0.17310761  0.66995318  0.81263781  1
  Si  Si54  1  0.15999511  0.00418735  0.24852162  1
  Si  Si55  1  0.64899752  0.99554889  0.24810625  1
  Si  Si56  1  0.35114691  0.69686691  0.24789596  1
  Si  Si57  1  0.85364582  0.70883388  0.24611427  1
  Si  Si58  1  0.00491246  0.30748976  0.25288535  1
  Si  Si59  1  0.14648414  0.29572075  0.74775739  1
  Si  Si60  1  0.66007484  0.31707604  0.75040863  1
  Si  Si61  1  0.50449709  0.70155105  0.75410383  1
  Si  Si62  1  0.35348659  -0.00057476  0.74732684  1
  Si  Si63  1  0.85065353  0.01492007  0.74850517  1
  Si  Si64  1  0.49426399  0.32693342  0.58287957  1
  Si  Si65  1  0.98769089  0.33769257  0.58481737  1
  Si  Si66  1  0.16912892  0.00563726  0.58463710  1
  Si  Si67  1  0.67595264  0.01597357  0.58442875  1
  Si  Si68  1  0.83715605  0.64219554  0.58281681  1
  Si  Si69  1  0.48661369  0.63873798  0.08486866  1
  Si  Si70  1  0.99505755  0.66059193  0.08246562  1
  Si  Si71  1  0.17631732  0.33644982  0.08442756  1
  Si  Si72  1  0.66639849  0.32893455  0.08501744  1
  Si  Si73  1  0.31673039  0.67263648  0.92288215  1
  Si  Si74  1  0.80480882  0.66440073  0.91724694  1
  Si  Si75  1  0.16519625  0.96075304  0.91840734  1
  Si  Si76  1  0.66759261  0.94942750  0.91816479  1
  Si  Si77  1  0.30442657  0.94646946  0.41693581  1
  Si  Si78  1  0.81756900  0.96765647  0.42176928  1
  Si  Si79  1  0.16871640  0.38691384  0.41728726  1
  Si  Si80  1  0.66597400  0.36801974  0.41774677  1
  Sn  Sn81  1  0.99541539  0.00062190  0.64870193  1
  Sn  Sn82  1  0.51267585  0.01854628  0.65698061  1
  Sn  Sn83  1  0.01211944  0.00712229  0.15664283  1
  Sn  Sn84  1  0.49999221  0.99033172  0.15164536  1
  Sn  Sn85  1  0.82893366  0.32403786  0.67569060  1
  Sn  Sn86  1  0.33064341  0.34719550  0.17964415  1
  Sn  Sn87  1  0.16472673  0.66391417  0.01914458  1
  Sn  Sn88  1  0.66190649  0.66072488  0.01945814  1
  Sn  Sn89  1  0.16161608  0.66252663  0.51915345  1
  Sn  Sn90  1  0.67406312  0.66476486  0.52383769  1
  Sn  Sn91  1  0.17652254  0.67303747  0.30856281  1
  Sn  Sn92  1  0.67742159  0.68325169  0.80784274  1
  S  S93  1  0.49154866  0.29537831  0.24313383  1
  S  S94  1  0.99251236  0.68798936  0.74471019  1
  S  S95  1  0.33292306  0.65612182  0.58164985  1
  S  S96  1  0.33522797  0.02816481  0.08585542  1
  S  S97  1  0.83288192  0.01026476  0.08146065  1
  S  S98  1  0.01885259  0.36956374  0.92100818  1
  S  S99  1  0.52562992  0.38500617  0.91559968  1
  S  S100  1  0.02590706  0.66390275  0.41405558  1
  S  S101  1  0.51954831  0.66670294  0.42049327  1
  O  O102  1  0.13133752  0.05793248  0.30703623  1
  O  O103  1  0.61064449  0.02011542  0.30820088  1
  O  O104  1  0.40389951  0.76384576  0.30605023  1
  O  O105  1  0.90051388  0.78581822  0.30592426  1
  O  O106  1  0.48140413  0.21562069  0.29969848  1
  O  O107  1  0.98711738  0.21405250  0.31455301  1
  O  O108  1  0.11249804  0.20699069  0.81101513  1
  O  O109  1  0.62920357  0.21107847  0.81026097  1
  O  O110  1  0.48621046  0.75537990  0.81659069  1
  O  O111  1  0.98397517  0.74589926  0.80279802  1
  O  O112  1  0.39579640  0.01138286  0.80920499  1
  O  O113  1  0.89965081  0.04997365  0.80912166  1
  O  O114  1  0.40752173  0.98417860  0.69293078  1
  O  O115  1  0.90037051  0.98938938  0.69470639  1
  O  O116  1  0.08621586  0.17625603  0.69615135  1
  O  O117  1  0.59562494  0.22662936  0.69648840  1
  O  O118  1  -0.00002015  0.80352721  0.69920248  1
  O  O119  1  0.52199811  0.84476404  0.70516507  1
  O  O120  1  0.39697324  0.81563786  0.19088708  1
  O  O121  1  0.90538611  0.82785783  0.18970668  1
  O  O122  1  0.02357880  0.20363689  0.20254403  1
  O  O123  1  0.49897189  0.19565717  0.19579124  1
  O  O124  1  0.09815805  0.96825220  0.19322586  1
  O  O125  1  0.59103629  0.98829242  0.19276462  1
  O  O126  1  0.45677338  0.35765352  0.64167309  1
  O  O127  1  0.93883662  0.36104295  0.64039464  1
  O  O128  1  0.23189259  0.08410168  0.63848094  1
  O  O129  1  0.74264307  0.11125076  0.63720611  1
  O  O130  1  0.32035090  0.55392571  0.63410558  1
  O  O131  1  0.81780444  0.49345397  0.62936228  1
  O  O132  1  0.43778371  0.51371056  0.14048038  1
  O  O133  1  0.95812460  0.55462603  0.14153289  1
  O  O134  1  0.32485675  0.12681056  0.13257599  1
  O  O135  1  0.82056779  0.08727849  0.13376179  1
  O  O136  1  0.24568554  0.37764016  0.13612842  1
  O  O137  1  0.72816180  0.37226554  0.13919123  1
  O  O138  1  0.20723561  0.28677438  0.02602785  1
  O  O139  1  0.70187459  0.27848400  0.02818982  1
  O  O140  1  0.43572143  0.57220962  0.02632070  1
  O  O141  1  0.93633297  0.57753035  0.02641301  1
  O  O142  1  0.34920591  0.11010884  0.02952502  1
  O  O143  1  0.84082075  0.10815570  0.02922065  1
  O  O144  1  0.20561816  0.12488028  0.52709049  1
  O  O145  1  0.70547423  0.12698147  0.52548020  1
  O  O146  1  0.34137049  0.57484516  0.52965217  1
  O  O147  1  0.85524349  0.59504561  0.51883860  1
  O  O148  1  0.43354704  0.28788149  0.52740461  1
  O  O149  1  0.93847314  0.30393164  0.52493608  1
  O  O150  1  0.26438162  0.67979556  0.98075256  1
  O  O151  1  0.76009581  0.67546055  0.97762159  1
  O  O152  1  0.07165973  0.46234838  0.97070225  1
  O  O153  1  0.57129568  0.46972346  0.96877213  1
  O  O154  1  0.15976629  0.84401123  0.97472852  1
  O  O155  1  0.65822526  0.84465707  0.97874878  1
  O  O156  1  0.25908787  0.84398604  0.47661671  1
  O  O157  1  0.76262914  0.85000521  0.47702314  1
  O  O158  1  0.16010088  0.47551766  0.47697582  1
  O  O159  1  0.66041225  0.47858944  0.47155015  1
  O  O160  1  0.07269536  0.67160841  0.46681253  1
  O  O161  1  0.57268697  0.67467799  0.46790644  1
  O  O162  1  0.06691507  0.65429367  0.36018491  1
  O  O163  1  0.55138483  0.65055214  0.36310314  1
  O  O164  1  0.24874319  0.85766989  0.35969833  1
  O  O165  1  0.76919129  0.89495681  0.36074772  1
  O  O166  1  0.17578383  0.49303825  0.35806428  1
  O  O167  1  0.66584785  0.44638717  0.35441916  1
  O  O168  1  0.05347689  0.45747834  0.86590907  1
  O  O169  1  0.56530338  0.47733705  0.86241395  1
  O  O170  1  0.16926797  0.88000020  0.85708915  1
  O  O171  1  0.67460871  0.85442432  0.86037085  1
  O  O172  1  0.26454078  0.64493551  0.86413451  1
  O  O173  1  0.74831530  0.64181647  0.86076303  1
  O  O174  1  0.02097300  0.81571428  0.41508541  1
  O  O175  1  0.51224152  0.81634069  0.42195558  1
  O  O176  1  0.39405153  0.95880679  0.41634091  1
  O  O177  1  0.90433777  0.96762182  0.42462601  1
  O  O178  1  0.08958502  0.20316822  0.41989200  1
  O  O179  1  0.58219657  0.18707860  0.42468988  1
  O  O180  1  0.01275513  0.20705754  0.92157184  1
  O  O181  1  0.52013806  0.22195048  0.91664860  1
  O  O182  1  0.08235599  0.97694756  0.92297858  1
  O  O183  1  0.58823849  0.97420341  0.92019651  1
  O  O184  1  0.40348696  0.84446898  0.92501273  1
  O  O185  1  0.89492844  0.83043707  0.91624732  1
  O  O186  1  0.50193009  0.15903953  0.58977984  1
  O  O187  1  0.99694552  0.17228231  0.59292268  1
  O  O188  1  0.08082207  -0.00203379  0.59399280  1
  O  O189  1  0.58661783  0.00211436  0.59714991  1
  O  O190  1  0.40474682  0.82092147  0.58655401  1
  O  O191  1  0.91111951  0.82857291  0.59638353  1
  O  O192  1  0.49170409  0.82046137  0.09252809  1
  O  O193  1  0.00302836  0.84434216  0.08858490  1
  O  O194  1  0.40538996  0.00056517  0.09579495  1
  O  O195  1  0.90499132  0.98940566  0.08570327  1
  O  O196  1  0.08765642  0.17170627  0.09672265  1
  O  O197  1  0.57518315  0.16121961  0.09341908  1
  O  O198  1  0.34280371  0.16082813  0.74570408  1
  O  O199  1  0.84274007  0.18163292  0.73906036  1
  O  O200  1  0.23961940  0.32729046  0.74318522  1
  O  O201  1  0.74767287  0.32330375  0.73709049  1
  O  O202  1  0.42407592  0.52407429  0.74269132  1
  O  O203  1  0.92067390  0.52110737  0.73827663  1
  O  O204  1  0.34443105  0.51319514  0.24055452  1
  O  O205  1  0.84266733  0.52570072  0.24452670  1
  O  O206  1  0.41930153  0.31729863  0.23596693  1
  O  O207  1  0.92510128  0.32544023  0.24181353  1
  O  O208  1  0.25033810  0.17140348  0.23414015  1
  O  O209  1  0.74162739  0.15073144  0.24367937  1
  O  O210  1  0.32912325  0.51237402  0.92362514  1
  O  O211  1  0.81629048  0.50168814  0.91670477  1
  O  O212  1  0.44198379  0.36282560  0.91869551  1
  O  O213  1  0.93654764  0.35126156  0.92721730  1
  O  O214  1  0.25063516  0.13796961  0.92056010  1
  O  O215  1  0.75276628  0.12823065  0.91826998  1
  O  O216  1  0.31589131  0.13211890  0.41610020  1
  O  O217  1  0.82944672  0.15151088  0.42363816  1
  O  O218  1  0.25399781  0.37866341  0.41717781  1
  O  O219  1  0.75006639  0.35827714  0.41875695  1
  O  O220  1  0.43614912  0.51993196  0.42577508  1
  O  O221  1  0.94372774  0.51765370  0.41624000  1
  O  O222  1  0.17495277  0.51072476  0.07997322  1
  O  O223  1  0.66402215  0.50074685  0.07633596  1
  O  O224  1  0.08942247  0.68698516  0.07648223  1
  O  O225  1  0.58188503  0.67492990  0.08170085  1
  O  O226  1  0.25862503  0.86525513  0.08590540  1
  O  O227  1  0.75666995  0.84415938  0.07908491  1
  O  O228  1  0.16605925  0.82870520  0.57611755  1
  O  O229  1  0.67351734  0.83885913  0.57965043  1
  O  O230  1  0.25678213  0.66934682  0.57891625  1
  O  O231  1  0.75167902  0.65288686  0.58395419  1
  O  O232  1  0.08332304  0.49373076  0.58128434  1
  O  O233  1  0.58671995  0.48753540  0.57517104  1
  O  O234  1  0.15857575  0.82759075  0.25374906  1
  O  O235  1  0.64550388  0.81896779  0.24344912  1
  O  O236  1  0.25723173  0.66494780  0.24966935  1
  O  O237  1  0.76346335  0.69433975  0.24090924  1
  O  O238  1  0.08914406  0.49220924  0.25374352  1
  O  O239  1  0.56707525  0.45836117  0.24158887  1
  O  O240  1  0.14386916  0.46608244  0.74136885  1
  O  O241  1  0.65907155  0.49210108  0.75453361  1
  O  O242  1  0.06857073  0.67648057  0.74257213  1
  O  O243  1  0.58869589  0.68574186  0.75427279  1
  O  O244  1  0.26369576  0.83313407  0.74007354  1
  O  O245  1  0.75732719  0.85513384  0.75032920  1
