# generated using pymatgen
data_Na3Mg8Nb4P3(S5O24)3
_symmetry_space_group_name_H-M   'P 1'
_cell_length_a   8.70865865
_cell_length_b   8.70129832
_cell_length_c   22.63147378
_cell_angle_alpha   90.11613162
_cell_angle_beta   89.85929975
_cell_angle_gamma   120.02938484
_symmetry_Int_Tables_number   1
_chemical_formula_structural   Na3Mg8Nb4P3(S5O24)3
_chemical_formula_sum   'Na3 Mg8 Nb4 P3 S15 O72'
_cell_volume   1484.73391793
_cell_formula_units_Z   1
loop_
 _symmetry_equiv_pos_site_id
 _symmetry_equiv_pos_as_xyz
  1  'x, y, z'
loop_
 _atom_site_type_symbol
 _atom_site_label
 _atom_site_symmetry_multiplicity
 _atom_site_fract_x
 _atom_site_fract_y
 _atom_site_fract_z
 _atom_site_occupancy
  Na  Na0  1  0.99404950  0.99558711  0.00203202  1
  Na  Na1  1  0.66758073  0.33312827  0.83369480  1
  Na  Na2  1  0.66432353  0.33363419  0.33751489  1
  Mg  Mg3  1  0.00145928  0.99994858  0.35499073  1
  Mg  Mg4  1  0.99772061  0.00019020  0.85358060  1
  Mg  Mg5  1  0.99586347  0.99477383  0.14814407  1
  Mg  Mg6  1  0.66245217  0.32630028  0.68534175  1
  Mg  Mg7  1  0.67180226  0.33501436  0.98078457  1
  Mg  Mg8  1  0.65959694  0.32911509  0.48160155  1
  Mg  Mg9  1  0.33448617  0.66705638  0.31105132  1
  Mg  Mg10  1  0.33445598  0.66696088  0.81087260  1
  Nb  Nb11  1  0.00525624  0.00005007  0.64680877  1
  Nb  Nb12  1  0.67371629  0.33126742  0.18692193  1
  Nb  Nb13  1  0.33253871  0.67114449  0.02426889  1
  Nb  Nb14  1  0.33342106  0.67192843  0.51951797  1
  P  P15  1  0.38515964  0.05160484  0.58336298  1
  P  P16  1  0.95055103  0.62723650  0.08060176  1
  P  P17  1  0.67711176  0.04947895  0.08047660  1
  S  S18  1  0.28590963  0.99644728  0.25029143  1
  S  S19  1  0.70890931  0.71282424  0.25064755  1
  S  S20  1  0.00701776  0.28964504  0.25067459  1
  S  S21  1  0.29353961  0.29173370  0.75251598  1
  S  S22  1  0.99704092  0.70546763  0.75222148  1
  S  S23  1  0.70986678  0.00211712  0.75196904  1
  S  S24  1  0.95355782  0.33311916  0.58327294  1
  S  S25  1  0.66624381  0.62015340  0.58339814  1
  S  S26  1  0.37559884  0.32836683  0.08191529  1
  S  S27  1  0.62265650  0.66460905  0.91538221  1
  S  S28  1  0.04314569  0.37686406  0.91507362  1
  S  S29  1  0.33419915  0.95891420  0.91511216  1
  S  S30  1  0.62560155  0.95998598  0.41401989  1
  S  S31  1  0.33485196  0.37649829  0.41445999  1
  S  S32  1  0.03909603  0.66390066  0.41430988  1
  O  O33  1  0.21541062  0.03726309  0.30325267  1
  O  O34  1  0.82072333  0.78277933  0.30340496  1
  O  O35  1  0.96339144  0.17795245  0.30338173  1
  O  O36  1  0.20795717  0.17632392  0.80309195  1
  O  O37  1  0.96801387  0.79119021  0.80303581  1
  O  O38  1  0.82309759  0.03061290  0.80318537  1
  O  O39  1  0.80279654  0.97967703  0.69688171  1
  O  O40  1  0.17694103  0.19792884  0.69698075  1
  O  O41  1  0.02054904  0.82252845  0.69667974  1
  O  O42  1  0.78904597  0.81414740  0.19716904  1
  O  O43  1  0.02539774  0.20988456  0.19668178  1
  O  O44  1  0.18557809  0.97661912  0.19667886  1
  O  O45  1  0.88281519  0.36854057  0.63647684  1
  O  O46  1  0.48968956  0.11965051  0.63921778  1
  O  O47  1  0.63445212  0.51536048  0.63661048  1
  O  O48  1  0.86452661  0.50351109  0.13732734  1
  O  O49  1  0.63706350  0.13281552  0.13765622  1
  O  O50  1  0.48926688  0.36406378  0.13607480  1
  O  O51  1  0.45632574  0.30401149  0.02926930  1
  O  O52  1  0.84073704  0.54005690  0.02728752  1
  O  O53  1  0.69370007  0.15674446  0.02704767  1
  O  O54  1  0.45299951  0.15649212  0.52751450  1
  O  O55  1  0.70185028  0.54951875  0.53027222  1
  O  O56  1  0.84880581  0.30106964  0.53015249  1
  O  O57  1  0.53271342  0.68871749  0.97032095  1
  O  O58  1  0.15618205  0.46671186  0.96988832  1
  O  O59  1  0.31005573  0.84393488  0.97040783  1
  O  O60  1  0.53169996  0.84393788  0.46977098  1
  O  O61  1  0.31314438  0.46942078  0.46985711  1
  O  O62  1  0.15564596  0.68712682  0.47003609  1
  O  O63  1  0.12493645  0.63491028  0.36368724  1
  O  O64  1  0.51000812  0.87418692  0.36371713  1
  O  O65  1  0.36299945  0.49006752  0.36346277  1
  O  O66  1  0.12777390  0.48590585  0.86303626  1
  O  O67  1  0.35984731  0.87405650  0.86347824  1
  O  O68  1  0.51456113  0.64060730  0.86326144  1
  O  O69  1  0.02985316  0.82593254  0.41100653  1
  O  O70  1  0.79655162  0.96876873  0.41071376  1
  O  O71  1  0.17383427  0.20391431  0.41068712  1
  O  O72  1  0.03021785  0.20101798  0.91245281  1
  O  O73  1  0.17097254  0.96991478  0.91270216  1
  O  O74  1  0.79851102  0.82725930  0.91260855  1
  O  O75  1  0.97951082  0.17572299  0.59317682  1
  O  O76  1  0.18937703  0.01669094  0.59600987  1
  O  O77  1  0.82234103  0.80484362  0.59336858  1
  O  O78  1  0.98682432  0.81274758  0.09173654  1
  O  O79  1  0.83050168  0.02027284  0.09173118  1
  O  O80  1  0.19880822  0.17876118  0.09141141  1
  O  O81  1  0.69594290  0.16215597  0.74296355  1
  O  O82  1  0.46763627  0.30822355  0.74248715  1
  O  O83  1  0.83843696  0.53263226  0.74124608  1
  O  O84  1  0.68760874  0.52480923  0.24128005  1
  O  O85  1  0.83672827  0.30936520  0.24269920  1
  O  O86  1  0.47310242  0.16524315  0.24132865  1
  O  O87  1  0.63872894  0.50534022  0.92341849  1
  O  O88  1  0.86685882  0.35894162  0.92240079  1
  O  O89  1  0.49189702  0.13450507  0.92378338  1
  O  O90  1  0.64202643  0.13443002  0.42413730  1
  O  O91  1  0.49489891  0.36239613  0.42364472  1
  O  O92  1  0.86598033  0.50520998  0.42536509  1
  O  O93  1  0.36236382  0.49489988  0.07478988  1
  O  O94  1  0.13709783  0.63555144  0.07313521  1
  O  O95  1  0.50096879  0.86115699  0.07311337  1
  O  O96  1  0.35001261  0.85591186  0.57069125  1
  O  O97  1  0.50924559  0.64627786  0.57358848  1
  O  O98  1  0.13815182  0.48891851  0.57338357  1
  O  O99  1  0.31594201  0.84775804  0.25830763  1
  O  O100  1  0.53086617  0.68435157  0.25873700  1
  O  O101  1  0.15349053  0.46916866  0.25833286  1
  O  O102  1  0.30204109  0.46274187  0.75566012  1
  O  O103  1  0.15908964  0.69648164  0.75562174  1
  O  O104  1  0.53743125  0.84095532  0.75585723  1
