# generated using pymatgen
data_Na3MgTaSi(PO6)2
_symmetry_space_group_name_H-M   'P 1'
_cell_length_a   8.98510866
_cell_length_b   9.02370919
_cell_length_c   22.11025670
_cell_angle_alpha   89.77994547
_cell_angle_beta   90.00000000
_cell_angle_gamma   119.85859612
_symmetry_Int_Tables_number   1
_chemical_formula_structural   Na3MgTaSi(PO6)2
_chemical_formula_sum   'Na18 Mg6 Ta6 Si6 P12 O72'
_cell_volume   1554.69655934
_cell_formula_units_Z   6
loop_
 _symmetry_equiv_pos_site_id
 _symmetry_equiv_pos_as_xyz
  1  'x, y, z'
loop_
 _atom_site_type_symbol
 _atom_site_label
 _atom_site_symmetry_multiplicity
 _atom_site_fract_x
 _atom_site_fract_y
 _atom_site_fract_z
 _atom_site_occupancy
  Na  Na0  1  0.99575300  0.00639186  0.49022849  1
  Na  Na1  1  0.01063886  0.00639186  0.99022849  1
  Na  Na2  1  0.67144851  0.32704225  0.82412270  1
  Na  Na3  1  0.65559474  0.32704225  0.32412270  1
  Na  Na4  1  0.34814332  0.65570249  0.15694837  1
  Na  Na5  1  0.30755818  0.65570249  0.65694837  1
  Na  Na6  1  0.65270758  0.01800060  0.24509155  1
  Na  Na7  1  0.98922060  0.62580785  0.23928745  1
  Na  Na8  1  0.63658725  0.62580785  0.73928745  1
  Na  Na9  1  0.36529302  0.01800060  0.74509155  1
  Na  Na10  1  0.31813511  0.35449718  0.58102947  1
  Na  Na11  1  0.64696756  0.95423166  0.57423902  1
  Na  Na12  1  0.30726510  0.95423166  0.07423902  1
  Na  Na13  1  0.03636307  0.35449718  0.08102947  1
  Na  Na14  1  0.98150185  0.68525836  0.91487776  1
  Na  Na15  1  0.69935442  0.01985459  0.90763201  1
  Na  Na16  1  0.32049917  0.01985459  0.40763201  1
  Na  Na17  1  0.70375551  0.68525836  0.41487776  1
  Mg  Mg18  1  0.00230352  0.00679361  0.35233602  1
  Mg  Mg19  1  0.00449009  0.00679361  0.85233602  1
  Mg  Mg20  1  0.67284683  0.33254362  0.68582176  1
  Mg  Mg21  1  0.65969779  0.33254362  0.18582176  1
  Mg  Mg22  1  0.33328798  0.66833058  0.01892693  1
  Mg  Mg23  1  0.33504160  0.66833058  0.51892693  1
  Ta  Ta24  1  0.99453021  0.99715593  0.64664842  1
  Ta  Ta25  1  0.00262572  0.99715593  0.14664842  1
  Ta  Ta26  1  0.66272941  0.33593919  0.97979858  1
  Ta  Ta27  1  0.67321078  0.33593919  0.47979858  1
  Ta  Ta28  1  0.33255501  0.66694502  0.31325362  1
  Ta  Ta29  1  0.33438901  0.66694502  0.81325362  1
  Si  Si30  1  0.29762137  0.00312691  0.25540574  1
  Si  Si31  1  0.70550554  0.00312691  0.75540574  1
  Si  Si32  1  0.66734297  0.62638534  0.58737157  1
  Si  Si33  1  0.95904337  0.62638534  0.08737157  1
  Si  Si34  1  0.33255039  0.96462057  0.91996602  1
  Si  Si35  1  0.63206919  0.96462057  0.41996602  1
  P  P36  1  0.70715213  0.70760488  0.25387092  1
  P  P37  1  0.00577856  0.29229852  0.25038797  1
  P  P38  1  0.28651997  0.29229852  0.75038797  1
  P  P39  1  0.00045275  0.70760488  0.75387092  1
  P  P40  1  0.95861442  0.33337313  0.58617878  1
  P  P41  1  0.37103966  0.04258843  0.58560821  1
  P  P42  1  0.67154977  0.04258843  0.08560821  1
  P  P43  1  0.37475971  0.33337313  0.08617878  1
  P  P44  1  0.61848343  0.66031085  0.91835711  1
  P  P45  1  0.04052997  0.37504373  0.92176339  1
  P  P46  1  0.33451276  0.37504373  0.42176339  1
  P  P47  1  0.04182642  0.66031085  0.41835711  1
  O  O48  1  0.20405876  0.00818187  0.31530483  1
  O  O49  1  0.80585643  0.78990257  0.31123923  1
  O  O50  1  0.97689777  0.17385595  0.30249138  1
  O  O51  1  0.19695818  0.17385595  0.80249138  1
  O  O52  1  0.98404614  0.78990257  0.81123923  1
  O  O53  1  0.80412311  0.00818187  0.81530483  1
  O  O54  1  0.81219709  0.97823626  0.69554426  1
  O  O55  1  0.18375482  0.20840732  0.68947391  1
  O  O56  1  0.03239179  0.83614928  0.69813505  1
  O  O57  1  0.80375749  0.83614928  0.19813505  1
  O  O58  1  0.02465250  0.20840732  0.18947391  1
  O  O59  1  0.16603916  0.97823626  0.19554426  1
  O  O60  1  0.87028628  0.34382749  0.64203853  1
  O  O61  1  0.47536136  0.12416722  0.64203114  1
  O  O62  1  0.64609620  0.51426951  0.64567962  1
  O  O63  1  0.86817432  0.51426951  0.14567962  1
  O  O64  1  0.64880686  0.12416722  0.14203114  1
  O  O65  1  0.47354221  0.34382749  0.14203853  1
  O  O66  1  0.46573318  0.30425224  0.02844376  1
  O  O67  1  0.83611590  0.52562140  0.02600463  1
  O  O68  1  0.69163672  0.16254094  0.02861461  1
  O  O69  1  0.47090523  0.16254094  0.52861461  1
  O  O70  1  0.68950650  0.52562140  0.52600463  1
  O  O71  1  0.83852007  0.30425224  0.52844376  1
  O  O72  1  0.52486395  0.67943374  0.97076729  1
  O  O73  1  0.13201824  0.45577340  0.97996770  1
  O  O74  1  0.31317408  0.85519156  0.97907327  1
  O  O75  1  0.54201648  0.85519156  0.47907327  1
  O  O76  1  0.32375416  0.45577340  0.47996770  1
  O  O77  1  0.15456880  0.67943374  0.47076729  1
  O  O78  1  0.12540602  0.63766207  0.35766207  1
  O  O79  1  0.49576050  0.85636844  0.36035169  1
  O  O80  1  0.35354965  0.49556775  0.36608685  1
  O  O81  1  0.14201710  0.49556775  0.86608685  1
  O  O82  1  0.36060694  0.85636844  0.86035169  1
  O  O83  1  0.51225505  0.63766207  0.85766207  1
  O  O84  1  0.00930666  0.81121046  0.41327313  1
  O  O85  1  0.81787032  0.98658301  0.41039254  1
  O  O86  1  0.19014811  0.19198722  0.41415835  1
  O  O87  1  0.00183911  0.19198722  0.91415835  1
  O  O88  1  0.16871269  0.98658301  0.91039254  1
  O  O89  1  0.80190380  0.81121046  0.91327313  1
  O  O90  1  0.96542595  0.15880791  0.58708676  1
  O  O91  1  0.19710968  0.04556851  0.58680559  1
  O  O92  1  0.84748870  0.82058735  0.58984058  1
  O  O93  1  0.97309866  0.82058735  0.08984058  1
  O  O94  1  0.84845883  0.04556851  0.08680559  1
  O  O95  1  0.19338196  0.15880791  0.08708676  1
  O  O96  1  0.66147247  0.15244857  0.74641662  1
  O  O97  1  0.47091072  0.32579524  0.74547784  1
  O  O98  1  0.84689556  0.53261301  0.74444696  1
  O  O99  1  0.68571846  0.53261301  0.24444696  1
  O  O100  1  0.85488552  0.32579524  0.24547784  1
  O  O101  1  0.49097710  0.15244857  0.24641662  1
  O  O102  1  0.63372052  0.49300028  0.92183875  1
  O  O103  1  0.86096506  0.37366178  0.92032147  1
  O  O104  1  0.51990586  0.14963857  0.92123617  1
  O  O105  1  0.62973371  0.14963857  0.42123617  1
  O  O106  1  0.51269772  0.37366178  0.42032147  1
  O  O107  1  0.85928076  0.49300028  0.42183875  1
  O  O108  1  0.34015549  0.47910472  0.07723609  1
  O  O109  1  0.15220342  0.65832402  0.08162808  1
  O  O110  1  0.52285327  0.86248592  0.07723883  1
  O  O111  1  0.33963164  0.86248592  0.57723883  1
  O  O112  1  0.50611960  0.65832402  0.58162808  1
  O  O113  1  0.13894823  0.47910472  0.57723609  1
  O  O114  1  0.29826612  0.81287486  0.25417339  1
  O  O115  1  0.52722830  0.70007530  0.25492831  1
  O  O116  1  0.17591732  0.47067707  0.25543886  1
  O  O117  1  0.29475875  0.47067707  0.75543886  1
  O  O118  1  0.17284600  0.70007530  0.75492831  1
  O  O119  1  0.51460774  0.81287486  0.75417339  1
