# generated using pymatgen
data_Na3YTiSi(PO6)2
_symmetry_space_group_name_H-M   'P 1'
_cell_length_a   9.16540264
_cell_length_b   9.16540231
_cell_length_c   22.40649668
_cell_angle_alpha   90.28547773
_cell_angle_beta   89.71452228
_cell_angle_gamma   119.72018253
_symmetry_Int_Tables_number   1
_chemical_formula_structural   Na3YTiSi(PO6)2
_chemical_formula_sum   'Na18 Y6 Ti6 Si6 P12 O72'
_cell_volume   1634.62493343
_cell_formula_units_Z   6
loop_
 _symmetry_equiv_pos_site_id
 _symmetry_equiv_pos_as_xyz
  1  'x, y, z'
loop_
 _atom_site_type_symbol
 _atom_site_label
 _atom_site_symmetry_multiplicity
 _atom_site_fract_x
 _atom_site_fract_y
 _atom_site_fract_z
 _atom_site_occupancy
  Na  Na0  1  0.99692485  0.98998630  0.50210284  1
  Na  Na1  1  0.01001370  0.00307515  0.00210284  1
  Na  Na2  1  0.67046495  0.32260681  0.83617891  1
  Na  Na3  1  0.67739319  0.32953505  0.33617891  1
  Na  Na4  1  0.36011761  0.68784367  0.16889519  1
  Na  Na5  1  0.31215633  0.63988239  0.66889519  1
  Na  Na6  1  0.36368088  0.36101367  0.24913394  1
  Na  Na7  1  0.99513582  0.63900617  0.24410097  1
  Na  Na8  1  0.63898633  0.63631912  0.74913394  1
  Na  Na9  1  0.36099383  0.00486418  0.74410097  1
  Na  Na10  1  0.04013279  0.70038277  0.58036915  1
  Na  Na11  1  0.65513336  0.96960279  0.58467579  1
  Na  Na12  1  0.29961723  0.95986721  0.08036915  1
  Na  Na13  1  0.03039721  0.34486664  0.08467579  1
  Na  Na14  1  0.98020947  0.67923391  0.91730694  1
  Na  Na15  1  0.69754582  0.02966629  0.91363760  1
  Na  Na16  1  0.97033371  0.30245418  0.41363760  1
  Na  Na17  1  0.32076609  0.01979053  0.41730694  1
  Y  Y18  1  0.98348325  0.98947448  0.35094323  1
  Y  Y19  1  0.01052552  0.01651675  0.85094323  1
  Y  Y20  1  0.67318520  0.32953243  0.68526374  1
  Y  Y21  1  0.67046757  0.32681480  0.18526374  1
  Y  Y22  1  0.33708432  0.66303184  0.01729483  1
  Y  Y23  1  0.33696816  0.66291568  0.51729483  1
  Ti  Ti24  1  0.00944493  0.01281193  0.64972545  1
  Ti  Ti25  1  0.98718807  0.99055507  0.14972545  1
  Ti  Ti26  1  0.66324361  0.34174580  0.98266757  1
  Ti  Ti27  1  0.65825420  0.33675639  0.48266757  1
  Ti  Ti28  1  0.32065359  0.65703471  0.31673887  1
  Ti  Ti29  1  0.34296529  0.67934641  0.81673887  1
  Si  Si30  1  0.01183379  0.30520236  0.25256501  1
  Si  Si31  1  0.69479764  0.98816621  0.75256501  1
  Si  Si32  1  0.36121535  0.04319914  0.58432656  1
  Si  Si33  1  0.95680086  0.63878465  0.08432656  1
  Si  Si34  1  0.34711006  0.97581231  0.92017718  1
  Si  Si35  1  0.02418769  0.65288994  0.42017718  1
  P  P36  1  0.28423332  0.98486640  0.25019214  1
  P  P37  1  0.69238855  0.70879372  0.24729495  1
  P  P38  1  0.29120628  0.30761145  0.74729495  1
  P  P39  1  0.01513360  0.71576668  0.75019214  1
  P  P40  1  0.95601759  0.31788080  0.57944087  1
  P  P41  1  0.68266027  0.63680737  0.58503113  1
  P  P42  1  0.68211920  0.04398241  0.07944087  1
  P  P43  1  0.36319263  0.31733973  0.08503113  1
  P  P44  1  0.62559940  0.65173484  0.91272316  1
  P  P45  1  0.03162892  0.38266607  0.91764464  1
  P  P46  1  0.61733393  0.96837108  0.41764464  1
  P  P47  1  0.34826516  0.37440060  0.41272316  1
  O  O48  1  0.20695339  0.00582841  0.30779365  1
  O  O49  1  0.80348370  0.77437954  0.30224615  1
  O  O50  1  0.99910631  0.21311971  0.31434658  1
  O  O51  1  0.22562046  0.19651630  0.80224615  1
  O  O52  1  0.99417159  0.79304661  0.80779365  1
  O  O53  1  0.78688029  0.00089369  0.81434658  1
  O  O54  1  0.80829174  0.97404704  0.69473459  1
  O  O55  1  0.17364607  0.19933665  0.69328473  1
  O  O56  1  0.03667426  0.83559271  0.69572350  1
  O  O57  1  0.80066335  0.82635393  0.19328473  1
  O  O58  1  0.02595296  0.19170826  0.19473459  1
  O  O59  1  0.16440729  0.96332574  0.19572350  1
  O  O60  1  0.88193172  0.35378322  0.63504969  1
  O  O61  1  0.47058843  0.11765816  0.64377851  1
  O  O62  1  0.66484548  0.54749489  0.64409888  1
  O  O63  1  0.88234184  0.52941157  0.14377851  1
  O  O64  1  0.64621678  0.11806828  0.13504969  1
  O  O65  1  0.45250511  0.33515452  0.14409888  1
  O  O66  1  0.47739832  0.31055721  0.03214232  1
  O  O67  1  0.83176710  0.52637395  0.02601958  1
  O  O68  1  0.70210316  0.16008754  0.02453234  1
  O  O69  1  0.47362605  0.16823290  0.52601958  1
  O  O70  1  0.68944279  0.52260168  0.53214232  1
  O  O71  1  0.83991246  0.29789684  0.52453234  1
  O  O72  1  0.54759223  0.68473987  0.96717875  1
  O  O73  1  0.11619672  0.44557031  0.97842514  1
  O  O74  1  0.32257250  0.86773183  0.97923008  1
  O  O75  1  0.55442969  0.88380328  0.47842514  1
  O  O76  1  0.31526013  0.45240777  0.46717875  1
  O  O77  1  0.13226817  0.67742750  0.47923008  1
  O  O78  1  0.13977037  0.63174688  0.36174626  1
  O  O79  1  0.49742082  0.85333089  0.36672177  1
  O  O80  1  0.36368371  0.48366172  0.35605929  1
  O  O81  1  0.14666911  0.50257918  0.86672177  1
  O  O82  1  0.36825312  0.86022963  0.86174626  1
  O  O83  1  0.51633828  0.63631629  0.85605929  1
  O  O84  1  0.01384277  0.82259713  0.41388473  1
  O  O85  1  0.80148355  0.00964903  0.41187435  1
  O  O86  1  0.19937162  0.19303675  0.40834770  1
  O  O87  1  0.99035097  0.19851645  0.91187435  1
  O  O88  1  0.17740287  0.98615723  0.91388473  1
  O  O89  1  0.80696325  0.80062838  0.90834770  1
  O  O90  1  0.95292093  0.14612195  0.58601169  1
  O  O91  1  0.17343335  0.02862982  0.59023041  1
  O  O92  1  0.85216187  0.80539207  0.58318754  1
  O  O93  1  0.97137018  0.82656665  0.09023041  1
  O  O94  1  0.85387805  0.04707907  0.08601169  1
  O  O95  1  0.19460793  0.14783813  0.08318754  1
  O  O96  1  0.64960870  0.13809699  0.74979209  1
  O  O97  1  0.47254151  0.34217366  0.73961668  1
  O  O98  1  0.85807647  0.54326529  0.74392963  1
  O  O99  1  0.65782634  0.52745849  0.23961668  1
  O  O100  1  0.86190301  0.35039130  0.24979209  1
  O  O101  1  0.45673471  0.14192353  0.24392963  1
  O  O102  1  0.63411112  0.48647870  0.91926908  1
  O  O103  1  0.86198394  0.38495627  0.91675061  1
  O  O104  1  0.52593363  0.15542578  0.92304979  1
  O  O105  1  0.61504373  0.13801606  0.41675061  1
  O  O106  1  0.51352130  0.36588888  0.41926908  1
  O  O107  1  0.84457422  0.47406637  0.42304979  1
  O  O108  1  0.32630710  0.46235112  0.07891464  1
  O  O109  1  0.14686625  0.66690306  0.07915116  1
  O  O110  1  0.53459106  0.86478338  0.07470959  1
  O  O111  1  0.33309694  0.85313375  0.57915116  1
  O  O112  1  0.53764888  0.67369290  0.57891464  1
  O  O113  1  0.13521662  0.46540894  0.57470959  1
  O  O114  1  0.29293741  0.81899686  0.25326189  1
  O  O115  1  0.52527786  0.70905991  0.25145182  1
  O  O116  1  0.19487238  0.49128035  0.25502414  1
  O  O117  1  0.29094009  0.47472214  0.75145182  1
  O  O118  1  0.18100314  0.70706259  0.75326189  1
  O  O119  1  0.50871965  0.80512762  0.75502414  1
