# generated using pymatgen
data_Rb2Sn3O7
_symmetry_space_group_name_H-M   'P 1'
_cell_length_a   17.32891200
_cell_length_b   3.21786900
_cell_length_c   13.32804400
_cell_angle_alpha   90.00000000
_cell_angle_beta   90.00000000
_cell_angle_gamma   90.00000000
_symmetry_Int_Tables_number   1
_chemical_formula_structural   Rb2Sn3O7
_chemical_formula_sum   'Rb8 Sn12 O28'
_cell_volume   743.20063835
_cell_formula_units_Z   4
loop_
 _symmetry_equiv_pos_site_id
 _symmetry_equiv_pos_as_xyz
  1  'x, y, z'
loop_
 _atom_site_type_symbol
 _atom_site_label
 _atom_site_symmetry_multiplicity
 _atom_site_fract_x
 _atom_site_fract_y
 _atom_site_fract_z
 _atom_site_occupancy
  Rb  Rb0  1  0.30338900  0.25000000  0.44068700  1
  Rb  Rb1  1  0.69661100  0.75000000  0.55931300  1
  Rb  Rb2  1  0.19661100  0.75000000  0.94068700  1
  Rb  Rb3  1  0.80338900  0.25000000  0.05931300  1
  Rb  Rb4  1  0.43422400  0.25000000  0.89405600  1
  Rb  Rb5  1  0.56577600  0.75000000  0.10594400  1
  Rb  Rb6  1  0.06577600  0.75000000  0.39405600  1
  Rb  Rb7  1  0.93422400  0.25000000  0.60594400  1
  Sn  Sn8  1  0.01767200  0.25000000  0.10982500  1
  Sn  Sn9  1  0.98232800  0.75000000  0.89017500  1
  Sn  Sn10  1  0.48232800  0.75000000  0.60982500  1
  Sn  Sn11  1  0.51767200  0.25000000  0.39017500  1
  Sn  Sn12  1  0.29340800  0.25000000  0.70587900  1
  Sn  Sn13  1  0.70659200  0.75000000  0.29412100  1
  Sn  Sn14  1  0.20659200  0.75000000  0.20587900  1
  Sn  Sn15  1  0.79340800  0.25000000  0.79412100  1
  Sn  Sn16  1  0.37363700  0.25000000  0.17209500  1
  Sn  Sn17  1  0.62636300  0.75000000  0.82790500  1
  Sn  Sn18  1  0.12636300  0.75000000  0.67209500  1
  Sn  Sn19  1  0.87363700  0.25000000  0.32790500  1
  O  O20  1  0.09726100  0.25000000  0.57978700  1
  O  O21  1  0.90273900  0.75000000  0.42021300  1
  O  O22  1  0.40273900  0.75000000  0.07978700  1
  O  O23  1  0.59726100  0.25000000  0.92021300  1
  O  O24  1  0.17733400  0.25000000  0.75938000  1
  O  O25  1  0.82266600  0.75000000  0.24062000  1
  O  O26  1  0.32266600  0.75000000  0.25938000  1
  O  O27  1  0.67733400  0.25000000  0.74062000  1
  O  O28  1  0.17662400  0.25000000  0.29644700  1
  O  O29  1  0.82337600  0.75000000  0.70355300  1
  O  O30  1  0.32337600  0.75000000  0.79644700  1
  O  O31  1  0.67662400  0.25000000  0.20355300  1
  O  O32  1  0.25066400  0.25000000  0.11408400  1
  O  O33  1  0.74933600  0.75000000  0.88591600  1
  O  O34  1  0.24933600  0.75000000  0.61408400  1
  O  O35  1  0.75066400  0.25000000  0.38591600  1
  O  O36  1  0.40249600  0.25000000  0.63082800  1
  O  O37  1  0.59750400  0.75000000  0.36917200  1
  O  O38  1  0.09750400  0.75000000  0.13082800  1
  O  O39  1  0.90249600  0.25000000  0.86917200  1
  O  O40  1  0.47621000  0.25000000  0.24936600  1
  O  O41  1  0.52379000  0.75000000  0.75063400  1
  O  O42  1  0.02379000  0.75000000  0.74936600  1
  O  O43  1  0.97621000  0.25000000  0.25063400  1
  O  O44  1  0.55025200  0.25000000  0.55115200  1
  O  O45  1  0.44974800  0.75000000  0.44884800  1
  O  O46  1  0.94974800  0.75000000  0.05115200  1
  O  O47  1  0.05025200  0.25000000  0.94884800  1
