# generated using pymatgen
data_As2PbO4
_symmetry_space_group_name_H-M   'P 1'
_cell_length_a   11.87904451
_cell_length_b   6.18433058
_cell_length_c   7.09139384
_cell_angle_alpha   67.37627711
_cell_angle_beta   90.00000000
_cell_angle_gamma   90.00000000
_symmetry_Int_Tables_number   1
_chemical_formula_structural   As2PbO4
_chemical_formula_sum   'As8 Pb4 O16'
_cell_volume   480.87424752
_cell_formula_units_Z   4
loop_
 _symmetry_equiv_pos_site_id
 _symmetry_equiv_pos_as_xyz
  1  'x, y, z'
loop_
 _atom_site_type_symbol
 _atom_site_label
 _atom_site_symmetry_multiplicity
 _atom_site_fract_x
 _atom_site_fract_y
 _atom_site_fract_z
 _atom_site_occupancy
  As  As0  1  0.91864654  0.29042694  0.28649717  1
  As  As1  1  0.41864654  0.20957306  0.71350283  1
  As  As2  1  0.08135346  0.70957306  0.71350283  1
  As  As3  1  0.58135346  0.79042694  0.28649717  1
  As  As4  1  0.85662401  0.49198972  0.62114506  1
  As  As5  1  0.35662401  0.00801028  0.37885494  1
  As  As6  1  0.14337599  0.50801028  0.37885494  1
  As  As7  1  0.64337599  0.99198972  0.62114506  1
  Pb  Pb8  1  0.65244801  0.40466565  0.01269698  1
  Pb  Pb9  1  0.15244801  0.09533435  0.98730302  1
  Pb  Pb10  1  0.34755199  0.59533435  0.98730302  1
  Pb  Pb11  1  0.84755199  0.90466565  0.01269698  1
  O  O12  1  0.91216926  0.25614096  0.55079744  1
  O  O13  1  0.41216926  0.24385904  0.44920256  1
  O  O14  1  0.08783074  0.74385904  0.44920256  1
  O  O15  1  0.58783074  0.75614096  0.55079744  1
  O  O16  1  0.97383453  0.48129544  0.79127027  1
  O  O17  1  0.47383453  0.01870456  0.20872973  1
  O  O18  1  0.02616547  0.51870456  0.20872973  1
  O  O19  1  0.52616547  0.98129544  0.79127027  1
  O  O20  1  0.80391607  0.47658944  0.18699112  1
  O  O21  1  0.30391607  0.02341056  0.81300888  1
  O  O22  1  0.19608393  0.52341056  0.81300888  1
  O  O23  1  0.69608393  0.97658944  0.18699112  1
  O  O24  1  0.72917467  0.79982016  0.81200547  1
  O  O25  1  0.22917467  0.70017984  0.18799453  1
  O  O26  1  0.27082533  0.20017984  0.18799453  1
  O  O27  1  0.77082533  0.29982016  0.81200547  1
