# generated using pymatgen
data_Rb2GaSb2
_symmetry_space_group_name_H-M   'P 1'
_cell_length_a   9.38755494
_cell_length_b   10.86776245
_cell_length_c   15.50125679
_cell_angle_alpha   90.00000000
_cell_angle_beta   90.00000000
_cell_angle_gamma   90.00000000
_symmetry_Int_Tables_number   1
_chemical_formula_structural   Rb2GaSb2
_chemical_formula_sum   'Rb16 Ga8 Sb16'
_cell_volume   1581.46483452
_cell_formula_units_Z   8
loop_
 _symmetry_equiv_pos_site_id
 _symmetry_equiv_pos_as_xyz
  1  'x, y, z'
loop_
 _atom_site_type_symbol
 _atom_site_label
 _atom_site_symmetry_multiplicity
 _atom_site_fract_x
 _atom_site_fract_y
 _atom_site_fract_z
 _atom_site_occupancy
  Rb  Rb0  1  0.22526496  0.96757784  0.48247443  1
  Rb  Rb1  1  0.39589808  0.96541970  0.72975176  1
  Rb  Rb2  1  0.10410192  0.53458030  0.22975176  1
  Rb  Rb3  1  0.89589808  0.03458030  0.77024824  1
  Rb  Rb4  1  0.10410192  0.96541970  0.22975176  1
  Rb  Rb5  1  0.60410192  0.03458030  0.27024824  1
  Rb  Rb6  1  0.89589808  0.46541970  0.77024824  1
  Rb  Rb7  1  0.39589808  0.53458030  0.72975176  1
  Rb  Rb8  1  0.72526496  0.03242216  0.01752557  1
  Rb  Rb9  1  0.77473504  0.46757784  0.51752557  1
  Rb  Rb10  1  0.27473504  0.53242216  0.98247443  1
  Rb  Rb11  1  0.77473504  0.03242216  0.51752557  1
  Rb  Rb12  1  0.72526496  0.46757784  0.01752557  1
  Rb  Rb13  1  0.22526496  0.53242216  0.48247443  1
  Rb  Rb14  1  0.60410192  0.46541970  0.27024824  1
  Rb  Rb15  1  0.27473504  0.96757784  0.98247443  1
  Ga  Ga16  1  0.72372887  0.75000000  0.68027758  1
  Ga  Ga17  1  0.22372887  0.25000000  0.81972242  1
  Ga  Ga18  1  0.77627113  0.75000000  0.18027758  1
  Ga  Ga19  1  0.89992430  0.75000000  0.90647445  1
  Ga  Ga20  1  0.39992430  0.25000000  0.59352555  1
  Ga  Ga21  1  0.10007570  0.25000000  0.09352555  1
  Ga  Ga22  1  0.60007570  0.75000000  0.40647445  1
  Ga  Ga23  1  0.27627113  0.25000000  0.31972242  1
  Sb  Sb24  1  0.11711142  0.75000000  0.80446820  1
  Sb  Sb25  1  0.61711142  0.25000000  0.69553180  1
  Sb  Sb26  1  0.88288858  0.25000000  0.19553180  1
  Sb  Sb27  1  0.38288858  0.75000000  0.30446820  1
  Sb  Sb28  1  0.99095798  0.75000000  0.63705993  1
  Sb  Sb29  1  0.49095798  0.25000000  0.86294007  1
  Sb  Sb30  1  0.00904202  0.25000000  0.36294007  1
  Sb  Sb31  1  0.50904202  0.75000000  0.13705993  1
  Sb  Sb32  1  0.64520781  0.75000000  0.84435967  1
  Sb  Sb33  1  0.14520781  0.25000000  0.65564033  1
  Sb  Sb34  1  0.35479219  0.25000000  0.15564033  1
  Sb  Sb35  1  0.85479219  0.75000000  0.34435967  1
  Sb  Sb36  1  0.98263759  0.75000000  0.06592800  1
  Sb  Sb37  1  0.48263759  0.25000000  0.43407200  1
  Sb  Sb38  1  0.01736241  0.25000000  0.93407200  1
  Sb  Sb39  1  0.51736241  0.75000000  0.56592800  1
