# generated using pymatgen
data_NaZrZnP(SO6)2
_symmetry_space_group_name_H-M   'P 1'
_cell_length_a   8.84473088
_cell_length_b   8.82732485
_cell_length_c   23.07586217
_cell_angle_alpha   90.19685123
_cell_angle_beta   90.00000000
_cell_angle_gamma   120.06524924
_symmetry_Int_Tables_number   1
_chemical_formula_structural   NaZrZnP(SO6)2
_chemical_formula_sum   'Na6 Zr6 Zn6 P6 S12 O72'
_cell_volume   1559.23995985
_cell_formula_units_Z   6
loop_
 _symmetry_equiv_pos_site_id
 _symmetry_equiv_pos_as_xyz
  1  'x, y, z'
loop_
 _atom_site_type_symbol
 _atom_site_label
 _atom_site_symmetry_multiplicity
 _atom_site_fract_x
 _atom_site_fract_y
 _atom_site_fract_z
 _atom_site_occupancy
  Na  Na0  1  0.98608916  0.98984865  0.50682240  1
  Na  Na1  1  0.00375950  0.98984865  0.00682240  1
  Na  Na2  1  0.65929690  0.31835966  0.84042033  1
  Na  Na3  1  0.65906376  0.31835966  0.34042033  1
  Na  Na4  1  0.32572398  0.67255291  0.17376953  1
  Na  Na5  1  0.34682794  0.67255291  0.67376953  1
  Zr  Zr6  1  0.00263332  0.00070259  0.35314182  1
  Zr  Zr7  1  0.99806927  0.00070259  0.85314182  1
  Zr  Zr8  1  0.66618326  0.33296913  0.68656108  1
  Zr  Zr9  1  0.66678687  0.33296913  0.18656108  1
  Zr  Zr10  1  0.32438317  0.67332861  0.01988215  1
  Zr  Zr11  1  0.34894444  0.67332861  0.51988215  1
  Zn  Zn12  1  0.97838016  0.98566329  0.64911443  1
  Zn  Zn13  1  0.00728313  0.98566329  0.14911443  1
  Zn  Zn14  1  0.66412712  0.33270552  0.98314635  1
  Zn  Zn15  1  0.66857940  0.33270552  0.48314635  1
  Zn  Zn16  1  0.34018395  0.68986354  0.31658878  1
  Zn  Zn17  1  0.34967859  0.68986354  0.81658878  1
  P  P18  1  0.29014054  0.99315350  0.24823241  1
  P  P19  1  0.70301296  0.99315350  0.74823241  1
  P  P20  1  0.67613629  0.62583660  0.58062873  1
  P  P21  1  0.94970131  0.62583660  0.08062873  1
  P  P22  1  0.34241525  0.96957857  0.91517679  1
  P  P23  1  0.62716232  0.96957857  0.41517679  1
  S  S24  1  0.70345130  0.71011900  0.24844713  1
  S  S25  1  0.00700436  0.29435655  0.24817656  1
  S  S26  1  0.28735218  0.29435655  0.74817656  1
  S  S27  1  0.00666770  0.71011900  0.74844713  1
  S  S28  1  0.95958575  0.32984571  0.58185549  1
  S  S29  1  0.36808033  0.04315685  0.58227698  1
  S  S30  1  0.67507752  0.04315685  0.08227698  1
  S  S31  1  0.37026096  0.32984571  0.08185549  1
  S  S32  1  0.62079667  0.66019816  0.91560617  1
  S  S33  1  0.04104769  0.37971472  0.91412935  1
  S  S34  1  0.33866602  0.37971472  0.41412935  1
  S  S35  1  0.03940049  0.66019816  0.41560617  1
  O  O36  1  0.20306790  0.02242577  0.30360730  1
  O  O37  1  0.81330215  0.79231497  0.30177867  1
  O  O38  1  0.97580999  0.18367714  0.30165717  1
  O  O39  1  0.20786715  0.18367714  0.80165717  1
  O  O40  1  0.97901282  0.79231497  0.80177867  1
  O  O41  1  0.81935786  0.02242577  0.80360730  1
  O  O42  1  0.78902027  0.97402848  0.69442150  1
  O  O43  1  0.18653203  0.20887387  0.69638740  1
  O  O44  1  0.03029695  0.81403989  0.69696183  1
  O  O45  1  0.78374294  0.81403989  0.19696183  1
  O  O46  1  0.02234184  0.20887387  0.19638740  1
  O  O47  1  0.18500821  0.97402848  0.19442150  1
  O  O48  1  0.87545281  0.35579306  0.63523484  1
  O  O49  1  0.48096234  0.12292602  0.63541471  1
  O  O50  1  0.64679098  0.51204093  0.63627068  1
  O  O51  1  0.86525096  0.51204093  0.13627068  1
  O  O52  1  0.64196467  0.12292602  0.13541471  1
  O  O53  1  0.48034126  0.35579306  0.13523484  1
  O  O54  1  0.45032756  0.30498684  0.03024741  1
  O  O55  1  0.84495365  0.53582944  0.02686033  1
  O  O56  1  0.69291278  0.14340082  0.03042608  1
  O  O57  1  0.45048904  0.14340082  0.53042608  1
  O  O58  1  0.69087679  0.53582944  0.52686033  1
  O  O59  1  0.85466028  0.30498684  0.53024741  1
  O  O60  1  0.53943802  0.68781518  0.96863908  1
  O  O61  1  0.14933218  0.45908912  0.96812531  1
  O  O62  1  0.30991595  0.85016221  0.97033200  1
  O  O63  1  0.54024526  0.85016221  0.47033200  1
  O  O64  1  0.30975594  0.45908912  0.46812531  1
  O  O65  1  0.14837616  0.68781518  0.46863908  1
  O  O66  1  0.11926013  0.63797428  0.36351684  1
  O  O67  1  0.51973289  0.88320578  0.36168758  1
  O  O68  1  0.35404401  0.48113782  0.36284541  1
  O  O69  1  0.12709281  0.48113782  0.86284541  1
  O  O70  1  0.36347189  0.88320578  0.86168758  1
  O  O71  1  0.51871315  0.63797428  0.86351684  1
  O  O72  1  0.02677935  0.82577024  0.41153293  1
  O  O73  1  0.81033164  0.98089660  0.41040956  1
  O  O74  1  0.17474568  0.20078851  0.41128926  1
  O  O75  1  0.02604284  0.20078851  0.91128926  1
  O  O76  1  0.17056495  0.98089660  0.91040956  1
  O  O77  1  0.79899089  0.82577024  0.91153293  1
  O  O78  1  0.98689367  0.18039003  0.58913452  1
  O  O79  1  0.19516032  0.02299074  0.59068325  1
  O  O80  1  0.83396573  0.80955129  0.58709499  1
  O  O81  1  0.97558556  0.80955129  0.08709499  1
  O  O82  1  0.82783042  0.02299074  0.09068325  1
  O  O83  1  0.19349636  0.18039003  0.08913452  1
  O  O84  1  0.68923468  0.16455010  0.74408195  1
  O  O85  1  0.46647945  0.30974009  0.74480456  1
  O  O86  1  0.84057055  0.53383625  0.74462563  1
  O  O87  1  0.69326671  0.53383625  0.24462563  1
  O  O88  1  0.84326164  0.30974009  0.24480456  1
  O  O89  1  0.47531642  0.16455010  0.24408195  1
  O  O90  1  0.64746389  0.51020349  0.92187205  1
  O  O91  1  0.86595061  0.35614552  0.92099853  1
  O  O92  1  0.50102389  0.15134117  0.92459469  1
  O  O93  1  0.65031828  0.15134117  0.42459469  1
  O  O94  1  0.49019591  0.35614552  0.42099853  1
  O  O95  1  0.86274059  0.51020349  0.42187205  1
  O  O96  1  0.36182156  0.49559218  0.07765918  1
  O  O97  1  0.13642757  0.63994072  0.07734735  1
  O  O98  1  0.51231342  0.86371461  0.07848265  1
  O  O99  1  0.35140019  0.86371461  0.57848265  1
  O  O100  1  0.50351215  0.63994072  0.57734735  1
  O  O101  1  0.13376962  0.49559218  0.57765918  1
  O  O102  1  0.31287123  0.83319338  0.25480903  1
  O  O103  1  0.52658010  0.68118331  0.25587310  1
  O  O104  1  0.15933832  0.46849661  0.25631614  1
  O  O105  1  0.30915729  0.46849661  0.75631614  1
  O  O106  1  0.15460221  0.68118331  0.75587310  1
  O  O107  1  0.52032115  0.83319338  0.75480903  1
