# generated using pymatgen
data_Er(IO3)3
_symmetry_space_group_name_H-M   'P 1'
_cell_length_a   5.99920641
_cell_length_b   8.64294459
_cell_length_c   16.34202313
_cell_angle_alpha   65.37536067
_cell_angle_beta   90.00000000
_cell_angle_gamma   90.00000000
_symmetry_Int_Tables_number   1
_chemical_formula_structural   Er(IO3)3
_chemical_formula_sum   'Er4 I12 O36'
_cell_volume   770.28683223
_cell_formula_units_Z   4
loop_
 _symmetry_equiv_pos_site_id
 _symmetry_equiv_pos_as_xyz
  1  'x, y, z'
loop_
 _atom_site_type_symbol
 _atom_site_label
 _atom_site_symmetry_multiplicity
 _atom_site_fract_x
 _atom_site_fract_y
 _atom_site_fract_z
 _atom_site_occupancy
  Er  Er0  1  0.28713027  0.35289425  0.10456532  1
  Er  Er1  1  0.78713027  0.64710575  0.39543468  1
  Er  Er2  1  0.71286973  0.64710575  0.89543468  1
  Er  Er3  1  0.21286973  0.35289425  0.60456532  1
  I  I4  1  0.81184318  0.57661330  0.14301469  1
  I  I5  1  0.31184318  0.42338670  0.35698531  1
  I  I6  1  0.18815682  0.42338670  0.85698531  1
  I  I7  1  0.68815682  0.57661330  0.64301469  1
  I  I8  1  0.59948462  0.08214815  0.30030027  1
  I  I9  1  0.09948462  0.91785185  0.19969973  1
  I  I10  1  0.40051538  0.91785185  0.69969973  1
  I  I11  1  0.90051538  0.08214815  0.80030027  1
  I  I12  1  0.65194276  0.14436637  0.02088973  1
  I  I13  1  0.15194276  0.85563363  0.47911027  1
  I  I14  1  0.34805724  0.85563363  0.97911027  1
  I  I15  1  0.84805724  0.14436637  0.52088973  1
  O  O16  1  0.60549395  0.40644524  0.16950108  1
  O  O17  1  0.10549395  0.59355476  0.33049892  1
  O  O18  1  0.39450605  0.59355476  0.83049892  1
  O  O19  1  0.89450605  0.40644524  0.66950108  1
  O  O20  1  0.86931180  0.62186191  0.02717004  1
  O  O21  1  0.36931180  0.37813809  0.47282996  1
  O  O22  1  0.13068820  0.37813809  0.97282996  1
  O  O23  1  0.63068820  0.62186191  0.52717004  1
  O  O24  1  0.05672034  0.44257381  0.18624521  1
  O  O25  1  0.55672034  0.55742619  0.31375479  1
  O  O26  1  0.94327966  0.55742619  0.81375479  1
  O  O27  1  0.44327966  0.44257381  0.68624521  1
  O  O28  1  0.51304941  0.86193588  0.36304139  1
  O  O29  1  0.01304941  0.13806412  0.13695861  1
  O  O30  1  0.48695059  0.13806412  0.63695861  1
  O  O31  1  0.98695059  0.86193588  0.86304139  1
  O  O32  1  0.02584812  0.10971895  0.61766616  1
  O  O33  1  0.52584812  0.89028105  0.88233384  1
  O  O34  1  0.97415188  0.89028105  0.38233384  1
  O  O35  1  0.47415188  0.10971895  0.11766616  1
  O  O36  1  0.13034861  0.62554452  0.51368201  1
  O  O37  1  0.63034861  0.37445548  0.98631799  1
  O  O38  1  0.86965139  0.37445548  0.48631799  1
  O  O39  1  0.36965139  0.62554452  0.01368201  1
  O  O40  1  0.06527904  0.14717002  0.44061379  1
  O  O41  1  0.56527904  0.85282998  0.05938621  1
  O  O42  1  0.93472096  0.85282998  0.55938621  1
  O  O43  1  0.43472096  0.14717002  0.94061379  1
  O  O44  1  0.17649141  0.15756836  0.75648031  1
  O  O45  1  0.67649141  0.84243164  0.74351969  1
  O  O46  1  0.82350859  0.84243164  0.24351969  1
  O  O47  1  0.32350859  0.15756836  0.25648031  1
  O  O48  1  0.91275188  0.15688027  0.88910434  1
  O  O49  1  0.41275188  0.84311973  0.61089566  1
  O  O50  1  0.08724812  0.84311973  0.11089566  1
  O  O51  1  0.58724812  0.15688027  0.38910434  1
