# generated using pymatgen
data_CsIn5S8
_symmetry_space_group_name_H-M   'P 1'
_cell_length_a   3.89159915
_cell_length_b   9.37126251
_cell_length_c   9.79372279
_cell_angle_alpha   101.89117951
_cell_angle_beta   101.45967654
_cell_angle_gamma   89.99999845
_symmetry_Int_Tables_number   1
_chemical_formula_structural   CsIn5S8
_chemical_formula_sum   'Cs1 In5 S8'
_cell_volume   342.22493365
_cell_formula_units_Z   1
loop_
 _symmetry_equiv_pos_site_id
 _symmetry_equiv_pos_as_xyz
  1  'x, y, z'
loop_
 _atom_site_type_symbol
 _atom_site_label
 _atom_site_symmetry_multiplicity
 _atom_site_fract_x
 _atom_site_fract_y
 _atom_site_fract_z
 _atom_site_occupancy
  Cs  Cs0  1  0.50000000  0.50000000  -0.00000000  1
  In  In1  1  -0.00000000  0.00000000  -0.00000000  1
  In  In2  1  0.34909297  0.06633399  0.69818594  1
  In  In3  1  0.65090703  0.93366601  0.30181406  1
  In  In4  1  0.29035672  0.65986265  0.58071144  1
  In  In5  1  0.70964328  0.34013735  0.41928856  1
  S  S6  1  0.83296617  0.51620961  0.66593234  1
  S  S7  1  0.92110927  0.19447552  0.84221755  1
  S  S8  1  0.07889073  0.80552448  0.15778245  1
  S  S9  1  0.58154620  0.13770808  0.16309440  1
  S  S10  1  0.41845380  0.86229192  0.83690560  1
  S  S11  1  0.76450274  0.84759781  0.52900648  1
  S  S12  1  0.23549726  0.15240219  0.47099352  1
  S  S13  1  0.16703383  0.48379039  0.33406766  1
