# generated using pymatgen
data_Na3Mg2Zr2P3(SO8)3
_symmetry_space_group_name_H-M   'P 1'
_cell_length_a   8.85905522
_cell_length_b   8.84034332
_cell_length_c   23.00347884
_cell_angle_alpha   90.05173387
_cell_angle_beta   89.90360708
_cell_angle_gamma   119.89325242
_symmetry_Int_Tables_number   1
_chemical_formula_structural   Na3Mg2Zr2P3(SO8)3
_chemical_formula_sum   'Na9 Mg6 Zr6 P9 S9 O72'
_cell_volume   1561.87482431
_cell_formula_units_Z   3
loop_
 _symmetry_equiv_pos_site_id
 _symmetry_equiv_pos_as_xyz
  1  'x, y, z'
loop_
 _atom_site_type_symbol
 _atom_site_label
 _atom_site_symmetry_multiplicity
 _atom_site_fract_x
 _atom_site_fract_y
 _atom_site_fract_z
 _atom_site_occupancy
  Na  Na0  1  0.66294534  0.68884879  0.08179082  1
  Na  Na1  1  0.33302541  0.29923237  0.91751929  1
  Na  Na2  1  0.33293273  0.03341647  0.41758698  1
  Na  Na3  1  0.99563740  0.00017019  0.49883155  1
  Na  Na4  1  0.00319489  0.99784732  0.99862444  1
  Na  Na5  1  0.67634764  0.33445312  0.83356118  1
  Na  Na6  1  0.67552681  0.34058860  0.33315969  1
  Na  Na7  1  0.31955457  0.66021743  0.16313805  1
  Na  Na8  1  0.33432809  0.67269919  0.66260881  1
  Mg  Mg9  1  0.99360543  0.99954430  0.34780126  1
  Mg  Mg10  1  0.99341203  0.99444169  0.84759753  1
  Mg  Mg11  1  0.67220101  0.33782325  0.98510536  1
  Mg  Mg12  1  0.66694574  0.33423343  0.48465878  1
  Mg  Mg13  1  0.31908809  0.66069271  0.01988535  1
  Mg  Mg14  1  0.33446179  0.67165681  0.51969023  1
  Zr  Zr15  1  0.00654501  -0.00001134  0.64837782  1
  Zr  Zr16  1  0.01298754  0.00557990  0.14907249  1
  Zr  Zr17  1  0.65955278  0.32407880  0.68691157  1
  Zr  Zr18  1  0.67000856  0.34150411  0.18673801  1
  Zr  Zr19  1  0.33264281  0.66313978  0.31141241  1
  Zr  Zr20  1  0.33274889  0.67013911  0.81109062  1
  P  P21  1  0.29264575  0.00286812  0.25406773  1
  P  P22  1  0.71383223  0.71402590  0.25135961  1
  P  P23  1  0.99665081  0.28628246  0.25239857  1
  P  P24  1  0.28851188  0.28793289  0.75338072  1
  P  P25  1  0.99567614  0.70888532  0.75208431  1
  P  P26  1  0.71511763  0.00091004  0.75175164  1
  P  P27  1  0.37582185  0.03721952  0.57920320  1
  P  P28  1  0.96149946  0.62360270  0.08074532  1
  P  P29  1  0.37601644  0.33626942  0.07917138  1
  S  S30  1  0.96003979  0.33694319  0.58101256  1
  S  S31  1  0.66301624  0.62279332  0.58113788  1
  S  S32  1  0.66357645  0.04045228  0.08115822  1
  S  S33  1  0.62896397  0.66956554  0.91869017  1
  S  S34  1  0.03807746  0.37237282  0.91793768  1
  S  S35  1  0.33381985  0.96078430  0.91860358  1
  S  S36  1  0.62887486  0.95935384  0.41843693  1
  S  S37  1  0.33311376  0.37352578  0.41890328  1
  S  S38  1  0.03809867  0.66480170  0.41848629  1
  O  O39  1  0.21396423  0.02911178  0.30889727  1
  O  O40  1  0.82252877  0.79397965  0.30461333  1
  O  O41  1  0.97117170  0.18002153  0.30607879  1
  O  O42  1  0.21346775  0.18421650  0.80861521  1
  O  O43  1  0.96943659  0.78961630  0.80583169  1
  O  O44  1  0.82111668  0.03013590  0.80577862  1
  O  O45  1  0.79378889  0.97192640  0.69562945  1
  O  O46  1  0.17790414  0.20625067  0.69791077  1
  O  O47  1  0.02796530  0.82023614  0.69622974  1
  O  O48  1  0.78810770  0.81715810  0.19370575  1
  O  O49  1  0.02752008  0.20749055  0.19626541  1
  O  O50  1  0.18021341  0.97146382  0.19848465  1
  O  O51  1  0.87867051  0.36080098  0.63483587  1
  O  O52  1  0.48798313  0.13131022  0.63447154  1
  O  O53  1  0.64265744  0.51928647  0.63493784  1
  O  O54  1  0.87308510  0.51326587  0.13659122  1
  O  O55  1  0.63993199  0.11998699  0.13486100  1
  O  O56  1  0.49040963  0.36054981  0.13420288  1
  O  O57  1  0.45323791  0.30338331  0.02457743  1
  O  O58  1  0.84178872  0.54375848  0.02880175  1
  O  O59  1  0.69273232  0.14857875  0.03008223  1
  O  O60  1  0.45442466  0.14900972  0.52503220  1
  O  O61  1  0.69425202  0.54402012  0.53005488  1
  O  O62  1  0.85128441  0.30891856  0.53000214  1
  O  O63  1  0.54570027  0.69232459  0.97121088  1
  O  O64  1  0.15234507  0.45615895  0.96853172  1
  O  O65  1  0.31050642  0.85123713  0.96940722  1
  O  O66  1  0.54284947  0.85005662  0.46953625  1
  O  O67  1  0.30958340  0.45980637  0.46978649  1
  O  O68  1  0.15228993  0.69444849  0.46901728  1
  O  O69  1  0.12284457  0.64049422  0.36488600  1
  O  O70  1  0.51438833  0.87600943  0.36546278  1
  O  O71  1  0.35714252  0.48170552  0.36542069  1
  O  O72  1  0.12356232  0.48221922  0.86463413  1
  O  O73  1  0.35707409  0.87587252  0.86509620  1
  O  O74  1  0.51303962  0.64040887  0.86642981  1
  O  O75  1  0.02735746  0.82703497  0.41110159  1
  O  O76  1  0.80166300  0.97769825  0.41066479  1
  O  O77  1  0.17839016  0.19636568  0.41190668  1
  O  O78  1  0.02783082  0.19959199  0.91068443  1
  O  O79  1  0.17842489  0.98252795  0.91172211  1
  O  O80  1  0.80166457  0.82409592  0.91076578  1
  O  O81  1  0.97480267  0.17564227  0.58855338  1
  O  O82  1  0.19283165  0.02250961  0.58915010  1
  O  O83  1  0.82155250  0.80055131  0.58849922  1
  O  O84  1  0.96942262  0.80508101  0.08989389  1
  O  O85  1  0.82114842  0.01778296  0.08814914  1
  O  O86  1  0.19200303  0.17366946  0.08842787  1
  O  O87  1  0.68928621  0.16151302  0.74323119  1
  O  O88  1  0.47320827  0.31309817  0.74339369  1
  O  O89  1  0.83761788  0.52506659  0.74180503  1
  O  O90  1  0.68727413  0.52711392  0.24416113  1
  O  O91  1  0.83703728  0.31065737  0.24338675  1
  O  O92  1  0.47501405  0.16139867  0.24327153  1
  O  O93  1  0.63775271  0.50525978  0.92199729  1
  O  O94  1  0.86502682  0.35507212  0.92340486  1
  O  O95  1  0.49116382  0.13750877  0.92238629  1
  O  O96  1  0.63898949  0.13313227  0.42292968  1
  O  O97  1  0.49080008  0.35400010  0.42259487  1
  O  O98  1  0.86492114  0.50877682  0.42405445  1
  O  O99  1  0.36597045  0.50517283  0.07593484  1
  O  O100  1  0.14350539  0.64825878  0.07678441  1
  O  O101  1  0.51127885  0.86226887  0.07561656  1
  O  O102  1  0.35481807  0.85519300  0.57670068  1
  O  O103  1  0.50706612  0.64084671  0.57594297  1
  O  O104  1  0.13553668  0.49028003  0.57581037  1
  O  O105  1  0.31105935  0.83683704  0.25792077  1
  O  O106  1  0.52738929  0.69000044  0.25722570  1
  O  O107  1  0.16117926  0.47216427  0.25713530  1
  O  O108  1  0.31092220  0.47388316  0.75766550  1
  O  O109  1  0.16121563  0.68918148  0.75691899  1
  O  O110  1  0.52819316  0.83862766  0.75727276  1
