# generated using pymatgen
data_Na8Zn2In2Si3(SO8)3
_symmetry_space_group_name_H-M   'P 1'
_cell_length_a   9.28852102
_cell_length_b   9.27683400
_cell_length_c   22.31601581
_cell_angle_alpha   90.82214713
_cell_angle_beta   89.10818783
_cell_angle_gamma   120.35353805
_symmetry_Int_Tables_number   1
_chemical_formula_structural   Na8Zn2In2Si3(SO8)3
_chemical_formula_sum   'Na24 Zn6 In6 Si9 S9 O72'
_cell_volume   1659.09233662
_cell_formula_units_Z   3
loop_
 _symmetry_equiv_pos_site_id
 _symmetry_equiv_pos_as_xyz
  1  'x, y, z'
loop_
 _atom_site_type_symbol
 _atom_site_label
 _atom_site_symmetry_multiplicity
 _atom_site_fract_x
 _atom_site_fract_y
 _atom_site_fract_z
 _atom_site_occupancy
  Na  Na0  1  0.63854645  0.02002034  0.26222733  1
  Na  Na1  1  0.35431926  0.34589478  0.25338371  1
  Na  Na2  1  0.00308579  0.62924170  0.24220110  1
  Na  Na3  1  0.62672134  0.62895972  0.72982646  1
  Na  Na4  1  0.99167180  0.35070609  0.73300852  1
  Na  Na5  1  0.39190322  0.02627483  0.75007353  1
  Na  Na6  1  0.30596848  0.35170161  0.59431743  1
  Na  Na7  1  0.02155084  0.67911184  0.58504075  1
  Na  Na8  1  0.67104113  0.95921859  0.58039169  1
  Na  Na9  1  0.28576545  0.94643126  0.08432530  1
  Na  Na10  1  0.67115573  0.69359229  0.07972498  1
  Na  Na11  1  0.03237041  0.34742386  0.09625835  1
  Na  Na12  1  0.97890048  0.69265342  0.91649589  1
  Na  Na13  1  0.68702046  0.02524368  0.89930539  1
  Na  Na14  1  0.32298785  0.27714335  0.90386564  1
  Na  Na15  1  0.95358068  0.27714627  0.41808884  1
  Na  Na16  1  0.33544480  0.02834833  0.40674131  1
  Na  Na17  1  0.70157432  0.68552519  0.43121434  1
  Na  Na18  1  0.97508444  0.99942100  0.50200122  1
  Na  Na19  1  0.01021241  0.98649673  0.99517604  1
  Na  Na20  1  0.64837855  0.32037366  0.82172546  1
  Na  Na21  1  0.66683423  0.31123329  0.33137109  1
  Na  Na22  1  0.30968782  0.66735314  0.16934963  1
  Na  Na23  1  0.34319622  0.65810467  0.66323553  1
  Zn  Zn24  1  0.00203283  0.01504257  0.34396342  1
  Zn  Zn25  1  0.01069522  0.01951349  0.83233886  1
  Zn  Zn26  1  0.67630452  0.33848052  0.67991506  1
  Zn  Zn27  1  0.68151663  0.32718721  0.18908961  1
  Zn  Zn28  1  0.29966750  0.67672949  0.01399948  1
  Zn  Zn29  1  0.35696468  0.66524988  0.52244885  1
  In  In30  1  0.99437334  0.00943811  0.65028797  1
  In  In31  1  0.01118763  0.00024456  0.15639992  1
  In  In32  1  0.66609770  0.33236571  0.98617941  1
  In  In33  1  0.67608760  0.32926929  0.48999551  1
  In  In34  1  0.33264592  0.67548779  0.31736064  1
  In  In35  1  0.34243198  0.67654896  0.81587744  1
  Si  Si36  1  0.30447411  0.00321628  0.24994406  1
  Si  Si37  1  0.00265199  0.30225819  0.25140850  1
  Si  Si38  1  0.30737622  0.30424560  0.75126898  1
  Si  Si39  1  0.70077867  0.00003986  0.75211769  1
  Si  Si40  1  0.97808068  0.34062190  0.58194597  1
  Si  Si41  1  0.67271828  0.63106254  0.58436535  1
  Si  Si42  1  0.95786987  0.62941358  0.08535059  1
  Si  Si43  1  0.33283492  0.97244023  0.92088212  1
  Si  Si44  1  0.63355070  0.96499496  0.41839007  1
  S  S45  1  0.69934092  0.69969071  0.25004125  1
  S  S46  1  0.00021107  0.70465000  0.75376303  1
  S  S47  1  0.36439043  0.03228142  0.58420227  1
  S  S48  1  0.66714212  0.02802485  0.08340307  1
  S  S49  1  0.36338600  0.33616621  0.08335181  1
  S  S50  1  0.62497581  0.66147521  0.92222810  1
  S  S51  1  0.03652799  0.36847549  0.92066604  1
  S  S52  1  0.33495373  0.36751557  0.41615436  1
  S  S53  1  0.02792430  0.66478794  0.41640676  1
  O  O54  1  0.20707773  0.02500013  0.30800425  1
  O  O55  1  0.80390425  0.78607743  0.30214026  1
  O  O56  1  0.96669444  0.18323514  0.30862589  1
  O  O57  1  0.22866888  0.18966364  0.81124519  1
  O  O58  1  0.98736942  0.78803589  0.80962913  1
  O  O59  1  0.80650788  0.01284947  0.81271502  1
  O  O60  1  0.77755919  0.95411959  0.69334894  1
  O  O61  1  0.18955715  0.21477698  0.69267888  1
  O  O62  1  0.02579661  0.80700436  0.69972805  1
  O  O63  1  0.77160797  0.79945767  0.19335900  1
  O  O64  1  0.02771773  0.21890985  0.18806930  1
  O  O65  1  0.19429356  0.96114282  0.18772247  1
  O  O66  1  0.88483400  0.36502589  0.64055273  1
  O  O67  1  0.46849531  0.11677070  0.63660576  1
  O  O68  1  0.64388281  0.51028873  0.64039637  1
  O  O69  1  0.86059750  0.50991673  0.14191126  1
  O  O70  1  0.64122320  0.10932192  0.13636609  1
  O  O71  1  0.45987261  0.34800976  0.13675239  1
  O  O72  1  0.44132415  0.31081915  0.02742569  1
  O  O73  1  0.85034032  0.55256361  0.02225373  1
  O  O74  1  0.69014114  0.12754596  0.02764355  1
  O  O75  1  0.43565170  0.13272959  0.52779991  1
  O  O76  1  0.68906657  0.54591663  0.52030813  1
  O  O77  1  0.86370612  0.29655002  0.52099567  1
  O  O78  1  0.53564742  0.66783020  0.97695815  1
  O  O79  1  0.13521846  0.44888957  0.97581464  1
  O  O80  1  0.31083613  0.87215959  0.98330302  1
  O  O81  1  0.53874329  0.84638781  0.47580541  1
  O  O82  1  0.31736491  0.45363076  0.46916470  1
  O  O83  1  0.12682482  0.67636799  0.46915011  1
  O  O84  1  0.10366234  0.63968494  0.35972492  1
  O  O85  1  0.52371269  0.88731373  0.35617988  1
  O  O86  1  0.35175784  0.46278436  0.35982613  1
  O  O87  1  0.12126733  0.47127440  0.86660014  1
  O  O88  1  0.36793194  0.88173455  0.86311894  1
  O  O89  1  0.52578176  0.64008557  0.86741215  1
  O  O90  1  0.01686375  0.81897168  0.41309880  1
  O  O91  1  0.82060956  0.98327872  0.41360981  1
  O  O92  1  0.18451636  0.19665281  0.41434672  1
  O  O93  1  0.01209415  0.19955371  0.91685533  1
  O  O94  1  0.16583367  0.98761904  0.91493337  1
  O  O95  1  0.79207846  0.81423350  0.91988569  1
  O  O96  1  0.00674827  0.17864535  0.58412779  1
  O  O97  1  0.19383036  0.01001525  0.58931470  1
  O  O98  1  0.85043411  0.81363685  0.58580478  1
  O  O99  1  0.97670514  0.81897651  0.08717295  1
  O  O100  1  0.82349805  0.01823926  0.08691079  1
  O  O101  1  0.18999662  0.18512095  0.08345370  1
  O  O102  1  0.69277048  0.17216511  0.74759400  1
  O  O103  1  0.49561576  0.33333186  0.74505735  1
  O  O104  1  0.84722083  0.53871382  0.75059290  1
  O  O105  1  0.68126988  0.53212995  0.24509123  1
  O  O106  1  0.84362816  0.33255582  0.24905056  1
  O  O107  1  0.48834954  0.17670071  0.24473190  1
  O  O108  1  0.64622529  0.51018290  0.92093265  1
  O  O109  1  0.86905662  0.35828835  0.92256376  1
  O  O110  1  0.50881891  0.16233718  0.92167080  1
  O  O111  1  0.64491838  0.15228840  0.42050606  1
  O  O112  1  0.48854646  0.35291499  0.41765629  1
  O  O113  1  0.85492782  0.51456203  0.41701218  1
  O  O114  1  0.35245132  0.48997143  0.07937522  1
  O  O115  1  0.14444073  0.64505942  0.08340463  1
  O  O116  1  0.52157806  0.85553977  0.07896255  1
  O  O117  1  0.34669606  0.86452124  0.57856614  1
  O  O118  1  0.51306436  0.66162237  0.58427456  1
  O  O119  1  0.16114842  0.51447117  0.57643807  1
  O  O120  1  0.33089486  0.83987033  0.25199688  1
  O  O121  1  0.52866779  0.67805694  0.25418244  1
  O  O122  1  0.17978124  0.48573058  0.25421505  1
  O  O123  1  0.30910243  0.48515314  0.75631695  1
  O  O124  1  0.14928552  0.68185236  0.75569570  1
  O  O125  1  0.50749785  0.83862364  0.75216616  1
