# generated using pymatgen
data_MgCr2(CoO4)2
_symmetry_space_group_name_H-M   'P 1'
_cell_length_a   5.22803338
_cell_length_b   5.22618775
_cell_length_c   6.23499637
_cell_angle_alpha   93.58366123
_cell_angle_beta   86.30880024
_cell_angle_gamma   115.17828626
_symmetry_Int_Tables_number   1
_chemical_formula_structural   MgCr2(CoO4)2
_chemical_formula_sum   'Mg1 Cr2 Co2 O8'
_cell_volume   153.73477242
_cell_formula_units_Z   1
loop_
 _symmetry_equiv_pos_site_id
 _symmetry_equiv_pos_as_xyz
  1  'x, y, z'
loop_
 _atom_site_type_symbol
 _atom_site_label
 _atom_site_symmetry_multiplicity
 _atom_site_fract_x
 _atom_site_fract_y
 _atom_site_fract_z
 _atom_site_occupancy
  Mg  Mg0  1  0.50017000  0.49983900  0.99988600  1
  Cr  Cr1  1  0.32919500  0.67133300  0.70131000  1
  Cr  Cr2  1  0.67077600  0.32872100  0.29872700  1
  Co  Co3  1  0.99996700  0.00005200  0.00001500  1
  Co  Co4  1  0.99999700  0.99998900  0.49999900  1
  O  O5  1  0.23913300  0.76082800  0.47881200  1
  O  O6  1  0.77020100  0.22917400  0.05887100  1
  O  O7  1  0.76841000  0.70547300  0.24888300  1
  O  O8  1  0.29425800  0.23154500  0.24940100  1
  O  O9  1  0.23158200  0.29455000  0.75114200  1
  O  O10  1  0.70573700  0.76844500  0.75062400  1
  O  O11  1  0.22973900  0.77093100  0.94111900  1
  O  O12  1  0.76083400  0.23912200  0.52121100  1
