# generated using pymatgen
data_Na2La3TaSi2(SO6)4
_symmetry_space_group_name_H-M   'P 1'
_cell_length_a   9.35640994
_cell_length_b   9.36297416
_cell_length_c   24.56680722
_cell_angle_alpha   90.68106292
_cell_angle_beta   89.76111022
_cell_angle_gamma   120.00781183
_symmetry_Int_Tables_number   1
_chemical_formula_structural   Na2La3TaSi2(SO6)4
_chemical_formula_sum   'Na6 La9 Ta3 Si6 S12 O72'
_cell_volume   1863.53102930
_cell_formula_units_Z   3
loop_
 _symmetry_equiv_pos_site_id
 _symmetry_equiv_pos_as_xyz
  1  'x, y, z'
loop_
 _atom_site_type_symbol
 _atom_site_label
 _atom_site_symmetry_multiplicity
 _atom_site_fract_x
 _atom_site_fract_y
 _atom_site_fract_z
 _atom_site_occupancy
  Na  Na0  1  0.00146800  0.97392033  0.49805779  1
  Na  Na1  1  0.99458316  0.95757634  0.99730128  1
  Na  Na2  1  0.64076383  0.32572977  0.83876172  1
  Na  Na3  1  0.70640825  0.34408094  0.32870386  1
  Na  Na4  1  0.29730724  0.65211168  0.15598792  1
  Na  Na5  1  0.32512721  0.64862629  0.67810618  1
  La  La6  1  0.99746514  0.99739555  0.34902915  1
  La  La7  1  0.01538315  0.00112376  0.85406975  1
  La  La8  1  0.01660614  0.02172670  0.66006121  1
  La  La9  1  0.99658444  0.99842136  0.14461594  1
  La  La10  1  0.65507839  0.33587306  0.68978036  1
  La  La11  1  0.68883800  0.34391981  0.18656674  1
  La  La12  1  0.68345104  0.34827763  0.47437506  1
  La  La13  1  0.32923488  0.67450660  0.01759617  1
  La  La14  1  0.32156181  0.66711444  0.51845091  1
  Ta  Ta15  1  0.66481204  0.34570168  0.97801179  1
  Ta  Ta16  1  0.31458665  0.65719390  0.31533681  1
  Ta  Ta17  1  0.34652334  0.66802075  0.82613607  1
  Si  Si18  1  0.00582293  0.30147984  0.25323487  1
  Si  Si19  1  0.30425982  0.32595988  0.75515518  1
  Si  Si20  1  0.95263529  0.62787999  0.07932189  1
  Si  Si21  1  0.62671654  0.65955091  0.92080853  1
  Si  Si22  1  0.35711735  0.97474276  0.91823055  1
  Si  Si23  1  0.03886014  0.66818094  0.41386853  1
  S  S24  1  0.30499759  0.98106638  0.25429079  1
  S  S25  1  0.67377490  0.69574344  0.25422829  1
  S  S26  1  0.02134331  0.69690845  0.75259802  1
  S  S27  1  0.67726904  0.97929287  0.75554410  1
  S  S28  1  0.96221544  0.32554229  0.58424858  1
  S  S29  1  0.36495728  0.03829406  0.58233961  1
  S  S30  1  0.67289762  0.64144832  0.58338538  1
  S  S31  1  0.67472654  0.05458151  0.07800110  1
  S  S32  1  0.38308988  0.32532864  0.07764924  1
  S  S33  1  0.02879805  0.38685530  0.91430379  1
  S  S34  1  0.61314804  0.95154433  0.41193889  1
  S  S35  1  0.34108505  0.38812026  0.41047140  1
  O  O36  1  0.22376598  0.00155648  0.30224799  1
  O  O37  1  0.78238343  0.77213986  0.30145081  1
  O  O38  1  0.99306366  0.19737278  0.30645681  1
  O  O39  1  0.20761682  0.19845809  0.80277824  1
  O  O40  1  0.98586479  0.77132520  0.79951979  1
  O  O41  1  0.78597685  0.00693611  0.80181639  1
  O  O42  1  0.74377657  0.94927197  0.70426079  1
  O  O43  1  0.20130045  0.25378814  0.69707041  1
  O  O44  1  0.04196066  0.79286655  0.70222289  1
  O  O45  1  0.74479117  0.79273882  0.20432055  1
  O  O46  1  0.03559019  0.22307384  0.19750326  1
  O  O47  1  0.20401252  0.94395066  0.20447376  1
  O  O48  1  0.87486997  0.33391907  0.63332051  1
  O  O49  1  0.45696650  0.12611381  0.63224768  1
  O  O50  1  0.66366844  0.54489767  0.63212751  1
  O  O51  1  0.85631698  0.53468971  0.13413548  1
  O  O52  1  0.66287455  0.12934812  0.12975805  1
  O  O53  1  0.47077628  0.32879130  0.12713443  1
  O  O54  1  0.48049242  0.31958077  0.02705470  1
  O  O55  1  0.83254528  0.50620292  0.02460771  1
  O  O56  1  0.67236131  0.15239307  0.03020017  1
  O  O57  1  0.45259521  0.12965299  0.53280667  1
  O  O58  1  0.68056077  0.55383874  0.53308732  1
  O  O59  1  0.87103551  0.32091033  0.53399245  1
  O  O60  1  0.53841497  0.67279285  0.97356021  1
  O  O61  1  0.11916254  0.44837318  0.96479285  1
  O  O62  1  0.32012653  0.86494924  0.97080822  1
  O  O63  1  0.53731909  0.86624105  0.46324726  1
  O  O64  1  0.33556101  0.46645486  0.46208981  1
  O  O65  1  0.13436582  0.67037003  0.46892211  1
  O  O66  1  0.15942726  0.66499028  0.36130640  1
  O  O67  1  0.51316477  0.84995961  0.36402322  1
  O  O68  1  0.34552653  0.49422522  0.36326184  1
  O  O69  1  0.12943640  0.50021620  0.86712869  1
  O  O70  1  0.37064646  0.86085188  0.86451786  1
  O  O71  1  0.49526592  0.63391099  0.86650816  1
  O  O72  1  0.02060870  0.83054026  0.41293648  1
  O  O73  1  0.78103849  0.97538899  0.40995205  1
  O  O74  1  0.19394087  0.22434237  0.40736313  1
  O  O75  1  0.99588159  0.21850377  0.90360365  1
  O  O76  1  0.21105248  0.01487927  0.90836645  1
  O  O77  1  0.80807125  0.80730375  0.90879848  1
  O  O78  1  0.97621754  0.17346227  0.58451962  1
  O  O79  1  0.19637578  0.01920782  0.58365548  1
  O  O80  1  0.82402240  0.80758977  0.58554164  1
  O  O81  1  0.96294025  0.80865884  0.07735888  1
  O  O82  1  0.83191648  0.05016034  0.07672712  1
  O  O83  1  0.21950970  0.17216792  0.07463577  1
  O  O84  1  0.64892085  0.12101253  0.74938392  1
  O  O85  1  0.49381585  0.35955895  0.74981936  1
  O  O86  1  0.88136283  0.52488985  0.74574453  1
  O  O87  1  0.63852993  0.52378179  0.24906162  1
  O  O88  1  0.85741815  0.34364225  0.25276542  1
  O  O89  1  0.47199806  0.12301688  0.24919061  1
  O  O90  1  0.63569713  0.48226377  0.92783597  1
  O  O91  1  0.86714621  0.38527593  0.91665253  1
  O  O92  1  0.53485594  0.15556716  0.92809613  1
  O  O93  1  0.61944884  0.11360089  0.41042098  1
  O  O94  1  0.49376491  0.37741300  0.40734065  1
  O  O95  1  0.86190906  0.49435334  0.40905127  1
  O  O96  1  0.36716783  0.47279987  0.07548683  1
  O  O97  1  0.13109083  0.63941773  0.08088190  1
  O  O98  1  0.53306602  0.88459238  0.07736814  1
  O  O99  1  0.34975527  0.87236536  0.58327291  1
  O  O100  1  0.52269150  0.65681053  0.58227504  1
  O  O101  1  0.13043584  0.47374329  0.58418385  1
  O  O102  1  0.32481285  0.82939517  0.26404424  1
  O  O103  1  0.51136531  0.68930604  0.26533472  1
  O  O104  1  0.17878473  0.49234299  0.26694083  1
  O  O105  1  0.31455396  0.50669581  0.76953117  1
  O  O106  1  0.17641068  0.68984941  0.76145419  1
  O  O107  1  0.51034080  0.82510655  0.76507597  1
