# generated using pymatgen
data_Na6Y3TaSi2(PO6)4
_symmetry_space_group_name_H-M   'P 1'
_cell_length_a   9.30327427
_cell_length_b   9.32458413
_cell_length_c   22.78608196
_cell_angle_alpha   90.14470473
_cell_angle_beta   90.05084557
_cell_angle_gamma   120.06815781
_symmetry_Int_Tables_number   1
_chemical_formula_structural   Na6Y3TaSi2(PO6)4
_chemical_formula_sum   'Na18 Y9 Ta3 Si6 P12 O72'
_cell_volume   1710.66184685
_cell_formula_units_Z   3
loop_
 _symmetry_equiv_pos_site_id
 _symmetry_equiv_pos_as_xyz
  1  'x, y, z'
loop_
 _atom_site_type_symbol
 _atom_site_label
 _atom_site_symmetry_multiplicity
 _atom_site_fract_x
 _atom_site_fract_y
 _atom_site_fract_z
 _atom_site_occupancy
  Na  Na0  1  0.99072835  0.98389606  0.50483976  1
  Na  Na1  1  0.95540616  0.98020621  0.99491582  1
  Na  Na2  1  0.66196252  0.34082254  0.82963060  1
  Na  Na3  1  0.65495023  0.33226171  0.32842407  1
  Na  Na4  1  0.32911131  0.64286879  0.16657841  1
  Na  Na5  1  0.33491445  0.66316589  0.67048468  1
  Na  Na6  1  0.65940434  0.01215424  0.24277886  1
  Na  Na7  1  0.00305040  0.33850096  0.74553182  1
  Na  Na8  1  0.35598169  0.01263914  0.75468460  1
  Na  Na9  1  0.30498969  0.33271059  0.59374943  1
  Na  Na10  1  0.66313800  0.96878701  0.58486281  1
  Na  Na11  1  0.29014723  0.95474161  0.07815686  1
  Na  Na12  1  0.03833464  0.33927607  0.07520585  1
  Na  Na13  1  0.99851160  0.68448252  0.91678827  1
  Na  Na14  1  0.31302047  0.29094605  0.91239650  1
  Na  Na15  1  0.96030599  0.28662918  0.41211037  1
  Na  Na16  1  0.33815169  0.03759512  0.40560906  1
  Na  Na17  1  0.70056333  0.68186464  0.41702708  1
  Y  Y18  1  0.00342012  0.99956175  0.34549104  1
  Y  Y19  1  0.99311942  0.99629221  0.85068846  1
  Y  Y20  1  0.99541288  0.99127245  0.65418776  1
  Y  Y21  1  0.00029284  0.99337473  0.14854832  1
  Y  Y22  1  0.67262940  0.34776687  0.68414165  1
  Y  Y23  1  0.66346897  0.34209764  0.18693668  1
  Y  Y24  1  0.66852472  0.33533273  0.48145101  1
  Y  Y25  1  0.34641123  0.67002118  0.01799186  1
  Y  Y26  1  0.32663864  0.66814577  0.51940856  1
  Ta  Ta27  1  0.66611141  0.33354261  0.97610837  1
  Ta  Ta28  1  0.33192737  0.67238369  0.31288197  1
  Ta  Ta29  1  0.34123759  0.66579175  0.82131789  1
  Si  Si30  1  0.30749963  0.99649108  0.25151248  1
  Si  Si31  1  0.30453263  0.31200004  0.75208715  1
  Si  Si32  1  0.63401288  0.65954717  0.92016411  1
  Si  Si33  1  0.03213073  0.37196968  0.92052705  1
  Si  Si34  1  0.34017386  0.96516200  0.92037360  1
  Si  Si35  1  0.63005013  0.96445491  0.41787150  1
  P  P36  1  0.68741724  0.69974512  0.25655980  1
  P  P37  1  0.00932417  0.31032134  0.24986152  1
  P  P38  1  0.01676647  0.69536425  0.75739486  1
  P  P39  1  0.68412101  0.99057459  0.74742421  1
  P  P40  1  0.96869150  0.32380439  0.58397677  1
  P  P41  1  0.36230203  0.03636366  0.58369869  1
  P  P42  1  0.66896485  0.64056779  0.57718334  1
  P  P43  1  0.95452677  0.62826182  0.07908832  1
  P  P44  1  0.67538286  0.05481286  0.08362594  1
  P  P45  1  0.36853379  0.32334359  0.07900573  1
  P  P46  1  0.33410708  0.37771277  0.41541631  1
  P  P47  1  0.03623876  0.66248254  0.41274772  1
  O  O48  1  0.22534523  0.01126716  0.31231557  1
  O  O49  1  0.77109918  0.77262966  0.31594779  1
  O  O50  1  0.98021719  0.20192453  0.30504976  1
  O  O51  1  0.21581322  0.19428049  0.80822627  1
  O  O52  1  0.99179893  0.76362956  0.81494147  1
  O  O53  1  0.81161862  0.02198333  0.79530240  1
  O  O54  1  0.74690587  0.96474650  0.68757144  1
  O  O55  1  0.18630418  0.23236560  0.69298645  1
  O  O56  1  0.03405764  0.81037342  0.70566237  1
  O  O57  1  0.78012274  0.82483611  0.20643117  1
  O  O58  1  0.02878785  0.22633755  0.19420367  1
  O  O59  1  0.19449303  0.97374978  0.19360377  1
  O  O60  1  0.87735730  0.32675435  0.63976326  1
  O  O61  1  0.46537032  0.13289874  0.63791735  1
  O  O62  1  0.66507385  0.52696147  0.62652708  1
  O  O63  1  0.86045064  0.52852922  0.13231873  1
  O  O64  1  0.67578400  0.13491786  0.14216926  1
  O  O65  1  0.46393830  0.32589822  0.13328778  1
  O  O66  1  0.47374426  0.32583917  0.02344934  1
  O  O67  1  0.85009583  0.53070419  0.02233288  1
  O  O68  1  0.67795434  0.17331107  0.03218950  1
  O  O69  1  0.44849342  0.13475333  0.52666839  1
  O  O70  1  0.67786475  0.56776820  0.51682040  1
  O  O71  1  0.87266613  0.32362424  0.52774841  1
  O  O72  1  0.55741285  0.68550483  0.97874919  1
  O  O73  1  0.13370504  0.44930830  0.98031363  1
  O  O74  1  0.30119850  0.85689223  0.97921436  1
  O  O75  1  0.54863509  0.86311393  0.47786138  1
  O  O76  1  0.31585298  0.44994434  0.47357869  1
  O  O77  1  0.13407368  0.67925296  0.46847662  1
  O  O78  1  0.14376824  0.65876837  0.35961614  1
  O  O79  1  0.50154638  0.84337415  0.36236083  1
  O  O80  1  0.33224632  0.49013822  0.36425140  1
  O  O81  1  0.14514710  0.50731542  0.86603966  1
  O  O82  1  0.36260178  0.86016111  0.86435004  1
  O  O83  1  0.50407752  0.64273138  0.86486695  1
  O  O84  1  0.01086939  0.81340827  0.40982567  1
  O  O85  1  0.81678693  0.99014303  0.41296533  1
  O  O86  1  0.18520802  0.19881482  0.41057850  1
  O  O87  1  0.00701450  0.19037202  0.91062059  1
  O  O88  1  0.18902745  0.00017474  0.90982563  1
  O  O89  1  0.82492244  0.79939254  0.91235592  1
  O  O90  1  0.97493201  0.15977131  0.58206949  1
  O  O91  1  0.18967670  0.02369963  0.58561623  1
  O  O92  1  0.81988866  0.81787024  0.58268889  1
  O  O93  1  0.97737851  0.80464934  0.07788957  1
  O  O94  1  0.83677865  0.04733989  0.07714885  1
  O  O95  1  0.19776660  0.15923092  0.07530848  1
  O  O96  1  0.65654272  0.14203243  0.74666625  1
  O  O97  1  0.48965008  0.33516171  0.74799206  1
  O  O98  1  0.87758739  0.51264760  0.74900853  1
  O  O99  1  0.66580155  0.52836485  0.24915125  1
  O  O100  1  0.85968429  0.33630194  0.24601928  1
  O  O101  1  0.50161880  0.14219692  0.24973645  1
  O  O102  1  0.62490213  0.47447768  0.92042879  1
  O  O103  1  0.85104912  0.37035358  0.92259894  1
  O  O104  1  0.51444893  0.14909974  0.92609069  1
  O  O105  1  0.63495539  0.14298031  0.41310828  1
  O  O106  1  0.49960793  0.37492093  0.41183500  1
  O  O107  1  0.86757182  0.49884368  0.41038064  1
  O  O108  1  0.33709894  0.47128117  0.08123942  1
  O  O109  1  0.12884582  0.64284800  0.08019724  1
  O  O110  1  0.51408393  0.88492654  0.08102110  1
  O  O111  1  0.35152388  0.86501969  0.58491555  1
  O  O112  1  0.50651086  0.64963095  0.58401652  1
  O  O113  1  0.14898838  0.47329622  0.58562172  1
  O  O114  1  0.32072592  0.82030345  0.25729603  1
  O  O115  1  0.50893174  0.68352555  0.25774301  1
  O  O116  1  0.17337250  0.48214828  0.25850880  1
  O  O117  1  0.30924115  0.49302810  0.76212993  1
  O  O118  1  0.18640732  0.69574625  0.75925408  1
  O  O119  1  0.51106716  0.83336440  0.76025337  1
