# generated using pymatgen
data_Na9Mg8Nb4P9(SO8)9
_symmetry_space_group_name_H-M   'P 1'
_cell_length_a   8.78594059
_cell_length_b   8.76867011
_cell_length_c   22.64993109
_cell_angle_alpha   90.12193547
_cell_angle_beta   89.98175276
_cell_angle_gamma   120.04254931
_symmetry_Int_Tables_number   1
_chemical_formula_structural   Na9Mg8Nb4P9(SO8)9
_chemical_formula_sum   'Na9 Mg8 Nb4 P9 S9 O72'
_cell_volume   1510.53919869
_cell_formula_units_Z   1
loop_
 _symmetry_equiv_pos_site_id
 _symmetry_equiv_pos_as_xyz
  1  'x, y, z'
loop_
 _atom_site_type_symbol
 _atom_site_label
 _atom_site_symmetry_multiplicity
 _atom_site_fract_x
 _atom_site_fract_y
 _atom_site_fract_z
 _atom_site_occupancy
  Na  Na0  1  0.66096828  0.96690317  0.58315441  1
  Na  Na1  1  0.29997438  0.96117181  0.08255975  1
  Na  Na2  1  0.03066851  0.33722075  0.08299029  1
  Na  Na3  1  0.01317265  0.00073099  0.49632092  1
  Na  Na4  1  0.98677424  0.98751383  0.99543930  1
  Na  Na5  1  0.66506711  0.33368170  0.83026783  1
  Na  Na6  1  0.66842596  0.33535440  0.32977026  1
  Na  Na7  1  0.34283801  0.67280437  0.16379788  1
  Na  Na8  1  0.32388774  0.66338338  0.66347323  1
  Mg  Mg9  1  0.99956117  0.99839493  0.35394014  1
  Mg  Mg10  1  0.00030996  0.99863159  0.85382872  1
  Mg  Mg11  1  0.01473212  0.00184796  0.64831602  1
  Mg  Mg12  1  0.98464275  0.98690265  0.14816326  1
  Mg  Mg13  1  0.66277362  0.33024269  0.68481636  1
  Mg  Mg14  1  0.67080598  0.33353476  0.18434593  1
  Mg  Mg15  1  0.33912689  0.67219118  0.01658115  1
  Mg  Mg16  1  0.32678805  0.66652178  0.51713115  1
  Nb  Nb17  1  0.67873542  0.33732676  0.97732987  1
  Nb  Nb18  1  0.65556905  0.32649058  0.47698279  1
  Nb  Nb19  1  0.33109615  0.66623335  0.31683220  1
  Nb  Nb20  1  0.33565420  0.66833771  0.81668723  1
  P  P21  1  0.37098829  0.03763350  0.58594249  1
  P  P22  1  0.95988648  0.62728147  0.08559572  1
  P  P23  1  0.66448285  0.03859617  0.08552925  1
  P  P24  1  0.62727678  0.67167269  0.91926071  1
  P  P25  1  0.04927764  0.37258383  0.91914382  1
  P  P26  1  0.32768811  0.95751444  0.91956210  1
  P  P27  1  0.62845428  0.95284910  0.41958207  1
  P  P28  1  0.32450542  0.37409031  0.41925964  1
  P  P29  1  0.04273145  0.67117485  0.41955735  1
  S  S30  1  0.29234528  0.00402292  0.24985911  1
  S  S31  1  0.70963317  0.70694495  0.25085701  1
  S  S32  1  0.99740693  0.28834022  0.25007762  1
  S  S33  1  0.29128213  0.28893568  0.75049538  1
  S  S34  1  0.99651684  0.70737840  0.75027939  1
  S  S35  1  0.71243328  0.00338840  0.74954099  1
  S  S36  1  0.95913257  0.33637293  0.58457194  1
  S  S37  1  0.66590226  0.62387511  0.58456272  1
  S  S38  1  0.37861836  0.33658910  0.08459216  1
  O  O39  1  0.20753932  0.02311833  0.30223903  1
  O  O40  1  0.81351642  0.78920517  0.30359226  1
  O  O41  1  0.97797702  0.18413245  0.30228588  1
  O  O42  1  0.21020511  0.18596409  0.80341292  1
  O  O43  1  0.97492231  0.78868287  0.80336016  1
  O  O44  1  0.81615877  0.02276785  0.80195482  1
  O  O45  1  0.78235748  0.96973842  0.69473789  1
  O  O46  1  0.18437630  0.21732898  0.69703831  1
  O  O47  1  0.03124812  0.81425304  0.69693510  1
  O  O48  1  0.78078096  0.81359770  0.19737912  1
  O  O49  1  0.03126738  0.21850602  0.19523137  1
  O  O50  1  0.18859522  0.97035991  0.19512997  1
  O  O51  1  0.87684667  0.36241611  0.63699011  1
  O  O52  1  0.49562733  0.12822175  0.63722851  1
  O  O53  1  0.64303205  0.51643006  0.63657960  1
  O  O54  1  0.87214982  0.50696550  0.13759610  1
  O  O55  1  0.62991961  0.12555328  0.13781860  1
  O  O56  1  0.48488967  0.36188707  0.13706659  1
  O  O57  1  0.46037483  0.30496338  0.03047810  1
  O  O58  1  0.83881412  0.53072047  0.02835498  1
  O  O59  1  0.69172362  0.16474886  0.02877583  1
  O  O60  1  0.47466749  0.16287859  0.52852701  1
  O  O61  1  0.69233247  0.53791152  0.52996494  1
  O  O62  1  0.84293486  0.30759652  0.53039493  1
  O  O63  1  0.53894383  0.69243734  0.97229472  1
  O  O64  1  0.14895170  0.45542747  0.97509439  1
  O  O65  1  0.30531385  0.85207778  0.97443566  1
  O  O66  1  0.54581103  0.85104074  0.47503056  1
  O  O67  1  0.30749544  0.46226907  0.47303543  1
  O  O68  1  0.15360008  0.69420341  0.47217471  1
  O  O69  1  0.13293021  0.63588815  0.36242052  1
  O  O70  1  0.50253714  0.86594996  0.36357284  1
  O  O71  1  0.36275538  0.49678546  0.36228676  1
  O  O72  1  0.13619457  0.49746390  0.86331043  1
  O  O73  1  0.36315311  0.86586998  0.86345183  1
  O  O74  1  0.50329140  0.63732497  0.86217494  1
  O  O75  1  0.01762241  0.82557471  0.40716271  1
  O  O76  1  0.80920975  0.98250760  0.40766926  1
  O  O77  1  0.17430795  0.19185709  0.40752144  1
  O  O78  1  0.01852876  0.19072302  0.90777318  1
  O  O79  1  0.17301510  0.98177332  0.90747550  1
  O  O80  1  0.80742070  0.82558529  0.90731949  1
  O  O81  1  0.96438275  0.16939531  0.58844971  1
  O  O82  1  0.19379564  0.02847882  0.58681443  1
  O  O83  1  0.82354044  0.80272307  0.58842284  1
  O  O84  1  0.98324777  0.81243179  0.08757220  1
  O  O85  1  0.83904121  0.03831662  0.08745840  1
  O  O86  1  0.20140778  0.17375478  0.08908475  1
  O  O87  1  0.68606228  0.15651904  0.74436940  1
  O  O88  1  0.47110374  0.31742277  0.74412804  1
  O  O89  1  0.84424618  0.52771620  0.74351192  1
  O  O90  1  0.68195826  0.52735776  0.24423647  1
  O  O91  1  0.84515870  0.31546394  0.24504783  1
  O  O92  1  0.47138061  0.15703341  0.24451554  1
  O  O93  1  0.63559669  0.49565695  0.92353416  1
  O  O94  1  0.86287256  0.36371354  0.92200938  1
  O  O95  1  0.50262167  0.14201787  0.92376277  1
  O  O96  1  0.63914666  0.14033716  0.42360994  1
  O  O97  1  0.50231323  0.36512023  0.42348440  1
  O  O98  1  0.85823587  0.49629078  0.42456640  1
  O  O99  1  0.35313717  0.48946892  0.07735629  1
  O  O100  1  0.14055878  0.64051828  0.07680800  1
  O  O101  1  0.50051905  0.85904680  0.07650793  1
  O  O102  1  0.36295142  0.86050145  0.57643349  1
  O  O103  1  0.50909803  0.64311664  0.57730016  1
  O  O104  1  0.13427264  0.48944799  0.57682261  1
  O  O105  1  0.31104237  0.83818588  0.25739271  1
  O  O106  1  0.52610497  0.68915893  0.25826418  1
  O  O107  1  0.16316448  0.47283751  0.25740130  1
  O  O108  1  0.31007320  0.47351070  0.75791033  1
  O  O109  1  0.16181845  0.68851958  0.75789285  1
  O  O110  1  0.52767468  0.83796466  0.75705594  1
