# generated using pymatgen
data_Na6Al2In2Si3(SO8)3
_symmetry_space_group_name_H-M   'P 1'
_cell_length_a   9.02326916
_cell_length_b   8.91405544
_cell_length_c   22.20858928
_cell_angle_alpha   90.92311796
_cell_angle_beta   89.73006263
_cell_angle_gamma   120.06467968
_symmetry_Int_Tables_number   1
_chemical_formula_structural   Na6Al2In2Si3(SO8)3
_chemical_formula_sum   'Na18 Al6 In6 Si9 S9 O72'
_cell_volume   1545.78034833
_cell_formula_units_Z   3
loop_
 _symmetry_equiv_pos_site_id
 _symmetry_equiv_pos_as_xyz
  1  'x, y, z'
loop_
 _atom_site_type_symbol
 _atom_site_label
 _atom_site_symmetry_multiplicity
 _atom_site_fract_x
 _atom_site_fract_y
 _atom_site_fract_z
 _atom_site_occupancy
  Na  Na0  1  0.63491627  0.00051082  0.26011873  1
  Na  Na1  1  0.35006394  0.35684193  0.25443218  1
  Na  Na2  1  0.64384704  0.64297625  0.73601114  1
  Na  Na3  1  0.98744324  0.36490100  0.74400717  1
  Na  Na4  1  0.02592308  0.69006137  0.59133443  1
  Na  Na5  1  0.67246884  0.96203436  0.58297063  1
  Na  Na6  1  0.30787956  0.96943212  0.09499485  1
  Na  Na7  1  0.02489902  0.32370578  0.08368073  1
  Na  Na8  1  0.97159003  0.65679584  0.90091318  1
  Na  Na9  1  0.71029781  0.04290048  0.91064087  1
  Na  Na10  1  0.95793711  0.29275226  0.42166056  1
  Na  Na11  1  0.34292804  0.03039263  0.41531547  1
  Na  Na12  1  0.97728994  0.99174571  0.50486603  1
  Na  Na13  1  0.99117663  0.01152147  0.99951337  1
  Na  Na14  1  0.66708031  0.32363266  0.82135470  1
  Na  Na15  1  0.67608680  0.34062569  0.33711887  1
  Na  Na16  1  0.32517160  0.67047883  0.17516004  1
  Na  Na17  1  0.33316290  0.66438390  0.66388165  1
  Al  Al18  1  0.99334533  0.01326320  0.34587864  1
  Al  Al19  1  0.96684778  0.98004931  0.64634665  1
  Al  Al20  1  0.69100054  0.34772638  0.68291004  1
  Al  Al21  1  0.66101056  0.30302588  0.19513330  1
  Al  Al22  1  0.67600898  0.31305732  0.49291137  1
  Al  Al23  1  0.31932576  0.68832820  0.31552736  1
  In  In24  1  0.99522693  0.01469281  0.83913426  1
  In  In25  1  0.99767314  0.00883232  0.15934182  1
  In  In26  1  0.67896988  0.32971620  0.98493928  1
  In  In27  1  0.33807730  0.66315188  0.01886750  1
  In  In28  1  0.35068162  0.65757098  0.52108271  1
  In  In29  1  0.32139249  0.67207251  0.80678216  1
  Si  Si30  1  0.28794842  0.99756632  0.25181513  1
  Si  Si31  1  0.00831080  0.31572279  0.25246689  1
  Si  Si32  1  0.99395291  0.71008588  0.74420539  1
  Si  Si33  1  0.69722443  0.00985659  0.74527615  1
  Si  Si34  1  0.96233395  0.32477057  0.58492501  1
  Si  Si35  1  0.67112920  0.60931684  0.58422587  1
  Si  Si36  1  0.66637166  0.03181228  0.08658197  1
  Si  Si37  1  0.04125132  0.36783782  0.91776854  1
  Si  Si38  1  0.63264806  0.96060549  0.41497508  1
  S  S39  1  0.70206250  0.69812279  0.25228199  1
  S  S40  1  0.29905842  0.28506445  0.74500019  1
  S  S41  1  0.38009878  0.05673843  0.58335162  1
  S  S42  1  0.95274119  0.62777166  0.08723073  1
  S  S43  1  0.38326765  0.33569249  0.08747019  1
  S  S44  1  0.63237923  0.66359361  0.91625723  1
  S  S45  1  0.33009255  0.96897369  0.91930189  1
  S  S46  1  0.32933797  0.36464524  0.41114004  1
  S  S47  1  0.03876185  0.67312198  0.41456514  1
  O  O48  1  0.18133636  0.02700611  0.30560152  1
  O  O49  1  0.81970382  0.78892629  0.30319411  1
  O  O50  1  0.96327457  0.16846306  0.30357902  1
  O  O51  1  0.23838786  0.19985987  0.80474842  1
  O  O52  1  0.96993416  0.78352494  0.81055634  1
  O  O53  1  0.80484856  0.06205056  0.81009556  1
  O  O54  1  0.80104140  0.97503260  0.69214214  1
  O  O55  1  0.17732578  0.19089517  0.69607520  1
  O  O56  1  0.01546644  0.83813325  0.68978923  1
  O  O57  1  0.76379768  0.80272239  0.19627919  1
  O  O58  1  0.06451450  0.25760673  0.18898071  1
  O  O59  1  0.18760913  0.96170745  0.18727777  1
  O  O60  1  0.87137319  0.36200272  0.64184990  1
  O  O61  1  0.49446395  0.14632804  0.63462340  1
  O  O62  1  0.64977662  0.50084202  0.64468027  1
  O  O63  1  0.85035382  0.51386443  0.13633444  1
  O  O64  1  0.63980420  0.13860324  0.14299400  1
  O  O65  1  0.48439084  0.34796351  0.14145834  1
  O  O66  1  0.46481503  0.32471075  0.03060867  1
  O  O67  1  0.86890570  0.56360967  0.02690087  1
  O  O68  1  0.69900534  0.13303610  0.02266047  1
  O  O69  1  0.46079997  0.14799233  0.52477882  1
  O  O70  1  0.69157909  0.50525191  0.52531983  1
  O  O71  1  0.84185251  0.28332169  0.52347430  1
  O  O72  1  0.55695579  0.69675140  0.97113993  1
  O  O73  1  0.13664030  0.44619852  0.98368799  1
  O  O74  1  0.31030748  0.87269223  0.97629186  1
  O  O75  1  0.55672426  0.85718549  0.47734149  1
  O  O76  1  0.28595760  0.43296419  0.46626115  1
  O  O77  1  0.14213388  0.70800765  0.47046313  1
  O  O78  1  0.12962766  0.64195259  0.36330192  1
  O  O79  1  0.49650555  0.86122533  0.35877649  1
  O  O80  1  0.35392651  0.47597036  0.35891035  1
  O  O81  1  0.13375363  0.49573764  0.86157102  1
  O  O82  1  0.36658598  0.88590724  0.86784467  1
  O  O83  1  0.53488724  0.64790655  0.86156365  1
  O  O84  1  0.02404488  0.83000502  0.40402549  1
  O  O85  1  0.82764370  0.99092802  0.40261238  1
  O  O86  1  0.17202726  0.18610649  0.40457412  1
  O  O87  1  0.01205974  0.17114027  0.91460904  1
  O  O88  1  0.17048618  0.97378184  0.91285784  1
  O  O89  1  0.80930822  0.81668282  0.91487644  1
  O  O90  1  0.97786389  0.15028206  0.59354711  1
  O  O91  1  0.20912622  0.03909696  0.58645172  1
  O  O92  1  0.84778156  0.80671876  0.58679768  1
  O  O93  1  0.98599813  0.80797534  0.09043138  1
  O  O94  1  0.84096408  0.01912152  0.09160793  1
  O  O95  1  0.21031465  0.17428071  0.08637219  1
  O  O96  1  0.67376677  0.17667575  0.73422210  1
  O  O97  1  0.47235318  0.31018791  0.73827710  1
  O  O98  1  0.81812301  0.51559062  0.74268704  1
  O  O99  1  0.68349705  0.52305172  0.24389885  1
  O  O100  1  0.82865819  0.32061705  0.24424028  1
  O  O101  1  0.48088477  0.17934400  0.24693475  1
  O  O102  1  0.64513284  0.50453056  0.92163234  1
  O  O103  1  0.84943516  0.35488171  0.91655938  1
  O  O104  1  0.48210579  0.14642613  0.92220163  1
  O  O105  1  0.64721108  0.15916414  0.42342993  1
  O  O106  1  0.48108915  0.34427187  0.41838077  1
  O  O107  1  0.86984925  0.51250482  0.41787580  1
  O  O108  1  0.35757768  0.48870346  0.08804884  1
  O  O109  1  0.12320139  0.63381456  0.08736087  1
  O  O110  1  0.48142493  0.84614506  0.08466959  1
  O  O111  1  0.35953839  0.87821554  0.58046388  1
  O  O112  1  0.51368368  0.65308762  0.58600191  1
  O  O113  1  0.14284762  0.51037326  0.57719930  1
  O  O114  1  0.32878715  0.83913221  0.25955791  1
  O  O115  1  0.52767568  0.67465691  0.26166616  1
  O  O116  1  0.18286015  0.50007181  0.26759602  1
  O  O117  1  0.31426481  0.46143629  0.74824083  1
  O  O118  1  0.15486824  0.67214255  0.74233609  1
  O  O119  1  0.52118575  0.81972160  0.75093042  1
