# generated using pymatgen
data_Na2CaHf3P4(SO12)2
_symmetry_space_group_name_H-M   'P 1'
_cell_length_a   8.90357409
_cell_length_b   8.91037146
_cell_length_c   23.44831027
_cell_angle_alpha   89.84007442
_cell_angle_beta   90.12229930
_cell_angle_gamma   120.02127114
_symmetry_Int_Tables_number   1
_chemical_formula_structural   Na2CaHf3P4(SO12)2
_chemical_formula_sum   'Na6 Ca3 Hf9 P12 S6 O72'
_cell_volume   1610.67305525
_cell_formula_units_Z   3
loop_
 _symmetry_equiv_pos_site_id
 _symmetry_equiv_pos_as_xyz
  1  'x, y, z'
loop_
 _atom_site_type_symbol
 _atom_site_label
 _atom_site_symmetry_multiplicity
 _atom_site_fract_x
 _atom_site_fract_y
 _atom_site_fract_z
 _atom_site_occupancy
  Na  Na0  1  0.00060482  0.99198027  0.50668176  1
  Na  Na1  1  0.00785058  0.99779944  0.00296333  1
  Na  Na2  1  0.66251808  0.32637462  0.83095490  1
  Na  Na3  1  0.66756599  0.33236155  0.33866745  1
  Na  Na4  1  0.32806120  0.66116117  0.16952702  1
  Na  Na5  1  0.34523231  0.66965545  0.66392529  1
  Ca  Ca6  1  0.99829134  0.99950094  0.64729633  1
  Ca  Ca7  1  0.00451056  0.99983840  0.14341269  1
  Ca  Ca8  1  0.33271193  0.66746866  0.32015654  1
  Hf  Hf9  1  0.00136424  0.00037350  0.35797467  1
  Hf  Hf10  1  0.00182781  0.00802292  0.85213915  1
  Hf  Hf11  1  0.65165412  0.32413777  0.68500164  1
  Hf  Hf12  1  0.66853323  0.34139668  0.18442825  1
  Hf  Hf13  1  0.66478333  0.33777441  0.97703822  1
  Hf  Hf14  1  0.66188167  0.33435186  0.48084247  1
  Hf  Hf15  1  0.32841755  0.66109110  0.01840869  1
  Hf  Hf16  1  0.34028890  0.67138259  0.51672007  1
  Hf  Hf17  1  0.33856530  0.66830645  0.81631834  1
  P  P18  1  0.29511718  0.29713884  0.75091303  1
  P  P19  1  0.70464822  0.00195300  0.75081177  1
  P  P20  1  0.37731201  0.03793005  0.58126042  1
  P  P21  1  0.66098040  0.61995405  0.58210313  1
  P  P22  1  0.95657892  0.61747929  0.08050139  1
  P  P23  1  0.38227250  0.34010945  0.08072777  1
  P  P24  1  0.62594346  0.67137974  0.91731759  1
  P  P25  1  0.04317545  0.37639570  0.91652078  1
  P  P26  1  0.33066589  0.95475841  0.91713601  1
  P  P27  1  0.63038771  0.96548253  0.41668901  1
  P  P28  1  0.33335709  0.37208440  0.41697344  1
  P  P29  1  0.03741878  0.66472506  0.41737727  1
  S  S30  1  0.29807123  0.00538291  0.24938740  1
  S  S31  1  0.70839251  0.70517792  0.24925876  1
  S  S32  1  0.99427143  0.29077894  0.24902715  1
  S  S33  1  0.99941617  0.70236695  0.75216621  1
  S  S34  1  0.95748853  0.34154002  0.58223502  1
  S  S35  1  0.65908839  0.04444663  0.08132566  1
  O  O36  1  0.21194541  0.02796034  0.30117956  1
  O  O37  1  0.81687709  0.79022852  0.30104947  1
  O  O38  1  0.97265274  0.18245658  0.30100307  1
  O  O39  1  0.20486282  0.17800547  0.80395489  1
  O  O40  1  0.97410265  0.78929323  0.80261137  1
  O  O41  1  0.82284270  0.02576457  0.80388135  1
  O  O42  1  0.77022016  0.96257498  0.69726652  1
  O  O43  1  0.19261000  0.22840873  0.69698884  1
  O  O44  1  0.03371614  0.80363633  0.70019711  1
  O  O45  1  0.78933299  0.80365186  0.19796027  1
  O  O46  1  0.01146767  0.20909100  0.19789664  1
  O  O47  1  0.19812109  0.98674711  0.19829157  1
  O  O48  1  0.87307333  0.36058442  0.63467661  1
  O  O49  1  0.48867531  0.12642944  0.63671654  1
  O  O50  1  0.64190889  0.50839833  0.63680659  1
  O  O51  1  0.86884009  0.50675798  0.13580920  1
  O  O52  1  0.63842339  0.12752755  0.13398419  1
  O  O53  1  0.49236322  0.35916242  0.13579019  1
  O  O54  1  0.47978195  0.32430864  0.02885032  1
  O  O55  1  0.84591472  0.51633047  0.02862936  1
  O  O56  1  0.67532038  0.14924903  0.03054861  1
  O  O57  1  0.47976281  0.14934575  0.53006942  1
  O  O58  1  0.67433950  0.52170092  0.53031811  1
  O  O59  1  0.85304777  0.32673837  0.53156522  1
  O  O60  1  0.53827554  0.69594713  0.97049441  1
  O  O61  1  0.15663520  0.46192357  0.97023852  1
  O  O62  1  0.30598533  0.84197195  0.97067178  1
  O  O63  1  0.54117601  0.84477127  0.46914813  1
  O  O64  1  0.30430595  0.46104750  0.46925380  1
  O  O65  1  0.15728220  0.69471863  0.46960822  1
  O  O66  1  0.10007662  0.62827600  0.36283343  1
  O  O67  1  0.52832638  0.90195007  0.36264475  1
  O  O68  1  0.37014998  0.47215188  0.36255344  1
  O  O69  1  0.12798113  0.49006091  0.86415730  1
  O  O70  1  0.35870828  0.86969661  0.86466040  1
  O  O71  1  0.51169681  0.64166834  0.86465740  1
  O  O72  1  0.02005843  0.83206892  0.41045886  1
  O  O73  1  0.81340653  0.98020363  0.40992642  1
  O  O74  1  0.16651242  0.18774050  0.41047616  1
  O  O75  1  0.02554630  0.19541041  0.90930916  1
  O  O76  1  0.16877499  0.97381352  0.90897363  1
  O  O77  1  0.80704991  0.83124703  0.90895110  1
  O  O78  1  0.97532407  0.18766146  0.58441136  1
  O  O79  1  0.20124471  0.02329722  0.58298425  1
  O  O80  1  0.81960574  0.79845357  0.58332191  1
  O  O81  1  0.97120540  0.79338973  0.08196081  1
  O  O82  1  0.81216475  0.02604420  0.08451489  1
  O  O83  1  0.20335568  0.18274965  0.08221809  1
  O  O84  1  0.69040336  0.16936760  0.74544418  1
  O  O85  1  0.47989819  0.31585679  0.74593215  1
  O  O86  1  0.84232337  0.52749289  0.74681190  1
  O  O87  1  0.69826475  0.52846839  0.24491761  1
  O  O88  1  0.82857153  0.30086301  0.24451795  1
  O  O89  1  0.47388602  0.16996203  0.24445934  1
  O  O90  1  0.64403821  0.50749043  0.92390367  1
  O  O91  1  0.86100592  0.35434647  0.92431125  1
  O  O92  1  0.49372568  0.13622927  0.92476664  1
  O  O93  1  0.66341843  0.14923121  0.42903107  1
  O  O94  1  0.48623196  0.33944835  0.42797847  1
  O  O95  1  0.85368083  0.51194586  0.42924787  1
  O  O96  1  0.37555461  0.51101518  0.07583885  1
  O  O97  1  0.13738261  0.63029306  0.07588573  1
  O  O98  1  0.49840906  0.87183569  0.07688283  1
  O  O99  1  0.36722892  0.85880843  0.57603552  1
  O  O100  1  0.48938371  0.62632100  0.57630902  1
  O  O101  1  0.12989451  0.50233939  0.57711725  1
  O  O102  1  0.32488143  0.85747887  0.25431364  1
  O  O103  1  0.53307814  0.67638399  0.25413385  1
  O  O104  1  0.14193012  0.46590569  0.25387982  1
  O  O105  1  0.32164140  0.48004225  0.76348935  1
  O  O106  1  0.15151301  0.67862554  0.76246290  1
  O  O107  1  0.51935421  0.84757120  0.76366727  1
