# generated using pymatgen
data_Na2Nb2Ga6Si3(S3O16)3
_symmetry_space_group_name_H-M   'P 1'
_cell_length_a   17.30716142
_cell_length_b   8.61528380
_cell_length_c   22.39226216
_cell_angle_alpha   90.08451235
_cell_angle_beta   90.19898285
_cell_angle_gamma   120.13902571
_symmetry_Int_Tables_number   1
_chemical_formula_structural   Na2Nb2Ga6Si3(S3O16)3
_chemical_formula_sum   'Na6 Nb6 Ga18 Si9 S27 O144'
_cell_volume   2887.40890043
_cell_formula_units_Z   3
loop_
 _symmetry_equiv_pos_site_id
 _symmetry_equiv_pos_as_xyz
  1  'x, y, z'
loop_
 _atom_site_type_symbol
 _atom_site_label
 _atom_site_symmetry_multiplicity
 _atom_site_fract_x
 _atom_site_fract_y
 _atom_site_fract_z
 _atom_site_occupancy
  Na  Na0  1  0.99828649  0.99289410  0.49920645  1
  Na  Na1  1  0.50019419  0.00551502  0.99751803  1
  Na  Na2  1  0.33797907  0.33665117  0.83382316  1
  Na  Na3  1  0.83403735  0.34090925  0.83122480  1
  Na  Na4  1  0.33515901  0.32864791  0.33429906  1
  Na  Na5  1  0.83676677  0.33678176  0.33755539  1
  Nb  Nb6  1  0.49485561  0.00873280  0.35728285  1
  Nb  Nb7  1  0.99355302  0.97973718  0.85431201  1
  Nb  Nb8  1  0.50404317  0.99407350  0.63789310  1
  Nb  Nb9  1  0.99797794  0.00363602  0.14195806  1
  Nb  Nb10  1  0.66978692  0.66237354  0.02051280  1
  Nb  Nb11  1  0.16877711  0.67678579  0.52228007  1
  Ga  Ga12  1  0.00093922  0.99144276  0.35597930  1
  Ga  Ga13  1  0.50195065  0.01391905  0.85176533  1
  Ga  Ga14  1  0.99739772  0.99021817  0.65043318  1
  Ga  Ga15  1  0.50042426  0.00527176  0.15262539  1
  Ga  Ga16  1  0.33315057  0.33741736  0.68386029  1
  Ga  Ga17  1  0.83343697  0.33682664  0.68436250  1
  Ga  Ga18  1  0.33809925  0.33078445  0.18784381  1
  Ga  Ga19  1  0.82979545  0.32467100  0.18440876  1
  Ga  Ga20  1  0.34040043  0.33655896  0.97967691  1
  Ga  Ga21  1  0.83342668  0.33148717  0.97974360  1
  Ga  Ga22  1  0.33513901  0.33489558  0.48126111  1
  Ga  Ga23  1  0.83590049  0.33889648  0.48289589  1
  Ga  Ga24  1  0.16868069  0.66865756  0.01847305  1
  Ga  Ga25  1  0.67076511  0.68023570  0.52420327  1
  Ga  Ga26  1  0.16286689  0.67628100  0.32027169  1
  Ga  Ga27  1  0.66199462  0.66145805  0.31243593  1
  Ga  Ga28  1  0.16392642  0.66550712  0.80838057  1
  Ga  Ga29  1  0.66296166  0.64750136  0.81674553  1
  Si  Si30  1  0.50177146  0.30114314  0.24619496  1
  Si  Si31  1  0.99895548  0.69652589  0.74428178  1
  Si  Si32  1  0.70281042  0.05495713  0.58130956  1
  Si  Si33  1  0.32918308  0.60151732  0.58248313  1
  Si  Si34  1  0.82951166  0.05726642  0.08214817  1
  Si  Si35  1  0.80822754  0.65017499  0.91526033  1
  Si  Si36  1  0.51743909  0.36944556  0.91373244  1
  Si  Si37  1  0.30694714  0.96560040  0.41622270  1
  Si  Si38  1  0.01515878  0.65878552  0.41500388  1
  S  S39  1  0.14534005  0.00036237  0.25049065  1
  S  S40  1  0.64702151  0.00129982  0.24979209  1
  S  S41  1  0.35114736  0.70589423  0.24874164  1
  S  S42  1  0.85437328  0.70598732  0.25049852  1
  S  S43  1  0.00082102  0.29311032  0.25289300  1
  S  S44  1  0.14708466  0.29162766  0.74956246  1
  S  S45  1  0.64507183  0.29145036  0.75080417  1
  S  S46  1  0.50093436  0.71014612  0.75267534  1
  S  S47  1  0.35450522  0.00230012  0.75009853  1
  S  S48  1  0.85085743  0.99599221  0.74910365  1
  S  S49  1  0.47895575  0.33991235  0.58334950  1
  S  S50  1  0.97736028  0.32481484  0.58483001  1
  S  S51  1  0.18720844  0.05037452  0.58490682  1
  S  S52  1  0.83382635  0.62768352  0.58260656  1
  S  S53  1  0.47573814  0.62707036  0.08474818  1
  S  S54  1  0.98036904  0.61746428  0.08329399  1
  S  S55  1  0.33200089  0.03936403  0.08258051  1
  S  S56  1  0.19477492  0.34167839  0.08238086  1
  S  S57  1  0.68700025  0.32485898  0.08469999  1
  S  S58  1  0.30931866  0.66503974  0.91617265  1
  S  S59  1  0.02478054  0.38396155  0.91686742  1
  S  S60  1  0.16953241  0.95608847  0.91773005  1
  S  S61  1  0.66569625  0.95619278  0.91443736  1
  S  S62  1  0.80989091  0.95229881  0.41442467  1
  S  S63  1  0.16629213  0.37575683  0.41452521  1
  S  S64  1  0.67052645  0.38855229  0.41757900  1
  S  S65  1  0.52351007  0.66402059  0.41655745  1
  O  O66  1  0.10579469  0.03606572  0.30328348  1
  O  O67  1  0.60439898  0.03078717  0.30285461  1
  O  O68  1  0.41150108  0.78801587  0.30264870  1
  O  O69  1  0.91250931  0.78669666  0.30296722  1
  O  O70  1  0.48430641  0.16518565  0.30618649  1
  O  O71  1  0.98366627  0.17318322  0.30412227  1
  O  O72  1  0.10401800  0.17823029  0.80369973  1
  O  O73  1  0.60567505  0.17721904  0.80472172  1
  O  O74  1  0.48356602  0.79326031  0.80555845  1
  O  O75  1  0.98287551  0.79860502  0.80585680  1
  O  O76  1  0.41055019  0.03811767  0.80476527  1
  O  O77  1  0.91196633  0.02953707  0.80384215  1
  O  O78  1  0.39542514  0.97384127  0.69703318  1
  O  O79  1  0.89278609  0.96885670  0.69618368  1
  O  O80  1  0.09161492  0.21616449  0.69558496  1
  O  O81  1  0.58725806  0.20421987  0.69779976  1
  O  O82  1  0.01859740  0.83485999  0.69102829  1
  O  O83  1  0.51248100  0.82076809  0.69811535  1
  O  O84  1  0.39305089  0.81626234  0.19496459  1
  O  O85  1  0.89803451  0.82010559  0.19557327  1
  O  O86  1  0.01226329  0.20189761  0.19717826  1
  O  O87  1  0.51809770  0.20505395  0.19003750  1
  O  O88  1  0.08812275  0.97385259  0.19625616  1
  O  O89  1  0.59225171  0.96636082  0.19489678  1
  O  O90  1  0.44002993  0.36847439  0.63788679  1
  O  O91  1  0.94137018  0.36417357  0.63827819  1
  O  O92  1  0.24273716  0.12214109  0.63891712  1
  O  O93  1  0.75455685  0.13929048  0.64326780  1
  O  O94  1  0.31415027  0.49620256  0.64389425  1
  O  O95  1  0.81903045  0.52135306  0.63711191  1
  O  O96  1  0.43607017  0.51353919  0.13787472  1
  O  O97  1  0.94095743  0.51429369  0.13791955  1
  O  O98  1  0.31511583  0.11806999  0.13631452  1
  O  O99  1  0.81669093  0.13310464  0.14392454  1
  O  O100  1  0.24777882  0.36917062  0.13708570  1
  O  O101  1  0.74274852  0.36415731  0.13875016  1
  O  O102  1  0.23085620  0.30166710  0.02892508  1
  O  O103  1  0.72697024  0.29950572  0.03037590  1
  O  O104  1  0.41914370  0.54975785  0.03045165  1
  O  O105  1  0.92405794  0.55025085  0.02986125  1
  O  O106  1  0.34860867  0.15348556  0.02910660  1
  O  O107  1  0.85334439  0.17673279  0.02329383  1
  O  O108  1  0.22689640  0.15392828  0.53013513  1
  O  O109  1  0.73681691  0.17714410  0.52242952  1
  O  O110  1  0.35177548  0.52925471  0.52291134  1
  O  O111  1  0.85393269  0.55442409  0.52899576  1
  O  O112  1  0.42201450  0.29606776  0.52989376  1
  O  O113  1  0.92332492  0.29068384  0.53016984  1
  O  O114  1  0.27138304  0.70036706  0.97130086  1
  O  O115  1  0.76730660  0.69665776  0.97509061  1
  O  O116  1  0.07887512  0.46134264  0.97243626  1
  O  O117  1  0.58085359  0.46690689  0.97437540  1
  O  O118  1  0.15066530  0.84412893  0.97201291  1
  O  O119  1  0.65105458  0.84655797  0.96985355  1
  O  O120  1  0.26684462  0.83667779  0.47501226  1
  O  O121  1  0.77249075  0.83980975  0.46826321  1
  O  O122  1  0.15067895  0.45424874  0.46912257  1
  O  O123  1  0.65133617  0.46239360  0.47104786  1
  O  O124  1  0.08147566  0.69359244  0.47375996  1
  O  O125  1  0.57760987  0.69440209  0.47047256  1
  O  O126  1  0.05700153  0.61870036  0.35618265  1
  O  O127  1  0.56287519  0.63459406  0.36221097  1
  O  O128  1  0.25412081  0.87863256  0.35540170  1
  O  O129  1  0.75416361  0.86877848  0.35988364  1
  O  O130  1  0.18276055  0.48585684  0.36017699  1
  O  O131  1  0.68352553  0.49436286  0.36291567  1
  O  O132  1  0.06598753  0.49651784  0.86393372  1
  O  O133  1  0.55963831  0.49780497  0.85679568  1
  O  O134  1  0.18573286  0.87755314  0.86449026  1
  O  O135  1  0.68257985  0.87880470  0.86089731  1
  O  O136  1  0.25334642  0.63508728  0.86262893  1
  O  O137  1  0.75274322  0.63074359  0.85634803  1
  O  O138  1  0.01111571  0.84436980  0.41092551  1
  O  O139  1  0.51584106  0.82765993  0.40747913  1
  O  O140  1  0.40520837  0.97335529  0.40921995  1
  O  O141  1  0.90073085  0.97424899  0.40766512  1
  O  O142  1  0.08320248  0.19780253  0.40885171  1
  O  O143  1  0.58870168  0.20344602  0.40939409  1
  O  O144  1  0.01689066  0.20571834  0.90941543  1
  O  O145  1  0.51059996  0.17340614  0.91084554  1
  O  O146  1  0.08922954  0.97628749  0.90989215  1
  O  O147  1  0.58363888  0.96880485  0.90964221  1
  O  O148  1  0.39970122  0.82316024  0.90993541  1
  O  O149  1  0.90655909  0.83894413  0.90960820  1
  O  O150  1  0.48681101  0.17533807  0.59272011  1
  O  O151  1  0.98810289  0.16385691  0.59218685  1
  O  O152  1  0.09770523  0.03151810  0.58950187  1
  O  O153  1  0.59965324  0.03030103  0.59390112  1
  O  O154  1  0.41564213  0.80825899  0.59365816  1
  O  O155  1  0.91409103  0.81244052  0.58873456  1
  O  O156  1  0.48608352  0.80908388  0.09195147  1
  O  O157  1  0.99117404  0.80301158  0.09317795  1
  O  O158  1  0.41185841  0.01864135  0.08876942  1
  O  O159  1  0.91785201  0.02567999  0.09392966  1
  O  O160  1  0.10293195  0.17734245  0.09172881  1
  O  O161  1  0.59718961  0.16263958  0.08958792  1
  O  O162  1  0.34456913  0.16500539  0.74284549  1
  O  O163  1  0.84659475  0.16127090  0.74646851  1
  O  O164  1  0.23549395  0.30238203  0.74553520  1
  O  O165  1  0.73340946  0.30790721  0.74517092  1
  O  O166  1  0.42039550  0.52901641  0.74589611  1
  O  O167  1  0.90725933  0.50427612  0.74112301  1
  O  O168  1  0.34355263  0.52693178  0.24258434  1
  O  O169  1  0.84634398  0.52686434  0.24109508  1
  O  O170  1  0.40949086  0.30851730  0.24397826  1
  O  O171  1  0.92087865  0.31136214  0.24478423  1
  O  O172  1  0.23340190  0.16480300  0.24190140  1
  O  O173  1  0.73586988  0.17010226  0.24503049  1
  O  O174  1  0.31499947  0.49959069  0.92411484  1
  O  O175  1  0.82389121  0.48421165  0.92642154  1
  O  O176  1  0.42020215  0.35359179  0.92347662  1
  O  O177  1  0.93531902  0.36383705  0.92206593  1
  O  O178  1  0.24732587  0.13766040  0.92564321  1
  O  O179  1  0.74556294  0.13576608  0.92220019  1
  O  O180  1  0.32366054  0.16428508  0.42610300  1
  O  O181  1  0.81805046  0.12978983  0.42011652  1
  O  O182  1  0.24508558  0.35455501  0.42139562  1
  O  O183  1  0.74755597  0.36307409  0.42188185  1
  O  O184  1  0.43314381  0.50626841  0.42071308  1
  O  O185  1  0.91771649  0.48184611  0.42583349  1
  O  O186  1  0.18009031  0.49481041  0.07460054  1
  O  O187  1  0.67759933  0.48771062  0.07879524  1
  O  O188  1  0.07026655  0.64202678  0.07517067  1
  O  O189  1  0.56399074  0.64465759  0.07662423  1
  O  O190  1  0.25057227  0.85975004  0.07418344  1
  O  O191  1  0.74569981  0.85430919  0.07433854  1
  O  O192  1  0.17755671  0.86770134  0.57906706  1
  O  O193  1  0.67790918  0.85012598  0.57407921  1
  O  O194  1  0.24448913  0.63344023  0.57340344  1
  O  O195  1  0.75227334  0.63910415  0.57411451  1
  O  O196  1  0.06711212  0.48469744  0.57603207  1
  O  O197  1  0.56842508  0.49331415  0.57495286  1
  O  O198  1  0.15261179  0.83811973  0.25473285  1
  O  O199  1  0.65848565  0.84542517  0.25823128  1
  O  O200  1  0.26386925  0.68967163  0.25766885  1
  O  O201  1  0.76788308  0.69377304  0.25685369  1
  O  O202  1  0.08359706  0.46678354  0.25649334  1
  O  O203  1  0.58929215  0.48811855  0.26048584  1
  O  O204  1  0.15827111  0.47091970  0.75886125  1
  O  O205  1  0.65138239  0.46809551  0.75541259  1
  O  O206  1  0.08691848  0.69000410  0.76085345  1
  O  O207  1  0.58296468  0.70031177  0.75788522  1
  O  O208  1  0.26656644  0.84061591  0.75896805  1
  O  O209  1  0.76376218  0.83558411  0.75865625  1
