# generated using pymatgen
data_Na10Hf4Sc4Si7S5O48
_symmetry_space_group_name_H-M   'P 1'
_cell_length_a   18.18128860
_cell_length_b   9.07958508
_cell_length_c   22.88288304
_cell_angle_alpha   89.96960872
_cell_angle_beta   89.94951423
_cell_angle_gamma   119.88055991
_symmetry_Int_Tables_number   1
_chemical_formula_structural   Na10Hf4Sc4Si7S5O48
_chemical_formula_sum   'Na30 Hf12 Sc12 Si21 S15 O144'
_cell_volume   3275.31471843
_cell_formula_units_Z   3
loop_
 _symmetry_equiv_pos_site_id
 _symmetry_equiv_pos_as_xyz
  1  'x, y, z'
loop_
 _atom_site_type_symbol
 _atom_site_label
 _atom_site_symmetry_multiplicity
 _atom_site_fract_x
 _atom_site_fract_y
 _atom_site_fract_z
 _atom_site_occupancy
  Na  Na0  1  0.18396192  0.37183249  0.24227887  1
  Na  Na1  1  0.68398175  0.37228938  0.24235676  1
  Na  Na2  1  0.99256595  0.62606617  0.25418573  1
  Na  Na3  1  0.49300043  0.62605451  0.25410235  1
  Na  Na4  1  0.49300706  0.35693353  0.75803274  1
  Na  Na5  1  0.18390906  0.99619761  0.74576947  1
  Na  Na6  1  0.68551422  0.99834194  0.74477715  1
  Na  Na7  1  0.65919468  0.34174525  0.57920045  1
  Na  Na8  1  0.01835213  0.70606208  0.57967202  1
  Na  Na9  1  0.82601029  0.95792509  0.59090040  1
  Na  Na10  1  0.49185086  0.67322621  0.91155959  1
  Na  Na11  1  0.99363785  0.67434041  0.91139372  1
  Na  Na12  1  0.85152139  0.03752309  0.90781111  1
  Na  Na13  1  0.15813863  0.29146146  0.92252620  1
  Na  Na14  1  0.49237687  0.31394854  0.41115659  1
  Na  Na15  1  0.99025728  0.30978104  0.41099998  1
  Na  Na16  1  0.35174493  0.66522120  0.40763422  1
  Na  Na17  1  0.85206049  0.66641661  0.41135525  1
  Na  Na18  1  0.02009646  0.00699294  0.49679303  1
  Na  Na19  1  0.51641671  0.99399599  0.49501343  1
  Na  Na20  1  0.01316797  0.01980764  0.99910623  1
  Na  Na21  1  0.51609396  0.03759061  0.99428190  1
  Na  Na22  1  0.34068084  0.32672093  0.83206196  1
  Na  Na23  1  0.84379242  0.33745535  0.82563779  1
  Na  Na24  1  0.33661242  0.33403314  0.32837076  1
  Na  Na25  1  0.83566016  0.33272090  0.32995489  1
  Na  Na26  1  0.17530201  0.65920121  0.16045003  1
  Na  Na27  1  0.67498655  0.65937079  0.16058314  1
  Na  Na28  1  0.17544166  0.68215574  0.66726172  1
  Na  Na29  1  0.67404939  0.68665589  0.66483533  1
  Hf  Hf30  1  0.99858552  0.98826914  0.64916013  1
  Hf  Hf31  1  0.49644115  0.98135647  0.64885879  1
  Hf  Hf32  1  0.99917990  0.01272953  0.14649735  1
  Hf  Hf33  1  0.49892697  0.01170527  0.14647491  1
  Hf  Hf34  1  0.32979553  0.31953137  0.98029790  1
  Hf  Hf35  1  0.82516611  0.32324836  0.98079295  1
  Hf  Hf36  1  0.32654332  0.32924017  0.48069454  1
  Hf  Hf37  1  0.82801478  0.34044314  0.48093628  1
  Hf  Hf38  1  0.16532981  0.65449193  0.31369555  1
  Hf  Hf39  1  0.66455034  0.65454160  0.31414219  1
  Hf  Hf40  1  0.16296352  0.67499651  0.81361640  1
  Hf  Hf41  1  0.66582291  0.67677585  0.81435499  1
  Sc  Sc42  1  0.00044389  0.99873630  0.35197015  1
  Sc  Sc43  1  0.50099138  0.99979723  0.35148908  1
  Sc  Sc44  1  0.99757411  0.99716066  0.84936633  1
  Sc  Sc45  1  0.49709041  0.00261492  0.85367446  1
  Sc  Sc46  1  0.33193150  0.32383903  0.68730251  1
  Sc  Sc47  1  0.83461031  0.33552657  0.68677401  1
  Sc  Sc48  1  0.33310547  0.34246959  0.18457720  1
  Sc  Sc49  1  0.83273599  0.34252831  0.18477584  1
  Sc  Sc50  1  0.16070867  0.65221657  0.01820300  1
  Sc  Sc51  1  0.65837466  0.64811777  0.01842489  1
  Sc  Sc52  1  0.16271954  0.66994854  0.51721899  1
  Sc  Sc53  1  0.66037659  0.66762801  0.51931181  1
  Si  Si54  1  0.35385245  0.71182531  0.25051597  1
  Si  Si55  1  0.85391575  0.71230493  0.25048130  1
  Si  Si56  1  0.99605850  0.28967962  0.25274501  1
  Si  Si57  1  0.49612282  0.28979725  0.25268593  1
  Si  Si58  1  0.99653738  0.69852474  0.75226720  1
  Si  Si59  1  0.49663948  0.70135330  0.75374325  1
  Si  Si60  1  0.35356117  0.99524533  0.74979622  1
  Si  Si61  1  0.85227224  0.00006661  0.75086948  1
  Si  Si62  1  0.18605545  0.03587005  0.58644395  1
  Si  Si63  1  0.68492108  0.03920248  0.58595826  1
  Si  Si64  1  0.83205748  0.62726423  0.58401226  1
  Si  Si65  1  0.18553993  0.33578029  0.08430154  1
  Si  Si66  1  0.68442238  0.33577461  0.08627469  1
  Si  Si67  1  0.01931498  0.37111030  0.91737420  1
  Si  Si68  1  0.51898920  0.36856741  0.91614702  1
  Si  Si69  1  0.16589174  0.95850832  0.91796718  1
  Si  Si70  1  0.66443803  0.95747865  0.91923289  1
  Si  Si71  1  0.16464624  0.37100090  0.41852257  1
  Si  Si72  1  0.66420370  0.36827229  0.41930970  1
  Si  Si73  1  0.01904994  0.66846633  0.41741081  1
  Si  Si74  1  0.51916254  0.66942439  0.41674287  1
  S  S75  1  0.14509862  -0.00146184  0.24902254  1
  S  S76  1  0.64531377  -0.00151835  0.24893616  1
  S  S77  1  0.14628907  0.29490908  0.75024565  1
  S  S78  1  0.64387727  0.28994263  0.74917406  1
  S  S79  1  0.47809155  0.32840519  0.58354859  1
  S  S80  1  0.97954182  0.33189606  0.58238454  1
  S  S81  1  0.33364021  0.62468910  0.58322709  1
  S  S82  1  0.47934088  0.62965920  0.08358302  1
  S  S83  1  0.97957260  0.62965408  0.08314966  1
  S  S84  1  0.33289132  0.04071404  0.08420755  1
  S  S85  1  0.83327878  0.04213732  0.08321683  1
  S  S86  1  0.31125424  0.66618925  0.91802863  1
  S  S87  1  0.81136039  0.66385335  0.91828760  1
  S  S88  1  0.31157436  0.95965469  0.41723671  1
  S  S89  1  0.81145470  0.95957632  0.41753181  1
  O  O90  1  0.10712308  0.02917781  0.30160605  1
  O  O91  1  0.60728791  0.02934644  0.30150962  1
  O  O92  1  0.41069629  0.78886277  0.30958540  1
  O  O93  1  0.91159592  0.78994654  0.30924234  1
  O  O94  1  0.48686513  0.18526974  0.31228052  1
  O  O95  1  0.98739535  0.18520893  0.31222442  1
  O  O96  1  0.10844212  0.19143380  0.80368638  1
  O  O97  1  0.60366399  0.18200441  0.80043650  1
  O  O98  1  0.48732396  0.78900319  0.81214433  1
  O  O99  1  0.99026493  0.79271942  0.81089332  1
  O  O100  1  0.41756889  0.03954080  0.80413342  1
  O  O101  1  0.90706201  0.02130805  0.80976123  1
  O  O102  1  0.40155256  0.97903826  0.69089478  1
  O  O103  1  0.90107948  0.98542055  0.69165723  1
  O  O104  1  0.09252310  0.21142931  0.69838141  1
  O  O105  1  0.59130209  0.21256353  0.69515449  1
  O  O106  1  0.01565204  0.82597141  0.69461173  1
  O  O107  1  0.51680624  0.83004737  0.69661538  1
  O  O108  1  0.40531630  0.82772431  0.19410820  1
  O  O109  1  0.90546141  0.82872631  0.19393511  1
  O  O110  1  0.01806089  0.20209839  0.19706207  1
  O  O111  1  0.51750678  0.20092696  0.19721020  1
  O  O112  1  0.09110446  0.96982308  0.19699163  1
  O  O113  1  0.59115834  0.96952339  0.19700874  1
  O  O114  1  0.43738494  0.34982440  0.63617299  1
  O  O115  1  0.93834192  0.35797937  0.63331634  1
  O  O116  1  0.24028796  0.12729495  0.64479391  1
  O  O117  1  0.74135799  0.12154753  0.64445633  1
  O  O118  1  0.32463964  0.52057518  0.63461134  1
  O  O119  1  0.81818522  0.49947122  0.63683313  1
  O  O120  1  0.43875101  0.52612022  0.13702479  1
  O  O121  1  0.93876694  0.52662781  0.13652403  1
  O  O122  1  0.32469298  0.12652945  0.13632892  1
  O  O123  1  0.82559637  0.13024948  0.13482197  1
  O  O124  1  0.23951802  0.34833343  0.14353064  1
  O  O125  1  0.73797800  0.34914010  0.14578695  1
  O  O126  1  0.23526967  0.31495020  0.02642088  1
  O  O127  1  0.73675685  0.31494343  0.03035574  1
  O  O128  1  0.42771120  0.54370715  0.03111614  1
  O  O129  1  0.92832329  0.54468517  0.03042970  1
  O  O130  1  0.34611663  0.14735276  0.03104322  1
  O  O131  1  0.84651238  0.14639674  0.02915910  1
  O  O132  1  0.23735510  0.15658045  0.52932793  1
  O  O133  1  0.73547502  0.16699322  0.52978139  1
  O  O134  1  0.34616196  0.54567788  0.52888479  1
  O  O135  1  0.85208617  0.54805886  0.52390704  1
  O  O136  1  0.42797770  0.31162687  0.53015118  1
  O  O137  1  0.92810160  0.30567729  0.52832178  1
  O  O138  1  0.27184823  0.68801309  0.97038607  1
  O  O139  1  0.77196722  0.68932935  0.96996837  1
  O  O140  1  0.08235432  0.45463991  0.97290697  1
  O  O141  1  0.57802411  0.46292699  0.97231768  1
  O  O142  1  0.15189734  0.83343362  0.97219998  1
  O  O143  1  0.65571171  0.83604471  0.97332110  1
  O  O144  1  0.27158665  0.85596656  0.46942447  1
  O  O145  1  0.77312895  0.85738506  0.47072048  1
  O  O146  1  0.15493213  0.47428438  0.47260719  1
  O  O147  1  0.65309166  0.45972576  0.47683697  1
  O  O148  1  0.07376477  0.69128471  0.47652073  1
  O  O149  1  0.57853381  0.69271111  0.47206487  1
  O  O150  1  0.06737624  0.64498847  0.35953000  1
  O  O151  1  0.56280408  0.64088146  0.35697576  1
  O  O152  1  0.25949038  0.88359855  0.36421526  1
  O  O153  1  0.75835718  0.87874722  0.36519074  1
  O  O154  1  0.18446244  0.49185220  0.35887543  1
  O  O155  1  0.68159442  0.49305084  0.36110433  1
  O  O156  1  0.06652855  0.49521060  0.86072386  1
  O  O157  1  0.56337473  0.48825273  0.85683930  1
  O  O158  1  0.18065784  0.87693802  0.85731441  1
  O  O159  1  0.68508581  0.87696582  0.85923605  1
  O  O160  1  0.25771145  0.63449059  0.86531619  1
  O  O161  1  0.75963925  0.63569602  0.86472179  1
  O  O162  1  0.00009398  0.82525021  0.41283446  1
  O  O163  1  0.49890116  0.82464737  0.41254652  1
  O  O164  1  0.39631243  0.97567010  0.41203813  1
  O  O165  1  0.89631347  0.97372879  0.41173496  1
  O  O166  1  0.07952697  0.18741625  0.41259930  1
  O  O167  1  0.57888885  0.18491141  0.41211753  1
  O  O168  1  0.00446040  0.17855348  0.91140826  1
  O  O169  1  0.50452789  0.17906083  0.91135543  1
  O  O170  1  0.08220717  0.98275619  0.91262145  1
  O  O171  1  0.57955840  0.97075020  0.91242242  1
  O  O172  1  0.39742285  0.81167107  0.91220086  1
  O  O173  1  0.89695567  0.81677260  0.91260321  1
  O  O174  1  0.48811246  0.17585169  0.58743288  1
  O  O175  1  0.98708981  0.17720636  0.58825896  1
  O  O176  1  0.09103072  0.01981279  0.58835027  1
  O  O177  1  0.59292293  0.03740105  0.58856113  1
  O  O178  1  0.41236999  0.79516464  0.58687573  1
  O  O179  1  0.91792727  0.81843137  0.58934830  1
  O  O180  1  0.48603719  0.79858310  0.08848605  1
  O  O181  1  0.98653436  0.79923317  0.08782730  1
  O  O182  1  0.41112941  0.02583605  0.08809313  1
  O  O183  1  0.91200873  0.02762399  0.08736477  1
  O  O184  1  0.09140160  0.15868366  0.08797645  1
  O  O185  1  0.59087868  0.15905043  0.08891445  1
  O  O186  1  0.33948105  0.16232217  0.74435070  1
  O  O187  1  0.83363770  0.15825832  0.74663996  1
  O  O188  1  0.23048992  0.30817575  0.74398497  1
  O  O189  1  0.72855548  0.30660664  0.74354693  1
  O  O190  1  0.41762610  0.51006584  0.74322934  1
  O  O191  1  0.91445830  0.51374864  0.74474599  1
  O  O192  1  0.33949298  0.51633077  0.24502089  1
  O  O193  1  0.84023709  0.51741537  0.24489141  1
  O  O194  1  0.41686607  0.32324892  0.24363524  1
  O  O195  1  0.91689008  0.32301181  0.24352178  1
  O  O196  1  0.23057142  0.14980740  0.24277664  1
  O  O197  1  0.73079789  0.14949059  0.24277428  1
  O  O198  1  0.31987592  0.50821040  0.92359858  1
  O  O199  1  0.82502732  0.51453870  0.92397263  1
  O  O200  1  0.42819520  0.37320928  0.92378178  1
  O  O201  1  0.92704895  0.36482322  0.92526423  1
  O  O202  1  0.24953040  0.15363788  0.92280418  1
  O  O203  1  0.75349542  0.14496916  0.92416472  1
  O  O204  1  0.32480532  0.13572452  0.42307469  1
  O  O205  1  0.82478648  0.13419043  0.42246669  1
  O  O206  1  0.25328753  0.36116343  0.42371098  1
  O  O207  1  0.75306354  0.35928585  0.42099425  1
  O  O208  1  0.42619737  0.48691637  0.42375586  1
  O  O209  1  0.92749901  0.48419352  0.42097383  1
  O  O210  1  0.17730506  0.50633655  0.08001686  1
  O  O211  1  0.67677931  0.50619313  0.08088409  1
  O  O212  1  0.06525589  0.64856556  0.07955860  1
  O  O213  1  0.56509416  0.64917472  0.08016682  1
  O  O214  1  0.25770198  0.87161573  0.07817211  1
  O  O215  1  0.75849710  0.87241986  0.07808474  1
  O  O216  1  0.17098038  0.84174228  0.58077849  1
  O  O217  1  0.67771541  0.85417235  0.57800628  1
  O  O218  1  0.25872638  0.64577127  0.57732507  1
  O  O219  1  0.74882539  0.64958160  0.57787590  1
  O  O220  1  0.06463053  0.48576971  0.57762905  1
  O  O221  1  0.56483498  0.47987025  0.58023274  1
  O  O222  1  0.15153247  0.84268806  0.25559825  1
  O  O223  1  0.65177522  0.84280894  0.25558609  1
  O  O224  1  0.25854659  0.69207559  0.25483850  1
  O  O225  1  0.75844645  0.69152161  0.25534216  1
  O  O226  1  0.08418108  0.48337573  0.25601871  1
  O  O227  1  0.58439739  0.48288692  0.25582912  1
  O  O228  1  0.15644754  0.46619647  0.75553043  1
  O  O229  1  0.65039209  0.45885885  0.75465376  1
  O  O230  1  0.08675853  0.69218640  0.75418478  1
  O  O231  1  0.58511232  0.68574796  0.75531414  1
  O  O232  1  0.25911508  0.82512352  0.75502029  1
  O  O233  1  0.75801879  0.82226643  0.75422702  1
