# generated using pymatgen
data_Na8ZrZn3Si3(SO8)3
_symmetry_space_group_name_H-M   'P 1'
_cell_length_a   9.22652318
_cell_length_b   9.22325206
_cell_length_c   22.30227159
_cell_angle_alpha   88.74494200
_cell_angle_beta   90.49975716
_cell_angle_gamma   119.05119008
_symmetry_Int_Tables_number   1
_chemical_formula_structural   Na8ZrZn3Si3(SO8)3
_chemical_formula_sum   'Na24 Zr3 Zn9 Si9 S9 O72'
_cell_volume   1658.70809757
_cell_formula_units_Z   3
loop_
 _symmetry_equiv_pos_site_id
 _symmetry_equiv_pos_as_xyz
  1  'x, y, z'
loop_
 _atom_site_type_symbol
 _atom_site_label
 _atom_site_symmetry_multiplicity
 _atom_site_fract_x
 _atom_site_fract_y
 _atom_site_fract_z
 _atom_site_occupancy
  Na  Na0  1  0.62661018  0.99490246  0.25690384  1
  Na  Na1  1  0.37290161  0.37251190  0.24443950  1
  Na  Na2  1  0.00338204  0.61980219  0.25094721  1
  Na  Na3  1  0.64982419  0.64867052  0.73102520  1
  Na  Na4  1  0.98001097  0.34544404  0.74914661  1
  Na  Na5  1  0.38764515  0.01709500  0.73934789  1
  Na  Na6  1  0.30628561  0.33579414  0.58317288  1
  Na  Na7  1  0.04009955  0.71212574  0.57211733  1
  Na  Na8  1  0.65497408  0.94660673  0.58428535  1
  Na  Na9  1  0.28597242  0.95675917  0.07506752  1
  Na  Na10  1  0.65965831  0.69258618  0.08600818  1
  Na  Na11  1  0.05003405  0.34754159  0.08191110  1
  Na  Na12  1  0.99032213  0.68149516  0.92020525  1
  Na  Na13  1  0.71045224  0.03985395  0.90466452  1
  Na  Na14  1  0.30592276  0.28315480  0.92329897  1
  Na  Na15  1  0.97205271  0.30261743  0.40917824  1
  Na  Na16  1  0.32157789  0.00693132  0.42175761  1
  Na  Na17  1  0.71188444  0.69222532  0.42662331  1
  Na  Na18  1  0.99041818  0.98393369  0.50014531  1
  Na  Na19  1  0.01665991  0.01196902  0.00087593  1
  Na  Na20  1  0.66709306  0.31409112  0.82790304  1
  Na  Na21  1  0.67977453  0.33568736  0.33259497  1
  Na  Na22  1  0.32251507  0.65456832  0.16170751  1
  Na  Na23  1  0.34845766  0.68039062  0.65695127  1
  Zr  Zr24  1  0.66650754  0.33536641  0.98342286  1
  Zr  Zr25  1  0.66010870  0.33069666  0.48284746  1
  Zr  Zr26  1  0.33524554  0.67870621  0.81709928  1
  Zn  Zn27  1  0.98829407  0.98453746  0.35235016  1
  Zn  Zn28  1  0.00387447  0.01929105  0.85130497  1
  Zn  Zn29  1  0.97680190  0.97492183  0.64303763  1
  Zn  Zn30  1  0.01437276  0.00069354  0.14322955  1
  Zn  Zn31  1  0.65264569  0.31447546  0.67325971  1
  Zn  Zn32  1  0.66811544  0.35484091  0.16734161  1
  Zn  Zn33  1  0.29578662  0.64986081  0.01701606  1
  Zn  Zn34  1  0.35338868  0.70432796  0.51457685  1
  Zn  Zn35  1  0.33178730  0.69374900  0.34064742  1
  Si  Si36  1  0.70841578  0.00124394  0.74869330  1
  Si  Si37  1  0.35628660  0.03065294  0.58705972  1
  Si  Si38  1  0.66019321  0.62553502  0.58559345  1
  Si  Si39  1  0.96456655  0.63473514  0.08779161  1
  Si  Si40  1  0.36475398  0.33832768  0.08603692  1
  Si  Si41  1  0.03328210  0.36554689  0.91843060  1
  Si  Si42  1  0.33080236  0.96748298  0.91960454  1
  Si  Si43  1  0.64201425  0.97079341  0.41501163  1
  Si  Si44  1  0.03378100  0.66286163  0.41558529  1
  S  S45  1  0.29723804  -0.00031852  0.24999903  1
  S  S46  1  0.70227076  0.70235008  0.24959370  1
  S  S47  1  0.99843124  0.28662172  0.24837852  1
  S  S48  1  0.30198288  0.30436585  0.75229596  1
  S  S49  1  0.00320772  0.70510121  0.75244787  1
  S  S50  1  0.96394200  0.33326931  0.58559969  1
  S  S51  1  0.66947157  0.03967950  0.08783437  1
  S  S52  1  0.62804687  0.66485368  0.91896328  1
  S  S53  1  0.33433235  0.37285711  0.41426567  1
  O  O54  1  0.21328271  0.01702118  0.30395781  1
  O  O55  1  0.79799485  0.78616500  0.30414561  1
  O  O56  1  0.99545380  0.19252157  0.30405425  1
  O  O57  1  0.22112250  0.20618689  0.80774256  1
  O  O58  1  0.99340186  0.78680835  0.80726965  1
  O  O59  1  0.81259397  0.01928098  0.81067286  1
  O  O60  1  0.79022095  0.96336410  0.69061840  1
  O  O61  1  0.20409871  0.22943196  0.69827200  1
  O  O62  1  0.02524050  0.80525570  0.69750149  1
  O  O63  1  0.78501643  0.80110101  0.19438691  1
  O  O64  1  0.00376504  0.19865502  0.19384849  1
  O  O65  1  0.20265663  0.99024802  0.19437193  1
  O  O66  1  0.88702634  0.35415379  0.64073591  1
  O  O67  1  0.47252174  0.10924511  0.64559387  1
  O  O68  1  0.65035160  0.51700012  0.64626422  1
  O  O69  1  0.88681050  0.51766886  0.14803386  1
  O  O70  1  0.64655789  0.11954368  0.14123342  1
  O  O71  1  0.46815636  0.35452463  0.14802802  1
  O  O72  1  0.46814869  0.31297155  0.02905638  1
  O  O73  1  0.84461470  0.52907864  0.02919600  1
  O  O74  1  0.68522545  0.14413456  0.03213465  1
  O  O75  1  0.45907198  0.15097381  0.52756112  1
  O  O76  1  0.67801717  0.52566105  0.52702180  1
  O  O77  1  0.85606727  0.31827193  0.53189816  1
  O  O78  1  0.55090101  0.68635533  0.97284831  1
  O  O79  1  0.14475774  0.44350975  0.97736470  1
  O  O80  1  0.31028712  0.85522047  0.97893057  1
  O  O81  1  0.56290037  0.84839468  0.47300789  1
  O  O82  1  0.31203083  0.44697837  0.46873709  1
  O  O83  1  0.15154270  0.68469489  0.47317528  1
  O  O84  1  0.10355985  0.61601755  0.35484239  1
  O  O85  1  0.52888864  0.89273936  0.35449131  1
  O  O86  1  0.35603692  0.47572182  0.35936756  1
  O  O87  1  0.13376401  0.48742067  0.85914761  1
  O  O88  1  0.36205883  0.87425289  0.86092047  1
  O  O89  1  0.52476363  0.64838297  0.86417489  1
  O  O90  1  0.01809281  0.83375988  0.41090454  1
  O  O91  1  0.83458346  0.00769676  0.40986198  1
  O  O92  1  0.19254244  0.20159880  0.40917110  1
  O  O93  1  0.00339063  0.17635271  0.91491260  1
  O  O94  1  0.16252417  0.98364936  0.91078978  1
  O  O95  1  0.79821092  0.80300920  0.91248977  1
  O  O96  1  0.97458480  0.17836698  0.58606293  1
  O  O97  1  0.17684161  0.02910216  0.58931586  1
  O  O98  1  0.82775029  0.80877595  0.58186423  1
  O  O99  1  0.96412995  0.81340580  0.08605405  1
  O  O100  1  0.82560806  0.03118547  0.08887444  1
  O  O101  1  0.18000518  0.17244507  0.08469558  1
  O  O102  1  0.68601423  0.16937013  0.74479692  1
  O  O103  1  0.47205756  0.32628330  0.75128172  1
  O  O104  1  0.85967577  0.53624049  0.75055387  1
  O  O105  1  0.69082209  0.53341988  0.25010700  1
  O  O106  1  0.84335012  0.30198052  0.25008883  1
  O  O107  1  0.46834588  0.14723027  0.24840660  1
  O  O108  1  0.63327121  0.50396824  0.91963891  1
  O  O109  1  0.84943545  0.35987435  0.91908494  1
  O  O110  1  0.50025117  0.15302028  0.92037980  1
  O  O111  1  0.65008993  0.15473466  0.42103210  1
  O  O112  1  0.49160848  0.35755758  0.41735393  1
  O  O113  1  0.84274362  0.50172747  0.42220597  1
  O  O114  1  0.35911577  0.51261183  0.07924408  1
  O  O115  1  0.15261511  0.66276285  0.08350855  1
  O  O116  1  0.52509036  0.87294223  0.08245115  1
  O  O117  1  0.33198983  0.84373286  0.58101944  1
  O  O118  1  0.48860957  0.63760676  0.58055421  1
  O  O119  1  0.12956612  0.47910062  0.57925252  1
  O  O120  1  0.31060669  0.84379843  0.25250766  1
  O  O121  1  0.53129836  0.68162931  0.25096881  1
  O  O122  1  0.14799323  0.45448174  0.24690481  1
  O  O123  1  0.31729618  0.47689067  0.75562981  1
  O  O124  1  0.16069677  0.68658918  0.75365976  1
  O  O125  1  0.51580616  0.82995728  0.75416705  1
