# generated using pymatgen
data_Na2Sc3Ta5(PO4)12
_symmetry_space_group_name_H-M   'P 1'
_cell_length_a   17.54575862
_cell_length_b   8.77513155
_cell_length_c   22.79846298
_cell_angle_alpha   89.97810986
_cell_angle_beta   90.01424510
_cell_angle_gamma   119.99047962
_symmetry_Int_Tables_number   1
_chemical_formula_structural   Na2Sc3Ta5(PO4)12
_chemical_formula_sum   'Na6 Sc9 Ta15 P36 O144'
_cell_volume   3040.21018461
_cell_formula_units_Z   3
loop_
 _symmetry_equiv_pos_site_id
 _symmetry_equiv_pos_as_xyz
  1  'x, y, z'
loop_
 _atom_site_type_symbol
 _atom_site_label
 _atom_site_symmetry_multiplicity
 _atom_site_fract_x
 _atom_site_fract_y
 _atom_site_fract_z
 _atom_site_occupancy
  Na  Na0  1  0.33185410  0.33096119  0.82846722  1
  Na  Na1  1  0.83486270  0.33590346  0.82924329  1
  Na  Na2  1  0.33150225  0.33017775  0.32888094  1
  Na  Na3  1  0.83493893  0.33657803  0.32784626  1
  Na  Na4  1  0.66798498  0.66697650  0.16784023  1
  Na  Na5  1  0.16642216  0.66636790  0.66531926  1
  Sc  Sc6  1  0.99811329  0.99760463  0.35672001  1
  Sc  Sc7  1  0.33369761  0.33271364  0.68778562  1
  Sc  Sc8  1  0.83300944  0.33401737  0.68754381  1
  Sc  Sc9  1  0.33281251  0.33221634  0.18866790  1
  Sc  Sc10  1  0.83372129  0.33444181  0.18831276  1
  Sc  Sc11  1  0.66717137  0.66785688  0.02029528  1
  Sc  Sc12  1  0.16721585  0.66629112  0.51905306  1
  Sc  Sc13  1  0.66904474  0.66913719  0.31082409  1
  Sc  Sc14  1  0.16618155  0.66650261  0.81057775  1
  Ta  Ta15  1  0.50144150  0.00227653  0.35650886  1
  Ta  Ta16  1  0.00183956  0.00073104  0.85620400  1
  Ta  Ta17  1  0.49818648  0.99902728  0.85626446  1
  Ta  Ta18  1  0.00050062  0.00038172  0.64205739  1
  Ta  Ta19  1  0.49961155  0.99983235  0.64198514  1
  Ta  Ta20  1  0.99958837  0.99989899  0.14620801  1
  Ta  Ta21  1  0.50034997  0.99992215  0.14383396  1
  Ta  Ta22  1  0.33499889  0.33632346  0.98139875  1
  Ta  Ta23  1  0.83172769  0.32997618  0.98149697  1
  Ta  Ta24  1  0.33033316  0.33294315  0.47919688  1
  Ta  Ta25  1  0.83659829  0.33468268  0.47926829  1
  Ta  Ta26  1  0.16609747  0.66557286  0.02196900  1
  Ta  Ta27  1  0.66679465  0.66824253  0.52103612  1
  Ta  Ta28  1  0.16452706  0.66401989  0.30957476  1
  Ta  Ta29  1  0.66720614  0.66687220  0.80940227  1
  P  P30  1  0.14337560  0.00128128  0.25149992  1
  P  P31  1  0.64320653  0.99924589  0.25011770  1
  P  P32  1  0.35755790  0.71491241  0.25124658  1
  P  P33  1  0.85527662  0.71109063  0.25060386  1
  P  P34  1  0.99900169  0.28505700  0.25157025  1
  P  P35  1  0.50037535  0.28682527  0.24989772  1
  P  P36  1  0.14312915  0.28646745  0.74957047  1
  P  P37  1  0.64210770  0.28328469  0.75057180  1
  P  P38  1  -0.00007157  0.71409254  0.74948903  1
  P  P39  1  0.49972841  0.71556839  0.75062686  1
  P  P40  1  0.35671821  0.99908415  0.74935144  1
  P  P41  1  0.85852323  0.00202707  0.75079371  1
  P  P42  1  0.47657575  0.33455313  0.58311269  1
  P  P43  1  0.97843669  0.33660749  0.58544868  1
  P  P44  1  0.18985878  0.04323026  0.58478603  1
  P  P45  1  0.69080462  0.04706989  0.58385032  1
  P  P46  1  0.33175638  0.61932893  0.58512613  1
  P  P47  1  0.83274342  0.61940533  0.58352657  1
  P  P48  1  0.47855341  0.62146124  0.08568349  1
  P  P49  1  0.97685063  0.62275755  0.08360758  1
  P  P50  1  0.33340891  0.04536621  0.08386605  1
  P  P51  1  0.83301779  0.04292362  0.08548417  1
  P  P52  1  0.18922256  0.33228683  0.08426334  1
  P  P53  1  0.68866595  0.33470354  0.08495320  1
  P  P54  1  0.30935057  0.66439651  0.91617737  1
  P  P55  1  0.81004989  0.66425230  0.91617814  1
  P  P56  1  0.02222895  0.37985314  0.91611394  1
  P  P57  1  0.52275068  0.38141553  0.91618111  1
  P  P58  1  0.16845679  0.95554523  0.91637469  1
  P  P59  1  0.66733378  0.95459870  0.91596313  1
  P  P60  1  0.30958046  0.95487781  0.41590502  1
  P  P61  1  0.81028818  0.95425128  0.41654680  1
  P  P62  1  0.16613454  0.37945935  0.41642888  1
  P  P63  1  0.66812861  0.38104924  0.41647700  1
  P  P64  1  0.02334364  0.66706257  0.41690727  1
  P  P65  1  0.52257993  0.66445657  0.41591800  1
  O  O66  1  0.10202188  0.02844089  0.30486418  1
  O  O67  1  0.59511315  0.01930766  0.30510708  1
  O  O68  1  0.41590516  0.80891655  0.30561781  1
  O  O69  1  0.91013665  0.79598226  0.30429453  1
  O  O70  1  0.49085142  0.17065188  0.30475421  1
  O  O71  1  0.98568663  0.17636348  0.30521000  1
  O  O72  1  0.09526862  0.17096586  0.80514892  1
  O  O73  1  0.59499683  0.16924448  0.80521307  1
  O  O74  1  0.48915201  0.80874667  0.80545388  1
  O  O75  1  0.99079812  0.81095527  0.80486004  1
  O  O76  1  0.41425076  0.01717877  0.80459905  1
  O  O77  1  0.91551206  0.02284350  0.80579185  1
  O  O78  1  0.40562189  0.97958202  0.69471571  1
  O  O79  1  0.89988424  0.97095826  0.69592802  1
  O  O80  1  0.08435220  0.18967585  0.69515848  1
  O  O81  1  0.58544840  0.19926669  0.69540391  1
  O  O82  1  0.00934152  0.82894569  0.69463977  1
  O  O83  1  0.51529557  0.83176759  0.69596822  1
  O  O84  1  0.40053708  0.82926685  0.19580963  1
  O  O85  1  0.90471247  0.83018089  0.19400047  1
  O  O86  1  0.01478318  0.19943861  0.19517040  1
  O  O87  1  0.50933241  0.18973351  0.19448694  1
  O  O88  1  0.08624073  0.97243991  0.19457876  1
  O  O89  1  0.58436493  0.97926558  0.19506266  1
  O  O90  1  0.44011947  0.37042949  0.63763937  1
  O  O91  1  0.93477559  0.36190125  0.63900434  1
  O  O92  1  0.24583412  0.12975583  0.63846600  1
  O  O93  1  0.74534094  0.11992382  0.63838644  1
  O  O94  1  0.32020271  0.51024793  0.63922856  1
  O  O95  1  0.81382308  0.50755238  0.63755864  1
  O  O96  1  0.43505357  0.50694688  0.13838272  1
  O  O97  1  0.94037505  0.50922609  0.13655697  1
  O  O98  1  0.31389327  0.12053297  0.13677364  1
  O  O99  1  0.81893612  0.12849379  0.13827300  1
  O  O100  1  0.24619483  0.37299291  0.13741118  1
  O  O101  1  0.74547151  0.36169333  0.13760449  1
  O  O102  1  0.23439714  0.30466899  0.02860652  1
  O  O103  1  0.73356309  0.30479189  0.02850602  1
  O  O104  1  0.41898801  0.53114184  0.02932819  1
  O  O105  1  0.91782773  0.53328856  0.02772559  1
  O  O106  1  0.34852172  0.16341465  0.02816760  1
  O  O107  1  0.84672431  0.16280331  0.02895588  1
  O  O108  1  0.23377199  0.16268622  0.52898531  1
  O  O109  1  0.73337573  0.16429714  0.52925332  1
  O  O110  1  0.34737495  0.53195667  0.52957702  1
  O  O111  1  0.84873099  0.53332474  0.52875257  1
  O  O112  1  0.41761974  0.30198637  0.52829995  1
  O  O113  1  0.91897245  0.30551139  0.52988715  1
  O  O114  1  0.26651550  0.69368314  0.97110632  1
  O  O115  1  0.77276780  0.69951923  0.97028101  1
  O  O116  1  0.08044672  0.46716597  0.97100253  1
  O  O117  1  0.57694488  0.45448789  0.97057853  1
  O  O118  1  0.15359861  0.83929462  0.97113864  1
  O  O119  1  0.64974441  0.84605039  0.97035097  1
  O  O120  1  0.27430958  0.84915055  0.47094642  1
  O  O121  1  0.76071396  0.83734391  0.47156543  1
  O  O122  1  0.15658268  0.46430537  0.47141903  1
  O  O123  1  0.65275895  0.46676358  0.47146929  1
  O  O124  1  0.07672147  0.68861518  0.47141713  1
  O  O125  1  0.57948774  0.69284345  0.47144066  1
  O  O126  1  0.06681425  0.63151289  0.36176079  1
  O  O127  1  0.55959479  0.62636996  0.36195703  1
  O  O128  1  0.25125684  0.87039004  0.36109464  1
  O  O129  1  0.75144374  0.88084304  0.36292676  1
  O  O130  1  0.18488893  0.50263007  0.36162318  1
  O  O131  1  0.68610536  0.49144171  0.36215833  1
  O  O132  1  0.05969600  0.49218838  0.86214481  1
  O  O133  1  0.56615461  0.49844393  0.86113762  1
  O  O134  1  0.18686488  0.88137258  0.86216328  1
  O  O135  1  0.68266697  0.86690363  0.86111634  1
  O  O136  1  0.25399771  0.62715186  0.86192000  1
  O  O137  1  0.75069404  0.63423534  0.86119078  1
  O  O138  1  0.00864507  0.81828456  0.40758392  1
  O  O139  1  0.51157366  0.82853150  0.40792275  1
  O  O140  1  0.40279655  0.98165766  0.40298748  1
  O  O141  1  0.89999798  0.97613048  0.41382544  1
  O  O142  1  0.09065571  0.19866192  0.40702216  1
  O  O143  1  0.58593709  0.19496268  0.40837281  1
  O  O144  1  0.01156478  0.19418369  0.90793846  1
  O  O145  1  0.50935285  0.19554727  0.90333734  1
  O  O146  1  0.08616229  0.97688406  0.90826220  1
  O  O147  1  0.58787136  0.98135734  0.90284229  1
  O  O148  1  0.40267437  0.82829507  0.90819868  1
  O  O149  1  0.90246939  0.82389391  0.90292850  1
  O  O150  1  0.48814721  0.17025715  0.59215520  1
  O  O151  1  0.98331941  0.16402656  0.59358220  1
  O  O152  1  0.09786336  0.03118326  0.59267033  1
  O  O153  1  0.59780543  0.02600935  0.59299649  1
  O  O154  1  0.41821521  0.80436933  0.59335937  1
  O  O155  1  0.91461454  0.80439617  0.59237974  1
  O  O156  1  0.48326147  0.80268155  0.09280306  1
  O  O157  1  0.98863710  0.80792656  0.09093706  1
  O  O158  1  0.41486728  0.02411994  0.09141162  1
  O  O159  1  0.91861118  0.03210606  0.09250118  1
  O  O160  1  0.09753430  0.16958537  0.09154229  1
  O  O161  1  0.59711769  0.16344196  0.09210780  1
  O  O162  1  0.35235503  0.16760871  0.74674330  1
  O  O163  1  0.84624044  0.16078971  0.74737258  1
  O  O164  1  0.23262182  0.29795622  0.74702502  1
  O  O165  1  0.73311870  0.30548884  0.74702054  1
  O  O166  1  0.41984285  0.53372661  0.74720072  1
  O  O167  1  0.91612122  0.53511999  0.74676332  1
  O  O168  1  0.34738185  0.53316615  0.24698382  1
  O  O169  1  0.84644981  0.53009032  0.24268976  1
  O  O170  1  0.41652569  0.29740518  0.24639907  1
  O  O171  1  0.92141924  0.31464841  0.24330870  1
  O  O172  1  0.23585406  0.15754435  0.24281228  1
  O  O173  1  0.73225164  0.16580567  0.24693329  1
  O  O174  1  0.32341785  0.50443074  0.92805295  1
  O  O175  1  0.82123978  0.49906138  0.92298424  1
  O  O176  1  0.42847903  0.35766622  0.92309760  1
  O  O177  1  0.92864164  0.35317524  0.92823351  1
  O  O178  1  0.24830254  0.14342843  0.92845915  1
  O  O179  1  0.74999914  0.14233314  0.92287893  1
  O  O180  1  0.32193509  0.14440967  0.42360243  1
  O  O181  1  0.81836635  0.13931673  0.42939259  1
  O  O182  1  0.25345662  0.36528450  0.42428428  1
  O  O183  1  0.74806896  0.35426637  0.42879052  1
  O  O184  1  0.42918155  0.50414277  0.42857421  1
  O  O185  1  0.92930445  0.49265620  0.42425273  1
  O  O186  1  0.17700347  0.49268821  0.06900681  1
  O  O187  1  0.67548279  0.49073783  0.07565524  1
  O  O188  1  0.06944168  0.64669179  0.06863262  1
  O  O189  1  0.56972635  0.64815106  0.07617776  1
  O  O190  1  0.25360863  0.86078484  0.06897144  1
  O  O191  1  0.75473523  0.86066372  0.07578894  1
  O  O192  1  0.17613992  0.86051458  0.57683693  1
  O  O193  1  0.67582940  0.86008905  0.57058308  1
  O  O194  1  0.25496660  0.64971971  0.57754762  1
  O  O195  1  0.75337369  0.64604201  0.56966365  1
  O  O196  1  0.07024509  0.49120479  0.57762155  1
  O  O197  1  0.56929940  0.49210158  0.56958159  1
  O  O198  1  0.15071451  0.83045952  0.25941885  1
  O  O199  1  0.64708266  0.83043463  0.25337568  1
  O  O200  1  0.26722224  0.70276955  0.26105491  1
  O  O201  1  0.76505704  0.70016815  0.25078014  1
  O  O202  1  0.08522514  0.47032120  0.25893689  1
  O  O203  1  0.58385515  0.46451935  0.25359797  1
  O  O204  1  0.14826808  0.46426221  0.75381140  1
  O  O205  1  0.64870498  0.46610104  0.76118194  1
  O  O206  1  0.08355013  0.70294417  0.75372113  1
  O  O207  1  0.58450199  0.70259653  0.76124719  1
  O  O208  1  0.26780794  0.83228165  0.75341486  1
  O  O209  1  0.76690291  0.83171157  0.76145500  1
