# generated using pymatgen
data_Ba3(TaS4)2
_symmetry_space_group_name_H-M   'P 1'
_cell_length_a   6.93224178
_cell_length_b   12.09942044
_cell_length_c   12.72904448
_cell_angle_alpha   70.84357675
_cell_angle_beta   90.00000000
_cell_angle_gamma   90.00000000
_symmetry_Int_Tables_number   1
_chemical_formula_structural   Ba3(TaS4)2
_chemical_formula_sum   'Ba9 Ta6 S24'
_cell_volume   1008.54218734
_cell_formula_units_Z   3
loop_
 _symmetry_equiv_pos_site_id
 _symmetry_equiv_pos_as_xyz
  1  'x, y, z'
loop_
 _atom_site_type_symbol
 _atom_site_label
 _atom_site_symmetry_multiplicity
 _atom_site_fract_x
 _atom_site_fract_y
 _atom_site_fract_z
 _atom_site_occupancy
  Ba  Ba0  1  -0.00000000  0.50000000  0.00000000  1
  Ba  Ba1  1  -0.00000000  0.95438615  0.69091198  1
  Ba  Ba2  1  -0.00000000  0.04561385  0.30908802  1
  Ba  Ba3  1  0.50000000  0.72133110  0.34349801  1
  Ba  Ba4  1  0.50000000  0.27866890  0.65650199  1
  Ba  Ba5  1  -0.00000000  0.59531398  0.63467455  1
  Ba  Ba6  1  0.50000000  0.18235712  0.03664995  1
  Ba  Ba7  1  0.50000000  0.81764288  0.96335005  1
  Ba  Ba8  1  -0.00000000  0.40468602  0.36532545  1
  Ta  Ta9  1  -0.00000000  -0.00000000  0.00000000  1
  Ta  Ta10  1  0.50000000  -0.00000000  0.50000000  1
  Ta  Ta11  1  -0.00000000  0.72967219  0.17240459  1
  Ta  Ta12  1  -0.00000000  0.27032781  0.82759541  1
  Ta  Ta13  1  0.50000000  0.73299358  0.67641074  1
  Ta  Ta14  1  0.50000000  0.26700642  0.32358926  1
  S  S15  1  0.75108990  0.68774248  0.80063351  1
  S  S16  1  0.75108990  0.31225752  0.19936649  1
  S  S17  1  0.24891010  0.31225752  0.19936649  1
  S  S18  1  0.24891010  0.68774248  0.80063351  1
  S  S19  1  0.74544962  0.61642933  0.15373520  1
  S  S20  1  0.74544962  0.38357067  0.84626480  1
  S  S21  1  0.25455038  0.38357067  0.84626480  1
  S  S22  1  0.25455038  0.61642933  0.15373520  1
  S  S23  1  0.74339358  0.84773427  0.51620238  1
  S  S24  1  0.74339358  0.15226573  0.48379762  1
  S  S25  1  0.25660642  0.15226573  0.48379762  1
  S  S26  1  0.25660642  0.84773427  0.51620238  1
  S  S27  1  0.76000693  0.90839621  0.14476861  1
  S  S28  1  0.76000693  0.09160379  0.85523139  1
  S  S29  1  0.23999307  0.09160379  0.85523139  1
  S  S30  1  0.50000000  0.94334788  0.69964593  1
  S  S31  1  0.50000000  0.05665212  0.30035407  1
  S  S32  1  -0.00000000  0.67670772  0.36683857  1
  S  S33  1  -0.00000000  0.32329228  0.63316143  1
  S  S34  1  0.50000000  0.57839977  0.60510346  1
  S  S35  1  0.50000000  0.42160023  0.39489654  1
  S  S36  1  -0.00000000  0.82217329  0.95463847  1
  S  S37  1  -0.00000000  0.17782671  0.04536153  1
  S  S38  1  0.23999307  0.90839621  0.14476861  1
