# generated using pymatgen
data_Hg3As2F12
_symmetry_space_group_name_H-M   'P 1'
_cell_length_a   8.53493547
_cell_length_b   5.71059603
_cell_length_c   11.27648199
_cell_angle_alpha   87.60054561
_cell_angle_beta   90.00000000
_cell_angle_gamma   90.00000000
_symmetry_Int_Tables_number   1
_chemical_formula_structural   Hg3As2F12
_chemical_formula_sum   'Hg6 As4 F24'
_cell_volume   549.12898482
_cell_formula_units_Z   2
loop_
 _symmetry_equiv_pos_site_id
 _symmetry_equiv_pos_as_xyz
  1  'x, y, z'
loop_
 _atom_site_type_symbol
 _atom_site_label
 _atom_site_symmetry_multiplicity
 _atom_site_fract_x
 _atom_site_fract_y
 _atom_site_fract_z
 _atom_site_occupancy
  Hg  Hg0  1  0.74230987  0.75559822  0.56945730  1
  Hg  Hg1  1  0.24230987  0.24440178  0.93054270  1
  Hg  Hg2  1  0.25769013  0.24440178  0.43054270  1
  Hg  Hg3  1  0.75769013  0.75559822  0.06945730  1
  Hg  Hg4  1  0.50000000  -0.00000000  0.50000000  1
  Hg  Hg5  1  -0.00000000  -0.00000000  0.00000000  1
  As  As6  1  0.14748583  0.69623390  0.67113989  1
  As  As7  1  0.64748583  0.30376610  0.82886011  1
  As  As8  1  0.85251417  0.30376610  0.32886011  1
  As  As9  1  0.35251417  0.69623390  0.17113989  1
  F  F10  1  0.97767983  0.54750086  0.62321600  1
  F  F11  1  0.47767983  0.45249914  0.87678400  1
  F  F12  1  0.02232017  0.45249914  0.37678400  1
  F  F13  1  0.52232017  0.54750086  0.12321600  1
  F  F14  1  0.23379926  0.42342846  0.70215370  1
  F  F15  1  0.73379926  0.57657154  0.79784630  1
  F  F16  1  0.76620074  0.57657154  0.29784630  1
  F  F17  1  0.26620074  0.42342846  0.20215370  1
  F  F18  1  0.07229270  0.69190234  0.81485229  1
  F  F19  1  0.57229270  0.30809766  0.68514771  1
  F  F20  1  0.18660101  0.84386227  0.21561252  1
  F  F21  1  0.68660101  0.15613773  0.28438748  1
  F  F22  1  0.81339899  0.15613773  0.78438748  1
  F  F23  1  0.31339899  0.84386227  0.71561252  1
  F  F24  1  0.27768601  0.68862874  0.02655685  1
  F  F25  1  0.77768601  0.31137126  0.47344315  1
  F  F26  1  0.72231399  0.31137126  0.97344315  1
  F  F27  1  0.22231399  0.68862874  0.52655685  1
  F  F28  1  0.44753168  0.95899058  0.13492164  1
  F  F29  1  0.94753168  0.04100942  0.36507836  1
  F  F30  1  0.55246832  0.04100942  0.86507836  1
  F  F31  1  0.05246832  0.95899058  0.63492164  1
  F  F32  1  0.42770730  0.69190234  0.31485229  1
  F  F33  1  0.92770730  0.30809766  0.18514771  1
