# generated using pymatgen
data_K2ZnBr4
_symmetry_space_group_name_H-M   'P 1'
_cell_length_a   7.26920940
_cell_length_b   7.50584353
_cell_length_c   9.08223757
_cell_angle_alpha   90.00000000
_cell_angle_beta   108.68766012
_cell_angle_gamma   90.00000000
_symmetry_Int_Tables_number   1
_chemical_formula_structural   K2ZnBr4
_chemical_formula_sum   'K4 Zn2 Br8'
_cell_volume   469.41568243
_cell_formula_units_Z   2
loop_
 _symmetry_equiv_pos_site_id
 _symmetry_equiv_pos_as_xyz
  1  'x, y, z'
loop_
 _atom_site_type_symbol
 _atom_site_label
 _atom_site_symmetry_multiplicity
 _atom_site_fract_x
 _atom_site_fract_y
 _atom_site_fract_z
 _atom_site_occupancy
  K  K0  1  0.77276081  0.23337000  0.57244395  1
  K  K1  1  0.22723819  0.73337000  0.42755605  1
  K  K2  1  0.70793337  0.23638721  0.04707721  1
  K  K3  1  0.29206663  0.73638721  0.95292279  1
  Zn  Zn4  1  0.27759357  0.25973988  0.20483575  1
  Zn  Zn5  1  0.72240643  0.75973988  0.79516425  1
  Br  Br6  1  0.10079511  0.27952909  0.93134486  1
  Br  Br7  1  0.89920489  0.77952909  0.06865514  1
  Br  Br8  1  0.07513406  0.27781947  0.36768696  1
  Br  Br9  1  0.92486594  0.77781947  0.63231304  1
  Br  Br10  1  0.48230997  0.99842813  0.26027897  1
  Br  Br11  1  0.51769003  0.49842813  0.73972103  1
  Br  Br12  1  0.51343120  0.49953523  0.26911315  1
  Br  Br13  1  0.48656880  -0.00046477  0.73088685  1
