# generated using pymatgen
data_Na7CaGa3Si3(SO8)3
_symmetry_space_group_name_H-M   'P 1'
_cell_length_a   9.05466577
_cell_length_b   9.05529297
_cell_length_c   22.21128487
_cell_angle_alpha   90.74543089
_cell_angle_beta   90.05584281
_cell_angle_gamma   119.86405057
_symmetry_Int_Tables_number   1
_chemical_formula_structural   Na7CaGa3Si3(SO8)3
_chemical_formula_sum   'Na21 Ca3 Ga9 Si9 S9 O72'
_cell_volume   1579.13683746
_cell_formula_units_Z   3
loop_
 _symmetry_equiv_pos_site_id
 _symmetry_equiv_pos_as_xyz
  1  'x, y, z'
loop_
 _atom_site_type_symbol
 _atom_site_label
 _atom_site_symmetry_multiplicity
 _atom_site_fract_x
 _atom_site_fract_y
 _atom_site_fract_z
 _atom_site_occupancy
  Na  Na0  1  0.63518332  0.99339940  0.24338341  1
  Na  Na1  1  0.37788022  0.37685440  0.24213139  1
  Na  Na2  1  0.98567292  0.63654135  0.25413859  1
  Na  Na3  1  0.62187160  0.62463855  0.74307058  1
  Na  Na4  1  0.99550122  0.35490906  0.75207897  1
  Na  Na5  1  0.38334970  0.01372165  0.75646429  1
  Na  Na6  1  0.02252751  0.69837834  0.57746355  1
  Na  Na7  1  0.66575813  0.96032386  0.58321972  1
  Na  Na8  1  0.31111377  0.97603022  0.08144732  1
  Na  Na9  1  0.65466649  0.69036271  0.08758951  1
  Na  Na10  1  0.69746562  0.03546784  0.91568932  1
  Na  Na11  1  0.33245651  0.29074564  0.91684816  1
  Na  Na12  1  0.96110449  0.29715200  0.41521157  1
  Na  Na13  1  0.33272233  0.02489608  0.41790081  1
  Na  Na14  1  0.72064181  0.68358073  0.41616811  1
  Na  Na15  1  0.99332715  0.99116464  0.50039085  1
  Na  Na16  1  0.00670018  0.00474172  0.00143736  1
  Na  Na17  1  0.65950530  0.32538673  0.83398268  1
  Na  Na18  1  0.67401418  0.34659965  0.33304077  1
  Na  Na19  1  0.34152968  0.65954914  0.16073479  1
  Na  Na20  1  0.34991357  0.65102505  0.66609461  1
  Ca  Ca21  1  0.99468147  0.99219388  0.35400739  1
  Ca  Ca22  1  0.65791060  0.33409970  0.68374918  1
  Ca  Ca23  1  0.65917844  0.33412697  0.17444931  1
  Ga  Ga24  1  0.01718945  0.00680734  0.84907885  1
  Ga  Ga25  1  0.98319381  0.99949953  0.65408528  1
  Ga  Ga26  1  0.97761464  0.00823963  0.14285578  1
  Ga  Ga27  1  0.62428730  0.28440442  0.98975351  1
  Ga  Ga28  1  0.69229883  0.35639960  0.48023087  1
  Ga  Ga29  1  0.33088064  0.67245755  0.01739352  1
  Ga  Ga30  1  0.35267793  0.67727733  0.51408107  1
  Ga  Ga31  1  0.35289951  0.69025546  0.32083598  1
  Ga  Ga32  1  0.35177760  0.67608456  0.81446506  1
  Si  Si33  1  0.69635049  0.70198529  0.25104459  1
  Si  Si34  1  0.28263340  0.29202042  0.75267324  1
  Si  Si35  1  0.71142330  0.99339797  0.75551282  1
  Si  Si36  1  0.66375735  0.63566343  0.58248380  1
  Si  Si37  1  0.66386635  0.02665321  0.08133646  1
  Si  Si38  1  0.35002767  0.33458446  0.08209358  1
  Si  Si39  1  0.32162790  0.94811937  0.91591286  1
  Si  Si40  1  0.62636315  0.97432904  0.42108646  1
  Si  Si41  1  0.05450771  0.66165353  0.41911727  1
  S  S42  1  0.29448129  0.99475492  0.24966096  1
  S  S43  1  0.00810137  0.30222022  0.25020334  1
  S  S44  1  0.00766580  0.71600310  0.75074718  1
  S  S45  1  0.97152301  0.33500319  0.58189746  1
  S  S46  1  0.36258796  0.03180781  0.58117159  1
  S  S47  1  0.96473336  0.62786734  0.08056765  1
  S  S48  1  0.62979901  0.66509826  0.91660269  1
  S  S49  1  0.04088262  0.38109451  0.91584945  1
  S  S50  1  0.34201703  0.38450643  0.41766692  1
  O  O51  1  0.22405714  0.02434228  0.30538198  1
  O  O52  1  0.80274519  0.77539233  0.31246277  1
  O  O53  1  0.98727248  0.20815219  0.30611241  1
  O  O54  1  0.20552917  0.17584004  0.81264713  1
  O  O55  1  0.97787088  0.79689922  0.80399588  1
  O  O56  1  0.83112762  0.01341825  0.81419317  1
  O  O57  1  0.78379179  0.95668796  0.69192055  1
  O  O58  1  0.15627078  0.19587662  0.69375601  1
  O  O59  1  0.03253068  0.81647799  0.69471573  1
  O  O60  1  0.79368634  0.83057839  0.19211555  1
  O  O61  1  0.03244043  0.21265482  0.19743967  1
  O  O62  1  0.18838976  0.97565097  0.19611054  1
  O  O63  1  0.89723462  0.36335803  0.63696957  1
  O  O64  1  0.46699954  0.10179841  0.63632013  1
  O  O65  1  0.63716202  0.54000558  0.64462832  1
  O  O66  1  0.90446668  0.54117945  0.13860869  1
  O  O67  1  0.62316255  0.09090867  0.14340428  1
  O  O68  1  0.46788205  0.39197573  0.14187345  1
  O  O69  1  0.44327540  0.29275364  0.02388567  1
  O  O70  1  0.84425347  0.53563020  0.03015060  1
  O  O71  1  0.70152325  0.15245966  0.02301248  1
  O  O72  1  0.44809702  0.13704569  0.52796049  1
  O  O73  1  0.70285311  0.54064165  0.52389184  1
  O  O74  1  0.85524673  0.30409370  0.52830716  1
  O  O75  1  0.54720310  0.69419978  0.96979009  1
  O  O76  1  0.15521554  0.46524062  0.96820913  1
  O  O77  1  0.30245075  0.83909720  0.97575007  1
  O  O78  1  0.54023022  0.84542576  0.47648191  1
  O  O79  1  0.31301581  0.46433198  0.47110345  1
  O  O80  1  0.16452090  0.67450543  0.47925750  1
  O  O81  1  0.13877658  0.62767684  0.35712271  1
  O  O82  1  0.50953429  0.89441633  0.35912422  1
  O  O83  1  0.36608894  0.48410279  0.36171916  1
  O  O84  1  0.12003692  0.47657094  0.85952279  1
  O  O85  1  0.36317820  0.86442236  0.85634401  1
  O  O86  1  0.51918895  0.63118782  0.86108361  1
  O  O87  1  0.03909059  0.83250650  0.42088514  1
  O  O88  1  0.81833214  0.00607117  0.42005399  1
  O  O89  1  0.19123895  0.21221297  0.41359769  1
  O  O90  1  0.02188432  0.20459391  0.91387034  1
  O  O91  1  0.15706562  0.98148684  0.91044875  1
  O  O92  1  0.79774274  0.82271012  0.91108521  1
  O  O93  1  0.98076562  0.17537214  0.58479935  1
  O  O94  1  0.19004986  0.01272826  0.58655008  1
  O  O95  1  0.84620693  0.82995115  0.58663977  1
  O  O96  1  0.98263924  0.80256083  0.08446467  1
  O  O97  1  0.82994809  0.99852923  0.08237887  1
  O  O98  1  0.17414537  0.14692164  0.09183095  1
  O  O99  1  0.69652875  0.16470808  0.75363436  1
  O  O100  1  0.47387242  0.32031973  0.75158501  1
  O  O101  1  0.85756008  0.54286387  0.74701637  1
  O  O102  1  0.67344553  0.51177812  0.24767446  1
  O  O103  1  0.85418010  0.31949575  0.24439109  1
  O  O104  1  0.47012309  0.14162085  0.24620183  1
  O  O105  1  0.64579669  0.51042710  0.92218007  1
  O  O106  1  0.86842659  0.36099814  0.92100771  1
  O  O107  1  0.50057171  0.14496229  0.92051944  1
  O  O108  1  0.63108890  0.16090418  0.42872232  1
  O  O109  1  0.49731226  0.36737943  0.42263039  1
  O  O110  1  0.85898124  0.49087766  0.42034193  1
  O  O111  1  0.33600554  0.50347455  0.06666072  1
  O  O112  1  0.13874621  0.65166625  0.07322890  1
  O  O113  1  0.49158699  0.83796595  0.07214439  1
  O  O114  1  0.34133395  0.85533119  0.57621401  1
  O  O115  1  0.49566922  0.66175884  0.57360197  1
  O  O116  1  0.13994214  0.48854892  0.57480037  1
  O  O117  1  0.29998737  0.83096061  0.25268310  1
  O  O118  1  0.50209963  0.68852973  0.25655897  1
  O  O119  1  0.16399694  0.47367330  0.25216856  1
  O  O120  1  0.29336438  0.48266787  0.75903456  1
  O  O121  1  0.16354874  0.70060330  0.75570859  1
  O  O122  1  0.51820144  0.82043002  0.75687989  1
