# generated using pymatgen
data_Na4MgSi2SnSO12
_symmetry_space_group_name_H-M   'P 1'
_cell_length_a   9.18567932
_cell_length_b   9.09513618
_cell_length_c   22.37165962
_cell_angle_alpha   90.79474829
_cell_angle_beta   90.00000000
_cell_angle_gamma   120.32986262
_symmetry_Int_Tables_number   1
_chemical_formula_structural   Na4MgSi2SnSO12
_chemical_formula_sum   'Na24 Mg6 Si12 Sn6 S6 O72'
_cell_volume   1613.02114559
_cell_formula_units_Z   6
loop_
 _symmetry_equiv_pos_site_id
 _symmetry_equiv_pos_as_xyz
  1  'x, y, z'
loop_
 _atom_site_type_symbol
 _atom_site_label
 _atom_site_symmetry_multiplicity
 _atom_site_fract_x
 _atom_site_fract_y
 _atom_site_fract_z
 _atom_site_occupancy
  Na  Na0  1  0.63825627  0.01883059  0.25453602  1
  Na  Na1  1  0.36212663  0.35117742  0.24430292  1
  Na  Na2  1  0.99741629  0.62548240  0.24343545  1
  Na  Na3  1  0.62806611  0.62548240  0.74343545  1
  Na  Na4  1  0.98905079  0.35117742  0.74430292  1
  Na  Na5  1  0.38057432  0.01883059  0.75453602  1
  Na  Na6  1  0.30492327  0.35216359  0.58786902  1
  Na  Na7  1  0.02879363  0.68451042  0.57763592  1
  Na  Na8  1  0.66408329  0.95881540  0.57676845  1
  Na  Na9  1  0.29473311  0.95881540  0.07676845  1
  Na  Na10  1  0.65571779  0.68451042  0.07763592  1
  Na  Na11  1  0.04724132  0.35216359  0.08786902  1
  Na  Na12  1  0.97158927  0.68549759  0.92120302  1
  Na  Na13  1  0.69545963  0.01784442  0.91096992  1
  Na  Na14  1  0.33074929  0.29214940  0.91010245  1
  Na  Na15  1  0.96139911  0.29214940  0.41010245  1
  Na  Na16  1  0.32238379  0.01784442  0.41096992  1
  Na  Na17  1  0.71390732  0.68549759  0.42120302  1
  Na  Na18  1  0.98292429  0.98909758  0.49565689  1
  Na  Na19  1  0.00617329  0.98909758  0.99565689  1
  Na  Na20  1  0.64959129  0.32243058  0.82898989  1
  Na  Na21  1  0.67284029  0.32243058  0.32898989  1
  Na  Na22  1  0.31625729  0.65576458  0.16232389  1
  Na  Na23  1  0.33950629  0.65576458  0.66232389  1
  Mg  Mg24  1  0.00202876  0.00257728  0.35135975  1
  Mg  Mg25  1  0.00054852  0.00257728  0.85135975  1
  Mg  Mg26  1  0.66869576  0.33591028  0.68469275  1
  Mg  Mg27  1  0.66721552  0.33591028  0.18469275  1
  Mg  Mg28  1  0.33536176  0.66924428  0.01802675  1
  Mg  Mg29  1  0.33388152  0.66924428  0.51802675  1
  Si  Si30  1  0.30073282  0.00376876  0.25341902  1
  Si  Si31  1  0.99866027  0.29282772  0.25353616  1
  Si  Si32  1  0.29416745  0.29282772  0.75353616  1
  Si  Si33  1  0.70303594  0.00376876  0.75341902  1
  Si  Si34  1  0.96739982  0.33710176  0.58675202  1
  Si  Si35  1  0.66532727  0.62616072  0.58686916  1
  Si  Si36  1  0.96083445  0.62616072  0.08686916  1
  Si  Si37  1  0.36970294  0.33710176  0.08675202  1
  Si  Si38  1  0.63406582  0.67043576  0.92008602  1
  Si  Si39  1  0.33199327  0.95949472  0.92020316  1
  Si  Si40  1  0.62750045  0.95949472  0.42020316  1
  Si  Si41  1  0.03636894  0.67043576  0.42008602  1
  Sn  Sn42  1  0.98519588  0.00587937  0.65052286  1
  Sn  Sn43  1  0.02068348  0.00587937  0.15052286  1
  Sn  Sn44  1  0.65186288  0.33921237  0.98385586  1
  Sn  Sn45  1  0.68735048  0.33921237  0.48385586  1
  Sn  Sn46  1  0.31852888  0.67254637  0.31718986  1
  Sn  Sn47  1  0.35401648  0.67254637  0.81718986  1
  S  S48  1  0.70629781  0.70845152  0.25105423  1
  S  S49  1  0.00215371  0.70845152  0.75105423  1
  S  S50  1  0.37296481  0.04178452  0.58438723  1
  S  S51  1  0.66882071  0.04178452  0.08438723  1
  S  S52  1  0.03963081  0.37511852  0.91772123  1
  S  S53  1  0.33548671  0.37511852  0.41772123  1
  O  O54  1  0.20933145  0.02900656  0.31043381  1
  O  O55  1  0.81175174  0.79208443  0.30411274  1
  O  O56  1  0.96977454  0.17550992  0.31000842  1
  O  O57  1  0.20573539  0.17550992  0.81000842  1
  O  O58  1  0.98033268  0.79208443  0.80411274  1
  O  O59  1  0.81967511  0.02900656  0.81043381  1
  O  O60  1  0.77334704  0.95118731  0.69203660  1
  O  O61  1  0.17781642  0.21043400  0.69033948  1
  O  O62  1  0.03540163  0.81525653  0.69577126  1
  O  O63  1  0.77985490  0.81525653  0.19577126  1
  O  O64  1  0.03261758  0.21043400  0.19033948  1
  O  O65  1  0.17784027  0.95118731  0.19203660  1
  O  O66  1  0.87599845  0.36233956  0.64376681  1
  O  O67  1  0.47841874  0.12541743  0.63744574  1
  O  O68  1  0.63644154  0.50884292  0.64334142  1
  O  O69  1  0.87240239  0.50884292  0.14334142  1
  O  O70  1  0.64699968  0.12541743  0.13744574  1
  O  O71  1  0.48634211  0.36233956  0.14376681  1
  O  O72  1  0.44001404  0.28452031  0.02536960  1
  O  O73  1  0.84448342  0.54376700  0.02367248  1
  O  O74  1  0.70206863  0.14858953  0.02910426  1
  O  O75  1  0.44652190  0.14858953  0.52910426  1
  O  O76  1  0.69928458  0.54376700  0.52367248  1
  O  O77  1  0.84450727  0.28452031  0.52536960  1
  O  O78  1  0.54266445  0.69567356  0.97710081  1
  O  O79  1  0.14508474  0.45875143  0.97077974  1
  O  O80  1  0.30310754  0.84217692  0.97667542  1
  O  O81  1  0.53906839  0.84217692  0.47667542  1
  O  O82  1  0.31366568  0.45875143  0.47077974  1
  O  O83  1  0.15300811  0.69567356  0.47710081  1
  O  O84  1  0.10668004  0.61785431  0.35870360  1
  O  O85  1  0.51114942  0.87710100  0.35700648  1
  O  O86  1  0.36873463  0.48192353  0.36243826  1
  O  O87  1  0.11318790  0.48192353  0.86243826  1
  O  O88  1  0.36595058  0.87710100  0.85700648  1
  O  O89  1  0.51117327  0.61785431  0.85870360  1
  O  O90  1  0.01622710  0.83676787  0.41194321  1
  O  O91  1  0.81658236  0.98977793  0.41263094  1
  O  O92  1  0.18241153  0.20573240  0.41146779  1
  O  O93  1  0.02332088  0.20573240  0.91146779  1
  O  O94  1  0.17319557  0.98977793  0.91263094  1
  O  O95  1  0.82054077  0.83676787  0.91194321  1
  O  O96  1  0.98548909  0.16138286  0.58596072  1
  O  O97  1  0.20087176  0.02119009  0.58877803  1
  O  O98  1  0.85251412  0.81357748  0.58869370  1
  O  O99  1  0.96106336  0.81357748  0.08869370  1
  O  O100  1  0.82031833  0.02119009  0.08877803  1
  O  O101  1  0.17589377  0.16138286  0.08596072  1
  O  O102  1  0.68289410  0.17010087  0.74527621  1
  O  O103  1  0.48324936  0.32311093  0.74596394  1
  O  O104  1  0.84907853  0.53906540  0.74480079  1
  O  O105  1  0.68998788  0.53906540  0.24480079  1
  O  O106  1  0.83986257  0.32311093  0.24596394  1
  O  O107  1  0.48720777  0.17010087  0.24527621  1
  O  O108  1  0.65215609  0.49471586  0.91929372  1
  O  O109  1  0.86753876  0.35452309  0.92211103  1
  O  O110  1  0.51918112  0.14691048  0.92202670  1
  O  O111  1  0.62773036  0.14691048  0.42202670  1
  O  O112  1  0.48698533  0.35452309  0.42211103  1
  O  O113  1  0.84256077  0.49471586  0.41929372  1
  O  O114  1  0.34956010  0.50343487  0.07861021  1
  O  O115  1  0.14991536  0.65644493  0.07929794  1
  O  O116  1  0.51574453  0.87239940  0.07813479  1
  O  O117  1  0.35665388  0.87239940  0.57813479  1
  O  O118  1  0.50652857  0.65644493  0.57929794  1
  O  O119  1  0.15387377  0.50343487  0.57861021  1
  O  O120  1  0.31882209  0.82804986  0.25262772  1
  O  O121  1  0.53420476  0.68785709  0.25544503  1
  O  O122  1  0.18584712  0.48024448  0.25536070  1
  O  O123  1  0.29439636  0.48024448  0.75536070  1
  O  O124  1  0.15365133  0.68785709  0.75544503  1
  O  O125  1  0.50922677  0.82804986  0.75262772  1
