# generated using pymatgen
data_Na3Ca5Ta(SO4)9
_symmetry_space_group_name_H-M   'P 1'
_cell_length_a   9.11768022
_cell_length_b   9.11767990
_cell_length_c   24.13423966
_cell_angle_alpha   90.00000000
_cell_angle_beta   90.00000000
_cell_angle_gamma   120.00000114
_symmetry_Int_Tables_number   1
_chemical_formula_structural   Na3Ca5Ta(SO4)9
_chemical_formula_sum   'Na6 Ca10 Ta2 S18 O72'
_cell_volume   1737.53253498
_cell_formula_units_Z   2
loop_
 _symmetry_equiv_pos_site_id
 _symmetry_equiv_pos_as_xyz
  1  'x, y, z'
loop_
 _atom_site_type_symbol
 _atom_site_label
 _atom_site_symmetry_multiplicity
 _atom_site_fract_x
 _atom_site_fract_y
 _atom_site_fract_z
 _atom_site_occupancy
  Na  Na0  1  -0.00000000  0.00000000  0.50967276  1
  Na  Na1  1  -0.00000000  0.00000000  0.00967276  1
  Na  Na2  1  0.66666700  0.33333300  0.83289637  1
  Na  Na3  1  0.66666700  0.33333300  0.33289637  1
  Na  Na4  1  0.33333300  0.66666700  0.15550718  1
  Na  Na5  1  0.33333300  0.66666700  0.65550718  1
  Ca  Ca6  1  -0.00000000  0.00000000  0.35026694  1
  Ca  Ca7  1  -0.00000000  0.00000000  0.85026694  1
  Ca  Ca8  1  -0.00000000  0.00000000  0.65092175  1
  Ca  Ca9  1  -0.00000000  0.00000000  0.15092175  1
  Ca  Ca10  1  0.66666700  0.33333300  0.68151084  1
  Ca  Ca11  1  0.66666700  0.33333300  0.18151084  1
  Ca  Ca12  1  0.66666700  0.33333300  0.98316345  1
  Ca  Ca13  1  0.66666700  0.33333300  0.48316345  1
  Ca  Ca14  1  0.33333300  0.66666700  0.02037149  1
  Ca  Ca15  1  0.33333300  0.66666700  0.52037149  1
  Ta  Ta16  1  0.33333300  0.66666700  0.31660160  1
  Ta  Ta17  1  0.33333300  0.66666700  0.81660160  1
  S  S18  1  0.30185000  0.99198129  0.25440551  1
  S  S19  1  0.69013129  0.69815000  0.25440551  1
  S  S20  1  0.00801871  0.30986871  0.25440551  1
  S  S21  1  0.30185000  0.30986871  0.75440551  1
  S  S22  1  0.00801871  0.69815000  0.75440551  1
  S  S23  1  0.69013129  0.99198129  0.75440551  1
  S  S24  1  0.96547550  0.33107375  0.58337411  1
  S  S25  1  0.36559925  0.03452450  0.58337411  1
  S  S26  1  0.66892625  0.63440075  0.58337411  1
  S  S27  1  0.96547550  0.63440075  0.08337411  1
  S  S28  1  0.66892625  0.03452450  0.08337411  1
  S  S29  1  0.36559925  0.33107375  0.08337411  1
  S  S30  1  0.61927762  0.66475693  0.91346367  1
  S  S31  1  0.04547831  0.38072238  0.91346367  1
  S  S32  1  0.33524307  0.95452169  0.91346367  1
  S  S33  1  0.61927762  0.95452169  0.41346367  1
  S  S34  1  0.33524307  0.38072238  0.41346367  1
  S  S35  1  0.04547831  0.66475693  0.41346367  1
  O  O36  1  0.21916828  0.01386302  0.30277336  1
  O  O37  1  0.79469474  0.78083172  0.30277336  1
  O  O38  1  0.98613698  0.20530526  0.30277336  1
  O  O39  1  0.21916828  0.20530526  0.80277336  1
  O  O40  1  0.98613698  0.78083172  0.80277336  1
  O  O41  1  0.79469474  0.01386302  0.80277336  1
  O  O42  1  0.75185303  0.95272974  0.70361462  1
  O  O43  1  0.20087671  0.24814697  0.70361462  1
  O  O44  1  0.04727026  0.79912329  0.70361462  1
  O  O45  1  0.75185303  0.79912329  0.20361462  1
  O  O46  1  0.04727026  0.24814697  0.20361462  1
  O  O47  1  0.20087671  0.95272974  0.20361462  1
  O  O48  1  0.88150944  0.34470650  0.63395115  1
  O  O49  1  0.46319806  0.11849056  0.63395115  1
  O  O50  1  0.65529350  0.53680194  0.63395115  1
  O  O51  1  0.88150944  0.53680194  0.13395115  1
  O  O52  1  0.65529350  0.11849056  0.13395115  1
  O  O53  1  0.46319806  0.34470650  0.13395115  1
  O  O54  1  0.44978009  0.31801638  0.03260724  1
  O  O55  1  0.86823729  0.55021991  0.03260724  1
  O  O56  1  0.68198362  0.13176271  0.03260724  1
  O  O57  1  0.44978009  0.13176271  0.53260724  1
  O  O58  1  0.68198362  0.55021991  0.53260724  1
  O  O59  1  0.86823729  0.31801638  0.53260724  1
  O  O60  1  0.53896433  0.67974968  0.96358494  1
  O  O61  1  0.14078435  0.46103567  0.96358494  1
  O  O62  1  0.32025032  0.85921565  0.96358494  1
  O  O63  1  0.53896433  0.85921565  0.46358494  1
  O  O64  1  0.32025032  0.46103567  0.46358494  1
  O  O65  1  0.14078435  0.67974968  0.46358494  1
  O  O66  1  0.15078286  0.65812646  0.36302804  1
  O  O67  1  0.50734260  0.84921714  0.36302804  1
  O  O68  1  0.34187354  0.49265740  0.36302804  1
  O  O69  1  0.15078286  0.49265740  0.86302804  1
  O  O70  1  0.34187354  0.84921714  0.86302804  1
  O  O71  1  0.50734260  0.65812646  0.86302804  1
  O  O72  1  0.02940891  0.81510901  0.40629184  1
  O  O73  1  0.78570010  0.97059109  0.40629184  1
  O  O74  1  0.18489099  0.21429990  0.40629184  1
  O  O75  1  0.02940891  0.21429990  0.90629184  1
  O  O76  1  0.18489099  0.97059109  0.90629184  1
  O  O77  1  0.78570010  0.81510901  0.90629184  1
  O  O78  1  0.98299819  0.17702659  0.58633745  1
  O  O79  1  0.19402840  0.01700181  0.58633745  1
  O  O80  1  0.82297341  0.80597160  0.58633745  1
  O  O81  1  0.98299819  0.80597160  0.08633745  1
  O  O82  1  0.82297341  0.01700181  0.08633745  1
  O  O83  1  0.19402840  0.17702659  0.08633745  1
  O  O84  1  0.65908997  0.13473826  0.74897334  1
  O  O85  1  0.47564929  0.34091003  0.74897334  1
  O  O86  1  0.86526174  0.52435071  0.74897334  1
  O  O87  1  0.65908997  0.52435071  0.24897334  1
  O  O88  1  0.86526174  0.34091003  0.24897334  1
  O  O89  1  0.47564929  0.13473826  0.24897334  1
  O  O90  1  0.62444429  0.50637957  0.91037473  1
  O  O91  1  0.88193628  0.37555571  0.91037473  1
  O  O92  1  0.49362043  0.11806372  0.91037473  1
  O  O93  1  0.62444429  0.11806372  0.41037473  1
  O  O94  1  0.49362043  0.37555571  0.41037473  1
  O  O95  1  0.88193628  0.50637957  0.41037473  1
  O  O96  1  0.34772233  0.48467670  0.08108236  1
  O  O97  1  0.13695337  0.65227767  0.08108236  1
  O  O98  1  0.51532330  0.86304663  0.08108236  1
  O  O99  1  0.34772233  0.86304663  0.58108236  1
  O  O100  1  0.51532330  0.65227767  0.58108236  1
  O  O101  1  0.13695337  0.48467670  0.58108236  1
  O  O102  1  0.31948646  0.83218778  0.26583351  1
  O  O103  1  0.51270032  0.68051354  0.26583351  1
  O  O104  1  0.16781222  0.48729968  0.26583351  1
  O  O105  1  0.31948646  0.48729968  0.76583351  1
  O  O106  1  0.16781222  0.68051354  0.76583351  1
  O  O107  1  0.51270032  0.83218778  0.76583351  1
