# generated using pymatgen
data_CoP4H16(NO8)2
_symmetry_space_group_name_H-M   'P 1'
_cell_length_a   7.05034647
_cell_length_b   7.17719140
_cell_length_c   7.70545265
_cell_angle_alpha   100.05450071
_cell_angle_beta   110.74145976
_cell_angle_gamma   88.74052107
_symmetry_Int_Tables_number   1
_chemical_formula_structural   CoP4H16(NO8)2
_chemical_formula_sum   'Co1 P4 H16 N2 O16'
_cell_volume   358.70170301
_cell_formula_units_Z   1
loop_
 _symmetry_equiv_pos_site_id
 _symmetry_equiv_pos_as_xyz
  1  'x, y, z'
loop_
 _atom_site_type_symbol
 _atom_site_label
 _atom_site_symmetry_multiplicity
 _atom_site_fract_x
 _atom_site_fract_y
 _atom_site_fract_z
 _atom_site_occupancy
  Co  Co0  1  -0.00000000  0.50000000  0.00000000  1
  P  P1  1  0.84896533  0.25913055  0.27176251  1
  P  P2  1  0.15103467  0.74086945  0.72823749  1
  P  P3  1  0.74110883  0.77799166  0.73487652  1
  P  P4  1  0.25889117  0.22200834  0.26512348  1
  H  H5  1  0.64079238  0.83447428  0.19121626  1
  H  H6  1  0.35920762  0.16552572  0.80878374  1
  H  H7  1  0.67343274  0.59973939  0.17005617  1
  H  H8  1  0.32656726  0.40026061  0.82994383  1
  H  H9  1  0.56218747  0.70943481  0.31915704  1
  H  H10  1  0.56185424  0.31920522  0.91522103  1
  H  H11  1  0.10942562  0.70185121  0.33108255  1
  H  H12  1  0.89057438  0.29814879  0.66891745  1
  H  H13  1  0.12413019  0.83614122  0.18975197  1
  H  H14  1  0.41369520  0.72090207  0.56347016  1
  H  H15  1  0.58630480  0.27909793  0.43652984  1
  H  H16  1  0.87586981  0.16385878  0.81024803  1
  H  H17  1  0.75921494  0.01679054  0.03664070  1
  H  H18  1  0.24078506  0.98320946  0.96335930  1
  H  H19  1  0.43781253  0.29056519  0.68084296  1
  H  H20  1  0.43814576  0.68079478  0.08477897  1
  N  N21  1  0.42161474  0.29377225  0.80917316  1
  N  N22  1  0.57838526  0.70622775  0.19082684  1
  O  O23  1  0.05294773  0.72388445  0.20012992  1
  O  O24  1  0.08854671  0.23772402  0.35987545  1
  O  O25  1  0.75314086  0.05727380  0.17130443  1
  O  O26  1  0.91145329  0.76227598  0.64012455  1
  O  O27  1  0.23695283  0.02426782  0.15203378  1
  O  O28  1  0.94705227  0.27611555  0.79987008  1
  O  O29  1  0.78519825  0.32314496  0.43757753  1
  O  O30  1  0.76304717  0.97573218  0.84796622  1
  O  O31  1  0.45001973  0.24502801  0.44848318  1
  O  O32  1  0.54998027  0.75497199  0.55151682  1
  O  O33  1  0.24960246  0.37973320  0.15889878  1
  O  O34  1  0.19482781  0.61319731  0.87244377  1
  O  O35  1  0.21480175  0.67685504  0.56242247  1
  O  O36  1  0.75039754  0.62026680  0.84110122  1
  O  O37  1  0.80517219  0.38680269  0.12755623  1
  O  O38  1  0.24685914  0.94272620  0.82869557  1
