# generated using pymatgen
data_MnAlF5
_symmetry_space_group_name_H-M   'P 1'
_cell_length_a   5.25734411
_cell_length_b   5.25734411
_cell_length_c   9.47933798
_cell_angle_alpha   90.00000000
_cell_angle_beta   90.00000000
_cell_angle_gamma   140.17599288
_symmetry_Int_Tables_number   1
_chemical_formula_structural   MnAlF5
_chemical_formula_sum   'Mn2 Al2 F10'
_cell_volume   167.79674803
_cell_formula_units_Z   2
loop_
 _symmetry_equiv_pos_site_id
 _symmetry_equiv_pos_as_xyz
  1  'x, y, z'
loop_
 _atom_site_type_symbol
 _atom_site_label
 _atom_site_symmetry_multiplicity
 _atom_site_fract_x
 _atom_site_fract_y
 _atom_site_fract_z
 _atom_site_occupancy
  Mn  Mn0  1  0.50000000  0.50000000  0.50000000  1
  Mn  Mn1  1  0.50000000  0.50000000  0.00000000  1
  Al  Al2  1  0.20507345  0.79492655  0.25000000  1
  Al  Al3  1  0.79492655  0.20507345  0.75000000  1
  F  F4  1  0.69294669  0.30705331  0.25000000  1
  F  F5  1  0.30705331  0.69294669  0.75000000  1
  F  F6  1  0.92753521  0.07246479  0.61507986  1
  F  F7  1  0.07246479  0.92753521  0.38492014  1
  F  F8  1  0.67058919  0.32941081  0.88408725  1
  F  F9  1  0.32941081  0.67058919  0.11591275  1
  F  F10  1  0.32941081  0.67058919  0.38408725  1
  F  F11  1  0.67058919  0.32941081  0.61591275  1
  F  F12  1  0.92753521  0.07246479  0.88492014  1
  F  F13  1  0.07246479  0.92753521  0.11507986  1
