# generated using pymatgen
data_Na4LaNb3Si4(PO12)2
_symmetry_space_group_name_H-M   'P 1'
_cell_length_a   9.11318628
_cell_length_b   9.14571902
_cell_length_c   22.93528999
_cell_angle_alpha   90.01863826
_cell_angle_beta   89.99999894
_cell_angle_gamma   120.03686652
_symmetry_Int_Tables_number   1
_chemical_formula_structural   Na4LaNb3Si4(PO12)2
_chemical_formula_sum   'Na12 La3 Nb9 Si12 P6 O72'
_cell_volume   1654.86085169
_cell_formula_units_Z   3
loop_
 _symmetry_equiv_pos_site_id
 _symmetry_equiv_pos_as_xyz
  1  'x, y, z'
loop_
 _atom_site_type_symbol
 _atom_site_label
 _atom_site_symmetry_multiplicity
 _atom_site_fract_x
 _atom_site_fract_y
 _atom_site_fract_z
 _atom_site_occupancy
  Na  Na0  1  0.63148211  0.62452984  0.74701289  1
  Na  Na1  1  0.99494564  0.37633014  0.74733927  1
  Na  Na2  1  0.31915805  0.97646393  0.08400377  1
  Na  Na3  1  0.02324998  0.34545229  0.08343914  1
  Na  Na4  1  0.96242668  0.29107437  0.41375324  1
  Na  Na5  1  0.70374557  0.67894909  0.41717511  1
  Na  Na6  1  0.00771571  0.99256592  0.50449373  1
  Na  Na7  1  0.98706236  0.98682318  0.99572406  1
  Na  Na8  1  0.64771594  0.31331465  0.83530536  1
  Na  Na9  1  0.65094330  0.31882786  0.32443325  1
  Na  Na10  1  0.35043386  0.66249918  0.16607419  1
  Na  Na11  1  0.33297596  0.67390105  0.66703177  1
  La  La12  1  0.01189146  0.99948696  0.35406143  1
  La  La13  1  0.65383993  0.32135246  0.68311903  1
  La  La14  1  0.66804156  0.33913786  0.17717045  1
  Nb  Nb15  1  0.00433082  0.00649862  0.85879213  1
  Nb  Nb16  1  0.99525560  0.00278115  0.64590649  1
  Nb  Nb17  1  0.99533849  0.99648635  0.14662991  1
  Nb  Nb18  1  0.66724735  0.33511412  0.97837968  1
  Nb  Nb19  1  0.67060543  0.33090957  0.48452163  1
  Nb  Nb20  1  0.33695087  0.66694352  0.01338414  1
  Nb  Nb21  1  0.33580541  0.66958665  0.52171724  1
  Nb  Nb22  1  0.33005421  0.67359147  0.31111437  1
  Nb  Nb23  1  0.33621017  0.66967744  0.81468655  1
  Si  Si24  1  0.28137200  0.29131851  0.75298795  1
  Si  Si25  1  0.71077764  0.99068960  0.75383171  1
  Si  Si26  1  0.97080944  0.33339270  0.58599435  1
  Si  Si27  1  0.67085897  0.63661704  0.58489914  1
  Si  Si28  1  0.96821421  0.63278409  0.07963299  1
  Si  Si29  1  0.66262841  0.03092125  0.08021349  1
  Si  Si30  1  0.36652334  0.33717081  0.08123635  1
  Si  Si31  1  0.62583837  0.66158233  0.91389093  1
  Si  Si32  1  0.03676724  0.37710293  0.91462542  1
  Si  Si33  1  0.33820782  0.96154393  0.91574231  1
  Si  Si34  1  0.60882423  0.96264562  0.41743818  1
  Si  Si35  1  0.03821815  0.65240211  0.41929018  1
  P  P36  1  0.29693732  0.98691991  0.24741210  1
  P  P37  1  0.69407787  0.70939562  0.25270920  1
  P  P38  1  0.01441700  0.30574959  0.25189537  1
  P  P39  1  0.01592944  0.72930402  0.75233414  1
  P  P40  1  0.35938763  0.03055058  0.58019640  1
  P  P41  1  0.35058459  0.39635897  0.41816782  1
  O  O42  1  0.21875862  0.00040535  0.30397702  1
  O  O43  1  0.77760887  0.78111014  0.31141167  1
  O  O44  1  0.99934639  0.21872032  0.31015736  1
  O  O45  1  0.17691264  0.17608890  0.80927479  1
  O  O46  1  0.00391670  0.82174983  0.80674109  1
  O  O47  1  0.82507281  0.99188790  0.80855576  1
  O  O48  1  0.80751734  0.97151010  0.69406208  1
  O  O49  1  0.16745329  0.18735229  0.69454797  1
  O  O50  1  0.02816280  0.83103738  0.69621344  1
  O  O51  1  0.80920798  0.82931395  0.20096303  1
  O  O52  1  0.02283187  0.19697455  0.19895922  1
  O  O53  1  0.18450568  0.97651780  0.19371524  1
  O  O54  1  0.91269133  0.37345608  0.64662898  1
  O  O55  1  0.45773418  0.08010189  0.63718544  1
  O  O56  1  0.62634458  0.53963897  0.64601338  1
  O  O57  1  0.92482431  0.51176017  0.13496654  1
  O  O58  1  0.59203094  0.07940812  0.13627031  1
  O  O59  1  0.46659203  0.38818192  0.14105192  1
  O  O60  1  0.46679304  0.29470742  0.02929713  1
  O  O61  1  0.83182979  0.53095691  0.02675252  1
  O  O62  1  0.70711878  0.17273484  0.02819284  1
  O  O63  1  0.46725720  0.15693671  0.53014820  1
  O  O64  1  0.68868363  0.52113800  0.53018369  1
  O  O65  1  0.83285057  0.30542016  0.53106926  1
  O  O66  1  0.52207088  0.68473653  0.96740056  1
  O  O67  1  0.15505220  0.47203734  0.97058567  1
  O  O68  1  0.31358097  0.84355464  0.97166856  1
  O  O69  1  0.50633600  0.83989676  0.47115932  1
  O  O70  1  0.34416186  0.49334321  0.47194403  1
  O  O71  1  0.15457742  0.65484640  0.47217390  1
  O  O72  1  0.13531861  0.63643494  0.35889814  1
  O  O73  1  0.49568952  0.85983836  0.35801350  1
  O  O74  1  0.36651801  0.50159696  0.36235314  1
  O  O75  1  0.13518303  0.49500705  0.85675098  1
  O  O76  1  0.36059533  0.85872668  0.85934852  1
  O  O77  1  0.50571446  0.63749211  0.85552643  1
  O  O78  1  0.99872444  0.80441499  0.42350460  1
  O  O79  1  0.79760849  0.98838211  0.41867853  1
  O  O80  1  0.18758454  0.22565069  0.41987896  1
  O  O81  1  0.01606721  0.18764683  0.90993011  1
  O  O82  1  0.16975858  0.98033930  0.90922614  1
  O  O83  1  0.81401278  0.82778562  0.90974369  1
  O  O84  1  0.97765782  0.15656902  0.58946413  1
  O  O85  1  0.18973535  0.02581289  0.58437176  1
  O  O86  1  0.84910804  0.81791740  0.58896403  1
  O  O87  1  0.97950984  0.81772115  0.09341072  1
  O  O88  1  0.84144954  0.02799899  0.09373657  1
  O  O89  1  0.17849731  0.15766503  0.09180187  1
  O  O90  1  0.71029792  0.16564171  0.75486282  1
  O  O91  1  0.47333134  0.32873419  0.75544470  1
  O  O92  1  0.85617436  0.55348496  0.75129327  1
  O  O93  1  0.66755211  0.53208996  0.24733829  1
  O  O94  1  0.86580383  0.33625195  0.24664595  1
  O  O95  1  0.47742542  0.13156685  0.24520426  1
  O  O96  1  0.63645480  0.49084713  0.92406594  1
  O  O97  1  0.85096278  0.35934826  0.92290264  1
  O  O98  1  0.50703794  0.14561485  0.92392806  1
  O  O99  1  0.62434988  0.14911820  0.42435447  1
  O  O100  1  0.51363055  0.38261474  0.42242221  1
  O  O101  1  0.85157830  0.47396010  0.42444612  1
  O  O102  1  0.31700424  0.48270984  0.06673919  1
  O  O103  1  0.16292626  0.67944834  0.06513441  1
  O  O104  1  0.51212888  0.84046032  0.06460472  1
  O  O105  1  0.32844725  0.85096696  0.56736669  1
  O  O106  1  0.51569827  0.67198467  0.56954481  1
  O  O107  1  0.15877069  0.48833465  0.57025319  1
  O  O108  1  0.29412474  0.81211033  0.25069484  1
  O  O109  1  0.52108864  0.70665826  0.25157549  1
  O  O110  1  0.18734946  0.47793751  0.25302436  1
  O  O111  1  0.28479607  0.47502876  0.75478239  1
  O  O112  1  0.17483413  0.70713566  0.75526390  1
  O  O113  1  0.52457446  0.81607985  0.75546775  1
