# generated using pymatgen
data_Na4Mg(CoO3)2
_symmetry_space_group_name_H-M   'P 1'
_cell_length_a   6.00867195
_cell_length_b   5.86046765
_cell_length_c   6.59498969
_cell_angle_alpha   79.35318381
_cell_angle_beta   96.64010906
_cell_angle_gamma   59.22783660
_symmetry_Int_Tables_number   1
_chemical_formula_structural   Na4Mg(CoO3)2
_chemical_formula_sum   'Na4 Mg1 Co2 O6'
_cell_volume   189.93151080
_cell_formula_units_Z   1
loop_
 _symmetry_equiv_pos_site_id
 _symmetry_equiv_pos_as_xyz
  1  'x, y, z'
loop_
 _atom_site_type_symbol
 _atom_site_label
 _atom_site_symmetry_multiplicity
 _atom_site_fract_x
 _atom_site_fract_y
 _atom_site_fract_z
 _atom_site_occupancy
  Na  Na0  1  0.11586196  0.24809487  0.46082587  1
  Na  Na1  1  0.72285627  0.89788556  0.41626057  1
  Na  Na2  1  0.59485173  0.40971145  0.64109637  1
  Na  Na3  1  0.87727661  0.17304609  0.08228396  1
  Mg  Mg4  1  0.38687895  0.61694001  0.16001146  1
  Co  Co5  1  0.84724875  0.71298693  0.91223024  1
  Co  Co6  1  0.33200494  0.21069324  0.94156161  1
  O  O7  1  0.39741609  0.47906853  0.90769402  1
  O  O8  1  0.00640107  0.70331992  0.16271266  1
  O  O9  1  0.34064218  0.97928730  0.17103540  1
  O  O10  1  0.94765641  0.43756111  0.78247752  1
  O  O11  1  0.53158354  0.01194845  0.74440788  1
  O  O12  1  0.71182151  0.30695654  0.35549745  1
