# generated using pymatgen
data_Na9Ca11Ta(SO4)18
_symmetry_space_group_name_H-M   'P 1'
_cell_length_a   9.22794558
_cell_length_b   9.23050332
_cell_length_c   24.18403858
_cell_angle_alpha   89.90001037
_cell_angle_beta   90.14737104
_cell_angle_gamma   120.28144413
_symmetry_Int_Tables_number   1
_chemical_formula_structural   Na9Ca11Ta(SO4)18
_chemical_formula_sum   'Na9 Ca11 Ta1 S18 O72'
_cell_volume   1778.89250193
_cell_formula_units_Z   1
loop_
 _symmetry_equiv_pos_site_id
 _symmetry_equiv_pos_as_xyz
  1  'x, y, z'
loop_
 _atom_site_type_symbol
 _atom_site_label
 _atom_site_symmetry_multiplicity
 _atom_site_fract_x
 _atom_site_fract_y
 _atom_site_fract_z
 _atom_site_occupancy
  Na  Na0  1  0.36154951  0.36193821  0.25435613  1
  Na  Na1  1  0.30402302  0.97199171  0.08906704  1
  Na  Na2  1  0.97192260  0.30469259  0.41988369  1
  Na  Na3  1  0.99969037  0.98427367  0.50252637  1
  Na  Na4  1  0.98534162  0.99979353  0.00644673  1
  Na  Na5  1  0.66661023  0.33310995  0.83079306  1
  Na  Na6  1  0.66778438  0.33431023  0.33806963  1
  Na  Na7  1  0.33391948  0.66718167  0.17228599  1
  Na  Na8  1  0.33400006  0.66722262  0.65012452  1
  Ca  Ca9  1  0.99515067  0.98583770  0.35027745  1
  Ca  Ca10  1  0.00090898  0.99962328  0.84945002  1
  Ca  Ca11  1  0.00045276  0.00131100  0.64831203  1
  Ca  Ca12  1  0.98585842  0.99560646  0.15241890  1
  Ca  Ca13  1  0.66758910  0.33388018  0.67908484  1
  Ca  Ca14  1  0.68148863  0.33871693  0.18362267  1
  Ca  Ca15  1  0.67112868  0.33867007  0.98056546  1
  Ca  Ca16  1  0.65755305  0.33381747  0.48652636  1
  Ca  Ca17  1  0.33370344  0.65750280  0.01882557  1
  Ca  Ca18  1  0.33940827  0.67198213  0.51646747  1
  Ca  Ca19  1  0.33811000  0.68097018  0.31943352  1
  Ta  Ta20  1  0.33315716  0.66661489  0.81570698  1
  S  S21  1  0.30019462  0.00239119  0.24662525  1
  S  S22  1  0.69200451  0.69320155  0.24947947  1
  S  S23  1  0.00476893  0.30116458  0.25206950  1
  S  S24  1  0.30248915  0.31155511  0.75485400  1
  S  S25  1  0.00881807  0.69776334  0.75487370  1
  S  S26  1  0.68971101  0.99201115  0.75477693  1
  S  S27  1  0.96917047  0.33380035  0.58254180  1
  S  S28  1  0.36394650  0.03010913  0.58490259  1
  S  S29  1  0.66587456  0.63508572  0.58473963  1
  S  S30  1  0.97000372  0.63875288  0.08153324  1
  S  S31  1  0.66478435  0.03682197  0.08131016  1
  S  S32  1  0.36818372  0.32836022  0.08411914  1
  S  S33  1  0.61784844  0.66514808  0.91280979  1
  S  S34  1  0.04630506  0.38079434  0.91257976  1
  S  S35  1  0.33496704  0.95194122  0.91417587  1
  S  S36  1  0.63950281  0.97404752  0.41688467  1
  S  S37  1  0.33109856  0.36702012  0.41383129  1
  S  S38  1  0.03245921  0.66183395  0.41724119  1
  O  O39  1  0.21047688  0.01965543  0.29446573  1
  O  O40  1  0.79037197  0.77646388  0.29921970  1
  O  O41  1  0.98860471  0.20588972  0.30320879  1
  O  O42  1  0.21943658  0.20707359  0.80340813  1
  O  O43  1  0.98796234  0.78080978  0.80346980  1
  O  O44  1  0.79451735  0.01325283  0.80339029  1
  O  O45  1  0.74876399  0.95119421  0.70481021  1
  O  O46  1  0.20157843  0.25129995  0.70476999  1
  O  O47  1  0.04971405  0.79833813  0.70484131  1
  O  O48  1  0.77378861  0.78920261  0.19906733  1
  O  O49  1  0.02148804  0.21394678  0.20289310  1
  O  O50  1  0.20707698  0.98521348  0.19404607  1
  O  O51  1  0.88126592  0.34729143  0.63202958  1
  O  O52  1  0.46140821  0.11395530  0.63568006  1
  O  O53  1  0.65198324  0.53807793  0.63557837  1
  O  O54  1  0.88874893  0.54168176  0.13172205  1
  O  O55  1  0.64710434  0.11912841  0.13109042  1
  O  O56  1  0.46225009  0.34428905  0.13559761  1
  O  O57  1  0.45655636  0.31236195  0.03502904  1
  O  O58  1  0.87248925  0.55488646  0.03137803  1
  O  O59  1  0.68179617  0.13564592  0.03080693  1
  O  O60  1  0.44770876  0.12846756  0.53499772  1
  O  O61  1  0.67986467  0.55148199  0.53488715  1
  O  O62  1  0.87546689  0.31947266  0.53091953  1
  O  O63  1  0.54136095  0.68034194  0.96360289  1
  O  O64  1  0.13876061  0.45794470  0.96337954  1
  O  O65  1  0.32016344  0.86267847  0.96577219  1
  O  O66  1  0.55595216  0.87520842  0.46621363  1
  O  O67  1  0.31343066  0.45639364  0.46155960  1
  O  O68  1  0.13222269  0.67868316  0.46684143  1
  O  O69  1  0.11460511  0.64447980  0.36679534  1
  O  O70  1  0.54354213  0.89325738  0.36614211  1
  O  O71  1  0.34824365  0.45985720  0.36123784  1
  O  O72  1  0.15045208  0.49253595  0.86326417  1
  O  O73  1  0.34289883  0.84663903  0.86531362  1
  O  O74  1  0.50627382  0.65722387  0.86347414  1
  O  O75  1  0.01025611  0.80931814  0.41334997  1
  O  O76  1  0.81248985  0.99694161  0.41376896  1
  O  O77  1  0.17180146  0.19981023  0.41142803  1
  O  O78  1  0.02834134  0.21449817  0.90574108  1
  O  O79  1  0.18547344  0.96785811  0.90630156  1
  O  O80  1  0.78471229  0.81472233  0.90596412  1
  O  O81  1  0.98435702  0.18089877  0.58751469  1
  O  O82  1  0.19439997  0.01277699  0.58834394  1
  O  O83  1  0.81924088  0.80486382  0.58822666  1
  O  O84  1  0.99275273  0.81160429  0.08433206  1
  O  O85  1  0.81176976  0.01316885  0.08488856  1
  O  O86  1  0.20003977  0.16922676  0.08596793  1
  O  O87  1  0.65957958  0.13275346  0.74949133  1
  O  O88  1  0.47433106  0.34340054  0.74961329  1
  O  O89  1  0.86793912  0.52588702  0.74964360  1
  O  O90  1  0.66874190  0.52024454  0.24673145  1
  O  O91  1  0.85713615  0.32256697  0.24712432  1
  O  O92  1  0.46692434  0.16188530  0.24460510  1
  O  O93  1  0.62385718  0.50924812  0.91078210  1
  O  O94  1  0.88379728  0.37404594  0.91040340  1
  O  O95  1  0.49088104  0.11589621  0.91145724  1
  O  O96  1  0.66310209  0.14724249  0.41975057  1
  O  O97  1  0.47849087  0.34492531  0.41884913  1
  O  O98  1  0.86507637  0.50272354  0.42026727  1
  O  O99  1  0.34553476  0.47517861  0.07947330  1
  O  O100  1  0.14363252  0.66327439  0.07886439  1
  O  O101  1  0.50543755  0.86981933  0.07805271  1
  O  O102  1  0.34649578  0.86133601  0.58181907  1
  O  O103  1  0.51419802  0.65176370  0.58154334  1
  O  O104  1  0.13897961  0.48576394  0.58065771  1
  O  O105  1  0.32203640  0.85521022  0.25154718  1
  O  O106  1  0.51924599  0.67022336  0.25216092  1
  O  O107  1  0.16373086  0.46860475  0.25386440  1
  O  O108  1  0.31948503  0.48774306  0.76746809  1
  O  O109  1  0.16799890  0.68115196  0.76780830  1
  O  O110  1  0.51262292  0.83294909  0.76769835  1
