# generated using pymatgen
data_NaHf2Al2P3(SO8)3
_symmetry_space_group_name_H-M   'P 1'
_cell_length_a   8.60700043
_cell_length_b   8.61769030
_cell_length_c   22.27277311
_cell_angle_alpha   90.16580033
_cell_angle_beta   89.50575104
_cell_angle_gamma   120.04290336
_symmetry_Int_Tables_number   1
_chemical_formula_structural   NaHf2Al2P3(SO8)3
_chemical_formula_sum   'Na3 Hf6 Al6 P9 S9 O72'
_cell_volume   1430.02281708
_cell_formula_units_Z   3
loop_
 _symmetry_equiv_pos_site_id
 _symmetry_equiv_pos_as_xyz
  1  'x, y, z'
loop_
 _atom_site_type_symbol
 _atom_site_label
 _atom_site_symmetry_multiplicity
 _atom_site_fract_x
 _atom_site_fract_y
 _atom_site_fract_z
 _atom_site_occupancy
  Na  Na0  1  0.67968553  0.33540502  0.83406904  1
  Na  Na1  1  0.66197367  0.34072293  0.32998072  1
  Na  Na2  1  0.34848330  0.67632374  0.17282032  1
  Hf  Hf3  1  0.00572176  0.99274191  0.35445740  1
  Hf  Hf4  1  0.99302993  0.00150603  0.85420647  1
  Hf  Hf5  1  0.99383303  0.99222833  0.64708752  1
  Hf  Hf6  1  0.99974004  0.99848158  0.14375381  1
  Hf  Hf7  1  0.33439935  0.66311264  0.02501715  1
  Hf  Hf8  1  0.32816433  0.66326646  0.52230303  1
  Al  Al9  1  0.67188301  0.33202530  0.68923429  1
  Al  Al10  1  0.64964125  0.32702692  0.18704378  1
  Al  Al11  1  0.67072355  0.32514714  0.98210283  1
  Al  Al12  1  0.66514734  0.33937861  0.47471973  1
  Al  Al13  1  0.33250445  0.66185364  0.31427163  1
  Al  Al14  1  0.32078593  0.66746626  0.81140761  1
  P  P15  1  0.30249260  0.99461700  0.24948264  1
  P  P16  1  0.69623289  0.69579149  0.24979759  1
  P  P17  1  0.99778421  0.69652411  0.75024797  1
  P  P18  1  0.69117249  0.99580424  0.75070706  1
  P  P19  1  0.66720479  0.06147203  0.08457428  1
  P  P20  1  0.39516762  0.33119258  0.08248329  1
  P  P21  1  0.03981254  0.38988002  0.91501099  1
  P  P22  1  0.34426315  0.38508435  0.41468944  1
  P  P23  1  0.03961924  0.65045080  0.41517150  1
  S  S24  1  0.99885798  0.30043436  0.25016196  1
  S  S25  1  0.30190792  0.30237114  0.74942178  1
  S  S26  1  0.93728487  0.32974689  0.58320388  1
  S  S27  1  0.39607779  0.06459974  0.58349270  1
  S  S28  1  0.66676959  0.60525059  0.58376412  1
  S  S29  1  0.93872998  0.60634967  0.08392648  1
  S  S30  1  0.61392475  0.65200831  0.91458425  1
  S  S31  1  0.34396779  0.96137880  0.91515595  1
  S  S32  1  0.61751428  0.96319403  0.41618651  1
  O  O33  1  0.21428417  0.03190473  0.30487034  1
  O  O34  1  0.81750896  0.78732438  0.30497144  1
  O  O35  1  0.96572079  0.18514085  0.30351642  1
  O  O36  1  0.22069987  0.18068349  0.80189959  1
  O  O37  1  0.96038973  0.78746728  0.80407717  1
  O  O38  1  0.82355146  0.04070511  0.80376429  1
  O  O39  1  0.78511212  0.96478642  0.69501193  1
  O  O40  1  0.18458268  0.21696211  0.69623400  1
  O  O41  1  0.03235279  0.82154642  0.69474916  1
  O  O42  1  0.78559474  0.81895768  0.19467651  1
  O  O43  1  0.03234272  0.21714214  0.19665699  1
  O  O44  1  0.18037080  0.96368427  0.19484226  1
  O  O45  1  0.85691156  0.35613355  0.63781465  1
  O  O46  1  0.50173826  0.14622545  0.63772826  1
  O  O47  1  0.64133105  0.49912660  0.63804398  1
  O  O48  1  0.86082624  0.50117681  0.13827555  1
  O  O49  1  0.64137447  0.14674192  0.14070701  1
  O  O50  1  0.50479512  0.36574967  0.13916664  1
  O  O51  1  0.48218823  0.31489338  0.02454246  1
  O  O52  1  0.84095905  0.52815576  0.02796116  1
  O  O53  1  0.69383362  0.16430486  0.02605981  1
  O  O54  1  0.47801597  0.16966771  0.52874710  1
  O  O55  1  0.69374391  0.52640350  0.52893251  1
  O  O56  1  0.83264083  0.30534365  0.52898517  1
  O  O57  1  0.53890622  0.68756898  0.96963057  1
  O  O58  1  0.15370067  0.47149215  0.97156422  1
  O  O59  1  0.31339445  0.85366098  0.96975069  1
  O  O60  1  0.54041594  0.85335640  0.47160977  1
  O  O61  1  0.31557172  0.46844634  0.47317116  1
  O  O62  1  0.15449810  0.68773678  0.47290536  1
  O  O63  1  0.13485928  0.62688040  0.36104806  1
  O  O64  1  0.50421902  0.87897924  0.36387036  1
  O  O65  1  0.37576143  0.50803944  0.36135689  1
  O  O66  1  0.13460228  0.50721404  0.85992890  1
  O  O67  1  0.37263813  0.87539653  0.86210147  1
  O  O68  1  0.50346576  0.62903488  0.86192862  1
  O  O69  1  0.01593132  0.81517547  0.40909251  1
  O  O70  1  0.79723700  0.98502331  0.40916217  1
  O  O71  1  0.17484052  0.20170265  0.40733890  1
  O  O72  1  0.02061249  0.20301890  0.90606350  1
  O  O73  1  0.18311705  0.97939853  0.90713342  1
  O  O74  1  0.79533695  0.81419577  0.90867919  1
  O  O75  1  0.96029737  0.17138707  0.58993444  1
  O  O76  1  0.21527812  0.04505383  0.59026041  1
  O  O77  1  0.82943521  0.78653093  0.58939519  1
  O  O78  1  0.95951538  0.78641131  0.08823132  1
  O  O79  1  0.83032444  0.03541752  0.09201948  1
  O  O80  1  0.20744973  0.16579738  0.08968083  1
  O  O81  1  0.67207308  0.16176838  0.73978652  1
  O  O82  1  0.47966616  0.31900078  0.73932476  1
  O  O83  1  0.82882421  0.51344783  0.73953606  1
  O  O84  1  0.68368145  0.51274525  0.24096650  1
  O  O85  1  0.84072782  0.32090633  0.24179810  1
  O  O86  1  0.48816939  0.16301999  0.24234519  1
  O  O87  1  0.63400794  0.49313229  0.92204411  1
  O  O88  1  0.85154939  0.36855734  0.92364483  1
  O  O89  1  0.50417288  0.14182132  0.92167905  1
  O  O90  1  0.63398402  0.14078795  0.42555018  1
  O  O91  1  0.50955162  0.36254553  0.42429566  1
  O  O92  1  0.85478504  0.48221801  0.42520734  1
  O  O93  1  0.36914915  0.49907242  0.07804843  1
  O  O94  1  0.12376887  0.63079916  0.07953156  1
  O  O95  1  0.49609251  0.87098412  0.07922661  1
  O  O96  1  0.37653539  0.88427406  0.57793627  1
  O  O97  1  0.50873222  0.62907915  0.57872830  1
  O  O98  1  0.11878356  0.49193113  0.57867223  1
  O  O99  1  0.31615139  0.82635373  0.26073214  1
  O  O100  1  0.51084398  0.67737370  0.25982694  1
  O  O101  1  0.16192676  0.47732279  0.25765782  1
  O  O102  1  0.31889767  0.47654746  0.75993759  1
  O  O103  1  0.16371110  0.68130200  0.75995276  1
  O  O104  1  0.51410277  0.82835910  0.76427449  1
