# generated using pymatgen
data_Na9Ca11Nb(SO4)18
_symmetry_space_group_name_H-M   'P 1'
_cell_length_a   9.23898874
_cell_length_b   9.24306960
_cell_length_c   23.93880891
_cell_angle_alpha   89.89147278
_cell_angle_beta   90.14907351
_cell_angle_gamma   120.01689520
_symmetry_Int_Tables_number   1
_chemical_formula_structural   Na9Ca11Nb(SO4)18
_chemical_formula_sum   'Na9 Ca11 Nb1 S18 O72'
_cell_volume   1770.10201472
_cell_formula_units_Z   1
loop_
 _symmetry_equiv_pos_site_id
 _symmetry_equiv_pos_as_xyz
  1  'x, y, z'
loop_
 _atom_site_type_symbol
 _atom_site_label
 _atom_site_symmetry_multiplicity
 _atom_site_fract_x
 _atom_site_fract_y
 _atom_site_fract_z
 _atom_site_occupancy
  Na  Na0  1  0.35645048  0.35566389  0.25756990  1
  Na  Na1  1  0.30744052  0.97556391  0.09292877  1
  Na  Na2  1  0.97775655  0.30789534  0.42311009  1
  Na  Na3  1  0.99831854  0.97420472  0.50522210  1
  Na  Na4  1  0.97715398  0.99913212  0.01089661  1
  Na  Na5  1  0.66623105  0.33265616  0.82897142  1
  Na  Na6  1  0.66857575  0.33496694  0.34069259  1
  Na  Na7  1  0.33359398  0.66678485  0.17527198  1
  Na  Na8  1  0.33317754  0.66609665  0.64409979  1
  Ca  Ca9  1  0.99216524  0.98264836  0.34990598  1
  Ca  Ca10  1  0.00175317  0.99981335  0.85010697  1
  Ca  Ca11  1  0.00026366  0.00240483  0.65004820  1
  Ca  Ca12  1  0.98156682  0.99278024  0.15238381  1
  Ca  Ca13  1  0.66688974  0.33286724  0.67941899  1
  Ca  Ca14  1  0.68587471  0.34275166  0.18339891  1
  Ca  Ca15  1  0.67279592  0.34153335  0.97884816  1
  Ca  Ca16  1  0.65513761  0.33252529  0.48810804  1
  Ca  Ca17  1  0.33242690  0.65480144  0.01933809  1
  Ca  Ca18  1  0.34254876  0.67455159  0.51509596  1
  Ca  Ca19  1  0.34116074  0.68558666  0.31981837  1
  Nb  Nb20  1  0.33349778  0.66717727  0.81578848  1
  S  S21  1  0.30339065  0.00296974  0.24427641  1
  S  S22  1  0.68515849  0.68720132  0.24930671  1
  S  S23  1  0.00675964  0.30527865  0.25331628  1
  S  S24  1  0.30692373  0.31369861  0.75547984  1
  S  S25  1  0.00590343  0.69408916  0.75541369  1
  S  S26  1  0.68884337  0.99518173  0.75545775  1
  S  S27  1  0.97291763  0.33260652  0.58190017  1
  S  S28  1  0.35796504  0.02533842  0.58610247  1
  S  S29  1  0.66731165  0.64077818  0.58589124  1
  S  S30  1  0.97367327  0.64435962  0.08036347  1
  S  S31  1  0.66458746  0.03601146  0.07991859  1
  S  S32  1  0.36599403  0.32564023  0.08436893  1
  S  S33  1  0.62073860  0.66216846  0.91275989  1
  S  S34  1  0.04009160  0.37778537  0.91220628  1
  S  S35  1  0.33830927  0.95611088  0.91454926  1
  S  S36  1  0.64617791  0.98144056  0.41692623  1
  S  S37  1  0.33106672  0.36373761  0.41174050  1
  S  S38  1  0.02746221  0.65961666  0.41740377  1
  O  O39  1  0.20468806  0.01230028  0.29131672  1
  O  O40  1  0.77910679  0.77549493  0.29945706  1
  O  O41  1  0.99724000  0.21518134  0.30563696  1
  O  O42  1  0.22537331  0.21063653  0.80469074  1
  O  O43  1  0.98474930  0.77550987  0.80461233  1
  O  O44  1  0.79249225  0.01557202  0.80444275  1
  O  O45  1  0.74845857  0.95587277  0.70460562  1
  O  O46  1  0.20692050  0.25268104  0.70472338  1
  O  O47  1  0.04411537  0.79350160  0.70466280  1
  O  O48  1  0.77069793  0.77755535  0.19788444  1
  O  O49  1  0.01560136  0.21117157  0.20425567  1
  O  O50  1  0.21680746  0.99008395  0.19004324  1
  O  O51  1  0.87882148  0.33977933  0.63101659  1
  O  O52  1  0.45052759  0.11280998  0.63746280  1
  O  O53  1  0.66166551  0.54773007  0.63715362  1
  O  O54  1  0.88890738  0.55193453  0.13116274  1
  O  O55  1  0.65664170  0.12347813  0.13041151  1
  O  O56  1  0.45445526  0.33417767  0.13701317  1
  O  O57  1  0.46089654  0.31839749  0.03536410  1
  O  O58  1  0.88177509  0.55627363  0.02937684  1
  O  O59  1  0.67603606  0.13119719  0.02871337  1
  O  O60  1  0.44544450  0.11971266  0.53550494  1
  O  O61  1  0.67290298  0.55324377  0.53510394  1
  O  O62  1  0.88517912  0.32552979  0.52884488  1
  O  O63  1  0.54009782  0.67078858  0.96391904  1
  O  O64  1  0.12992154  0.45852358  0.96335868  1
  O  O65  1  0.33013598  0.86905645  0.96649428  1
  O  O66  1  0.55763240  0.88602929  0.46681264  1
  O  O67  1  0.31996741  0.46169684  0.45869823  1
  O  O68  1  0.12477957  0.66971856  0.46757011  1
  O  O69  1  0.11390031  0.65106144  0.36623476  1
  O  O70  1  0.55485419  0.89790688  0.36530431  1
  O  O71  1  0.34362338  0.45045457  0.35759198  1
  O  O72  1  0.14740536  0.48608229  0.86245780  1
  O  O73  1  0.34095492  0.84639813  0.86541672  1
  O  O74  1  0.51192151  0.65972240  0.86294507  1
  O  O75  1  0.00197983  0.80572754  0.41559147  1
  O  O76  1  0.81852840  0.00349294  0.41638033  1
  O  O77  1  0.17252873  0.19832050  0.41202709  1
  O  O78  1  0.02149332  0.21113627  0.90701247  1
  O  O79  1  0.18880304  0.97126038  0.90757197  1
  O  O80  1  0.78676168  0.81082521  0.90730803  1
  O  O81  1  0.98931993  0.18060339  0.58590853  1
  O  O82  1  0.18786113  0.00615994  0.58744772  1
  O  O83  1  0.81880900  0.81016776  0.58742863  1
  O  O84  1  0.99464304  0.81655282  0.08070731  1
  O  O85  1  0.80974564  0.00821621  0.08212700  1
  O  O86  1  0.19903093  0.16699742  0.08378784  1
  O  O87  1  0.65713845  0.13556655  0.75048754  1
  O  O88  1  0.47974132  0.34780420  0.75059221  1
  O  O89  1  0.86749182  0.52112610  0.75048724  1
  O  O90  1  0.66128593  0.51425608  0.24945221  1
  O  O91  1  0.86080289  0.33011493  0.24948150  1
  O  O92  1  0.46804181  0.16184111  0.24514296  1
  O  O93  1  0.62720073  0.50627090  0.90843499  1
  O  O94  1  0.87792273  0.37178948  0.90764726  1
  O  O95  1  0.49320493  0.11868023  0.90939836  1
  O  O96  1  0.66987869  0.15440060  0.41799576  1
  O  O97  1  0.47712077  0.33911334  0.41698126  1
  O  O98  1  0.86176669  0.50093492  0.41885276  1
  O  O99  1  0.34044613  0.47141424  0.08115234  1
  O  O100  1  0.14791154  0.67069280  0.08036010  1
  O  O101  1  0.50546264  0.87069485  0.07893488  1
  O  O102  1  0.34081067  0.85660847  0.58432248  1
  O  O103  1  0.51613387  0.65893124  0.58406652  1
  O  O104  1  0.14248288  0.48344502  0.58163837  1
  O  O105  1  0.32865013  0.85718922  0.24901640  1
  O  O106  1  0.51258634  0.66477224  0.24949318  1
  O  O107  1  0.16542804  0.47122620  0.25273580  1
  O  O108  1  0.32271935  0.48885910  0.76681393  1
  O  O109  1  0.16559842  0.67844532  0.76718881  1
  O  O110  1  0.51261592  0.83737891  0.76735622  1
