# generated using pymatgen
data_Na8ZnSi4Ge3(PO12)2
_symmetry_space_group_name_H-M   'P 1'
_cell_length_a   8.84534126
_cell_length_b   8.87169311
_cell_length_c   21.63914802
_cell_angle_alpha   89.78489123
_cell_angle_beta   90.19293611
_cell_angle_gamma   120.08970030
_symmetry_Int_Tables_number   1
_chemical_formula_structural   Na8ZnSi4Ge3(PO12)2
_chemical_formula_sum   'Na24 Zn3 Si12 Ge9 P6 O72'
_cell_volume   1469.24740457
_cell_formula_units_Z   3
loop_
 _symmetry_equiv_pos_site_id
 _symmetry_equiv_pos_as_xyz
  1  'x, y, z'
loop_
 _atom_site_type_symbol
 _atom_site_label
 _atom_site_symmetry_multiplicity
 _atom_site_fract_x
 _atom_site_fract_y
 _atom_site_fract_z
 _atom_site_occupancy
  Na  Na0  1  0.63743727  0.01031944  0.24464390  1
  Na  Na1  1  0.37390250  0.36286310  0.24533340  1
  Na  Na2  1  0.98974417  0.62653319  0.24539583  1
  Na  Na3  1  0.63155590  0.62106850  0.74760872  1
  Na  Na4  1  0.98770938  0.36920728  0.75012088  1
  Na  Na5  1  0.38089557  0.00773093  0.74651304  1
  Na  Na6  1  0.30722152  0.33513082  0.58571465  1
  Na  Na7  1  0.03032719  0.69780169  0.58442238  1
  Na  Na8  1  0.66418688  0.97077443  0.58804169  1
  Na  Na9  1  0.30733412  0.96981879  0.08313339  1
  Na  Na10  1  0.66234762  0.69271719  0.08316191  1
  Na  Na11  1  0.03004219  0.33757540  0.08301403  1
  Na  Na12  1  0.96404638  0.66571795  0.91697934  1
  Na  Na13  1  0.70173092  0.03672809  0.91680935  1
  Na  Na14  1  0.33431607  0.29896110  0.91760028  1
  Na  Na15  1  0.96618733  0.29038890  0.41467018  1
  Na  Na16  1  0.32159413  0.03609620  0.41608924  1
  Na  Na17  1  0.71182789  0.67420521  0.41409751  1
  Na  Na18  1  0.00315095  0.99961223  0.49741241  1
  Na  Na19  1  0.99996202  0.00029291  0.99936857  1
  Na  Na20  1  0.66930325  0.33312805  0.83062362  1
  Na  Na21  1  0.66693859  0.33464546  0.33020915  1
  Na  Na22  1  0.33354096  0.66662111  0.16293467  1
  Na  Na23  1  0.33672811  0.67056105  0.66790121  1
  Zn  Zn24  1  0.00553402  0.00052013  0.35348106  1
  Zn  Zn25  1  0.66510457  0.33183526  0.68441735  1
  Zn  Zn26  1  0.66686645  0.33286176  0.17508292  1
  Si  Si27  1  0.00505055  0.71383147  0.75300486  1
  Si  Si28  1  0.71253821  0.99559994  0.75180187  1
  Si  Si29  1  0.37488579  0.04015771  0.58329716  1
  Si  Si30  1  0.66436807  0.62795839  0.58384340  1
  Si  Si31  1  0.96145623  0.62534124  0.08332065  1
  Si  Si32  1  0.66365898  0.03840900  0.08326165  1
  Si  Si33  1  0.37488327  0.33632466  0.08336455  1
  Si  Si34  1  0.61893169  0.66477825  0.91618736  1
  Si  Si35  1  0.04604847  0.37966408  0.91578712  1
  Si  Si36  1  0.33465027  0.95752382  0.91653855  1
  Si  Si37  1  0.33771655  0.38290371  0.41850601  1
  Si  Si38  1  0.04221756  0.65928161  0.41845885  1
  Ge  Ge39  1  0.99496703  0.99654368  0.85517615  1
  Ge  Ge40  1  0.99810472  0.98718729  0.64855835  1
  Ge  Ge41  1  0.99975948  0.99953853  0.14399492  1
  Ge  Ge42  1  0.66686011  0.33364103  0.98071275  1
  Ge  Ge43  1  0.66413410  0.34380790  0.48202157  1
  Ge  Ge44  1  0.33269030  0.66650273  0.01800134  1
  Ge  Ge45  1  0.33333331  0.66834320  0.51903302  1
  Ge  Ge46  1  0.32938117  0.66055562  0.31647224  1
  Ge  Ge47  1  0.33567831  0.67475112  0.81520394  1
  P  P48  1  0.29211142  0.99597435  0.25185341  1
  P  P49  1  0.70566177  0.71088890  0.25226373  1
  P  P50  1  0.00324092  0.29283693  0.25181532  1
  P  P51  1  0.27899961  0.28477098  0.75142349  1
  P  P52  1  0.95982988  0.33436444  0.58230805  1
  P  P53  1  0.61578563  0.95544968  0.41740537  1
  O  O54  1  0.21358634  0.02569656  0.30965619  1
  O  O55  1  0.81402030  0.79164392  0.31006028  1
  O  O56  1  0.97414507  0.18395084  0.30971673  1
  O  O57  1  0.19484285  0.16878106  0.80930433  1
  O  O58  1  0.97125714  0.80717897  0.81219864  1
  O  O59  1  0.83875340  0.03324115  0.81209897  1
  O  O60  1  0.80062975  0.95943018  0.68924531  1
  O  O61  1  0.16356791  0.20271767  0.69174656  1
  O  O62  1  0.04892679  0.83762465  0.68991896  1
  O  O63  1  0.79027674  0.82964866  0.19308080  1
  O  O64  1  0.03862389  0.20879751  0.19318680  1
  O  O65  1  0.17121211  0.95955903  0.19319777  1
  O  O66  1  0.89118889  0.37638085  0.63995692  1
  O  O67  1  0.49364390  0.10700492  0.64367609  1
  O  O68  1  0.61432234  0.50782503  0.64379277  1
  O  O69  1  0.89706816  0.51284845  0.14553037  1
  O  O70  1  0.61560520  0.10293169  0.14515201  1
  O  O71  1  0.48775062  0.38415020  0.14553296  1
  O  O72  1  0.45964894  0.28940238  0.02341653  1
  O  O73  1  0.82940065  0.54015965  0.02318631  1
  O  O74  1  0.71107660  0.17101062  0.02329964  1
  O  O75  1  0.46436446  0.17009002  0.52179591  1
  O  O76  1  0.71280990  0.54561530  0.52289154  1
  O  O77  1  0.83726210  0.29538382  0.52451737  1
  O  O78  1  0.53557827  0.70791400  0.97587940  1
  O  O79  1  0.17144252  0.46320711  0.97601600  1
  O  O80  1  0.28984291  0.82891167  0.97592163  1
  O  O81  1  0.53283368  0.83841502  0.47476732  1
  O  O82  1  0.30441812  0.47568771  0.47747355  1
  O  O83  1  0.17063504  0.69801712  0.47744592  1
  O  O84  1  0.12848273  0.62075167  0.35616166  1
  O  O85  1  0.49760013  0.87354654  0.35849947  1
  O  O86  1  0.38250186  0.50994413  0.35628101  1
  O  O87  1  0.13136292  0.50646895  0.85506326  1
  O  O88  1  0.37949490  0.87617230  0.85592840  1
  O  O89  1  0.49170382  0.62173648  0.85533454  1
  O  O90  1  0.01684119  0.82605556  0.41597836  1
  O  O91  1  0.79636859  0.97513004  0.41393040  1
  O  O92  1  0.16699282  0.19274859  0.41617475  1
  O  O93  1  0.02718508  0.18485231  0.91084164  1
  O  O94  1  0.16048472  0.97957339  0.91044280  1
  O  O95  1  0.81512140  0.84040573  0.91204725  1
  O  O96  1  0.97913628  0.16959929  0.58638356  1
  O  O97  1  0.18026603  0.02760592  0.58798632  1
  O  O98  1  0.84292363  0.82437181  0.58752603  1
  O  O99  1  0.97826166  0.82101195  0.08986697  1
  O  O100  1  0.84289558  0.02155569  0.08988717  1
  O  O101  1  0.17862695  0.15689973  0.09001103  1
  O  O102  1  0.68965958  0.16380397  0.74971576  1
  O  O103  1  0.45973218  0.30442827  0.74921764  1
  O  O104  1  0.83382293  0.52469518  0.74938537  1
  O  O105  1  0.68146573  0.52900101  0.24753734  1
  O  O106  1  0.84565330  0.31813693  0.24699945  1
  O  O107  1  0.47446577  0.15430719  0.24677429  1
  O  O108  1  0.63924861  0.49049796  0.92220983  1
  O  O109  1  0.85129715  0.36028698  0.92211687  1
  O  O110  1  0.51009009  0.15136879  0.92288049  1
  O  O111  1  0.63034674  0.13680097  0.42194740  1
  O  O112  1  0.51712653  0.36690068  0.42218923  1
  O  O113  1  0.85008976  0.47565370  0.42371341  1
  O  O114  1  0.35000951  0.50658408  0.07408993  1
  O  O115  1  0.15676253  0.64984044  0.07399424  1
  O  O116  1  0.49322666  0.84310154  0.07384688  1
  O  O117  1  0.34728834  0.84204288  0.57412270  1
  O  O118  1  0.49224053  0.65281257  0.57377298  1
  O  O119  1  0.14606240  0.49809364  0.57496170  1
  O  O120  1  0.30392903  0.82220439  0.25527585  1
  O  O121  1  0.52026765  0.70108586  0.25453386  1
  O  O122  1  0.17849852  0.47845347  0.25402963  1
  O  O123  1  0.29197342  0.46601856  0.75419850  1
  O  O124  1  0.18545556  0.69938902  0.75633580  1
  O  O125  1  0.51982328  0.81218962  0.75574632  1
