# generated using pymatgen
data_IrS3Cl11
_symmetry_space_group_name_H-M   'P 1'
_cell_length_a   13.51477650
_cell_length_b   8.22813935
_cell_length_c   15.25642928
_cell_angle_alpha   74.90743059
_cell_angle_beta   90.00000000
_cell_angle_gamma   90.00000000
_symmetry_Int_Tables_number   1
_chemical_formula_structural   IrS3Cl11
_chemical_formula_sum   'Ir4 S12 Cl44'
_cell_volume   1638.01760889
_cell_formula_units_Z   4
loop_
 _symmetry_equiv_pos_site_id
 _symmetry_equiv_pos_as_xyz
  1  'x, y, z'
loop_
 _atom_site_type_symbol
 _atom_site_label
 _atom_site_symmetry_multiplicity
 _atom_site_fract_x
 _atom_site_fract_y
 _atom_site_fract_z
 _atom_site_occupancy
  Ir  Ir0  1  0.59130975  0.89695689  0.80307890  1
  Ir  Ir1  1  0.09130975  0.10304311  0.69692110  1
  Ir  Ir2  1  0.40869025  0.10304311  0.19692110  1
  Ir  Ir3  1  0.90869025  0.89695689  0.30307890  1
  S  S4  1  0.76672592  0.62018735  0.94070625  1
  S  S5  1  0.26672592  0.37981265  0.55929375  1
  S  S6  1  0.23327408  0.37981265  0.05929375  1
  S  S7  1  0.73327408  0.62018735  0.44070625  1
  S  S8  1  0.47918142  0.92931740  0.12302142  1
  S  S9  1  0.97918142  0.07068260  0.37697858  1
  S  S10  1  0.45441448  0.86931682  0.72799646  1
  S  S11  1  0.95441448  0.13068318  0.77200354  1
  S  S12  1  0.54558552  0.13068318  0.27200354  1
  S  S13  1  0.04558552  0.86931682  0.22799646  1
  S  S14  1  0.52081858  0.07068260  0.87697858  1
  S  S15  1  0.02081858  0.92931740  0.62302142  1
  Cl  Cl16  1  0.63848170  0.10139477  0.67034451  1
  Cl  Cl17  1  0.44271687  0.31265908  0.05969979  1
  Cl  Cl18  1  0.05728313  0.31265908  0.55969979  1
  Cl  Cl19  1  0.55728313  0.68734092  0.94030021  1
  Cl  Cl20  1  0.81642965  0.68606172  0.25796673  1
  Cl  Cl21  1  0.31642965  0.31393828  0.24203327  1
  Cl  Cl22  1  0.18357035  0.31393828  0.74203327  1
  Cl  Cl23  1  0.68357035  0.68606172  0.75796673  1
  Cl  Cl24  1  0.12314096  0.65897765  0.28992653  1
  Cl  Cl25  1  0.62314096  0.34102235  0.21007347  1
  Cl  Cl26  1  0.87685904  0.34102235  0.71007347  1
  Cl  Cl27  1  0.37685904  0.65897765  0.78992653  1
  Cl  Cl28  1  0.01215037  0.81293328  0.10904142  1
  Cl  Cl29  1  0.51215037  0.18706672  0.39095858  1
  Cl  Cl30  1  0.98784963  0.18706672  0.89095858  1
  Cl  Cl31  1  0.94271687  0.68734092  0.44030021  1
  Cl  Cl32  1  0.95618652  0.31673534  0.31413542  1
  Cl  Cl33  1  0.45618652  0.68326466  0.18586458  1
  Cl  Cl34  1  0.04381348  0.68326466  0.68586458  1
  Cl  Cl35  1  0.54381348  0.31673534  0.81413542  1
  Cl  Cl36  1  0.12918547  0.05215948  0.36879546  1
  Cl  Cl37  1  0.62918547  0.94784052  0.13120454  1
  Cl  Cl38  1  0.87081453  0.94784052  0.63120454  1
  Cl  Cl39  1  0.37081453  0.05215948  0.86879546  1
  Cl  Cl40  1  0.58940916  0.65153890  0.39724424  1
  Cl  Cl41  1  0.08940916  0.34846110  0.10275576  1
  Cl  Cl42  1  0.41059084  0.34846110  0.60275576  1
  Cl  Cl43  1  0.91059084  0.65153890  0.89724424  1
  Cl  Cl44  1  0.71467981  0.63722126  0.56987264  1
  Cl  Cl45  1  0.21467981  0.36277874  0.93012736  1
  Cl  Cl46  1  0.28532019  0.36277874  0.43012736  1
  Cl  Cl47  1  0.78532019  0.63722126  0.06987264  1
  Cl  Cl48  1  0.74718084  0.36748827  0.46275079  1
  Cl  Cl49  1  0.24718084  0.63251173  0.03724921  1
  Cl  Cl50  1  0.25281916  0.63251173  0.53724921  1
  Cl  Cl51  1  0.75281916  0.36748827  0.96275079  1
  Cl  Cl52  1  0.36151830  0.89860523  0.32965549  1
  Cl  Cl53  1  0.86151830  0.10139477  0.17034451  1
  Cl  Cl54  1  0.73540738  0.97085739  0.87811664  1
  Cl  Cl55  1  0.23540738  0.02914261  0.62188336  1
  Cl  Cl56  1  0.26459262  0.02914261  0.12188336  1
  Cl  Cl57  1  0.76459262  0.97085739  0.37811664  1
  Cl  Cl58  1  0.48784963  0.81293328  0.60904142  1
  Cl  Cl59  1  0.13848170  0.89860523  0.82965549  1
