# generated using pymatgen
data_Fe2SiO4
_symmetry_space_group_name_H-M   'P 1'
_cell_length_a   4.81996094
_cell_length_b   6.05723057
_cell_length_c   10.37742196
_cell_angle_alpha   90.00974998
_cell_angle_beta   89.99116463
_cell_angle_gamma   90.10962054
_symmetry_Int_Tables_number   1
_chemical_formula_structural   Fe2SiO4
_chemical_formula_sum   'Fe8 Si4 O16'
_cell_volume   302.97465099
_cell_formula_units_Z   4
loop_
 _symmetry_equiv_pos_site_id
 _symmetry_equiv_pos_as_xyz
  1  'x, y, z'
loop_
 _atom_site_type_symbol
 _atom_site_label
 _atom_site_symmetry_multiplicity
 _atom_site_fract_x
 _atom_site_fract_y
 _atom_site_fract_z
 _atom_site_occupancy
  Fe  Fe0  1  0.98460435  0.24884928  0.27975216  1
  Fe  Fe1  1  0.01537669  0.75115041  0.72022731  1
  Fe  Fe2  1  1.00001201  0.49996992  0.99994859  1
  Fe  Fe3  1  0.99999828  1.00003544  0.99993932  1
  Fe  Fe4  1  0.48454903  0.74901377  0.22041624  1
  Fe  Fe5  1  0.51542567  0.25098497  0.77960844  1
  Fe  Fe6  1  0.50000629  0.50004857  0.50005606  1
  Fe  Fe7  1  0.50001887  -0.00001954  0.50004329  1
  Si  Si8  1  0.93234603  0.74951796  0.40237052  1
  Si  Si9  1  0.43221928  0.24963262  0.09798323  1
  Si  Si10  1  0.06767642  0.25047740  0.59760463  1
  Si  Si11  1  0.56778690  0.75035555  0.90203924  1
  O  O12  1  0.79194050  0.75132637  0.54770540  1
  O  O13  1  0.29216785  0.25114803  0.95257243  1
  O  O14  1  0.20813356  0.24869738  0.45229417  1
  O  O15  1  0.70788240  0.74884225  0.04743125  1
  O  O16  1  0.23017704  0.75000690  0.90940477  1
  O  O17  1  0.73010721  0.24996733  0.59015280  1
  O  O18  1  0.76981992  0.24998594  0.09056164  1
  O  O19  1  0.26990185  0.75003748  0.40987606  1
  O  O20  1  0.20804709  0.46692095  0.66612775  1
  O  O21  1  0.70912313  0.53576885  0.83222050  1
  O  O22  1  0.79091717  0.96385777  0.33237942  1
  O  O23  1  0.29135304  0.03347430  0.16655466  1
  O  O24  1  0.79191320  0.53307723  0.33388749  1
  O  O25  1  0.29084458  0.46422047  0.16777980  1
  O  O26  1  0.20906797  0.03613459  0.66762313  1
  O  O27  1  0.70858370  0.96652181  0.83343970  1
