# generated using pymatgen
data_Na2NbAlSi2SO12
_symmetry_space_group_name_H-M   'P 1'
_cell_length_a   8.84015823
_cell_length_b   8.84015794
_cell_length_c   22.31662286
_cell_angle_alpha   88.39226628
_cell_angle_beta   91.60773375
_cell_angle_gamma   119.74938085
_symmetry_Int_Tables_number   1
_chemical_formula_structural   Na2NbAlSi2SO12
_chemical_formula_sum   'Na12 Nb6 Al6 Si12 S6 O72'
_cell_volume   1513.35842976
_cell_formula_units_Z   6
loop_
 _symmetry_equiv_pos_site_id
 _symmetry_equiv_pos_as_xyz
  1  'x, y, z'
loop_
 _atom_site_type_symbol
 _atom_site_label
 _atom_site_symmetry_multiplicity
 _atom_site_fract_x
 _atom_site_fract_y
 _atom_site_fract_z
 _atom_site_occupancy
  Na  Na0  1  0.98846387  0.62427557  0.24996210  1
  Na  Na1  1  0.37572443  0.01153613  0.74996210  1
  Na  Na2  1  0.65513087  0.95760857  0.58329510  1
  Na  Na3  1  0.04239143  0.34486913  0.08329510  1
  Na  Na4  1  0.32179687  0.29094257  0.91662910  1
  Na  Na5  1  0.70905743  0.67820313  0.41662910  1
  Na  Na6  1  0.01453957  0.99465152  0.49425981  1
  Na  Na7  1  0.00534848  0.98546043  0.99425981  1
  Na  Na8  1  0.68120657  0.32798452  0.82759281  1
  Na  Na9  1  0.67201548  0.31879343  0.32759281  1
  Na  Na10  1  0.34787257  0.66131852  0.16092681  1
  Na  Na11  1  0.33868148  0.65212743  0.66092681  1
  Nb  Nb12  1  0.99686945  0.00065818  0.64462705  1
  Nb  Nb13  1  0.99934182  0.00313055  0.14462705  1
  Nb  Nb14  1  0.66353645  0.33399118  0.97796005  1
  Nb  Nb15  1  0.66600882  0.33646355  0.47796005  1
  Nb  Nb16  1  0.33020245  0.66732518  0.31129405  1
  Nb  Nb17  1  0.33267482  0.66979755  0.81129405  1
  Al  Al18  1  0.96893950  0.98390637  0.35420511  1
  Al  Al19  1  0.01609363  0.03106050  0.85420511  1
  Al  Al20  1  0.63560650  0.31723937  0.68753811  1
  Al  Al21  1  0.68276063  0.36439350  0.18753811  1
  Al  Al22  1  0.30227250  0.65057337  0.02087211  1
  Al  Al23  1  0.34942663  0.69772750  0.52087211  1
  Si  Si24  1  0.70842428  0.70720095  0.25228142  1
  Si  Si25  1  0.98429082  0.27652220  0.25175407  1
  Si  Si26  1  0.29279905  0.29157572  0.75228142  1
  Si  Si27  1  0.72347780  0.01570918  0.75175407  1
  Si  Si28  1  0.37509128  0.04053395  0.58561442  1
  Si  Si29  1  0.65095782  0.60985520  0.58508707  1
  Si  Si30  1  0.95946605  0.62490872  0.08561442  1
  Si  Si31  1  0.39014480  0.34904218  0.08508707  1
  Si  Si32  1  0.04175728  0.37386795  0.91894842  1
  Si  Si33  1  0.31762382  0.94318920  0.91842107  1
  Si  Si34  1  0.62613205  0.95824272  0.41894842  1
  Si  Si35  1  0.05681080  0.68237618  0.41842107  1
  S  S36  1  0.29420782  0.01142391  0.25172923  1
  S  S37  1  0.98857609  0.70579218  0.75172923  1
  S  S38  1  0.96087482  0.34475691  0.58506223  1
  S  S39  1  0.65524309  0.03912518  0.08506223  1
  S  S40  1  0.62754082  0.67809091  0.91839623  1
  S  S41  1  0.32190909  0.37245918  0.41839623  1
  O  O42  1  0.21179832  0.02814672  0.30467011  1
  O  O43  1  0.83061159  0.78977235  0.31129993  1
  O  O44  1  0.97703341  0.15753940  0.30832100  1
  O  O45  1  0.21022765  0.16938841  0.81129993  1
  O  O46  1  0.97185328  0.78820168  0.80467011  1
  O  O47  1  0.84246060  0.02296659  0.80832100  1
  O  O48  1  0.80028112  0.97568180  0.68995980  1
  O  O49  1  0.16427059  0.18782862  0.69375588  1
  O  O50  1  0.02332840  0.81976971  0.69640103  1
  O  O51  1  0.81217138  0.83572941  0.19375588  1
  O  O52  1  0.02431820  0.19971887  0.18995980  1
  O  O53  1  0.18023029  0.97667160  0.19640103  1
  O  O54  1  0.87846532  0.36147972  0.63800311  1
  O  O55  1  0.49727859  0.12310535  0.64463293  1
  O  O56  1  0.64370041  0.49087240  0.64165400  1
  O  O57  1  0.87689465  0.50272141  0.14463293  1
  O  O58  1  0.63852028  0.12153468  0.13800311  1
  O  O59  1  0.50912760  0.35629959  0.14165400  1
  O  O60  1  0.46694812  0.30901480  0.02329280  1
  O  O61  1  0.83093759  0.52116162  0.02708888  1
  O  O62  1  0.68999540  0.15310271  0.02973403  1
  O  O63  1  0.47883838  0.16906241  0.52708888  1
  O  O64  1  0.69098520  0.53305187  0.52329280  1
  O  O65  1  0.84689729  0.31000460  0.52973403  1
  O  O66  1  0.54513132  0.69481372  0.97133711  1
  O  O67  1  0.16394459  0.45643935  0.97796693  1
  O  O68  1  0.31036641  0.82420640  0.97498800  1
  O  O69  1  0.54356065  0.83605541  0.47796693  1
  O  O70  1  0.30518628  0.45486868  0.47133711  1
  O  O71  1  0.17579360  0.68963359  0.47498800  1
  O  O72  1  0.13361412  0.64234880  0.35662680  1
  O  O73  1  0.49760359  0.85449562  0.36042288  1
  O  O74  1  0.35666140  0.48643671  0.36306803  1
  O  O75  1  0.14550438  0.50239641  0.86042288  1
  O  O76  1  0.35765120  0.86638587  0.85662680  1
  O  O77  1  0.51356329  0.64333860  0.86306803  1
  O  O78  1  0.03186255  0.85222927  0.40864372  1
  O  O79  1  0.81566461  0.97430371  0.41067559  1
  O  O80  1  0.17558230  0.19782445  0.40985497  1
  O  O81  1  0.02569629  0.18433539  0.91067559  1
  O  O82  1  0.14777073  0.96813745  0.90864372  1
  O  O83  1  0.80217555  0.82441770  0.90985497  1
  O  O84  1  0.96813030  0.17551132  0.58718791  1
  O  O85  1  0.18117888  0.02360593  0.58923053  1
  O  O86  1  0.82378082  0.81310622  0.59118076  1
  O  O87  1  0.97639407  0.81882112  0.08923053  1
  O  O88  1  0.82448868  0.03186970  0.08718791  1
  O  O89  1  0.18689378  0.17621918  0.09118076  1
  O  O90  1  0.69852955  0.18556227  0.74197672  1
  O  O91  1  0.48233161  0.30763671  0.74400859  1
  O  O92  1  0.84224930  0.53115745  0.74318797  1
  O  O93  1  0.69236329  0.51766839  0.24400859  1
  O  O94  1  0.81443773  0.30147045  0.24197672  1
  O  O95  1  0.46884255  0.15775070  0.24318797  1
  O  O96  1  0.63479730  0.50884432  0.92052091  1
  O  O97  1  0.84784588  0.35693893  0.92256353  1
  O  O98  1  0.49044782  0.14643922  0.92451376  1
  O  O99  1  0.64306107  0.15215412  0.42256353  1
  O  O100  1  0.49115568  0.36520270  0.42052091  1
  O  O101  1  0.85356078  0.50955218  0.42451376  1
  O  O102  1  0.36519555  0.51889627  0.07531072  1
  O  O103  1  0.14899761  0.64097071  0.07734259  1
  O  O104  1  0.50891530  0.86449145  0.07652197  1
  O  O105  1  0.35902929  0.85100239  0.57734259  1
  O  O106  1  0.48110373  0.63480445  0.57531072  1
  O  O107  1  0.13550855  0.49108470  0.57652197  1
  O  O108  1  0.30146330  0.84217832  0.25385491  1
  O  O109  1  0.51451188  0.69027293  0.25589753  1
  O  O110  1  0.15711382  0.47977322  0.25784776  1
  O  O111  1  0.30972707  0.48548812  0.75589753  1
  O  O112  1  0.15782168  0.69853670  0.75385491  1
  O  O113  1  0.52022678  0.84288618  0.75784776  1
