# generated using pymatgen
data_MgCu2W2(O3F2)2
_symmetry_space_group_name_H-M   'P 1'
_cell_length_a   3.86601252
_cell_length_b   5.70710375
_cell_length_c   10.34534606
_cell_angle_alpha   91.24188068
_cell_angle_beta   90.02197514
_cell_angle_gamma   109.72023152
_symmetry_Int_Tables_number   1
_chemical_formula_structural   MgCu2W2(O3F2)2
_chemical_formula_sum   'Mg1 Cu2 W2 O6 F4'
_cell_volume   214.81237529
_cell_formula_units_Z   1
loop_
 _symmetry_equiv_pos_site_id
 _symmetry_equiv_pos_as_xyz
  1  'x, y, z'
loop_
 _atom_site_type_symbol
 _atom_site_label
 _atom_site_symmetry_multiplicity
 _atom_site_fract_x
 _atom_site_fract_y
 _atom_site_fract_z
 _atom_site_occupancy
  Mg  Mg0  1  0.69143300  0.88924900  0.02810800  1
  Cu  Cu1  1  0.01381300  0.53347300  0.51219000  1
  Cu  Cu2  1  0.98610700  0.47705200  0.00732300  1
  W  W3  1  0.23557700  0.97758900  0.25907900  1
  W  W4  1  0.76569100  0.04003400  0.74142400  1
  O  O5  1  0.89809300  0.30526600  0.64106400  1
  O  O6  1  0.11193400  0.72908000  0.37047300  1
  O  O7  1  0.14433600  0.79457300  0.09035600  1
  O  O8  1  0.74338300  0.99333400  0.23190800  1
  O  O9  1  0.24444800  0.99686800  0.74250100  1
  O  O10  1  0.83694700  0.18190100  0.91171100  1
  F  F11  1  0.60357000  0.71350000  0.86133200  1
  F  F12  1  0.38871900  0.28585400  0.14703100  1
  F  F13  1  0.36144700  0.22963200  0.39480000  1
  F  F14  1  0.63521600  0.77759500  0.60444900  1
