# generated using pymatgen
data_K3NaHf2(SiO4)3
_symmetry_space_group_name_H-M   'P 1'
_cell_length_a   9.41444352
_cell_length_b   9.41444317
_cell_length_c   22.52541169
_cell_angle_alpha   90.00000000
_cell_angle_beta   90.00000000
_cell_angle_gamma   120.00000122
_symmetry_Int_Tables_number   1
_chemical_formula_structural   K3NaHf2(SiO4)3
_chemical_formula_sum   'K18 Na6 Hf12 Si18 O72'
_cell_volume   1728.99069566
_cell_formula_units_Z   6
loop_
 _symmetry_equiv_pos_site_id
 _symmetry_equiv_pos_as_xyz
  1  'x, y, z'
loop_
 _atom_site_type_symbol
 _atom_site_label
 _atom_site_symmetry_multiplicity
 _atom_site_fract_x
 _atom_site_fract_y
 _atom_site_fract_z
 _atom_site_occupancy
  K  K0  1  0.65812038  0.00000000  0.25000000  1
  K  K1  1  0.34187962  0.34187962  0.25000000  1
  K  K2  1  1.00000000  0.65812038  0.25000000  1
  K  K3  1  0.65812038  0.65812038  0.75000000  1
  K  K4  1  0.00000000  0.34187962  0.75000000  1
  K  K5  1  0.34187962  0.00000000  0.75000000  1
  K  K6  1  0.32478738  0.33333300  0.58333300  1
  K  K7  1  0.00854662  0.67521262  0.58333300  1
  K  K8  1  0.66666700  0.99145338  0.58333300  1
  K  K9  1  0.32478738  0.99145338  0.08333300  1
  K  K10  1  0.66666700  0.67521262  0.08333300  1
  K  K11  1  0.00854662  0.33333300  0.08333300  1
  K  K12  1  0.99145338  0.66666700  0.91666700  1
  K  K13  1  0.67521262  0.00854662  0.91666700  1
  K  K14  1  0.33333300  0.32478738  0.91666700  1
  K  K15  1  0.99145338  0.32478738  0.41666700  1
  K  K16  1  0.33333300  0.00854662  0.41666700  1
  K  K17  1  0.67521262  0.66666700  0.41666700  1
  Na  Na18  1  0.00000000  0.00000000  0.50000000  1
  Na  Na19  1  0.00000000  0.00000000  -0.00000000  1
  Na  Na20  1  0.66666700  0.33333300  0.83333300  1
  Na  Na21  1  0.66666700  0.33333300  0.33333300  1
  Na  Na22  1  0.33333300  0.66666700  0.16666700  1
  Na  Na23  1  0.33333300  0.66666700  0.66666700  1
  Hf  Hf24  1  0.00000000  0.00000000  0.35175149  1
  Hf  Hf25  1  0.00000000  0.00000000  0.85175149  1
  Hf  Hf26  1  0.00000000  0.00000000  0.64824851  1
  Hf  Hf27  1  0.00000000  0.00000000  0.14824851  1
  Hf  Hf28  1  0.66666700  0.33333300  0.68508449  1
  Hf  Hf29  1  0.66666700  0.33333300  0.18508449  1
  Hf  Hf30  1  0.66666700  0.33333300  0.98158151  1
  Hf  Hf31  1  0.66666700  0.33333300  0.48158151  1
  Hf  Hf32  1  0.33333300  0.66666700  0.01841849  1
  Hf  Hf33  1  0.33333300  0.66666700  0.51841849  1
  Hf  Hf34  1  0.33333300  0.66666700  0.31491551  1
  Hf  Hf35  1  0.33333300  0.66666700  0.81491551  1
  Si  Si36  1  0.29849964  0.00000000  0.25000000  1
  Si  Si37  1  0.70150036  0.70150036  0.25000000  1
  Si  Si38  1  0.00000000  0.29849964  0.25000000  1
  Si  Si39  1  0.29849964  0.29849964  0.75000000  1
  Si  Si40  1  1.00000000  0.70150036  0.75000000  1
  Si  Si41  1  0.70150036  0.00000000  0.75000000  1
  Si  Si42  1  0.96516664  0.33333300  0.58333300  1
  Si  Si43  1  0.36816736  0.03483336  0.58333300  1
  Si  Si44  1  0.66666700  0.63183264  0.58333300  1
  Si  Si45  1  0.96516664  0.63183264  0.08333300  1
  Si  Si46  1  0.66666700  0.03483336  0.08333300  1
  Si  Si47  1  0.36816736  0.33333300  0.08333300  1
  Si  Si48  1  0.63183264  0.66666700  0.91666700  1
  Si  Si49  1  0.03483336  0.36816736  0.91666700  1
  Si  Si50  1  0.33333300  0.96516664  0.91666700  1
  Si  Si51  1  0.63183264  0.96516664  0.41666700  1
  Si  Si52  1  0.33333300  0.36816736  0.41666700  1
  Si  Si53  1  0.03483336  0.66666700  0.41666700  1
  O  O54  1  0.19993383  0.02047487  0.30692957  1
  O  O55  1  0.82054104  0.80006617  0.30692957  1
  O  O56  1  0.97952513  0.17945896  0.30692957  1
  O  O57  1  0.19993383  0.17945896  0.80692957  1
  O  O58  1  0.97952513  0.80006617  0.80692957  1
  O  O59  1  0.82054104  0.02047487  0.80692957  1
  O  O60  1  0.80006617  0.97952513  0.69307043  1
  O  O61  1  0.17945896  0.19993383  0.69307043  1
  O  O62  1  0.02047487  0.82054104  0.69307043  1
  O  O63  1  0.80006617  0.82054104  0.19307043  1
  O  O64  1  0.02047487  0.19993383  0.19307043  1
  O  O65  1  0.17945896  0.97952513  0.19307043  1
  O  O66  1  0.86660083  0.35380787  0.64026257  1
  O  O67  1  0.48720804  0.13339917  0.64026257  1
  O  O68  1  0.64619213  0.51279196  0.64026257  1
  O  O69  1  0.86660083  0.51279196  0.14026257  1
  O  O70  1  0.64619213  0.13339917  0.14026257  1
  O  O71  1  0.48720804  0.35380787  0.14026257  1
  O  O72  1  0.46673317  0.31285813  0.02640343  1
  O  O73  1  0.84612596  0.53326683  0.02640343  1
  O  O74  1  0.68714187  0.15387404  0.02640343  1
  O  O75  1  0.46673317  0.15387404  0.52640343  1
  O  O76  1  0.68714187  0.53326683  0.52640343  1
  O  O77  1  0.84612596  0.31285813  0.52640343  1
  O  O78  1  0.53326683  0.68714187  0.97359657  1
  O  O79  1  0.15387404  0.46673317  0.97359657  1
  O  O80  1  0.31285813  0.84612596  0.97359657  1
  O  O81  1  0.53326683  0.84612596  0.47359657  1
  O  O82  1  0.31285813  0.46673317  0.47359657  1
  O  O83  1  0.15387404  0.68714187  0.47359657  1
  O  O84  1  0.13339917  0.64619213  0.35973743  1
  O  O85  1  0.51279196  0.86660083  0.35973743  1
  O  O86  1  0.35380787  0.48720804  0.35973743  1
  O  O87  1  0.13339917  0.48720804  0.85973743  1
  O  O88  1  0.35380787  0.86660083  0.85973743  1
  O  O89  1  0.51279196  0.64619213  0.85973743  1
  O  O90  1  0.01325972  0.82956272  0.41116484  1
  O  O91  1  0.81630300  0.98674028  0.41116484  1
  O  O92  1  0.17043728  0.18369700  0.41116484  1
  O  O93  1  0.01325972  0.18369700  0.91116484  1
  O  O94  1  0.17043728  0.98674028  0.91116484  1
  O  O95  1  0.81630300  0.82956272  0.91116484  1
  O  O96  1  0.98674028  0.17043728  0.58883516  1
  O  O97  1  0.18369700  0.01325972  0.58883516  1
  O  O98  1  0.82956272  0.81630300  0.58883516  1
  O  O99  1  0.98674028  0.81630300  0.08883516  1
  O  O100  1  0.82956272  0.01325972  0.08883516  1
  O  O101  1  0.18369700  0.17043728  0.08883516  1
  O  O102  1  0.67992672  0.16289572  0.74449784  1
  O  O103  1  0.48297000  0.32007328  0.74449784  1
  O  O104  1  0.83710428  0.51703000  0.74449784  1
  O  O105  1  0.67992672  0.51703000  0.24449784  1
  O  O106  1  0.83710428  0.32007328  0.24449784  1
  O  O107  1  0.48297000  0.16289572  0.24449784  1
  O  O108  1  0.65340728  0.50377028  0.92216816  1
  O  O109  1  0.85036400  0.34659272  0.92216816  1
  O  O110  1  0.49622972  0.14963600  0.92216816  1
  O  O111  1  0.65340728  0.14963600  0.42216816  1
  O  O112  1  0.49622972  0.34659272  0.42216816  1
  O  O113  1  0.85036400  0.50377028  0.42216816  1
  O  O114  1  0.34659272  0.49622972  0.07783184  1
  O  O115  1  0.14963600  0.65340728  0.07783184  1
  O  O116  1  0.50377028  0.85036400  0.07783184  1
  O  O117  1  0.34659272  0.85036400  0.57783184  1
  O  O118  1  0.50377028  0.65340728  0.57783184  1
  O  O119  1  0.14963600  0.49622972  0.57783184  1
  O  O120  1  0.32007328  0.83710428  0.25550216  1
  O  O121  1  0.51703000  0.67992672  0.25550216  1
  O  O122  1  0.16289572  0.48297000  0.25550216  1
  O  O123  1  0.32007328  0.48297000  0.75550216  1
  O  O124  1  0.16289572  0.67992672  0.75550216  1
  O  O125  1  0.51703000  0.83710428  0.75550216  1
