# generated using pymatgen
data_Na3TaSi3SnO12
_symmetry_space_group_name_H-M   'P 1'
_cell_length_a   9.06365412
_cell_length_b   9.06502681
_cell_length_c   22.46278701
_cell_angle_alpha   90.00000000
_cell_angle_beta   90.14246033
_cell_angle_gamma   120.00501234
_symmetry_Int_Tables_number   1
_chemical_formula_structural   Na3TaSi3SnO12
_chemical_formula_sum   'Na18 Ta6 Si18 Sn6 O72'
_cell_volume   1598.24354877
_cell_formula_units_Z   6
loop_
 _symmetry_equiv_pos_site_id
 _symmetry_equiv_pos_as_xyz
  1  'x, y, z'
loop_
 _atom_site_type_symbol
 _atom_site_label
 _atom_site_symmetry_multiplicity
 _atom_site_fract_x
 _atom_site_fract_y
 _atom_site_fract_z
 _atom_site_occupancy
  Na  Na0  1  0.99085258  0.97974178  0.49675038  1
  Na  Na1  1  0.99085258  0.01111081  0.99675038  1
  Na  Na2  1  0.66671518  0.33487537  0.83007452  1
  Na  Na3  1  0.66671518  0.33183881  0.33007452  1
  Na  Na4  1  0.33136694  0.66503295  0.16345555  1
  Na  Na5  1  0.33136694  0.66633500  0.66345555  1
  Na  Na6  1  0.36872066  0.36454586  0.24904795  1
  Na  Na7  1  0.99146553  0.63110779  0.24860070  1
  Na  Na8  1  0.99146553  0.36035774  0.74860070  1
  Na  Na9  1  0.36872066  0.00417480  0.74904795  1
  Na  Na10  1  0.30494753  0.34120830  0.58241398  1
  Na  Na11  1  0.66264256  0.96585390  0.58178263  1
  Na  Na12  1  0.30494753  0.96373823  0.08241398  1
  Na  Na13  1  0.66264256  0.69678766  0.08178263  1
  Na  Na14  1  0.97137378  0.67520340  0.91501555  1
  Na  Na15  1  0.32872983  0.29856300  0.91584382  1
  Na  Na16  1  0.97137378  0.29617138  0.41501555  1
  Na  Na17  1  0.32872983  0.03016783  0.41584382  1
  Ta  Ta18  1  0.99920361  0.99672145  0.64522304  1
  Ta  Ta19  1  0.99920361  0.00248215  0.14522304  1
  Ta  Ta20  1  0.66782453  0.32903134  0.97846834  1
  Ta  Ta21  1  0.66782453  0.33879218  0.47846834  1
  Ta  Ta22  1  0.33720745  0.67018100  0.31186707  1
  Ta  Ta23  1  0.33720745  0.66702745  0.81186707  1
  Si  Si24  1  0.29204925  0.00141465  0.25037252  1
  Si  Si25  1  0.70889413  0.71031295  0.24881465  1
  Si  Si26  1  0.99688554  0.28966409  0.25157899  1
  Si  Si27  1  0.29204925  0.29063460  0.75037252  1
  Si  Si28  1  0.99688554  0.70722145  0.75157899  1
  Si  Si29  1  0.70889413  0.99858117  0.74881465  1
  Si  Si30  1  0.95931063  0.33687683  0.58416247  1
  Si  Si31  1  0.37585857  0.04125341  0.58371049  1
  Si  Si32  1  0.66785163  0.62458511  0.58309798  1
  Si  Si33  1  0.95931063  0.62243280  0.08416247  1
  Si  Si34  1  0.66785163  0.04326552  0.08309798  1
  Si  Si35  1  0.37585857  0.33460416  0.08371049  1
  Si  Si36  1  0.62601495  0.67020683  0.91866648  1
  Si  Si37  1  0.04255573  0.37485284  0.91556088  1
  Si  Si38  1  0.33472297  0.95766006  0.91663602  1
  Si  Si39  1  0.62601495  0.95580912  0.41866648  1
  Si  Si40  1  0.33472297  0.37706391  0.41663602  1
  Si  Si41  1  0.04255573  0.66770389  0.41556088  1
  Sn  Sn42  1  0.99547620  0.99645498  0.35237121  1
  Sn  Sn43  1  0.99547620  0.99902121  0.85237121  1
  Sn  Sn44  1  0.66687495  0.33787102  0.68578060  1
  Sn  Sn45  1  0.66687495  0.32900293  0.18578060  1
  Sn  Sn46  1  0.33043229  0.66253609  0.01918748  1
  Sn  Sn47  1  0.33043229  0.66789719  0.51918748  1
  O  O48  1  0.21323460  0.03851039  0.30982337  1
  O  O49  1  0.83480346  0.78954187  0.30553363  1
  O  O50  1  0.97080773  0.18503137  0.31274793  1
  O  O51  1  0.21323460  0.17472421  0.80982337  1
  O  O52  1  0.97080773  0.78577636  0.81274793  1
  O  O53  1  0.83480346  0.04526159  0.80553363  1
  O  O54  1  0.80088628  0.97241510  0.68953987  1
  O  O55  1  0.16538636  0.19802653  0.69198090  1
  O  O56  1  0.02845378  0.83889236  0.69539126  1
  O  O57  1  0.80088628  0.82847117  0.18953987  1
  O  O58  1  0.02845378  0.18956141  0.19539126  1
  O  O59  1  0.16538636  0.96735983  0.19198090  1
  O  O60  1  0.87845413  0.36245679  0.64466908  1
  O  O61  1  0.49124207  0.12044401  0.64331420  1
  O  O62  1  0.62040647  0.50024401  0.64017776  1
  O  O63  1  0.87845413  0.51599634  0.14466908  1
  O  O64  1  0.62040647  0.12016146  0.14017776  1
  O  O65  1  0.49124207  0.37079706  0.14331420  1
  O  O66  1  0.46993030  0.30229588  0.02558039  1
  O  O67  1  0.83293541  0.52937935  0.02587414  1
  O  O68  1  0.69467798  0.16714210  0.02533947  1
  O  O69  1  0.46993030  0.16763342  0.52558039  1
  O  O70  1  0.69467798  0.52753487  0.52533947  1
  O  O71  1  0.83293541  0.30355506  0.52587414  1
  O  O72  1  0.54823821  0.69807414  0.97938808  1
  O  O73  1  0.16599151  0.45681852  0.97278222  1
  O  O74  1  0.29523264  0.84166225  0.97590698  1
  O  O75  1  0.54823821  0.85016506  0.47938808  1
  O  O76  1  0.29523264  0.45357140  0.47590698  1
  O  O77  1  0.16599151  0.70917399  0.47278222  1
  O  O78  1  0.13216766  0.63330768  0.35665992  1
  O  O79  1  0.49424478  0.85698128  0.36207602  1
  O  O80  1  0.35909448  0.49720092  0.35806234  1
  O  O81  1  0.13216766  0.49886098  0.85665992  1
  O  O82  1  0.35909448  0.86189456  0.85806234  1
  O  O83  1  0.49424478  0.63726450  0.86207602  1
  O  O84  1  0.02822225  0.83876081  0.41090016  1
  O  O85  1  0.81955979  0.99145678  0.41282442  1
  O  O86  1  0.16808456  0.18569641  0.41191111  1
  O  O87  1  0.02822225  0.18946143  0.91090016  1
  O  O88  1  0.16808456  0.98238815  0.91191111  1
  O  O89  1  0.81955979  0.82810302  0.91282442  1
  O  O90  1  0.97052759  0.15864464  0.58846275  1
  O  O91  1  0.19105226  0.03576312  0.58936050  1
  O  O92  1  0.83815725  0.81476139  0.58880535  1
  O  O93  1  0.97052759  0.81188294  0.08846275  1
  O  O94  1  0.83815725  0.02339586  0.08880535  1
  O  O95  1  0.19105226  0.15528913  0.08936050  1
  O  O96  1  0.68272062  0.16429613  0.74453054  1
  O  O97  1  0.47631470  0.30334604  0.74501198  1
  O  O98  1  0.83894680  0.51350719  0.74618168  1
  O  O99  1  0.68272062  0.51842349  0.24453054  1
  O  O100  1  0.83894680  0.32543861  0.24618168  1
  O  O101  1  0.47631470  0.17296766  0.24501198  1
  O  O102  1  0.63585958  0.49180062  0.92238004  1
  O  O103  1  0.85855587  0.37016701  0.92227558  1
  O  O104  1  0.50435955  0.15004114  0.92170981  1
  O  O105  1  0.63585958  0.14405796  0.42238004  1
  O  O106  1  0.50435955  0.35431740  0.42170981  1
  O  O107  1  0.85855587  0.48838786  0.42227558  1
  O  O108  1  0.36156708  0.50543475  0.07897165  1
  O  O109  1  0.15368285  0.65924368  0.07926480  1
  O  O110  1  0.50145420  0.85308977  0.07759632  1
  O  O111  1  0.36156708  0.85613333  0.57897165  1
  O  O112  1  0.50145420  0.64836543  0.57759632  1
  O  O113  1  0.15368285  0.49444017  0.57926480  1
  O  O114  1  0.29808027  0.82260365  0.25596795  1
  O  O115  1  0.51799528  0.68958634  0.25569521  1
  O  O116  1  0.17539469  0.47789195  0.25481929  1
  O  O117  1  0.29808027  0.47547762  0.75596795  1
  O  O118  1  0.17539469  0.69750375  0.75481929  1
  O  O119  1  0.51799528  0.82840994  0.75569521  1
