# generated using pymatgen
data_Na6ZnSi6Ge7(SO8)6
_symmetry_space_group_name_H-M   'P 1'
_cell_length_a   17.20961415
_cell_length_b   8.56568596
_cell_length_c   21.93789131
_cell_angle_alpha   89.83853517
_cell_angle_beta   90.36927370
_cell_angle_gamma   119.87573331
_symmetry_Int_Tables_number   1
_chemical_formula_structural   Na6ZnSi6Ge7(SO8)6
_chemical_formula_sum   'Na18 Zn3 Si18 Ge21 S18 O144'
_cell_volume   2804.09155247
_cell_formula_units_Z   3
loop_
 _symmetry_equiv_pos_site_id
 _symmetry_equiv_pos_as_xyz
  1  'x, y, z'
loop_
 _atom_site_type_symbol
 _atom_site_label
 _atom_site_symmetry_multiplicity
 _atom_site_fract_x
 _atom_site_fract_y
 _atom_site_fract_z
 _atom_site_occupancy
  Na  Na0  1  0.68774622  0.37642098  0.25130599  1
  Na  Na1  1  0.99733155  0.64273875  0.25233622  1
  Na  Na2  1  0.99711780  0.36362502  0.75161952  1
  Na  Na3  1  0.49450412  0.36264806  0.74888282  1
  Na  Na4  1  0.19101436  0.01109344  0.75341276  1
  Na  Na5  1  0.68741650  0.00809488  0.74931265  1
  Na  Na6  1  0.99783143  0.99855418  0.49489885  1
  Na  Na7  1  0.50481558  0.00202794  0.49904095  1
  Na  Na8  1  0.00654939  0.01030557  0.99965910  1
  Na  Na9  1  0.50071118  0.99362040  0.99852203  1
  Na  Na10  1  0.33193441  0.33769654  0.82935031  1
  Na  Na11  1  0.82954139  0.33099674  0.83164593  1
  Na  Na12  1  0.33347896  0.33300811  0.33175809  1
  Na  Na13  1  0.83384191  0.33176560  0.33549334  1
  Na  Na14  1  0.17166993  0.66866145  0.16580845  1
  Na  Na15  1  0.66367061  0.66821195  0.16881783  1
  Na  Na16  1  0.17552394  0.66654028  0.66728796  1
  Na  Na17  1  0.67084815  0.66540020  0.66535016  1
  Zn  Zn18  1  0.33322309  0.33566351  0.68989798  1
  Zn  Zn19  1  0.82813289  0.32629745  0.68615396  1
  Zn  Zn20  1  0.83413967  0.33947503  0.18516043  1
  Si  Si21  1  0.14852988  0.00482018  0.25322735  1
  Si  Si22  1  0.85708725  0.72637638  0.25023846  1
  Si  Si23  1  0.49691732  0.28296014  0.24957925  1
  Si  Si24  1  0.14450436  0.29335020  0.75041358  1
  Si  Si25  1  0.64690531  0.29640959  0.75243293  1
  Si  Si26  1  0.49792535  0.71269234  0.75091200  1
  Si  Si27  1  0.35635038  0.98659086  0.75386750  1
  Si  Si28  1  0.85983583  0.99399397  0.75283514  1
  Si  Si29  1  0.47312722  0.61623624  0.08436473  1
  Si  Si30  1  0.18632497  0.33478919  0.08648461  1
  Si  Si31  1  0.02240604  0.38208087  0.91621134  1
  Si  Si32  1  0.16827452  0.95463273  0.91809748  1
  Si  Si33  1  0.66268017  0.95409977  0.91559253  1
  Si  Si34  1  0.81089960  0.94859107  0.41435965  1
  Si  Si35  1  0.16604946  0.37846194  0.41491493  1
  Si  Si36  1  0.66508738  0.37914874  0.41782327  1
  Si  Si37  1  0.02285469  0.66554862  0.41845912  1
  Si  Si38  1  0.52386687  0.66924567  0.41337850  1
  Ge  Ge39  1  0.00317931  0.98910782  0.35955664  1
  Ge  Ge40  1  0.50463528  0.01280718  0.35725319  1
  Ge  Ge41  1  0.01249830  0.03068288  0.85768397  1
  Ge  Ge42  1  0.50730063  0.99743233  0.84846388  1
  Ge  Ge43  1  0.99531409  0.00683538  0.65094146  1
  Ge  Ge44  1  0.50094989  0.00617852  0.65755686  1
  Ge  Ge45  1  0.00850713  0.99845779  0.15249759  1
  Ge  Ge46  1  0.49721254  0.99332113  0.14791807  1
  Ge  Ge47  1  0.33319051  0.33471928  0.18780593  1
  Ge  Ge48  1  0.32153754  0.33002643  0.98449611  1
  Ge  Ge49  1  0.83369829  0.32166006  0.97414468  1
  Ge  Ge50  1  0.33650674  0.35332201  0.47523568  1
  Ge  Ge51  1  0.83164169  0.32862519  0.47012834  1
  Ge  Ge52  1  0.16081197  0.65095463  0.01709466  1
  Ge  Ge53  1  0.65503444  0.66963263  0.01942997  1
  Ge  Ge54  1  0.16142066  0.65560769  0.51433156  1
  Ge  Ge55  1  0.66649105  0.67316961  0.50755822  1
  Ge  Ge56  1  0.16141221  0.66295424  0.31766852  1
  Ge  Ge57  1  0.66775544  0.65778789  0.31609048  1
  Ge  Ge58  1  0.17045915  0.66768784  0.81602991  1
  Ge  Ge59  1  0.67052478  0.68197565  0.80809039  1
  S  S60  1  0.64188037  0.99210655  0.24974246  1
  S  S61  1  0.35537561  0.71341829  0.25138390  1
  S  S62  1  0.00211581  0.28654496  0.25096931  1
  S  S63  1  0.99938670  0.71909011  0.75074095  1
  S  S64  1  0.48040612  0.33449493  0.58181220  1
  S  S65  1  0.98076715  0.33437175  0.58301159  1
  S  S66  1  0.18616311  0.03645391  0.58190572  1
  S  S67  1  0.68465713  0.03534456  0.58166674  1
  S  S68  1  0.33325335  0.63192387  0.58174956  1
  S  S69  1  0.83410500  0.62882490  0.58277494  1
  S  S70  1  0.97849627  0.62414117  0.08128900  1
  S  S71  1  0.33301912  0.04280147  0.08324413  1
  S  S72  1  0.83270980  0.03896289  0.08198994  1
  S  S73  1  0.68708019  0.33604938  0.08005494  1
  S  S74  1  0.31265638  0.66837318  0.91827825  1
  S  S75  1  0.80836396  0.66607933  0.91922859  1
  S  S76  1  0.52080568  0.37737367  0.91739922  1
  S  S77  1  0.31052505  0.95551294  0.41828031  1
  O  O78  1  0.10254624  0.04007079  0.31099441  1
  O  O79  1  0.60216041  0.03117893  0.30390725  1
  O  O80  1  0.41140231  0.79452288  0.30608545  1
  O  O81  1  0.92589804  0.81072146  0.30740552  1
  O  O82  1  0.47929363  0.15029512  0.30880655  1
  O  O83  1  0.98871891  0.18129700  0.30555761  1
  O  O84  1  0.10365751  0.15932309  0.80906954  1
  O  O85  1  0.60457530  0.16324123  0.81069856  1
  O  O86  1  0.47971615  0.79369974  0.81180821  1
  O  O87  1  0.98571188  0.79634620  0.80564766  1
  O  O88  1  0.42347554  0.03651499  0.81327760  1
  O  O89  1  0.92433669  0.02852955  0.81163943  1
  O  O90  1  0.39593610  0.94770056  0.69030118  1
  O  O91  1  0.89506523  0.95058348  0.68878489  1
  O  O92  1  0.07697789  0.20735766  0.68942166  1
  O  O93  1  0.58018420  0.21782344  0.69097302  1
  O  O94  1  0.01921693  0.83348466  0.69355968  1
  O  O95  1  0.52754719  0.84787716  0.69038063  1
  O  O96  1  0.39426719  0.82313965  0.19427278  1
  O  O97  1  0.90266110  0.84646860  0.18674326  1
  O  O98  1  0.01810896  0.21259757  0.19386874  1
  O  O99  1  0.52140650  0.19210541  0.18961646  1
  O  O100  1  0.08200273  0.94052064  0.19213397  1
  O  O101  1  0.58697484  0.96384431  0.19253178  1
  O  O102  1  0.44207507  0.36082395  0.63744917  1
  O  O103  1  0.94527381  0.36272267  0.63986635  1
  O  O104  1  0.23710049  0.10903184  0.63833484  1
  O  O105  1  0.73538334  0.10510321  0.63897037  1
  O  O106  1  0.31537009  0.52198191  0.63589295  1
  O  O107  1  0.82234605  0.52627936  0.63882969  1
  O  O108  1  0.43119132  0.49334271  0.14431847  1
  O  O109  1  0.94318370  0.52031839  0.13789100  1
  O  O110  1  0.31694886  0.11862819  0.13873502  1
  O  O111  1  0.81529973  0.11546339  0.13679168  1
  O  O112  1  0.25233719  0.37286863  0.14452254  1
  O  O113  1  0.73675845  0.36572867  0.13771999  1
  O  O114  1  0.22346850  0.28684503  0.02479187  1
  O  O115  1  0.73123712  0.30501486  0.02700163  1
  O  O116  1  0.41263867  0.52828518  0.02217373  1
  O  O117  1  0.91964765  0.53486899  0.02707758  1
  O  O118  1  0.35158763  0.15613635  0.02785010  1
  O  O119  1  0.84719317  0.15451767  0.02616307  1
  O  O120  1  0.22805138  0.15168791  0.52723338  1
  O  O121  1  0.72902270  0.15387088  0.52844472  1
  O  O122  1  0.34823977  0.54864346  0.52561540  1
  O  O123  1  0.84909150  0.54610964  0.52790145  1
  O  O124  1  0.42052142  0.30125078  0.52658821  1
  O  O125  1  0.92460459  0.30766960  0.52898528  1
  O  O126  1  0.27140786  0.69557356  0.97361381  1
  O  O127  1  0.76655126  0.69534302  0.97438427  1
  O  O128  1  0.08395278  0.45860750  0.97658630  1
  O  O129  1  0.58055165  0.45744043  0.97329219  1
  O  O130  1  0.15351409  0.82878105  0.97828081  1
  O  O131  1  0.64651363  0.83292234  0.97626496  1
  O  O132  1  0.27161978  0.84305969  0.47371397  1
  O  O133  1  0.77123250  0.83041524  0.47708451  1
  O  O134  1  0.15079590  0.46499723  0.47705546  1
  O  O135  1  0.64421945  0.46201966  0.47779366  1
  O  O136  1  0.08816236  0.71071615  0.47756835  1
  O  O137  1  0.58241081  0.71460447  0.47639579  1
  O  O138  1  0.06115757  0.62219747  0.35597466  1
  O  O139  1  0.56621601  0.62662590  0.35467877  1
  O  O140  1  0.25543525  0.88226590  0.36231105  1
  O  O141  1  0.74401154  0.86573296  0.35582165  1
  O  O142  1  0.19172818  0.51612569  0.35593917  1
  O  O143  1  0.68685390  0.49103064  0.35432596  1
  O  O144  1  0.06550518  0.50300576  0.85478555  1
  O  O145  1  0.56194350  0.48817382  0.86215834  1
  O  O146  1  0.18644632  0.87123628  0.85554737  1
  O  O147  1  0.68521521  0.86941498  0.85600279  1
  O  O148  1  0.25633435  0.63062568  0.86222637  1
  O  O149  1  0.75232608  0.62762141  0.86329783  1
  O  O150  1  0.01535150  0.84391766  0.41418714  1
  O  O151  1  0.50486988  0.83883372  0.40433053  1
  O  O152  1  0.39913265  0.96957836  0.41266656  1
  O  O153  1  0.91010173  0.97672727  0.40663907  1
  O  O154  1  0.07668710  0.18753958  0.40787473  1
  O  O155  1  0.57587298  0.17960080  0.41183377  1
  O  O156  1  0.00882881  0.17979222  0.91347651  1
  O  O157  1  0.51216183  0.19746418  0.91429694  1
  O  O158  1  0.07463458  0.96346935  0.91094664  1
  O  O159  1  0.57286412  0.97382561  0.91130436  1
  O  O160  1  0.40021933  0.83099188  0.91364599  1
  O  O161  1  0.89788789  0.82224814  0.91377182  1
  O  O162  1  0.48844862  0.16679311  0.58474340  1
  O  O163  1  0.98985610  0.16691677  0.58520170  1
  O  O164  1  0.09368433  0.01388078  0.58611650  1
  O  O165  1  0.59432081  0.02152903  0.58521533  1
  O  O166  1  0.41517650  0.81159741  0.58502139  1
  O  O167  1  0.92006410  0.81421394  0.58642670  1
  O  O168  1  0.48809191  0.82481982  0.09318491  1
  O  O169  1  0.98531279  0.80395792  0.08425784  1
  O  O170  1  0.41567390  0.02461785  0.08898978  1
  O  O171  1  0.91368579  0.02442552  0.08551059  1
  O  O172  1  0.08443555  0.15509439  0.09533949  1
  O  O173  1  0.59636179  0.17294365  0.08346060  1
  O  O174  1  0.34489681  0.15993514  0.74704729  1
  O  O175  1  0.85095113  0.17269082  0.74751393  1
  O  O176  1  0.23848809  0.30676362  0.74424191  1
  O  O177  1  0.74241171  0.31250219  0.74631925  1
  O  O178  1  0.41737934  0.51449814  0.74590854  1
  O  O179  1  0.92243706  0.53746492  0.74343116  1
  O  O180  1  0.34808655  0.53461581  0.24620858  1
  O  O181  1  0.84408586  0.52219199  0.24512182  1
  O  O182  1  0.40855507  0.30238910  0.24164761  1
  O  O183  1  0.92380986  0.31354555  0.24454313  1
  O  O184  1  0.24513070  0.18187820  0.24162460  1
  O  O185  1  0.73080904  0.15560582  0.24409467  1
  O  O186  1  0.32127982  0.50313211  0.92238946  1
  O  O187  1  0.81640906  0.49921634  0.92615925  1
  O  O188  1  0.43300718  0.36579621  0.92434732  1
  O  O189  1  0.92430469  0.36995059  0.92354898  1
  O  O190  1  0.25993179  0.15742161  0.92571702  1
  O  O191  1  0.75179042  0.15437518  0.92441883  1
  O  O192  1  0.31993518  0.13684468  0.42566497  1
  O  O193  1  0.81907750  0.14601509  0.42504512  1
  O  O194  1  0.25444940  0.35312128  0.42464883  1
  O  O195  1  0.75321658  0.35783544  0.42620245  1
  O  O196  1  0.42543721  0.48564746  0.42398014  1
  O  O197  1  0.92568401  0.48694105  0.42689472  1
  O  O198  1  0.18010978  0.52146598  0.07695586  1
  O  O199  1  0.67965805  0.50270760  0.07206638  1
  O  O200  1  0.06969114  0.64544213  0.07593394  1
  O  O201  1  0.57475922  0.63845842  0.07775390  1
  O  O202  1  0.25352606  0.86167215  0.07667089  1
  O  O203  1  0.75116470  0.85441961  0.07460925  1
  O  O204  1  0.17927657  0.85273809  0.57570720  1
  O  O205  1  0.67558804  0.85155737  0.57551261  1
  O  O206  1  0.25122191  0.65406937  0.57368256  1
  O  O207  1  0.75331933  0.64995954  0.57749186  1
  O  O208  1  0.07359512  0.49836062  0.57814059  1
  O  O209  1  0.57068860  0.49815853  0.57546052  1
  O  O210  1  0.15705687  0.81695945  0.26042716  1
  O  O211  1  0.64752305  0.82924049  0.25405912  1
  O  O212  1  0.26625910  0.69896351  0.25508985  1
  O  O213  1  0.75626236  0.70165703  0.25450154  1
  O  O214  1  0.08527447  0.47331637  0.25355779  1
  O  O215  1  0.58890450  0.47832189  0.25572340  1
  O  O216  1  0.14572397  0.48462069  0.75844433  1
  O  O217  1  0.64744517  0.48512992  0.76213905  1
  O  O218  1  0.08306426  0.70407820  0.75302534  1
  O  O219  1  0.59101675  0.70147559  0.75664758  1
  O  O220  1  0.25464068  0.81071746  0.75878895  1
  O  O221  1  0.75985475  0.81928989  0.75630498  1
