# generated using pymatgen
data_MgCo2(SbO4)2
_symmetry_space_group_name_H-M   'P 1'
_cell_length_a   6.20445584
_cell_length_b   6.20445470
_cell_length_c   6.22932735
_cell_angle_alpha   59.88000955
_cell_angle_beta   59.88001980
_cell_angle_gamma   91.71339210
_symmetry_Int_Tables_number   1
_chemical_formula_structural   MgCo2(SbO4)2
_chemical_formula_sum   'Mg1 Co2 Sb2 O8'
_cell_volume   166.21001050
_cell_formula_units_Z   1
loop_
 _symmetry_equiv_pos_site_id
 _symmetry_equiv_pos_as_xyz
  1  'x, y, z'
loop_
 _atom_site_type_symbol
 _atom_site_label
 _atom_site_symmetry_multiplicity
 _atom_site_fract_x
 _atom_site_fract_y
 _atom_site_fract_z
 _atom_site_occupancy
  Mg  Mg0  1  0.39207500  0.60792500  0.75000000  1
  Co  Co1  1  0.03665800  0.45151000  0.50589600  1
  Co  Co2  1  0.54849000  0.96334200  0.99410400  1
  Sb  Sb3  1  0.03809600  0.96170900  0.50629200  1
  Sb  Sb4  1  0.03829100  0.96190400  0.99370800  1
  O  O5  1  0.81245100  0.73286200  0.97698400  1
  O  O6  1  0.26241000  0.73724100  0.48074200  1
  O  O7  1  0.81915200  0.18114700  0.97667600  1
  O  O8  1  0.81002000  0.73139200  0.47910600  1
  O  O9  1  0.26713800  0.18754900  0.52301600  1
  O  O10  1  0.26275900  0.73759000  0.01925800  1
  O  O11  1  0.81885300  0.18084800  0.52332400  1
  O  O12  1  0.26860800  0.18998000  0.02089400  1
