# generated using pymatgen
data_Na6Mg2Ta4Si3(PO6)6
_symmetry_space_group_name_H-M   'P 1'
_cell_length_a   8.91836134
_cell_length_b   8.91836105
_cell_length_c   22.43175673
_cell_angle_alpha   90.13737394
_cell_angle_beta   89.86262607
_cell_angle_gamma   120.20591987
_symmetry_Int_Tables_number   1
_chemical_formula_structural   Na6Mg2Ta4Si3(PO6)6
_chemical_formula_sum   'Na12 Mg4 Ta8 Si6 P12 O72'
_cell_volume   1541.90448842
_cell_formula_units_Z   2
loop_
 _symmetry_equiv_pos_site_id
 _symmetry_equiv_pos_as_xyz
  1  'x, y, z'
loop_
 _atom_site_type_symbol
 _atom_site_label
 _atom_site_symmetry_multiplicity
 _atom_site_fract_x
 _atom_site_fract_y
 _atom_site_fract_z
 _atom_site_occupancy
  Na  Na0  1  0.36544704  0.35507484  0.24315635  1
  Na  Na1  1  0.98315299  0.62978539  0.24064388  1
  Na  Na2  1  0.64492516  0.63455296  0.74315635  1
  Na  Na3  1  0.37021461  0.01684701  0.74064388  1
  Na  Na4  1  0.71284343  0.03250347  0.91249127  1
  Na  Na5  1  0.96749653  0.28715657  0.41249127  1
  Na  Na6  1  0.00885856  0.99171979  0.49203525  1
  Na  Na7  1  0.00828021  0.99114144  0.99203525  1
  Na  Na8  1  0.68380305  0.34874949  0.82694729  1
  Na  Na9  1  0.65125051  0.31619695  0.32694729  1
  Na  Na10  1  0.34705504  0.69499143  0.16160864  1
  Na  Na11  1  0.30500857  0.65294496  0.66160864  1
  Mg  Mg12  1  0.00434532  0.99779171  0.35555121  1
  Mg  Mg13  1  0.00220829  0.99565468  0.85555121  1
  Mg  Mg14  1  0.67444925  0.33122079  0.68400670  1
  Mg  Mg15  1  0.66877921  0.32555075  0.18400670  1
  Ta  Ta16  1  0.00182466  0.00499373  0.64334616  1
  Ta  Ta17  1  0.99500627  0.99817534  0.14334616  1
  Ta  Ta18  1  0.66982574  0.34093594  0.98203585  1
  Ta  Ta19  1  0.65906406  0.33017426  0.48203585  1
  Ta  Ta20  1  0.33698838  0.66772140  0.02189653  1
  Ta  Ta21  1  0.33227860  0.66301162  0.52189653  1
  Ta  Ta22  1  0.34029736  0.67084959  0.31206205  1
  Ta  Ta23  1  0.32915041  0.65970264  0.81206205  1
  Si  Si24  1  0.95172047  0.33288884  0.58456358  1
  Si  Si25  1  0.37636283  0.04090269  0.58876927  1
  Si  Si26  1  0.95909731  0.62363717  0.08876927  1
  Si  Si27  1  0.66711116  0.04827953  0.08456358  1
  Si  Si28  1  0.62618200  0.66083492  0.91544070  1
  Si  Si29  1  0.33916508  0.37381800  0.41544070  1
  P  P30  1  0.28916106  0.00287471  0.25184650  1
  P  P31  1  0.71223832  0.71486845  0.25210197  1
  P  P32  1  0.99627987  0.28787373  0.25474786  1
  P  P33  1  0.28513155  0.28776168  0.75210197  1
  P  P34  1  0.99712529  0.71083894  0.75184650  1
  P  P35  1  0.71212627  0.00372013  0.75474786  1
  P  P36  1  0.66586646  0.62194685  0.58665983  1
  P  P37  1  0.37805315  0.33413354  0.08665983  1
  P  P38  1  0.04169767  0.37756908  0.91778739  1
  P  P39  1  0.33344724  0.95604381  0.91667242  1
  P  P40  1  0.62243092  0.95830233  0.41778739  1
  P  P41  1  0.04395619  0.66655276  0.41667242  1
  O  O42  1  0.20259102  0.02320728  0.30672252  1
  O  O43  1  0.82272358  0.80063780  0.30608789  1
  O  O44  1  0.98702646  0.19481220  0.31226564  1
  O  O45  1  0.19936220  0.17727642  0.80608789  1
  O  O46  1  0.97679272  0.79740898  0.80672252  1
  O  O47  1  0.80518780  0.01297354  0.81226564  1
  O  O48  1  0.80186340  0.97177697  0.69944239  1
  O  O49  1  0.17431678  0.19872224  0.69424931  1
  O  O50  1  0.02916539  0.83018140  0.69555287  1
  O  O51  1  0.80127776  0.82568322  0.19424931  1
  O  O52  1  0.02822303  0.19813660  0.19944239  1
  O  O53  1  0.16981860  0.97083461  0.19555287  1
  O  O54  1  0.87901932  0.37574740  0.64133763  1
  O  O55  1  0.47690192  0.11444385  0.64921969  1
  O  O56  1  0.62884826  0.52068914  0.64372336  1
  O  O57  1  0.88555615  0.52309808  0.14921969  1
  O  O58  1  0.62425260  0.12098068  0.14133763  1
  O  O59  1  0.47931086  0.37115174  0.14372336  1
  O  O60  1  0.47048204  0.30620407  0.03139112  1
  O  O61  1  0.82979077  0.52364246  0.03025634  1
  O  O62  1  0.69325478  0.16073992  0.02226682  1
  O  O63  1  0.47635754  0.17020923  0.53025634  1
  O  O64  1  0.69379593  0.52951796  0.53139112  1
  O  O65  1  0.83926008  0.30674522  0.52226682  1
  O  O66  1  0.51006569  0.67201840  0.97000578  1
  O  O67  1  0.14897270  0.47504164  0.97228181  1
  O  O68  1  0.31943338  0.84142644  0.97077361  1
  O  O69  1  0.52495836  0.85102730  0.47228181  1
  O  O70  1  0.32798160  0.48993431  0.47000578  1
  O  O71  1  0.15857356  0.68056662  0.47077361  1
  O  O72  1  0.13688839  0.64259849  0.35965655  1
  O  O73  1  0.50661856  0.86727904  0.36100786  1
  O  O74  1  0.36104063  0.49715882  0.35496078  1
  O  O75  1  0.13272096  0.49338144  0.86100786  1
  O  O76  1  0.35740151  0.86311161  0.85965655  1
  O  O77  1  0.50284118  0.63895937  0.85496078  1
  O  O78  1  0.02260393  0.82234362  0.41328689  1
  O  O79  1  0.80113739  0.97972296  0.41322411  1
  O  O80  1  0.16455546  0.19142801  0.41499325  1
  O  O81  1  0.02027704  0.19886261  0.91322411  1
  O  O82  1  0.17765638  0.97739607  0.91328689  1
  O  O83  1  0.80857199  0.83544454  0.91499325  1
  O  O84  1  0.96616230  0.15440700  0.59154793  1
  O  O85  1  0.18016895  0.01983131  0.59054199  1
  O  O86  1  0.83170947  0.80487021  0.59055029  1
  O  O87  1  0.98016869  0.81983105  0.09054199  1
  O  O88  1  0.84559300  0.03383770  0.09154793  1
  O  O89  1  0.19512979  0.16829053  0.09055029  1
  O  O90  1  0.67576385  0.15211604  0.74903626  1
  O  O91  1  0.47205878  0.32652977  0.74577311  1
  O  O92  1  0.83994426  0.53103974  0.74442666  1
  O  O93  1  0.67347023  0.52794122  0.24577311  1
  O  O94  1  0.84788396  0.32423615  0.24903626  1
  O  O95  1  0.46896026  0.16005574  0.24442666  1
  O  O96  1  0.63247819  0.48051712  0.92156650  1
  O  O97  1  0.85960720  0.36421527  0.92139257  1
  O  O98  1  0.50892916  0.13025470  0.92098271  1
  O  O99  1  0.63578473  0.14039280  0.42139257  1
  O  O100  1  0.51948288  0.36752181  0.42156650  1
  O  O101  1  0.86974530  0.49107084  0.42098271  1
  O  O102  1  0.34732324  0.48720372  0.07253479  1
  O  O103  1  0.15102975  0.65008550  0.07358845  1
  O  O104  1  0.50841963  0.84656861  0.07187017  1
  O  O105  1  0.34991450  0.84897025  0.57358845  1
  O  O106  1  0.51279628  0.65267676  0.57253479  1
  O  O107  1  0.15343139  0.49158037  0.57187017  1
  O  O108  1  0.29739687  0.82801578  0.25563536  1
  O  O109  1  0.52843034  0.70561608  0.25478539  1
  O  O110  1  0.17391499  0.47728396  0.25535788  1
  O  O111  1  0.29438392  0.47156966  0.75478539  1
  O  O112  1  0.17198422  0.70260313  0.75563536  1
  O  O113  1  0.52271604  0.82608501  0.75535788  1
