# generated using pymatgen
data_Na5Mg2Al2P3(SO8)3
_symmetry_space_group_name_H-M   'P 1'
_cell_length_a   8.70501252
_cell_length_b   8.66205338
_cell_length_c   21.84364668
_cell_angle_alpha   90.84668868
_cell_angle_beta   90.16671466
_cell_angle_gamma   120.25402632
_symmetry_Int_Tables_number   1
_chemical_formula_structural   Na5Mg2Al2P3(SO8)3
_chemical_formula_sum   'Na15 Mg6 Al6 P9 S9 O72'
_cell_volume   1422.49259794
_cell_formula_units_Z   3
loop_
 _symmetry_equiv_pos_site_id
 _symmetry_equiv_pos_as_xyz
  1  'x, y, z'
loop_
 _atom_site_type_symbol
 _atom_site_label
 _atom_site_symmetry_multiplicity
 _atom_site_fract_x
 _atom_site_fract_y
 _atom_site_fract_z
 _atom_site_occupancy
  Na  Na0  1  0.63944020  0.01042071  0.25256087  1
  Na  Na1  1  0.00031115  0.63295717  0.24575109  1
  Na  Na2  1  0.63420459  0.63211131  0.74650921  1
  Na  Na3  1  0.99656166  0.35668764  0.74791140  1
  Na  Na4  1  0.30574782  0.34264055  0.58536850  1
  Na  Na5  1  0.66678463  0.96554552  0.58055433  1
  Na  Na6  1  0.29847434  0.96097700  0.08119256  1
  Na  Na7  1  0.69369781  0.02755325  0.91341337  1
  Na  Na8  1  0.96561453  0.29469185  0.41500447  1
  Na  Na9  1  0.98930351  0.98087660  0.49788734  1
  Na  Na10  1  0.00602771  0.99326689  0.99846728  1
  Na  Na11  1  0.64516704  0.31918257  0.83216513  1
  Na  Na12  1  0.64784255  0.32419998  0.33287239  1
  Na  Na13  1  0.32136560  0.64678937  0.16446472  1
  Na  Na14  1  0.32855697  0.66966204  0.66513476  1
  Mg  Mg15  1  0.00117481  0.00191777  0.35161613  1
  Mg  Mg16  1  0.01358941  0.00649342  0.85250704  1
  Mg  Mg17  1  0.66329296  0.33025167  0.68491561  1
  Mg  Mg18  1  0.66812204  0.33480314  0.18463756  1
  Mg  Mg19  1  0.32523770  0.66475712  0.01891326  1
  Mg  Mg20  1  0.33570712  0.66816204  0.51792532  1
  Al  Al21  1  0.98957957  0.00141879  0.64938135  1
  Al  Al22  1  0.00552253  0.99880841  0.15028026  1
  Al  Al23  1  0.66434110  0.34109734  0.98230613  1
  Al  Al24  1  0.66979683  0.33157804  0.48350957  1
  Al  Al25  1  0.33262704  0.67130635  0.31484382  1
  Al  Al26  1  0.34232064  0.67899086  0.81488167  1
  P  P27  1  0.29173180  0.00043667  0.25078900  1
  P  P28  1  0.00844801  0.29302122  0.25101971  1
  P  P29  1  0.29104063  0.29279894  0.75049293  1
  P  P30  1  0.70384965  0.99710785  0.75209225  1
  P  P31  1  0.95959422  0.33471682  0.58418692  1
  P  P32  1  0.67557300  0.62596894  0.58403284  1
  P  P33  1  0.95272383  0.62656748  0.08476519  1
  P  P34  1  0.33621485  0.96276790  0.91928362  1
  P  P35  1  0.62231144  0.96100947  0.41786645  1
  S  S36  1  0.70556337  0.70955875  0.25006900  1
  S  S37  1  0.00731060  0.71581540  0.74983704  1
  S  S38  1  0.37049402  0.04189156  0.58273333  1
  S  S39  1  0.67580053  0.04322281  0.08297509  1
  S  S40  1  0.37586354  0.33397284  0.08340328  1
  S  S41  1  0.62182961  0.65977776  0.91696967  1
  S  S42  1  0.04005537  0.37873151  0.91590331  1
  S  S43  1  0.34175045  0.37885272  0.41656512  1
  S  S44  1  0.04035180  0.66670677  0.41694057  1
  O  O45  1  0.20491467  0.02415554  0.30651984  1
  O  O46  1  0.81709643  0.78767397  0.30472458  1
  O  O47  1  0.96758384  0.18126141  0.30819879  1
  O  O48  1  0.20637426  0.18071511  0.80544446  1
  O  O49  1  0.97121391  0.79120495  0.80457978  1
  O  O50  1  0.81736303  0.02665386  0.80908715  1
  O  O51  1  0.78835548  0.95851104  0.69398957  1
  O  O52  1  0.17096957  0.20723252  0.69103041  1
  O  O53  1  0.03504543  0.82561623  0.69493116  1
  O  O54  1  0.78696501  0.82574876  0.19554029  1
  O  O55  1  0.03207700  0.19760057  0.19389186  1
  O  O56  1  0.17171236  0.96017937  0.19169541  1
  O  O57  1  0.87823198  0.35925976  0.64211651  1
  O  O58  1  0.48343014  0.11982882  0.63756640  1
  O  O59  1  0.63609500  0.51425362  0.64124079  1
  O  O60  1  0.87543073  0.52225734  0.14276129  1
  O  O61  1  0.63921943  0.12092874  0.13776330  1
  O  O62  1  0.48117932  0.35984419  0.13839039  1
  O  O63  1  0.45676277  0.29596772  0.02830326  1
  O  O64  1  0.83159767  0.53110730  0.02761380  1
  O  O65  1  0.69969636  0.15329959  0.02751236  1
  O  O66  1  0.45320352  0.15839380  0.52840257  1
  O  O67  1  0.69732052  0.52973094  0.52694598  1
  O  O68  1  0.83630431  0.29541941  0.52644045  1
  O  O69  1  0.53978302  0.69226458  0.97064786  1
  O  O70  1  0.15216191  0.46002394  0.97048003  1
  O  O71  1  0.31541993  0.85783186  0.97687398  1
  O  O72  1  0.54128546  0.85451908  0.47505832  1
  O  O73  1  0.30701398  0.45444608  0.47243728  1
  O  O74  1  0.14905355  0.69137271  0.47100727  1
  O  O75  1  0.11958917  0.62955635  0.36045423  1
  O  O76  1  0.50559970  0.86896656  0.35886240  1
  O  O77  1  0.36528917  0.49197602  0.36249046  1
  O  O78  1  0.12249219  0.48657020  0.85985690  1
  O  O79  1  0.37456070  0.87108452  0.86274230  1
  O  O80  1  0.51177948  0.63011721  0.85980924  1
  O  O81  1  0.01922346  0.82219275  0.40996258  1
  O  O82  1  0.81123874  0.98952638  0.41137551  1
  O  O83  1  0.18117131  0.19927573  0.41006307  1
  O  O84  1  0.01015405  0.19505493  0.91071339  1
  O  O85  1  0.17487461  0.98355134  0.91155095  1
  O  O86  1  0.79922380  0.82115515  0.91045081  1
  O  O87  1  0.97500344  0.15953171  0.58897758  1
  O  O88  1  0.19413858  0.02874048  0.58940276  1
  O  O89  1  0.84531060  0.81616405  0.59100496  1
  O  O90  1  0.97448743  0.81952006  0.09037165  1
  O  O91  1  0.83766156  0.02922099  0.08997642  1
  O  O92  1  0.19553882  0.16660890  0.08810940  1
  O  O93  1  0.68853758  0.16347014  0.74425746  1
  O  O94  1  0.48029895  0.32756229  0.74374082  1
  O  O95  1  0.84914472  0.53279955  0.74314646  1
  O  O96  1  0.68391585  0.53065721  0.24239781  1
  O  O97  1  0.84639650  0.32063143  0.24346502  1
  O  O98  1  0.48043608  0.15834028  0.24298262  1
  O  O99  1  0.63774118  0.49752640  0.92301915  1
  O  O100  1  0.85942329  0.36097612  0.92208635  1
  O  O101  1  0.51475704  0.15171838  0.92581067  1
  O  O102  1  0.64230455  0.15322396  0.42369894  1
  O  O103  1  0.50337497  0.36345042  0.42303318  1
  O  O104  1  0.86100065  0.49835628  0.42171485  1
  O  O105  1  0.35587819  0.49076198  0.07525445  1
  O  O106  1  0.14219979  0.65527534  0.07824858  1
  O  O107  1  0.51582142  0.86257500  0.07614766  1
  O  O108  1  0.35041639  0.86352476  0.57521565  1
  O  O109  1  0.51326772  0.65372376  0.57708901  1
  O  O110  1  0.14755017  0.49309025  0.57643670  1
  O  O111  1  0.30875008  0.82577177  0.25631776  1
  O  O112  1  0.52751083  0.69558621  0.25630700  1
  O  O113  1  0.17771815  0.48390882  0.25898177  1
  O  O114  1  0.30332704  0.48278398  0.75759103  1
  O  O115  1  0.16644216  0.69305531  0.75673014  1
  O  O116  1  0.51813773  0.82247433  0.75738967  1
