# generated using pymatgen
data_Na14Hf6Mg2Si9(SO16)3
_symmetry_space_group_name_H-M   'P 1'
_cell_length_a   18.29452974
_cell_length_b   9.17375224
_cell_length_c   22.66166355
_cell_angle_alpha   90.08457243
_cell_angle_beta   90.13273833
_cell_angle_gamma   120.00234791
_symmetry_Int_Tables_number   1
_chemical_formula_structural   Na14Hf6Mg2Si9(SO16)3
_chemical_formula_sum   'Na42 Hf18 Mg6 Si27 S9 O144'
_cell_volume   3293.64832049
_cell_formula_units_Z   3
loop_
 _symmetry_equiv_pos_site_id
 _symmetry_equiv_pos_as_xyz
  1  'x, y, z'
loop_
 _atom_site_type_symbol
 _atom_site_label
 _atom_site_symmetry_multiplicity
 _atom_site_fract_x
 _atom_site_fract_y
 _atom_site_fract_z
 _atom_site_occupancy
  Na  Na0  1  0.31261129  0.00203494  0.24529767  1
  Na  Na1  1  0.81764276  0.01763332  0.24715743  1
  Na  Na2  1  0.18720415  0.36390800  0.25111325  1
  Na  Na3  1  0.69504848  0.36611145  0.24918895  1
  Na  Na4  1  0.99145768  0.61983923  0.25303722  1
  Na  Na5  1  0.49507534  0.63699988  0.24781184  1
  Na  Na6  1  0.31791118  0.61691080  0.74047852  1
  Na  Na7  1  0.81314145  0.62425943  0.74120673  1
  Na  Na8  1  0.99272027  0.34670541  0.74260004  1
  Na  Na9  1  0.49287048  0.36734601  0.74946307  1
  Na  Na10  1  0.19547841  0.02776009  0.74464455  1
  Na  Na11  1  0.68926740  0.01027096  0.74753248  1
  Na  Na12  1  0.15537818  0.33752101  0.58662510  1
  Na  Na13  1  0.65886041  0.35621426  0.57847708  1
  Na  Na14  1  0.00986519  0.69104146  0.57933281  1
  Na  Na15  1  0.51501128  0.69315641  0.57376004  1
  Na  Na16  1  0.32907824  0.96524512  0.58424154  1
  Na  Na17  1  0.82934977  0.95216591  0.57403808  1
  Na  Na18  1  0.15831257  0.96300469  0.08437607  1
  Na  Na19  1  0.65693122  0.97444358  0.08955997  1
  Na  Na20  1  0.33264400  0.70537090  0.08500566  1
  Na  Na21  1  0.82887209  0.69281204  0.08738288  1
  Na  Na22  1  0.01236552  0.33136725  0.07883741  1
  Na  Na23  1  0.51287400  0.33167523  0.08337828  1
  Na  Na24  1  0.98540011  0.67012115  0.91861001  1
  Na  Na25  1  0.34907119  0.03802955  0.91459231  1
  Na  Na26  1  0.16261535  0.29250025  0.91557701  1
  Na  Na27  1  0.48823447  0.30524296  0.41847307  1
  Na  Na28  1  0.66905625  0.03133597  0.41504513  1
  Na  Na29  1  0.84727307  0.66979094  0.41984216  1
  Na  Na30  1  0.99802562  0.99572957  0.49640188  1
  Na  Na31  1  0.49256922  0.98329363  0.49295936  1
  Na  Na32  1  0.98958164  0.99945637  0.99469277  1
  Na  Na33  1  0.50711577  0.01436315  0.00274888  1
  Na  Na34  1  0.33780523  0.33694038  0.82383349  1
  Na  Na35  1  0.82822082  0.32163080  0.83005244  1
  Na  Na36  1  0.32858302  0.33489218  0.33103132  1
  Na  Na37  1  0.83648584  0.32951881  0.32881374  1
  Na  Na38  1  0.17212986  0.67795061  0.16989316  1
  Na  Na39  1  0.67098570  0.67885181  0.16760555  1
  Na  Na40  1  0.16983386  0.66184540  0.66155858  1
  Na  Na41  1  0.67419106  0.66761361  0.66452925  1
  Hf  Hf42  1  0.99761833  0.99584889  0.35053547  1
  Hf  Hf43  1  0.49755600  0.98032148  0.35602369  1
  Hf  Hf44  1  0.99645420  0.01314951  0.85592204  1
  Hf  Hf45  1  0.50434721  0.00998166  0.84824208  1
  Hf  Hf46  1  0.99704510  0.00854931  0.64414505  1
  Hf  Hf47  1  0.49673925  0.98996696  0.65250170  1
  Hf  Hf48  1  0.99602980  0.00248336  0.15374408  1
  Hf  Hf49  1  0.49809447  0.98770655  0.14592282  1
  Hf  Hf50  1  0.34185193  0.32974559  0.98095226  1
  Hf  Hf51  1  0.82933169  0.32278546  0.97978193  1
  Hf  Hf52  1  0.32938486  0.33556537  0.47972320  1
  Hf  Hf53  1  0.84276923  0.34794960  0.47689359  1
  Hf  Hf54  1  0.66811187  0.65670695  0.01970475  1
  Hf  Hf55  1  0.16813846  0.67881332  0.51901307  1
  Hf  Hf56  1  0.16644901  0.67926256  0.31286787  1
  Hf  Hf57  1  0.67122054  0.67714506  0.31953066  1
  Hf  Hf58  1  0.16565615  0.66876485  0.81597024  1
  Hf  Hf59  1  0.66632860  0.65355064  0.81256342  1
  Mg  Mg60  1  0.32699214  0.33279152  0.68733775  1
  Mg  Mg61  1  0.83350542  0.33410502  0.68204804  1
  Mg  Mg62  1  0.33395113  0.33068723  0.18404209  1
  Mg  Mg63  1  0.82617751  0.31972085  0.18888617  1
  Mg  Mg64  1  0.16543285  0.67686870  0.01391793  1
  Mg  Mg65  1  0.67274607  0.66405884  0.50900334  1
  Si  Si66  1  0.14848429  0.00655414  0.24813219  1
  Si  Si67  1  0.64589029  0.99622048  0.25115401  1
  Si  Si68  1  0.35180350  0.70072494  0.24823569  1
  Si  Si69  1  0.84952715  0.69897380  0.25029758  1
  Si  Si70  1  0.00070920  0.29835311  0.25046971  1
  Si  Si71  1  0.14606088  0.29330294  0.75205646  1
  Si  Si72  1  0.65010030  0.29434737  0.74662772  1
  Si  Si73  1  0.50030209  0.70437677  0.75161526  1
  Si  Si74  1  0.35108156  0.99963641  0.75125671  1
  Si  Si75  1  0.85157559  0.00228555  0.74878578  1
  Si  Si76  1  0.97927017  0.33727628  0.58609510  1
  Si  Si77  1  0.18891695  0.04408575  0.58725332  1
  Si  Si78  1  0.33551452  0.62803768  0.58555842  1
  Si  Si79  1  0.82889340  0.62357140  0.58678317  1
  Si  Si80  1  0.47877741  0.62236865  0.08536969  1
  Si  Si81  1  0.32940255  0.03019792  0.08593418  1
  Si  Si82  1  0.83579878  0.04286885  0.08487254  1
  Si  Si83  1  0.68891718  0.33316508  0.08670514  1
  Si  Si84  1  0.81376491  0.66279066  0.91662628  1
  Si  Si85  1  0.02142358  0.38037091  0.92108479  1
  Si  Si86  1  0.52065985  0.36831813  0.91610813  1
  Si  Si87  1  0.16594812  0.96338335  0.91868727  1
  Si  Si88  1  0.31407467  0.96465935  0.41676844  1
  Si  Si89  1  0.81761097  0.96745485  0.42034770  1
  Si  Si90  1  0.66458477  0.36977865  0.41837144  1
  Si  Si91  1  0.02206035  0.67419069  0.41575375  1
  Si  Si92  1  0.52089515  0.66104924  0.42083343  1
  S  S93  1  0.50012550  0.29046637  0.25020272  1
  S  S94  1  0.00096519  0.71023116  0.75113408  1
  S  S95  1  0.47948671  0.33404944  0.58493109  1
  S  S96  1  0.68554178  0.03996289  0.58446595  1
  S  S97  1  0.97981140  0.62487669  0.08389609  1
  S  S98  1  0.18703989  0.33389992  0.08264245  1
  S  S99  1  0.31287535  0.66638332  0.91814007  1
  S  S100  1  0.66504499  0.95599340  0.91665910  1
  S  S101  1  0.16613013  0.37592828  0.41647535  1
  O  O102  1  0.09866923  0.03198410  0.30290196  1
  O  O103  1  0.59797775  0.02241045  0.30734131  1
  O  O104  1  0.41486456  0.80307827  0.30285959  1
  O  O105  1  0.91040642  0.79682316  0.30696282  1
  O  O106  1  0.48954502  0.18751201  0.30282327  1
  O  O107  1  0.98642310  0.16919347  0.30395780  1
  O  O108  1  0.09910116  0.17306977  0.80901951  1
  O  O109  1  0.60003793  0.17076342  0.80298151  1
  O  O110  1  0.48591465  0.80421823  0.80641835  1
  O  O111  1  0.99119199  0.79265993  0.80434408  1
  O  O112  1  0.41030224  0.02062876  0.80930886  1
  O  O113  1  0.91450093  0.02730538  0.80410938  1
  O  O114  1  0.39572392  0.96376823  0.69360666  1
  O  O115  1  0.89420648  0.96260293  0.69143179  1
  O  O116  1  0.08537475  0.20449530  0.69391585  1
  O  O117  1  0.58804910  0.20668873  0.68896917  1
  O  O118  1  0.01490819  0.81365447  0.69798310  1
  O  O119  1  0.51791020  0.82723592  0.69282744  1
  O  O120  1  0.39312650  0.82332737  0.18957266  1
  O  O121  1  0.89465230  0.82584273  0.19217190  1
  O  O122  1  0.01901266  0.21279646  0.19036875  1
  O  O123  1  0.51174531  0.20975931  0.19634766  1
  O  O124  1  0.08878303  0.97064355  0.18786715  1
  O  O125  1  0.58611169  0.96896425  0.19222041  1
  O  O126  1  0.43823405  0.35174152  0.63794749  1
  O  O127  1  0.94396336  0.37527126  0.64576680  1
  O  O128  1  0.24697391  0.11602661  0.64523271  1
  O  O129  1  0.73664668  0.11890805  0.63796020  1
  O  O130  1  0.31917156  0.51935543  0.64460723  1
  O  O131  1  0.81510731  0.50989068  0.64474169  1
  O  O132  1  0.44123204  0.50828935  0.14325459  1
  O  O133  1  0.94002086  0.52591481  0.13645126  1
  O  O134  1  0.31214123  0.11667753  0.14191170  1
  O  O135  1  0.81936778  0.12086895  0.14319638  1
  O  O136  1  0.23830288  0.35725424  0.13559337  1
  O  O137  1  0.74759544  0.37704320  0.14385750  1
  O  O138  1  0.22725910  0.31102210  0.02861844  1
  O  O139  1  0.73371379  0.29959897  0.02898873  1
  O  O140  1  0.41414049  0.53257956  0.02876363  1
  O  O141  1  0.92697011  0.54607821  0.02969679  1
  O  O142  1  0.34586022  0.15283384  0.02622520  1
  O  O143  1  0.85339443  0.16841971  0.02789747  1
  O  O144  1  0.23435356  0.16884173  0.53041204  1
  O  O145  1  0.72472949  0.14280575  0.53119346  1
  O  O146  1  0.35295945  0.53661690  0.52913494  1
  O  O147  1  0.84481351  0.53364820  0.52813536  1
  O  O148  1  0.42592963  0.30555160  0.53097390  1
  O  O149  1  0.91533387  0.30031982  0.53045824  1
  O  O150  1  0.27377341  0.69258650  0.97089346  1
  O  O151  1  0.77007711  0.69265836  0.97470742  1
  O  O152  1  0.08070426  0.45982232  0.97837434  1
  O  O153  1  0.57599408  0.46201826  0.97464185  1
  O  O154  1  0.14992328  0.85042497  0.97644913  1
  O  O155  1  0.65577683  0.85734023  0.97018864  1
  O  O156  1  0.27057620  0.84795074  0.47502103  1
  O  O157  1  0.77780698  0.85098258  0.47759769  1
  O  O158  1  0.15754957  0.45769997  0.47031209  1
  O  O159  1  0.64327579  0.44250802  0.47646753  1
  O  O160  1  0.07681132  0.68807544  0.47463985  1
  O  O161  1  0.57763663  0.69602630  0.47920833  1
  O  O162  1  0.06561137  0.64444634  0.35758843  1
  O  O163  1  0.56407189  0.63189904  0.36084225  1
  O  O164  1  0.25684009  0.87229476  0.35824570  1
  O  O165  1  0.75638331  0.87677788  0.36081158  1
  O  O166  1  0.17732351  0.47821171  0.36320582  1
  O  O167  1  0.68216398  0.49295461  0.36013216  1
  O  O168  1  0.06735501  0.49865922  0.86195789  1
  O  O169  1  0.56425504  0.48115720  0.85748662  1
  O  O170  1  0.18565570  0.87609782  0.86083793  1
  O  O171  1  0.67581804  0.87626634  0.86321513  1
  O  O172  1  0.25984225  0.64308809  0.86433539  1
  O  O173  1  0.75631559  0.64089458  0.85836969  1
  O  O174  1  0.01030600  0.83906458  0.41244830  1
  O  O175  1  0.51324486  0.83208347  0.41226603  1
  O  O176  1  0.41012993  0.99609793  0.40991862  1
  O  O177  1  0.90990569  0.98264814  0.41078218  1
  O  O178  1  0.09140979  0.20730242  0.41204516  1
  O  O179  1  0.58158439  0.18243728  0.40770933  1
  O  O180  1  0.01323071  0.19385922  0.91260667  1
  O  O181  1  0.50427998  0.17352209  0.91334792  1
  O  O182  1  0.08168103  0.97956878  0.90875137  1
  O  O183  1  0.58927657  0.97529451  0.91216816  1
  O  O184  1  0.39730204  0.81724254  0.91139754  1
  O  O185  1  0.91007160  0.82360720  0.90992454  1
  O  O186  1  0.48810607  0.17829560  0.58782764  1
  O  O187  1  0.98874589  0.16550613  0.58787619  1
  O  O188  1  0.09336623  0.01949261  0.59181254  1
  O  O189  1  0.59973044  0.02800053  0.58858906  1
  O  O190  1  0.42121148  0.82275658  0.58715598  1
  O  O191  1  0.91833285  0.80998569  0.59009872  1
  O  O192  1  0.48770656  0.81203880  0.08747512  1
  O  O193  1  0.98941113  0.79831205  0.08638035  1
  O  O194  1  0.41868902  0.02521749  0.08833029  1
  O  O195  1  0.92170053  0.01936402  0.08646780  1
  O  O196  1  0.10171150  0.17583305  0.08585541  1
  O  O197  1  0.59300695  0.16697327  0.09040132  1
  O  O198  1  0.34590203  0.16881041  0.74765012  1
  O  O199  1  0.84342898  0.16987039  0.74456745  1
  O  O200  1  0.23926718  0.31600945  0.74952828  1
  O  O201  1  0.74259046  0.31408057  0.74559417  1
  O  O202  1  0.41922691  0.51940583  0.74536245  1
  O  O203  1  0.92651833  0.54079707  0.74710428  1
  O  O204  1  0.34389493  0.51705448  0.24377256  1
  O  O205  1  0.84515035  0.52038957  0.24565591  1
  O  O206  1  0.42433240  0.30794901  0.24538874  1
  O  O207  1  0.91961049  0.32106148  0.24387437  1
  O  O208  1  0.24212128  0.17010715  0.24509205  1
  O  O209  1  0.73854794  0.16013885  0.24887144  1
  O  O210  1  0.31698330  0.50933319  0.92202545  1
  O  O211  1  0.82609851  0.49796749  0.92427468  1
  O  O212  1  0.42454123  0.34497067  0.92087040  1
  O  O213  1  0.92899378  0.36843320  0.92379893  1
  O  O214  1  0.24845760  0.15693771  0.92388461  1
  O  O215  1  0.74195909  0.12702647  0.92098417  1
  O  O216  1  0.32547159  0.15324548  0.42469288  1
  O  O217  1  0.81742314  0.14556115  0.42368433  1
  O  O218  1  0.24396664  0.36082397  0.42108562  1
  O  O219  1  0.74870936  0.34982022  0.42450494  1
  O  O220  1  0.42742567  0.48889295  0.42397653  1
  O  O221  1  0.92633758  0.50901325  0.41992033  1
  O  O222  1  0.17564938  0.48218797  0.07718541  1
  O  O223  1  0.67531670  0.49840243  0.07715972  1
  O  O224  1  0.06488104  0.64265537  0.07779614  1
  O  O225  1  0.57487604  0.65491925  0.07391239  1
  O  O226  1  0.24906939  0.83838822  0.07726051  1
  O  O227  1  0.75191723  0.85452225  0.07478517  1
  O  O228  1  0.17604006  0.85259952  0.57748113  1
  O  O229  1  0.67248990  0.86787946  0.58009612  1
  O  O230  1  0.25173242  0.64914817  0.57598205  1
  O  O231  1  0.74694949  0.65088799  0.58078983  1
  O  O232  1  0.07589043  0.49702750  0.57536825  1
  O  O233  1  0.56339044  0.48431965  0.57957544  1
  O  O234  1  0.15377527  0.83112056  0.25322708  1
  O  O235  1  0.64909650  0.81883228  0.25490417  1
  O  O236  1  0.25850654  0.68407497  0.25553076  1
  O  O237  1  0.75595009  0.68404464  0.25430063  1
  O  O238  1  0.08897002  0.47968846  0.25619318  1
  O  O239  1  0.57744181  0.45983125  0.25410715  1
  O  O240  1  0.15262589  0.48070963  0.75860455  1
  O  O241  1  0.65415580  0.47795675  0.75304271  1
  O  O242  1  0.07928548  0.69494390  0.75646583  1
  O  O243  1  0.58818136  0.69883898  0.75777264  1
  O  O244  1  0.25808522  0.82624190  0.75659775  1
  O  O245  1  0.75817599  0.83317916  0.75678760  1
