# generated using pymatgen
data_NaLaInP(SO6)2
_symmetry_space_group_name_H-M   'P 1'
_cell_length_a   9.14655255
_cell_length_b   9.14983518
_cell_length_c   24.38617534
_cell_angle_alpha   90.06978058
_cell_angle_beta   89.76977371
_cell_angle_gamma   119.98204218
_symmetry_Int_Tables_number   1
_chemical_formula_structural   NaLaInP(SO6)2
_chemical_formula_sum   'Na6 La6 In6 P6 S12 O72'
_cell_volume   1767.74615538
_cell_formula_units_Z   6
loop_
 _symmetry_equiv_pos_site_id
 _symmetry_equiv_pos_as_xyz
  1  'x, y, z'
loop_
 _atom_site_type_symbol
 _atom_site_label
 _atom_site_symmetry_multiplicity
 _atom_site_fract_x
 _atom_site_fract_y
 _atom_site_fract_z
 _atom_site_occupancy
  Na  Na0  1  0.98213743  0.98821057  0.49903306  1
  Na  Na1  1  0.00844223  0.98531760  0.99910281  1
  Na  Na2  1  0.65671177  0.30911873  0.82878558  1
  Na  Na3  1  0.65288385  0.31176736  0.33636961  1
  Na  Na4  1  0.31804782  0.67309990  0.16302883  1
  Na  Na5  1  0.35292118  0.67294686  0.66232004  1
  La  La6  1  0.99730289  0.00028299  0.84895692  1
  La  La7  1  0.00725161  0.99202696  0.14829882  1
  La  La8  1  0.66487676  0.33173189  0.18460157  1
  La  La9  1  0.66655832  0.33094108  0.98221505  1
  La  La10  1  0.33935007  0.68336345  0.32167035  1
  La  La11  1  0.34294088  0.68288250  0.80931490  1
  In  In12  1  0.00036907  0.00083247  0.35461853  1
  In  In13  1  0.98572610  0.98999448  0.64525757  1
  In  In14  1  0.66669618  0.33206550  0.67775403  1
  In  In15  1  0.66735423  0.33233291  0.48734200  1
  In  In16  1  0.32354327  0.67373848  0.01563034  1
  In  In17  1  0.35503805  0.67359377  0.51683840  1
  P  P18  1  0.29551859  0.00640141  0.25613901  1
  P  P19  1  0.71034936  0.01727235  0.74215455  1
  P  P20  1  0.66608971  0.62260009  0.58264178  1
  P  P21  1  0.98028817  0.63348098  0.08112954  1
  P  P22  1  0.32774727  0.96114614  0.91833048  1
  P  P23  1  0.64506646  0.97892448  0.42131169  1
  S  S24  1  0.70761808  0.70469334  0.25500041  1
  S  S25  1  0.99877050  0.29210088  0.25446908  1
  S  S26  1  0.30024156  0.28908229  0.74147560  1
  S  S27  1  0.98701640  0.69551536  0.74234005  1
  S  S28  1  0.96805176  0.33698063  0.58204190  1
  S  S29  1  0.36750925  0.03450025  0.58311467  1
  S  S30  1  0.65465009  0.01383957  0.08146256  1
  S  S31  1  0.36219626  0.35081865  0.08060614  1
  S  S32  1  0.62382364  0.67125638  0.92024775  1
  S  S33  1  0.04746701  0.37439186  0.91829563  1
  S  S34  1  0.33381909  0.36244932  0.42089642  1
  S  S35  1  0.02915515  0.66544428  0.42278849  1
  O  O36  1  0.19859960  0.01393876  0.30755414  1
  O  O37  1  0.80551470  0.79599220  0.30395686  1
  O  O38  1  0.98562348  0.19086934  0.30364197  1
  O  O39  1  0.22779997  0.19802490  0.79413795  1
  O  O40  1  0.97023444  0.76956908  0.79468746  1
  O  O41  1  0.80372590  0.03454620  0.79683025  1
  O  O42  1  0.80237772  0.99587027  0.69258305  1
  O  O43  1  0.19359029  0.19685904  0.69426840  1
  O  O44  1  0.01143568  0.80630623  0.69514818  1
  O  O45  1  0.78472427  0.79689866  0.20344719  1
  O  O46  1  0.00691611  0.21085781  0.20293477  1
  O  O47  1  0.20354167  0.99648461  0.20209626  1
  O  O48  1  0.89124685  0.36269669  0.63246525  1
  O  O49  1  0.47269246  0.10964520  0.63276935  1
  O  O50  1  0.63994592  0.51623055  0.63500987  1
  O  O51  1  0.89015197  0.53453021  0.13397987  1
  O  O52  1  0.63606711  0.09587066  0.13146547  1
  O  O53  1  0.45773496  0.36382472  0.13108666  1
  O  O54  1  0.44462524  0.32544448  0.03193667  1
  O  O55  1  0.87608941  0.54295915  0.02998209  1
  O  O56  1  0.67206978  0.11562280  0.03215100  1
  O  O57  1  0.44509774  0.13863017  0.53349473  1
  O  O58  1  0.69028135  0.53985563  0.53088686  1
  O  O59  1  0.86011909  0.30599206  0.53337827  1
  O  O60  1  0.53258043  0.67461284  0.96976292  1
  O  O61  1  0.14225420  0.45915983  0.96828878  1
  O  O62  1  0.31965390  0.86315846  0.97078455  1
  O  O63  1  0.55893396  0.86084738  0.47144563  1
  O  O64  1  0.30579929  0.44603177  0.46931617  1
  O  O65  1  0.14085698  0.68823452  0.47011527  1
  O  O66  1  0.09690182  0.63684802  0.37130651  1
  O  O67  1  0.54090932  0.90782350  0.36879253  1
  O  O68  1  0.35934880  0.46089208  0.37036178  1
  O  O69  1  0.13389611  0.46582597  0.86751498  1
  O  O70  1  0.33724212  0.87180280  0.86553965  1
  O  O71  1  0.53291966  0.66115653  0.86898289  1
  O  O72  1  0.01499860  0.82171403  0.41781965  1
  O  O73  1  0.82341149  0.99450186  0.41432498  1
  O  O74  1  0.17985717  0.19129744  0.41633618  1
  O  O75  1  0.02718656  0.20281208  0.91855177  1
  O  O76  1  0.16665409  0.97699777  0.91747447  1
  O  O77  1  0.79261305  0.82686063  0.92021271  1
  O  O78  1  0.98916753  0.18511936  0.58776919  1
  O  O79  1  0.19740942  0.01892027  0.58986881  1
  O  O80  1  0.82671234  0.80265942  0.58705756  1
  O  O81  1  0.00265764  0.81303147  0.08114303  1
  O  O82  1  0.80770158  0.99818904  0.08410791  1
  O  O83  1  0.18889188  0.20251083  0.08304029  1
  O  O84  1  0.69316940  0.17885240  0.73743236  1
  O  O85  1  0.47219724  0.30755232  0.73763335  1
  O  O86  1  0.83118349  0.52741555  0.73773343  1
  O  O87  1  0.69667088  0.53743613  0.25398263  1
  O  O88  1  0.84550476  0.31004089  0.25397901  1
  O  O89  1  0.47265777  0.16680732  0.25524258  1
  O  O90  1  0.64577968  0.52061378  0.91999846  1
  O  O91  1  0.87745549  0.35908951  0.91802343  1
  O  O92  1  0.48792796  0.13879032  0.91761149  1
  O  O93  1  0.66430902  0.15684058  0.43013635  1
  O  O94  1  0.48624243  0.34444817  0.42796101  1
  O  O95  1  0.85707366  0.51558607  0.42957591  1
  O  O96  1  0.35499744  0.50792117  0.07588899  1
  O  O97  1  0.15634427  0.64595765  0.08001394  1
  O  O98  1  0.50212587  0.84460991  0.07813981  1
  O  O99  1  0.34724140  0.86196728  0.57663794  1
  O  O100  1  0.50447179  0.64163746  0.57787668  1
  O  O101  1  0.13752878  0.49186080  0.57496707  1
  O  O102  1  0.31233361  0.84585831  0.25644634  1
  O  O103  1  0.53465540  0.68139273  0.25664492  1
  O  O104  1  0.15282812  0.46137197  0.25670106  1
  O  O105  1  0.31607980  0.45887815  0.74386393  1
  O  O106  1  0.13743635  0.67352775  0.74446021  1
  O  O107  1  0.53149165  0.85787072  0.74365414  1
