# generated using pymatgen
data_MgMoP2O7
_symmetry_space_group_name_H-M   'P 1'
_cell_length_a   5.53131729
_cell_length_b   5.52904308
_cell_length_c   4.60357445
_cell_angle_alpha   81.35562227
_cell_angle_beta   98.67865106
_cell_angle_gamma   76.92783435
_symmetry_Int_Tables_number   1
_chemical_formula_structural   MgMoP2O7
_chemical_formula_sum   'Mg1 Mo1 P2 O7'
_cell_volume   133.06205852
_cell_formula_units_Z   1
loop_
 _symmetry_equiv_pos_site_id
 _symmetry_equiv_pos_as_xyz
  1  'x, y, z'
loop_
 _atom_site_type_symbol
 _atom_site_label
 _atom_site_symmetry_multiplicity
 _atom_site_fract_x
 _atom_site_fract_y
 _atom_site_fract_z
 _atom_site_occupancy
  Mg  Mg0  1  0.77172744  0.77764228  0.00652869  1
  Mo  Mo1  1  0.15201634  0.15780153  0.00652616  1
  P  P2  1  0.24794788  0.65600978  0.59257576  1
  P  P3  1  0.65032193  0.25346191  0.42001140  1
  O  O4  1  0.38611954  0.39206388  0.50559204  1
  O  O5  1  0.07442862  0.56675009  0.79558340  1
  O  O6  1  0.09318152  0.82053457  0.29240598  1
  O  O7  1  0.43994167  0.77569930  0.74403368  1
  O  O8  1  0.81438889  0.09927754  0.72057254  1
  O  O9  1  0.77019543  0.44518948  0.26839117  1
  O  O10  1  0.56119173  0.07953763  0.21722018  1
