# generated using pymatgen
data_Na6Mg4Ta4Si5S7O48
_symmetry_space_group_name_H-M   'P 1'
_cell_length_a   17.76599441
_cell_length_b   8.89941386
_cell_length_c   22.77168933
_cell_angle_alpha   90.06022860
_cell_angle_beta   90.05918993
_cell_angle_gamma   120.13791161
_symmetry_Int_Tables_number   1
_chemical_formula_structural   Na6Mg4Ta4Si5S7O48
_chemical_formula_sum   'Na18 Mg12 Ta12 Si15 S21 O144'
_cell_volume   3113.65611963
_cell_formula_units_Z   3
loop_
 _symmetry_equiv_pos_site_id
 _symmetry_equiv_pos_as_xyz
  1  'x, y, z'
loop_
 _atom_site_type_symbol
 _atom_site_label
 _atom_site_symmetry_multiplicity
 _atom_site_fract_x
 _atom_site_fract_y
 _atom_site_fract_z
 _atom_site_occupancy
  Na  Na0  1  0.00111084  0.62072498  0.24988476  1
  Na  Na1  1  0.50082487  0.62311994  0.25016159  1
  Na  Na2  1  0.00131306  0.37283432  0.75018418  1
  Na  Na3  1  0.50132257  0.38036853  0.74988001  1
  Na  Na4  1  0.33083020  0.96800421  0.57902185  1
  Na  Na5  1  0.82997409  0.69347676  0.08260068  1
  Na  Na6  1  0.99107959  0.98039879  0.49512772  1
  Na  Na7  1  0.50256648  0.99893774  0.49805384  1
  Na  Na8  1  0.00332431  0.00446254  0.00282166  1
  Na  Na9  1  0.48979593  0.99753251  0.99966129  1
  Na  Na10  1  0.32740639  0.35002733  0.82832732  1
  Na  Na11  1  0.81725414  0.31574413  0.82533899  1
  Na  Na12  1  0.32733805  0.32131383  0.31870622  1
  Na  Na13  1  0.82471050  0.30337644  0.32581992  1
  Na  Na14  1  0.17381453  0.68196759  0.17080660  1
  Na  Na15  1  0.66691190  0.68284325  0.17215852  1
  Na  Na16  1  0.17695437  0.65135621  0.66446767  1
  Na  Na17  1  0.66948635  0.66040137  0.66890612  1
  Mg  Mg18  1  0.33150675  0.34660709  0.68501084  1
  Mg  Mg19  1  0.82417777  0.32204717  0.69107238  1
  Mg  Mg20  1  0.33050145  0.32589593  0.19429873  1
  Mg  Mg21  1  0.83065708  0.31622286  0.18522749  1
  Mg  Mg22  1  0.17322456  0.67523544  0.02130087  1
  Mg  Mg23  1  0.66239375  0.66532541  0.01799355  1
  Mg  Mg24  1  0.16542917  0.66352039  0.51548611  1
  Mg  Mg25  1  0.67045869  0.66852678  0.51891337  1
  Mg  Mg26  1  0.16670454  0.67689086  0.31036771  1
  Mg  Mg27  1  0.67152132  0.68456106  0.30931535  1
  Mg  Mg28  1  0.17704916  0.66132950  0.81309878  1
  Mg  Mg29  1  0.66524730  0.65668559  0.81037627  1
  Ta  Ta30  1  0.00276849  0.99904863  0.35727861  1
  Ta  Ta31  1  0.50010998  0.00082849  0.34675639  1
  Ta  Ta32  1  0.00132312  0.01143471  0.85073885  1
  Ta  Ta33  1  0.50300575  0.00605594  0.85792545  1
  Ta  Ta34  1  0.99743069  0.00786607  0.64795774  1
  Ta  Ta35  1  0.50352752  0.00702822  0.64197559  1
  Ta  Ta36  1  0.00390252  0.00025660  0.14248567  1
  Ta  Ta37  1  0.49779928  0.00027651  0.15195807  1
  Ta  Ta38  1  0.33778779  0.33857636  0.97704917  1
  Ta  Ta39  1  0.83651699  0.33203855  0.98623389  1
  Ta  Ta40  1  0.33884708  0.34437167  0.48392323  1
  Ta  Ta41  1  0.83484000  0.33389294  0.47432287  1
  Si  Si42  1  0.14737266  -0.00027627  0.25003243  1
  Si  Si43  1  0.65368763  0.01012006  0.24876140  1
  Si  Si44  1  0.34601987  0.69950757  0.25017193  1
  Si  Si45  1  0.50506228  0.30443698  0.24989730  1
  Si  Si46  1  0.15417505  0.30297345  0.74919737  1
  Si  Si47  1  0.64825833  0.29527723  0.75031546  1
  Si  Si48  1  0.84670579  0.99631676  0.75007984  1
  Si  Si49  1  0.48545804  0.35250918  0.58982635  1
  Si  Si50  1  0.32585105  0.62217317  0.58690291  1
  Si  Si51  1  0.98595526  0.62020155  0.08988724  1
  Si  Si52  1  0.82648275  0.02826900  0.08696081  1
  Si  Si53  1  0.30747536  0.66712058  0.91765034  1
  Si  Si54  1  0.52804569  0.38959628  0.91462430  1
  Si  Si55  1  0.80575399  0.93939235  0.41728243  1
  Si  Si56  1  0.02876622  0.66814730  0.41536107  1
  S  S57  1  0.85694322  0.71624856  0.24913629  1
  S  S58  1  0.99962651  0.28382974  0.25003500  1
  S  S59  1  0.00295474  0.71840918  0.74965510  1
  S  S60  1  0.49957910  0.71516681  0.74987651  1
  S  S61  1  0.35546401  0.99620585  0.74934440  1
  S  S62  1  0.97691091  0.33458960  0.58528051  1
  S  S63  1  0.18644217  0.04455519  0.58396184  1
  S  S64  1  0.69173067  0.04526614  0.58419853  1
  S  S65  1  0.83501947  0.62005621  0.58626998  1
  S  S66  1  0.47788727  0.62517722  0.08441083  1
  S  S67  1  0.33478988  0.04755993  0.08486039  1
  S  S68  1  0.19238583  0.33715105  0.08447722  1
  S  S69  1  0.68552223  0.32717389  0.08329969  1
  S  S70  1  0.81517170  0.66434369  0.91666440  1
  S  S71  1  0.01852850  0.37530099  0.91547012  1
  S  S72  1  0.16473349  0.95407757  0.91657057  1
  S  S73  1  0.67023895  0.96118683  0.91635173  1
  S  S74  1  0.31519552  0.96392770  0.41889287  1
  S  S75  1  0.16951323  0.37787536  0.41722819  1
  S  S76  1  0.66302812  0.37217706  0.41833364  1
  S  S77  1  0.52025112  0.66892667  0.41744016  1
  O  O78  1  0.09055862  0.01695655  0.30581172  1
  O  O79  1  0.59551818  0.01905060  0.30691119  1
  O  O80  1  0.41353986  0.81022138  0.30728677  1
  O  O81  1  0.91300973  0.81148495  0.30109497  1
  O  O82  1  0.49144373  0.17203625  0.30703346  1
  O  O83  1  0.98944589  0.17629559  0.30305380  1
  O  O84  1  0.09422830  0.17343234  0.80670930  1
  O  O85  1  0.59172921  0.16299839  0.80580082  1
  O  O86  1  0.48963907  0.80210517  0.80291864  1
  O  O87  1  0.99080127  0.80494773  0.80303855  1
  O  O88  1  0.41066701  0.01078358  0.80128522  1
  O  O89  1  0.91539774  0.01421312  0.80572383  1
  O  O90  1  0.39680622  0.97339506  0.69406809  1
  O  O91  1  0.90378510  0.97520235  0.69264384  1
  O  O92  1  0.08396564  0.18278487  0.69343840  1
  O  O93  1  0.58349545  0.17776523  0.69334636  1
  O  O94  1  0.01272244  0.82661751  0.69624663  1
  O  O95  1  0.50301468  0.81761264  0.69630666  1
  O  O96  1  0.40192442  0.83384644  0.19275449  1
  O  O97  1  0.89882330  0.82138912  0.19357819  1
  O  O98  1  0.00322270  0.18826564  0.19631994  1
  O  O99  1  0.51335879  0.19529312  0.19182242  1
  O  O100  1  0.08132228  0.98386616  0.19345653  1
  O  O101  1  0.58504358  0.98361407  0.19206020  1
  O  O102  1  0.43522173  0.34970564  0.64782844  1
  O  O103  1  0.93722320  0.35026762  0.63923189  1
  O  O104  1  0.23901098  0.12483427  0.63621040  1
  O  O105  1  0.74201159  0.12810521  0.63663357  1
  O  O106  1  0.30931815  0.50457996  0.64209855  1
  O  O107  1  0.83000674  0.52063548  0.63814863  1
  O  O108  1  0.43649007  0.52589891  0.13707113  1
  O  O109  1  0.93476354  0.52064220  0.14726943  1
  O  O110  1  0.32941490  0.13666447  0.13652785  1
  O  O111  1  0.81152574  0.11878806  0.14086709  1
  O  O112  1  0.24323625  0.35366680  0.13632983  1
  O  O113  1  0.73929373  0.35364108  0.13478636  1
  O  O114  1  0.22950260  0.30012705  0.03042295  1
  O  O115  1  0.73086893  0.30446182  0.02824028  1
  O  O116  1  0.42025501  0.53058396  0.03074479  1
  O  O117  1  0.91509582  0.52450655  0.03031275  1
  O  O118  1  0.34377668  0.15349064  0.03016510  1
  O  O119  1  0.84340657  0.16057989  0.02675149  1
  O  O120  1  0.22753268  0.15461674  0.52962846  1
  O  O121  1  0.73023583  0.15897865  0.53135080  1
  O  O122  1  0.34228410  0.52425727  0.52760180  1
  O  O123  1  0.84676079  0.53824789  0.53182196  1
  O  O124  1  0.41461956  0.30556724  0.53118305  1
  O  O125  1  0.92027860  0.30505383  0.53274693  1
  O  O126  1  0.27249331  0.70906147  0.97566937  1
  O  O127  1  0.78367021  0.69625187  0.97186085  1
  O  O128  1  0.07074076  0.45103549  0.96794096  1
  O  O129  1  0.58364663  0.46378511  0.97261281  1
  O  O130  1  0.14865770  0.85160441  0.96962263  1
  O  O131  1  0.65778194  0.86372652  0.97027694  1
  O  O132  1  0.27987781  0.86889896  0.47385917  1
  O  O133  1  0.77446425  0.83892352  0.47734737  1
  O  O134  1  0.15650073  0.45002664  0.47099888  1
  O  O135  1  0.65101778  0.44717097  0.47181774  1
  O  O136  1  0.08192497  0.70203952  0.47437238  1
  O  O137  1  0.57076407  0.68740673  0.47017857  1
  O  O138  1  0.05663777  0.62148336  0.35458973  1
  O  O139  1  0.55180599  0.63793822  0.36254106  1
  O  O140  1  0.26302224  0.88203209  0.36659179  1
  O  O141  1  0.75140647  0.87607887  0.35879990  1
  O  O142  1  0.18481001  0.47957216  0.36420069  1
  O  O143  1  0.67908272  0.47035279  0.36452811  1
  O  O144  1  0.05222103  0.46754285  0.86030766  1
  O  O145  1  0.55552021  0.48989076  0.85350635  1
  O  O146  1  0.17759522  0.88142599  0.86277128  1
  O  O147  1  0.68472215  0.88974346  0.86316714  1
  O  O148  1  0.25377501  0.61834756  0.85814576  1
  O  O149  1  0.76311908  0.64417574  0.86471818  1
  O  O150  1  0.00765434  0.83269953  0.40730994  1
  O  O151  1  0.50480855  0.82095551  0.41395755  1
  O  O152  1  0.40651949  0.99207828  0.41315455  1
  O  O153  1  0.91055799  0.99281031  0.40508332  1
  O  O154  1  0.08932526  0.19753562  0.41067621  1
  O  O155  1  0.58725909  0.18744898  0.41348449  1
  O  O156  1  0.00543065  0.18966519  0.91038822  1
  O  O157  1  0.50759919  0.18242490  0.90632029  1
  O  O158  1  0.08620326  0.98124048  0.90919230  1
  O  O159  1  0.58984973  0.98090974  0.91020728  1
  O  O160  1  0.41101292  0.82719904  0.90460323  1
  O  O161  1  0.90819814  0.81977640  0.90841349  1
  O  O162  1  0.48575129  0.15876787  0.59066775  1
  O  O163  1  0.98285390  0.16528345  0.58844902  1
  O  O164  1  0.09702317  0.02731106  0.58822302  1
  O  O165  1  0.60103019  0.02818121  0.58870025  1
  O  O166  1  0.42035089  0.81516012  0.59101386  1
  O  O167  1  0.91962526  0.79990837  0.58980456  1
  O  O168  1  0.48271676  0.80010388  0.08439403  1
  O  O169  1  0.98582366  0.81331627  0.08975133  1
  O  O170  1  0.41783878  0.03582573  0.08549960  1
  O  O171  1  0.92078238  0.02515100  0.08999587  1
  O  O172  1  0.10109313  0.17283685  0.08868163  1
  O  O173  1  0.59872240  0.16444988  0.08423479  1
  O  O174  1  0.35368216  0.15888817  0.74683063  1
  O  O175  1  0.85944371  0.18669210  0.74594302  1
  O  O176  1  0.24174022  0.29932029  0.74857109  1
  O  O177  1  0.74083421  0.30985188  0.74765737  1
  O  O178  1  0.42276465  0.53904633  0.74753846  1
  O  O179  1  0.92533494  0.54648517  0.74433901  1
  O  O180  1  0.35616420  0.53331682  0.24430414  1
  O  O181  1  0.85533070  0.55032513  0.24651614  1
  O  O182  1  0.41933678  0.31627272  0.24511229  1
  O  O183  1  0.92285919  0.30563842  0.24747825  1
  O  O184  1  0.23660735  0.17403956  0.24643224  1
  O  O185  1  0.74201641  0.18977139  0.24732216  1
  O  O186  1  0.32318377  0.49494299  0.93094039  1
  O  O187  1  0.82617985  0.50619461  0.92186858  1
  O  O188  1  0.42377032  0.34288206  0.92951992  1
  O  O189  1  0.92693526  0.34626630  0.92290295  1
  O  O190  1  0.24202605  0.13686058  0.92498400  1
  O  O191  1  0.74563443  0.14803404  0.92334768  1
  O  O192  1  0.32479743  0.14412543  0.42496356  1
  O  O193  1  0.82318089  0.14897093  0.43094365  1
  O  O194  1  0.24483395  0.34231395  0.42527102  1
  O  O195  1  0.74314638  0.34742020  0.42753482  1
  O  O196  1  0.42747832  0.50597956  0.42555942  1
  O  O197  1  0.92434673  0.50353823  0.43067146  1
  O  O198  1  0.17830165  0.48309020  0.07617490  1
  O  O199  1  0.67772674  0.48127759  0.07383975  1
  O  O200  1  0.07893793  0.64830918  0.07519353  1
  O  O201  1  0.56435022  0.64813352  0.07550293  1
  O  O202  1  0.25921912  0.87366038  0.07908366  1
  O  O203  1  0.75189082  0.83148111  0.07346348  1
  O  O204  1  0.17624226  0.87174469  0.57614760  1
  O  O205  1  0.67789275  0.87115646  0.57616446  1
  O  O206  1  0.25137856  0.67131386  0.57448858  1
  O  O207  1  0.76109934  0.64777788  0.58077896  1
  O  O208  1  0.06503091  0.47918763  0.57747385  1
  O  O209  1  0.57975935  0.50940875  0.57657290  1
  O  O210  1  0.14149253  0.81494846  0.25110656  1
  O  O211  1  0.64773226  0.82551119  0.25059795  1
  O  O212  1  0.25541264  0.68956149  0.25515446  1
  O  O213  1  0.77167106  0.69907792  0.25317418  1
  O  O214  1  0.08061609  0.45073935  0.25211891  1
  O  O215  1  0.59309459  0.48522166  0.25579569  1
  O  O216  1  0.14457671  0.47299351  0.75012760  1
  O  O217  1  0.64302963  0.46944444  0.75077993  1
  O  O218  1  0.08206864  0.70712236  0.75581081  1
  O  O219  1  0.58051118  0.71012082  0.75172847  1
  O  O220  1  0.26827899  0.84370761  0.75315169  1
  O  O221  1  0.75610318  0.82648164  0.75466235  1
