# generated using pymatgen
data_Na15Mg10Nb2P9(SO8)9
_symmetry_space_group_name_H-M   'P 1'
_cell_length_a   8.90042680
_cell_length_b   8.87741698
_cell_length_c   22.23527926
_cell_angle_alpha   89.99088294
_cell_angle_beta   90.19162982
_cell_angle_gamma   119.92134723
_symmetry_Int_Tables_number   1
_chemical_formula_structural   Na15Mg10Nb2P9(SO8)9
_chemical_formula_sum   'Na15 Mg10 Nb2 P9 S9 O72'
_cell_volume   1522.68911482
_cell_formula_units_Z   1
loop_
 _symmetry_equiv_pos_site_id
 _symmetry_equiv_pos_as_xyz
  1  'x, y, z'
loop_
 _atom_site_type_symbol
 _atom_site_label
 _atom_site_symmetry_multiplicity
 _atom_site_fract_x
 _atom_site_fract_y
 _atom_site_fract_z
 _atom_site_occupancy
  Na  Na0  1  0.99051174  0.34901458  0.74908651  1
  Na  Na1  1  0.30119144  0.33397145  0.58496086  1
  Na  Na2  1  0.66895058  0.96939253  0.58643466  1
  Na  Na3  1  0.30135307  0.96808843  0.08595401  1
  Na  Na4  1  0.66932249  0.69922167  0.08883870  1
  Na  Na5  1  0.97214063  0.67083095  0.91254024  1
  Na  Na6  1  0.32673928  0.29360340  0.91285906  1
  Na  Na7  1  0.33474383  0.04038859  0.41084899  1
  Na  Na8  1  0.69757495  0.66701549  0.41310015  1
  Na  Na9  1  0.99964271  0.00748626  0.49649861  1
  Na  Na10  1  0.99557509  0.02019624  0.99673242  1
  Na  Na11  1  0.65619702  0.31530690  0.82813775  1
  Na  Na12  1  0.66538366  0.32805844  0.32719751  1
  Na  Na13  1  0.32109293  0.65645645  0.16603979  1
  Na  Na14  1  0.33336590  0.67771667  0.66549382  1
  Mg  Mg15  1  0.00070974  0.00690439  0.34817516  1
  Mg  Mg16  1  0.00048037  0.00339349  0.84752120  1
  Mg  Mg17  1  0.99941215  0.99481001  0.65634261  1
  Mg  Mg18  1  0.00060720  0.00105422  0.15588545  1
  Mg  Mg19  1  0.66242074  0.33504055  0.68850593  1
  Mg  Mg20  1  0.66232467  0.33078243  0.18834191  1
  Mg  Mg21  1  0.67278024  0.32174005  0.97928594  1
  Mg  Mg22  1  0.66844153  0.33114224  0.47996887  1
  Mg  Mg23  1  0.32547464  0.66174554  0.01572667  1
  Mg  Mg24  1  0.33119931  0.66397565  0.51518814  1
  Nb  Nb25  1  0.34514032  0.67147683  0.31109069  1
  Nb  Nb26  1  0.33171616  0.67499755  0.81126133  1
  P  P27  1  0.29525201  0.00497368  0.25059172  1
  P  P28  1  0.71507383  0.70400632  0.25026262  1
  P  P29  1  0.29773131  0.29279499  0.75070818  1
  P  P30  1  0.99098884  0.70552351  0.75187776  1
  P  P31  1  0.70960090  0.00232255  0.74814618  1
  P  P32  1  0.03934197  0.36996076  0.91746981  1
  P  P33  1  0.33306318  0.96361618  0.92033182  1
  P  P34  1  0.63180273  0.96302015  0.41985871  1
  P  P35  1  0.32854453  0.36923823  0.41977911  1
  S  S36  1  0.99831378  0.29347717  0.25010307  1
  S  S37  1  0.96140161  0.33586825  0.58384008  1
  S  S38  1  0.37126708  0.03861280  0.58227680  1
  S  S39  1  0.67022517  0.62822954  0.58206237  1
  S  S40  1  0.95905069  0.62483906  0.08288271  1
  S  S41  1  0.66980464  0.04027313  0.08382441  1
  S  S42  1  0.37299483  0.33387091  0.08218600  1
  S  S43  1  0.62766115  0.66986892  0.91942495  1
  S  S44  1  0.04077818  0.66468224  0.41731201  1
  O  O45  1  0.20926788  0.02238733  0.30740217  1
  O  O46  1  0.81377680  0.79189808  0.30768327  1
  O  O47  1  0.97680020  0.19210959  0.30458067  1
  O  O48  1  0.21328303  0.19041048  0.80771118  1
  O  O49  1  0.97296368  0.78259563  0.81058638  1
  O  O50  1  0.82576186  0.02955739  0.80195692  1
  O  O51  1  0.77364212  0.96389152  0.68913767  1
  O  O52  1  0.18097388  0.22474953  0.69395189  1
  O  O53  1  0.02987988  0.81773561  0.69639682  1
  O  O54  1  0.78169583  0.81260301  0.19282015  1
  O  O55  1  0.03333096  0.22150669  0.19602773  1
  O  O56  1  0.18830213  0.96865191  0.19256772  1
  O  O57  1  0.88193627  0.35383437  0.63939001  1
  O  O58  1  0.48539486  0.12489405  0.63443400  1
  O  O59  1  0.64562070  0.51606617  0.63405605  1
  O  O60  1  0.87160566  0.51852454  0.13579950  1
  O  O61  1  0.64237045  0.12313505  0.13685378  1
  O  O62  1  0.48574106  0.35958054  0.13471750  1
  O  O63  1  0.45129792  0.30746628  0.02660498  1
  O  O64  1  0.85595584  0.54643083  0.02699478  1
  O  O65  1  0.68972700  0.14067862  0.02864941  1
  O  O66  1  0.44954942  0.14290243  0.52641370  1
  O  O67  1  0.68707374  0.54838801  0.52550321  1
  O  O68  1  0.85045696  0.31133303  0.53067519  1
  O  O69  1  0.54870876  0.69204556  0.97447743  1
  O  O70  1  0.15976260  0.45769162  0.97102667  1
  O  O71  1  0.30886576  0.85421182  0.97654724  1
  O  O72  1  0.54621094  0.85091840  0.47567563  1
  O  O73  1  0.30669941  0.45109106  0.47704838  1
  O  O74  1  0.14996435  0.69280840  0.47061087  1
  O  O75  1  0.12568892  0.64284948  0.36263976  1
  O  O76  1  0.50406873  0.85977140  0.36412189  1
  O  O77  1  0.35024719  0.49461815  0.36491688  1
  O  O78  1  0.13622770  0.49039989  0.86019916  1
  O  O79  1  0.35206727  0.86044701  0.86468024  1
  O  O80  1  0.51262264  0.64355916  0.86606237  1
  O  O81  1  0.02313759  0.82272864  0.41143482  1
  O  O82  1  0.80591759  0.97233229  0.41006684  1
  O  O83  1  0.17429909  0.18625035  0.41083935  1
  O  O84  1  0.02137044  0.19088852  0.90924961  1
  O  O85  1  0.16669753  0.97519080  0.91192884  1
  O  O86  1  0.80209051  0.82116631  0.91214756  1
  O  O87  1  0.98005760  0.17563751  0.58645596  1
  O  O88  1  0.19846939  0.02514298  0.58859654  1
  O  O89  1  0.82276944  0.80632962  0.58699128  1
  O  O90  1  0.97717019  0.80323445  0.08725835  1
  O  O91  1  0.82329149  0.01560638  0.08933834  1
  O  O92  1  0.19848421  0.17647118  0.08866011  1
  O  O93  1  0.68365467  0.16012030  0.74268158  1
  O  O94  1  0.47983557  0.32359984  0.74335472  1
  O  O95  1  0.84736553  0.51573513  0.74526313  1
  O  O96  1  0.68233351  0.51963950  0.24477045  1
  O  O97  1  0.84997775  0.32143292  0.24333389  1
  O  O98  1  0.48127390  0.15407923  0.24515903  1
  O  O99  1  0.63959863  0.50791473  0.92214985  1
  O  O100  1  0.86644869  0.36999751  0.91982252  1
  O  O101  1  0.49325849  0.14595316  0.92030753  1
  O  O102  1  0.63602673  0.13783600  0.42048285  1
  O  O103  1  0.50113912  0.36386942  0.41960946  1
  O  O104  1  0.86561087  0.51048258  0.42163503  1
  O  O105  1  0.36010038  0.49532197  0.07759857  1
  O  O106  1  0.13809025  0.65050533  0.07908048  1
  O  O107  1  0.51010447  0.86083164  0.07935956  1
  O  O108  1  0.35496732  0.86307437  0.57701775  1
  O  O109  1  0.50893235  0.64578953  0.57944280  1
  O  O110  1  0.13920126  0.49014184  0.57847348  1
  O  O111  1  0.31014020  0.82986742  0.25983280  1
  O  O112  1  0.52102224  0.68399744  0.25871916  1
  O  O113  1  0.16031090  0.47427462  0.25760298  1
  O  O114  1  0.31337902  0.48212092  0.75966405  1
  O  O115  1  0.16547324  0.68583018  0.75817162  1
  O  O116  1  0.52246863  0.83587338  0.75962261  1
