# generated using pymatgen
data_Na18Ca16Ta8Si9(S3O16)9
_symmetry_space_group_name_H-M   'P 1'
_cell_length_a   18.31695775
_cell_length_b   9.18362268
_cell_length_c   23.38982568
_cell_angle_alpha   90.04516119
_cell_angle_beta   90.20184366
_cell_angle_gamma   120.03055224
_symmetry_Int_Tables_number   1
_chemical_formula_structural   Na18Ca16Ta8Si9(S3O16)9
_chemical_formula_sum   'Na18 Ca16 Ta8 Si9 S27 O144'
_cell_volume   3406.32926333
_cell_formula_units_Z   1
loop_
 _symmetry_equiv_pos_site_id
 _symmetry_equiv_pos_as_xyz
  1  'x, y, z'
loop_
 _atom_site_type_symbol
 _atom_site_label
 _atom_site_symmetry_multiplicity
 _atom_site_fract_x
 _atom_site_fract_y
 _atom_site_fract_z
 _atom_site_occupancy
  Na  Na0  1  0.35620507  0.04108228  0.90389113  1
  Na  Na1  1  0.84722127  0.03519924  0.90370011  1
  Na  Na2  1  0.66455678  0.28139663  0.90311908  1
  Na  Na3  1  0.16397624  0.04817711  0.40795937  1
  Na  Na4  1  0.34405786  0.65371783  0.42075133  1
  Na  Na5  1  0.85581261  0.67374629  0.40717073  1
  Na  Na6  1  0.01360599  0.04584735  0.50051111  1
  Na  Na7  1  0.51038471  0.01128986  0.50780351  1
  Na  Na8  1  0.00820936  0.00777803  0.99840448  1
  Na  Na9  1  0.50984613  0.98110924  0.99098820  1
  Na  Na10  1  0.32138789  0.32172965  0.81760020  1
  Na  Na11  1  0.81983177  0.30402445  0.82113977  1
  Na  Na12  1  0.31874315  0.31359019  0.32939706  1
  Na  Na13  1  0.82129167  0.32261307  0.31885142  1
  Na  Na14  1  0.16572583  0.67208497  0.16423340  1
  Na  Na15  1  0.67272113  0.67557461  0.16199357  1
  Na  Na16  1  0.16983797  0.67091595  0.66321687  1
  Na  Na17  1  0.66943609  0.66300960  0.66794465  1
  Ca  Ca18  1  0.00359337  0.01070586  0.34823731  1
  Ca  Ca19  1  0.50604534  0.00883359  0.35191797  1
  Ca  Ca20  1  0.00393225  0.00488415  0.84950144  1
  Ca  Ca21  1  0.50319271  0.99630695  0.84783457  1
  Ca  Ca22  1  0.32970174  0.32767909  0.68428801  1
  Ca  Ca23  1  0.82820480  0.32978281  0.68629275  1
  Ca  Ca24  1  0.32811022  0.32442857  0.18514263  1
  Ca  Ca25  1  0.83117010  0.33108256  0.18488893  1
  Ca  Ca26  1  0.33121958  0.33992655  0.98203207  1
  Ca  Ca27  1  0.83267283  0.32525143  0.98037077  1
  Ca  Ca28  1  0.33173476  0.33379908  0.48544657  1
  Ca  Ca29  1  0.83060206  0.32160188  0.48638662  1
  Ca  Ca30  1  0.16463980  0.66265645  0.02113913  1
  Ca  Ca31  1  0.66464942  0.67375776  0.01920443  1
  Ca  Ca32  1  0.16494196  0.65557812  0.52224247  1
  Ca  Ca33  1  0.66419894  0.66633584  0.52269427  1
  Ta  Ta34  1  0.99965653  0.00905898  0.65629145  1
  Ta  Ta35  1  0.49959057  0.01046234  0.65875508  1
  Ta  Ta36  1  0.00004996  0.98715193  0.15689034  1
  Ta  Ta37  1  0.50482292  0.99975417  0.15179284  1
  Ta  Ta38  1  0.16348715  0.65852805  0.31234721  1
  Ta  Ta39  1  0.66930571  0.67423040  0.30758728  1
  Ta  Ta40  1  0.16771744  0.66269828  0.80724649  1
  Ta  Ta41  1  0.67105518  0.68147828  0.80910425  1
  Si  Si42  1  0.15151565  0.99420223  0.25642605  1
  Si  Si43  1  0.64924826  0.99754699  0.25355734  1
  Si  Si44  1  0.85221947  0.70122078  0.25703323  1
  Si  Si45  1  0.15036249  0.29956346  0.75362911  1
  Si  Si46  1  0.65016151  0.31091155  0.75689198  1
  Si  Si47  1  0.35090429  0.00161989  0.75710290  1
  Si  Si48  1  0.85246949  0.00297201  0.75647446  1
  Si  Si49  1  0.66646013  0.96292379  0.91679024  1
  Si  Si50  1  0.16734649  0.36861002  0.41655848  1
  S  S51  1  0.35076069  0.71455483  0.25118427  1
  S  S52  1  0.00701890  0.30215886  0.24855066  1
  S  S53  1  0.50507358  0.29777750  0.24995862  1
  S  S54  1  0.00610115  0.71421425  0.74976482  1
  S  S55  1  0.50609144  0.71141609  0.74807790  1
  S  S56  1  0.48383009  0.31871760  0.58655241  1
  S  S57  1  0.98264495  0.31956224  0.58782407  1
  S  S58  1  0.17339077  0.02701755  0.58420930  1
  S  S59  1  0.67383145  0.02981130  0.58614271  1
  S  S60  1  0.34289389  0.65425048  0.58466271  1
  S  S61  1  0.84187100  0.65013645  0.58325344  1
  S  S62  1  0.48245308  0.64304899  0.08906736  1
  S  S63  1  0.98405666  0.64602127  0.08700851  1
  S  S64  1  0.33989725  0.03149146  0.08534975  1
  S  S65  1  0.84200894  0.03030895  0.08606036  1
  S  S66  1  0.17490774  0.32026790  0.08719917  1
  S  S67  1  0.67575129  0.32430037  0.08599758  1
  S  S68  1  0.30632897  0.66019691  0.91337482  1
  S  S69  1  0.80852883  0.66320479  0.91414981  1
  S  S70  1  0.02252207  0.38038061  0.91425565  1
  S  S71  1  0.51986078  0.37877875  0.91467257  1
  S  S72  1  0.16811148  0.95151251  0.91494908  1
  S  S73  1  0.30731932  0.95025745  0.41297629  1
  S  S74  1  0.80623217  0.95345999  0.41338413  1
  S  S75  1  0.66901002  0.38696428  0.41418507  1
  S  S76  1  0.02094841  0.65870862  0.41340198  1
  S  S77  1  0.52080106  0.66101164  0.41322559  1
  O  O78  1  0.11367665  0.01294114  0.31483233  1
  O  O79  1  0.60499747  0.01883343  0.30723639  1
  O  O80  1  0.39508721  0.78613609  0.30476837  1
  O  O81  1  0.89457260  0.77876291  0.31656103  1
  O  O82  1  0.48960245  0.20029075  0.30162681  1
  O  O83  1  0.99472319  0.21211737  0.30151275  1
  O  O84  1  0.11082551  0.19308301  0.80871764  1
  O  O85  1  0.61327891  0.20817855  0.81386584  1
  O  O86  1  0.49238667  0.77609252  0.80068229  1
  O  O87  1  0.99255053  0.78070559  0.80197041  1
  O  O88  1  0.39411797  0.00910920  0.81613222  1
  O  O89  1  0.89462278  0.00746101  0.81588419  1
  O  O90  1  0.40546161  0.97044982  0.70164235  1
  O  O91  1  0.90788034  0.97305714  0.70084789  1
  O  O92  1  0.08348227  0.19062632  0.69652845  1
  O  O93  1  0.58101461  0.18847707  0.70075006  1
  O  O94  1  0.01993240  0.82972340  0.69924731  1
  O  O95  1  0.51723652  0.82820016  0.69811274  1
  O  O96  1  0.39781190  0.83134389  0.20143878  1
  O  O97  1  0.90719427  0.84155406  0.20197264  1
  O  O98  1  0.01980690  0.21313381  0.19883866  1
  O  O99  1  0.51598356  0.20485983  0.19945743  1
  O  O100  1  0.08308381  0.97679496  0.20057031  1
  O  O101  1  0.58137945  0.97463307  0.19651588  1
  O  O102  1  0.44240506  0.34070062  0.63574336  1
  O  O103  1  0.93880860  0.33586822  0.63650194  1
  O  O104  1  0.22933031  0.11887874  0.63168221  1
  O  O105  1  0.72792433  0.11478685  0.63490827  1
  O  O106  1  0.33384776  0.54153736  0.63113710  1
  O  O107  1  0.83174495  0.53911416  0.63064190  1
  O  O108  1  0.43908777  0.54289002  0.13868421  1
  O  O109  1  0.94298736  0.54355807  0.13676817  1
  O  O110  1  0.32958430  0.12129979  0.13318915  1
  O  O111  1  0.83179406  0.12124784  0.13358855  1
  O  O112  1  0.22872097  0.34502241  0.13679206  1
  O  O113  1  0.72868811  0.34106474  0.13446457  1
  O  O114  1  0.20992733  0.29298660  0.03412127  1
  O  O115  1  0.70476880  0.29159862  0.03180434  1
  O  O116  1  0.43565503  0.57860017  0.03545854  1
  O  O117  1  0.93629972  0.58008358  0.03374273  1
  O  O118  1  0.35477772  0.12301257  0.03094243  1
  O  O119  1  0.85455382  0.11929297  0.03116654  1
  O  O120  1  0.20617889  0.11607805  0.52892081  1
  O  O121  1  0.70797989  0.12455613  0.53212871  1
  O  O122  1  0.35389201  0.58988347  0.52854505  1
  O  O123  1  0.85289378  0.58254611  0.52785668  1
  O  O124  1  0.43641913  0.29039863  0.53274617  1
  O  O125  1  0.93662093  0.29328430  0.53332520  1
  O  O126  1  0.26523885  0.67299102  0.96511909  1
  O  O127  1  0.76775376  0.67630365  0.96597174  1
  O  O128  1  0.06878509  0.46166385  0.96677422  1
  O  O129  1  0.56732942  0.45516731  0.96753813  1
  O  O130  1  0.16502466  0.86257349  0.96766872  1
  O  O131  1  0.66573179  0.86485932  0.97283032  1
  O  O132  1  0.26750672  0.85822382  0.46485841  1
  O  O133  1  0.76428693  0.85590811  0.46415367  1
  O  O134  1  0.17049579  0.47950285  0.46928274  1
  O  O135  1  0.66492068  0.46942162  0.46643765  1
  O  O136  1  0.07122947  0.67905898  0.46410653  1
  O  O137  1  0.56882165  0.68031710  0.46548293  1
  O  O138  1  0.07021470  0.65152416  0.36047873  1
  O  O139  1  0.57025743  0.65692975  0.36195195  1
  O  O140  1  0.25230165  0.85346044  0.36046451  1
  O  O141  1  0.75185288  0.85241789  0.36056079  1
  O  O142  1  0.16978567  0.49472106  0.35717333  1
  O  O143  1  0.67095510  0.49039756  0.36254567  1
  O  O144  1  0.07178881  0.48351754  0.86314946  1
  O  O145  1  0.56657996  0.48069051  0.86383658  1
  O  O146  1  0.17054839  0.85223233  0.86368147  1
  O  O147  1  0.66902962  0.84213655  0.85912529  1
  O  O148  1  0.25248017  0.65325786  0.86141061  1
  O  O149  1  0.75487613  0.65250426  0.86182890  1
  O  O150  1  0.01045461  0.80739928  0.40894572  1
  O  O151  1  0.50441119  0.80418319  0.41007635  1
  O  O152  1  0.38969941  0.96060701  0.40703931  1
  O  O153  1  0.88906716  0.96580489  0.40931643  1
  O  O154  1  0.08687990  0.18080480  0.41782669  1
  O  O155  1  0.59534420  0.21745020  0.41177360  1
  O  O156  1  0.00974272  0.20769422  0.91316575  1
  O  O157  1  0.50827497  0.20612648  0.91199345  1
  O  O158  1  0.09452562  0.97406061  0.91310683  1
  O  O159  1  0.58722288  0.99405021  0.91633710  1
  O  O160  1  0.38953369  0.81327137  0.91015036  1
  O  O161  1  0.89289487  0.81327817  0.91097197  1
  O  O162  1  0.48984195  0.15725670  0.59551945  1
  O  O163  1  0.98921084  0.15807159  0.59521817  1
  O  O164  1  0.08803538  0.01417633  0.59345328  1
  O  O165  1  0.58805746  0.01546740  0.59456339  1
  O  O166  1  0.42235086  0.82375372  0.59378353  1
  O  O167  1  0.92090827  0.81994090  0.59313989  1
  O  O168  1  0.48767090  0.81843592  0.09763721  1
  O  O169  1  0.99046872  0.82110700  0.09644566  1
  O  O170  1  0.41839007  0.01683211  0.09799669  1
  O  O171  1  0.92233013  0.02084664  0.09663147  1
  O  O172  1  0.08929817  0.16268338  0.09615981  1
  O  O173  1  0.58739557  0.16176975  0.09730354  1
  O  O174  1  0.33464577  0.15110517  0.74413849  1
  O  O175  1  0.83876599  0.15589364  0.74403788  1
  O  O176  1  0.24565276  0.35765523  0.74190113  1
  O  O177  1  0.74344019  0.35428496  0.74367545  1
  O  O178  1  0.43745460  0.54297420  0.73630958  1
  O  O179  1  0.93847048  0.54538992  0.73767651  1
  O  O180  1  0.33970810  0.54843292  0.24118976  1
  O  O181  1  0.83527831  0.51860024  0.24412035  1
  O  O182  1  0.43776726  0.33364424  0.23846323  1
  O  O183  1  0.93880549  0.33593476  0.23832253  1
  O  O184  1  0.24454308  0.14561866  0.24593158  1
  O  O185  1  0.74374369  0.13526519  0.24293938  1
  O  O186  1  0.31210464  0.50657706  0.91196243  1
  O  O187  1  0.81162172  0.50556338  0.91364677  1
  O  O188  1  0.43418696  0.36101761  0.91606610  1
  O  O189  1  0.93896853  0.36903307  0.91284538  1
  O  O190  1  0.24911959  0.11599374  0.91365188  1
  O  O191  1  0.75584479  0.14384646  0.91045318  1
  O  O192  1  0.31290280  0.11595733  0.41173309  1
  O  O193  1  0.81171695  0.11808758  0.41175441  1
  O  O194  1  0.25605479  0.36390196  0.41010936  1
  O  O195  1  0.74965330  0.38353973  0.41252501  1
  O  O196  1  0.43797599  0.50358928  0.41284234  1
  O  O197  1  0.93762591  0.50423044  0.41275854  1
  O  O198  1  0.16124586  0.46532210  0.08298911  1
  O  O199  1  0.65851540  0.46342781  0.08393349  1
  O  O200  1  0.07158512  0.68073629  0.08344276  1
  O  O201  1  0.56931944  0.67620277  0.08709469  1
  O  O202  1  0.26770432  0.85860385  0.08247018  1
  O  O203  1  0.77027900  0.85589018  0.08452868  1
  O  O204  1  0.16019448  0.85495956  0.58216391  1
  O  O205  1  0.66061057  0.85772655  0.58184969  1
  O  O206  1  0.27028996  0.68274000  0.58377861  1
  O  O207  1  0.76890756  0.67776901  0.58056181  1
  O  O208  1  0.06940280  0.46218402  0.58550139  1
  O  O209  1  0.57116755  0.45966168  0.58247570  1
  O  O210  1  0.15122940  0.80833909  0.25800187  1
  O  O211  1  0.64514682  0.80636888  0.25845742  1
  O  O212  1  0.26492103  0.70281511  0.25346489  1
  O  O213  1  0.75538029  0.69307252  0.25964363  1
  O  O214  1  0.08882729  0.47353455  0.25276267  1
  O  O215  1  0.58746154  0.46325729  0.25510002  1
  O  O216  1  0.14516041  0.48252992  0.75941414  1
  O  O217  1  0.64407911  0.48776606  0.75969088  1
  O  O218  1  0.08811437  0.70913468  0.75534638  1
  O  O219  1  0.58785230  0.70891487  0.75101822  1
  O  O220  1  0.25482225  0.81641367  0.75990640  1
  O  O221  1  0.75684788  0.81942494  0.75757799  1
