# generated using pymatgen
data_Na3Nb4Zn8P3(S5O24)3
_symmetry_space_group_name_H-M   'P 1'
_cell_length_a   8.73888712
_cell_length_b   8.72970303
_cell_length_c   22.67971368
_cell_angle_alpha   90.11858853
_cell_angle_beta   89.90343699
_cell_angle_gamma   120.03992254
_symmetry_Int_Tables_number   1
_chemical_formula_structural   Na3Nb4Zn8P3(S5O24)3
_chemical_formula_sum   'Na3 Nb4 Zn8 P3 S15 O72'
_cell_volume   1497.77954680
_cell_formula_units_Z   1
loop_
 _symmetry_equiv_pos_site_id
 _symmetry_equiv_pos_as_xyz
  1  'x, y, z'
loop_
 _atom_site_type_symbol
 _atom_site_label
 _atom_site_symmetry_multiplicity
 _atom_site_fract_x
 _atom_site_fract_y
 _atom_site_fract_z
 _atom_site_occupancy
  Na  Na0  1  0.99516118  0.99638601  0.00160493  1
  Na  Na1  1  0.66739226  0.33317802  0.83382078  1
  Na  Na2  1  0.66473633  0.33354666  0.33753137  1
  Nb  Nb3  1  0.00519753  0.00018199  0.64715232  1
  Nb  Nb4  1  0.67287463  0.33147069  0.18648467  1
  Nb  Nb5  1  0.33264305  0.67099040  0.02365773  1
  Nb  Nb6  1  0.33352548  0.67175681  0.51935940  1
  Zn  Zn7  1  0.00151488  0.00010885  0.35352459  1
  Zn  Zn8  1  0.99763623  0.00007536  0.85256865  1
  Zn  Zn9  1  0.99362133  0.99294531  0.14853381  1
  Zn  Zn10  1  0.66138245  0.32522934  0.68361319  1
  Zn  Zn11  1  0.67363951  0.33519949  0.98306576  1
  Zn  Zn12  1  0.65841698  0.32786406  0.48333780  1
  Zn  Zn13  1  0.33421332  0.66691159  0.31242067  1
  Zn  Zn14  1  0.33463669  0.66701055  0.81212943  1
  P  P15  1  0.38323241  0.04980311  0.58348250  1
  P  P16  1  0.95207467  0.62739372  0.08096794  1
  P  P17  1  0.67569167  0.04809943  0.08087068  1
  S  S18  1  0.28660615  0.99624455  0.25022368  1
  S  S19  1  0.70773636  0.71180960  0.25072333  1
  S  S20  1  0.00659187  0.29040594  0.25053567  1
  S  S21  1  0.29400743  0.29310096  0.75241385  1
  S  S22  1  0.99768913  0.70476284  0.75202152  1
  S  S23  1  0.70845770  0.00124588  0.75185442  1
  S  S24  1  0.95508342  0.33337612  0.58342194  1
  S  S25  1  0.66626494  0.62150163  0.58350380  1
  S  S26  1  0.37537311  0.32920021  0.08180607  1
  S  S27  1  0.62334471  0.66462737  0.91549874  1
  S  S28  1  0.04268855  0.37618230  0.91507686  1
  S  S29  1  0.33432982  0.95942846  0.91521302  1
  S  S30  1  0.62700238  0.96055271  0.41426868  1
  S  S31  1  0.33403273  0.37492241  0.41464853  1
  S  S32  1  0.03821050  0.66453905  0.41459885  1
  O  O33  1  0.21923943  0.03933721  0.30322208  1
  O  O34  1  0.81900992  0.77933302  0.30341245  1
  O  O35  1  0.96140948  0.17994354  0.30319405  1
  O  O36  1  0.21082036  0.17853168  0.80342763  1
  O  O37  1  0.96699084  0.78792701  0.80329539  1
  O  O38  1  0.82091773  0.03150207  0.80349691  1
  O  O39  1  0.80282304  0.97922297  0.69699340  1
  O  O40  1  0.17662413  0.19780089  0.69711115  1
  O  O41  1  0.02079198  0.82306715  0.69676856  1
  O  O42  1  0.78557915  0.81308377  0.19715698  1
  O  O43  1  0.02728255  0.21207284  0.19657632  1
  O  O44  1  0.18589445  0.97440421  0.19661767  1
  O  O45  1  0.88694011  0.37117534  0.63630908  1
  O  O46  1  0.48930153  0.11659037  0.63893560  1
  O  O47  1  0.63193407  0.51690634  0.63637167  1
  O  O48  1  0.86501680  0.50366373  0.13722761  1
  O  O49  1  0.63699026  0.13284945  0.13750007  1
  O  O50  1  0.48946949  0.36423656  0.13576857  1
  O  O51  1  0.45325809  0.30285054  0.02928785  1
  O  O52  1  0.84280163  0.54468468  0.02726655  1
  O  O53  1  0.69614760  0.15458648  0.02705740  1
  O  O54  1  0.44998750  0.15621103  0.52778024  1
  O  O55  1  0.70439671  0.55332586  0.53033207  1
  O  O56  1  0.85011053  0.29845810  0.53028129  1
  O  O57  1  0.53221746  0.68880200  0.97023942  1
  O  O58  1  0.15659898  0.46718861  0.96983077  1
  O  O59  1  0.31029177  0.84341072  0.97029947  1
  O  O60  1  0.53170940  0.84362744  0.46972742  1
  O  O61  1  0.31257940  0.46924590  0.46980725  1
  O  O62  1  0.15615917  0.68753672  0.47002618  1
  O  O63  1  0.12159634  0.63383914  0.36357949  1
  O  O64  1  0.51215920  0.87699517  0.36352202  1
  O  O65  1  0.36376540  0.48778662  0.36332593  1
  O  O66  1  0.12531115  0.48437398  0.86288166  1
  O  O67  1  0.36077010  0.87659393  0.86333626  1
  O  O68  1  0.51610447  0.63943760  0.86315634  1
  O  O69  1  0.03046875  0.82671024  0.41200131  1
  O  O70  1  0.79661906  0.96796295  0.41167257  1
  O  O71  1  0.17262775  0.20358209  0.41165716  1
  O  O72  1  0.03140011  0.20127814  0.91326341  1
  O  O73  1  0.17036169  0.96879245  0.91354086  1
  O  O74  1  0.79826153  0.82816696  0.91350331  1
  O  O75  1  0.98062449  0.17608993  0.59349412  1
  O  O76  1  0.18967370  0.01742070  0.59592983  1
  O  O77  1  0.82259823  0.80569615  0.59361329  1
  O  O78  1  0.98697475  0.81254022  0.09140870  1
  O  O79  1  0.82976833  0.01975393  0.09134784  1
  O  O80  1  0.19844303  0.17987533  0.09114548  1
  O  O81  1  0.69499350  0.16131529  0.74334832  1
  O  O82  1  0.46775663  0.30901607  0.74297824  1
  O  O83  1  0.83876731  0.53202095  0.74154684  1
  O  O84  1  0.68740533  0.52434344  0.24104932  1
  O  O85  1  0.83649044  0.30996494  0.24196170  1
  O  O86  1  0.47376646  0.16506844  0.24096481  1
  O  O87  1  0.63945818  0.50603620  0.92321697  1
  O  O88  1  0.86708083  0.35834038  0.92201790  1
  O  O89  1  0.49140759  0.13451000  0.92358158  1
  O  O90  1  0.64299028  0.13469983  0.42375462  1
  O  O91  1  0.49398423  0.36125010  0.42329367  1
  O  O92  1  0.86530386  0.50561376  0.42509561  1
  O  O93  1  0.36274929  0.49589709  0.07491043  1
  O  O94  1  0.13773797  0.63608388  0.07306862  1
  O  O95  1  0.50034528  0.86070559  0.07318153  1
  O  O96  1  0.35079148  0.85622915  0.57078480  1
  O  O97  1  0.50961555  0.64738373  0.57326303  1
  O  O98  1  0.13901110  0.48923205  0.57312412  1
  O  O99  1  0.31664845  0.84741832  0.25775672  1
  O  O100  1  0.52949800  0.68309664  0.25821132  1
  O  O101  1  0.15348957  0.47020389  0.25774529  1
  O  O102  1  0.30118394  0.46269737  0.75473013  1
  O  O103  1  0.15963866  0.69718840  0.75462156  1
  O  O104  1  0.53738908  0.83982733  0.75482303  1
