# generated using pymatgen
data_Na4ScInSi2SO12
_symmetry_space_group_name_H-M   'P 1'
_cell_length_a   9.25281248
_cell_length_b   9.24011369
_cell_length_c   22.77856182
_cell_angle_alpha   90.08373759
_cell_angle_beta   89.93936961
_cell_angle_gamma   119.68856967
_symmetry_Int_Tables_number   1
_chemical_formula_structural   Na4ScInSi2SO12
_chemical_formula_sum   'Na24 Sc6 In6 Si12 S6 O72'
_cell_volume   1691.85005283
_cell_formula_units_Z   6
loop_
 _symmetry_equiv_pos_site_id
 _symmetry_equiv_pos_as_xyz
  1  'x, y, z'
loop_
 _atom_site_type_symbol
 _atom_site_label
 _atom_site_symmetry_multiplicity
 _atom_site_fract_x
 _atom_site_fract_y
 _atom_site_fract_z
 _atom_site_occupancy
  Na  Na0  1  0.64717429  0.99903841  0.25394563  1
  Na  Na1  1  0.36517390  0.37742091  0.24379032  1
  Na  Na2  1  0.99168689  0.62073549  0.25278405  1
  Na  Na3  1  0.62291312  0.63263587  0.74314969  1
  Na  Na4  1  0.99908811  0.35299357  0.75393648  1
  Na  Na5  1  0.37913178  0.00994172  0.75291398  1
  Na  Na6  1  0.31367908  0.33239549  0.58756816  1
  Na  Na7  1  0.03460473  0.71185892  0.57727258  1
  Na  Na8  1  0.65709823  0.95403816  0.58541247  1
  Na  Na9  1  0.28892696  0.96681711  0.07707365  1
  Na  Na10  1  0.66861583  0.68753017  0.08782945  1
  Na  Na11  1  0.04617425  0.34138191  0.08612478  1
  Na  Na12  1  0.97953139  0.66526296  0.92092072  1
  Na  Na13  1  0.70100119  0.04478706  0.91009234  1
  Na  Na14  1  0.32326933  0.28727403  0.91979066  1
  Na  Na15  1  0.95531217  0.29942615  0.41034014  1
  Na  Na16  1  0.33307836  0.01900706  0.42049224  1
  Na  Na17  1  0.71214634  0.67691275  0.41961580  1
  Na  Na18  1  0.99230019  0.97995526  0.50005620  1
  Na  Na19  1  0.01967832  0.00862807  0.00003205  1
  Na  Na20  1  0.65932358  0.31320846  0.83338194  1
  Na  Na21  1  0.68596282  0.33974278  0.33348548  1
  Na  Na22  1  0.32584303  0.64723092  0.16692996  1
  Na  Na23  1  0.35196271  0.67438810  0.66653665  1
  Sc  Sc24  1  0.97857825  0.98731842  0.35007995  1
  Sc  Sc25  1  0.99678899  0.00160684  0.64961995  1
  Sc  Sc26  1  0.64586817  0.32151555  0.68325868  1
  Sc  Sc27  1  0.67890415  0.35492164  0.18436907  1
  Sc  Sc28  1  0.66535511  0.33581583  0.48337227  1
  Sc  Sc29  1  0.33031966  0.66765129  0.31693016  1
  In  In30  1  0.01359699  0.02073694  0.84861645  1
  In  In31  1  0.00050318  0.00233226  0.15168661  1
  In  In32  1  0.66493275  0.33349633  0.98458932  1
  In  In33  1  0.31269345  0.65425438  0.01682847  1
  In  In34  1  0.34715311  0.68847971  0.51584946  1
  In  In35  1  0.33262608  0.66781971  0.81686067  1
  Si  Si36  1  0.69964457  0.70322351  0.24954651  1
  Si  Si37  1  -0.00006086  0.29600417  0.25055419  1
  Si  Si38  1  0.29759533  0.29910448  0.74842789  1
  Si  Si39  1  0.70473416  0.00078512  0.74971192  1
  Si  Si40  1  0.36773344  0.03853883  0.58277380  1
  Si  Si41  1  0.66615453  0.62725552  0.58324878  1
  Si  Si42  1  0.96292546  0.63340754  0.08340585  1
  Si  Si43  1  0.37215283  0.33390243  0.08374680  1
  Si  Si44  1  0.03174102  0.36754710  0.91603744  1
  Si  Si45  1  0.33311839  0.96300370  0.91653158  1
  Si  Si46  1  0.63107372  0.96676115  0.41530401  1
  Si  Si47  1  0.03722983  0.66682899  0.41669168  1
  S  S48  1  0.29648984  0.00020177  0.25120551  1
  S  S49  1  0.99707759  0.70536059  0.74901874  1
  S  S50  1  0.95839790  0.33296643  0.58375083  1
  S  S51  1  0.66531879  0.03839705  0.08423602  1
  S  S52  1  0.63031112  0.66823926  0.91686482  1
  S  S53  1  0.33238552  0.37152206  0.41649935  1
  O  O54  1  0.21676311  0.02803152  0.30278596  1
  O  O55  1  0.82323728  0.78819870  0.30599505  1
  O  O56  1  0.97538737  0.17748017  0.30741912  1
  O  O57  1  0.23108427  0.18277021  0.80729849  1
  O  O58  1  0.96781888  0.77696347  0.80322810  1
  O  O59  1  0.81395683  0.02748678  0.80968088  1
  O  O60  1  0.79475096  0.96909213  0.69290738  1
  O  O61  1  0.17509209  0.20713815  0.69227773  1
  O  O62  1  0.02183209  0.81316283  0.69746666  1
  O  O63  1  0.77844042  0.81922395  0.19089393  1
  O  O64  1  0.04182682  0.22156908  0.19129571  1
  O  O65  1  0.19409631  0.96859516  0.19719927  1
  O  O66  1  0.88115104  0.35956871  0.63642678  1
  O  O67  1  0.48847294  0.12413637  0.63984893  1
  O  O68  1  0.64240868  0.51232130  0.64104743  1
  O  O69  1  0.87467559  0.51110416  0.13984076  1
  O  O70  1  0.64094008  0.11899574  0.13612334  1
  O  O71  1  0.48847926  0.35740448  0.14121399  1
  O  O72  1  0.44737031  0.29519131  0.02429300  1
  O  O73  1  0.85016785  0.55418754  0.02416154  1
  O  O74  1  0.69294076  0.13847038  0.02997733  1
  O  O75  1  0.45835280  0.15590166  0.52514513  1
  O  O76  1  0.69754756  0.54034527  0.52529299  1
  O  O77  1  0.85509485  0.30793471  0.53070742  1
  O  O78  1  0.55437456  0.69678792  0.96990166  1
  O  O79  1  0.15180530  0.44041016  0.97373198  1
  O  O80  1  0.30618547  0.85245180  0.97626197  1
  O  O81  1  0.56445286  0.84828820  0.47386758  1
  O  O82  1  0.30067304  0.44345092  0.47015297  1
  O  O83  1  0.14839918  0.69576322  0.47656528  1
  O  O84  1  0.12669902  0.63440353  0.35992664  1
  O  O85  1  0.50883843  0.87486883  0.35911979  1
  O  O86  1  0.35913095  0.47907672  0.36460955  1
  O  O87  1  0.11274349  0.48411583  0.85746728  1
  O  O88  1  0.37217880  0.88475132  0.85794175  1
  O  O89  1  0.52720553  0.64053537  0.86370462  1
  O  O90  1  0.02806405  0.84057164  0.41050509  1
  O  O91  1  0.82013779  0.99042522  0.41034361  1
  O  O92  1  0.18689378  0.20262004  0.40882166  1
  O  O93  1  0.00752677  0.17817311  0.91471139  1
  O  O94  1  0.15591736  0.96731666  0.91209488  1
  O  O95  1  0.79869505  0.81604637  0.91082813  1
  O  O96  1  0.97336260  0.17944183  0.58837180  1
  O  O97  1  0.18305135  0.02338481  0.58900561  1
  O  O98  1  0.83189667  0.81495962  0.58837432  1
  O  O99  1  0.97848972  0.81892322  0.08881916  1
  O  O100  1  0.81731801  0.02088678  0.08816812  1
  O  O101  1  0.18363224  0.16873216  0.08779432  1
  O  O102  1  0.69545933  0.17432589  0.74377891  1
  O  O103  1  0.48666341  0.32385417  0.74368229  1
  O  O104  1  0.85097412  0.53657571  0.74186782  1
  O  O105  1  0.68101153  0.51577640  0.24608164  1
  O  O106  1  0.82518667  0.30357092  0.24520652  1
  O  O107  1  0.46421542  0.14804368  0.24442462  1
  O  O108  1  0.64556631  0.51546075  0.92103173  1
  O  O109  1  0.84773443  0.35544414  0.92129067  1
  O  O110  1  0.49849958  0.15112347  0.92024991  1
  O  O111  1  0.64545549  0.15123399  0.42194980  1
  O  O112  1  0.48615741  0.35803205  0.42149894  1
  O  O113  1  0.85020593  0.50013931  0.42135994  1
  O  O114  1  0.36767702  0.51184555  0.07999900  1
  O  O115  1  0.15052296  0.65303575  0.08355956  1
  O  O116  1  0.51603552  0.86989010  0.07880151  1
  O  O117  1  0.34669145  0.84979966  0.58251389  1
  O  O118  1  0.48927810  0.63347953  0.57912932  1
  O  O119  1  0.12774433  0.48010037  0.57781630  1
  O  O120  1  0.31309202  0.84795588  0.25704300  1
  O  O121  1  0.51427851  0.68455787  0.25730942  1
  O  O122  1  0.16465457  0.48420356  0.25662238  1
  O  O123  1  0.31001567  0.48383632  0.75332120  1
  O  O124  1  0.15093323  0.69172726  0.75236864  1
  O  O125  1  0.51736716  0.83271866  0.75238473  1
