# generated using pymatgen
data_K2SnTe5
_symmetry_space_group_name_H-M   'P 1'
_cell_length_a   8.60976078
_cell_length_b   8.60976240
_cell_length_c   9.86328931
_cell_angle_alpha   115.87790880
_cell_angle_beta   115.87791350
_cell_angle_gamma   90.00000113
_symmetry_Int_Tables_number   1
_chemical_formula_structural   K2SnTe5
_chemical_formula_sum   'K4 Sn2 Te10'
_cell_volume   575.24692689
_cell_formula_units_Z   2
loop_
 _symmetry_equiv_pos_site_id
 _symmetry_equiv_pos_as_xyz
  1  'x, y, z'
loop_
 _atom_site_type_symbol
 _atom_site_label
 _atom_site_symmetry_multiplicity
 _atom_site_fract_x
 _atom_site_fract_y
 _atom_site_fract_z
 _atom_site_occupancy
  K  K0  1  0.49604108  0.49604108  0.99208117  1
  K  K1  1  0.99604108  0.99604108  0.99208117  1
  K  K2  1  0.74608928  0.74608928  0.49217855  1
  K  K3  1  0.24608928  0.24608928  0.49217855  1
  Sn  Sn4  1  0.24565385  0.74565385  0.49130669  1
  Sn  Sn5  1  0.74565385  0.24565385  0.49130669  1
  Te  Te6  1  0.68047265  0.53740033  0.71787298  1
  Te  Te7  1  0.53740033  0.03740033  0.71787298  1
  Te  Te8  1  0.49569964  0.99569964  0.99139929  1
  Te  Te9  1  0.99569964  0.49569964  0.99139929  1
  Te  Te10  1  0.03740033  0.18047265  0.71787298  1
  Te  Te11  1  0.18047265  0.68047265  0.71787298  1
  Te  Te12  1  0.81175856  0.31175856  0.26584217  1
  Te  Te13  1  0.95408462  0.81175856  0.26584217  1
  Te  Te14  1  0.31175856  0.45408462  0.26584217  1
  Te  Te15  1  0.45408462  0.95408462  0.26584217  1
