# generated using pymatgen
data_Na7Mg2Sc2P5SO24
_symmetry_space_group_name_H-M   'P 1'
_cell_length_a   9.01659621
_cell_length_b   9.02793232
_cell_length_c   22.36674809
_cell_angle_alpha   90.06469702
_cell_angle_beta   89.93412011
_cell_angle_gamma   119.92601760
_symmetry_Int_Tables_number   1
_chemical_formula_structural   Na7Mg2Sc2P5SO24
_chemical_formula_sum   'Na21 Mg6 Sc6 P15 S3 O72'
_cell_volume   1577.92842549
_cell_formula_units_Z   3
loop_
 _symmetry_equiv_pos_site_id
 _symmetry_equiv_pos_as_xyz
  1  'x, y, z'
loop_
 _atom_site_type_symbol
 _atom_site_label
 _atom_site_symmetry_multiplicity
 _atom_site_fract_x
 _atom_site_fract_y
 _atom_site_fract_z
 _atom_site_occupancy
  Na  Na0  1  0.64065241  0.99730724  0.25157534  1
  Na  Na1  1  0.99983622  0.62989467  0.25337947  1
  Na  Na2  1  0.63410454  0.63850355  0.74884358  1
  Na  Na3  1  0.00518910  0.36766350  0.75204770  1
  Na  Na4  1  0.36303110  0.99456630  0.75209162  1
  Na  Na5  1  0.29865611  0.33226961  0.58545837  1
  Na  Na6  1  0.03589496  0.70257998  0.58255476  1
  Na  Na7  1  0.66741174  0.96401229  0.58338740  1
  Na  Na8  1  0.29906260  0.96485132  0.08056369  1
  Na  Na9  1  0.66705948  0.70080199  0.08587188  1
  Na  Na10  1  0.03611139  0.33344176  0.08375857  1
  Na  Na11  1  0.98066959  0.66860140  0.91644471  1
  Na  Na12  1  0.32889152  0.29871462  0.91869844  1
  Na  Na13  1  0.96571939  0.30629810  0.41464550  1
  Na  Na14  1  0.70065908  0.67157777  0.41815447  1
  Na  Na15  1  0.00511780  0.99434852  0.50215759  1
  Na  Na16  1  0.99802221  0.00620594  0.00172104  1
  Na  Na17  1  0.66851174  0.31790766  0.83420651  1
  Na  Na18  1  0.65976357  0.32913703  0.33328872  1
  Na  Na19  1  0.33425596  0.65031753  0.16785604  1
  Na  Na20  1  0.33374113  0.66777178  0.66673427  1
  Mg  Mg21  1  0.99949853  0.99973432  0.65053190  1
  Mg  Mg22  1  0.99668995  0.00395960  0.14985637  1
  Mg  Mg23  1  0.32769438  0.66684685  0.01688422  1
  Mg  Mg24  1  0.33451653  0.67640693  0.51649075  1
  Mg  Mg25  1  0.33288521  0.66286387  0.31668166  1
  Mg  Mg26  1  0.32907442  0.67059746  0.81660574  1
  Sc  Sc27  1  0.99434873  0.99484248  0.35034684  1
  Sc  Sc28  1  0.00029035  0.00586462  0.84977053  1
  Sc  Sc29  1  0.66715062  0.33319358  0.68324403  1
  Sc  Sc30  1  0.66726500  0.33827505  0.18330103  1
  Sc  Sc31  1  0.66788483  0.32194062  0.98304742  1
  Sc  Sc32  1  0.66610165  0.32696889  0.48313972  1
  P  P33  1  0.70113840  0.70433785  0.24868003  1
  P  P34  1  0.00469617  0.29840052  0.24894766  1
  P  P35  1  0.29524666  0.29763743  0.74913313  1
  P  P36  1  0.00112080  0.70661356  0.74925821  1
  P  P37  1  0.70415284  0.99692168  0.74816513  1
  P  P38  1  0.96633937  0.33339591  0.58312915  1
  P  P39  1  0.36942642  0.03706067  0.58406101  1
  P  P40  1  0.66552087  0.62990365  0.58250745  1
  P  P41  1  0.96369133  0.63136266  0.08285479  1
  P  P42  1  0.66550820  0.03393794  0.08500903  1
  P  P43  1  0.37092331  0.33360112  0.08209213  1
  P  P44  1  0.04173941  0.37465201  0.91660102  1
  P  P45  1  0.33374015  0.96027168  0.91631134  1
  P  P46  1  0.62353931  0.95878334  0.41560752  1
  P  P47  1  0.04162596  0.66820255  0.41667598  1
  S  S48  1  0.29282830  0.00055048  0.24890353  1
  S  S49  1  0.62557981  0.66849386  0.91695500  1
  S  S50  1  0.33324560  0.37541205  0.41726662  1
  O  O51  1  0.21005083  0.02370609  0.30226864  1
  O  O52  1  0.81753396  0.78819629  0.30523090  1
  O  O53  1  0.97619305  0.18494076  0.30565050  1
  O  O54  1  0.21359103  0.18386325  0.80552087  1
  O  O55  1  0.96945689  0.78761796  0.80591385  1
  O  O56  1  0.82269414  0.02935043  0.80258141  1
  O  O57  1  0.78348868  0.96926655  0.69149772  1
  O  O58  1  0.18408162  0.21510705  0.69365345  1
  O  O59  1  0.02742939  0.81680177  0.69380821  1
  O  O60  1  0.78828673  0.81496734  0.19332583  1
  O  O61  1  0.02448433  0.21296916  0.19283178  1
  O  O62  1  0.19011733  0.97583032  0.19453449  1
  O  O63  1  0.88022368  0.36280427  0.63880657  1
  O  O64  1  0.48119640  0.11979525  0.64072445  1
  O  O65  1  0.63768496  0.51619786  0.63861678  1
  O  O66  1  0.87748007  0.51610094  0.13864901  1
  O  O67  1  0.63459302  0.11651016  0.14127233  1
  O  O68  1  0.49027172  0.36212097  0.13600423  1
  O  O69  1  0.45393020  0.30517779  0.02537208  1
  O  O70  1  0.84809629  0.54608346  0.02733165  1
  O  O71  1  0.69614198  0.15428472  0.03112513  1
  O  O72  1  0.46025568  0.15681000  0.53044393  1
  O  O73  1  0.69262068  0.54234360  0.52693537  1
  O  O74  1  0.85099059  0.30500644  0.52758676  1
  O  O75  1  0.54609734  0.68877279  0.97149014  1
  O  O76  1  0.15176625  0.45429133  0.97282260  1
  O  O77  1  0.30564981  0.85243896  0.97277604  1
  O  O78  1  0.54803831  0.84888430  0.47199017  1
  O  O79  1  0.30549575  0.44999736  0.47233144  1
  O  O80  1  0.14252249  0.68763903  0.47392472  1
  O  O81  1  0.12056469  0.63689736  0.36051379  1
  O  O82  1  0.52142754  0.87661099  0.35878375  1
  O  O83  1  0.36030548  0.48364765  0.36462997  1
  O  O84  1  0.12272203  0.48282906  0.86013388  1
  O  O85  1  0.35718448  0.88012571  0.85934950  1
  O  O86  1  0.52183567  0.64313330  0.86276818  1
  O  O87  1  0.01384407  0.82619848  0.41109520  1
  O  O88  1  0.81139976  0.98334317  0.41099184  1
  O  O89  1  0.17777298  0.20261950  0.41063207  1
  O  O90  1  0.02276351  0.19323253  0.91109235  1
  O  O91  1  0.16748646  0.97810935  0.91186526  1
  O  O92  1  0.80258687  0.81799056  0.91215632  1
  O  O93  1  0.98101201  0.17048873  0.58818998  1
  O  O94  1  0.19048885  0.02010653  0.58873081  1
  O  O95  1  0.82825483  0.80756646  0.58771330  1
  O  O96  1  0.98174465  0.81042998  0.08940896  1
  O  O97  1  0.82846812  0.01857035  0.08896080  1
  O  O98  1  0.19291002  0.17093264  0.08861366  1
  O  O99  1  0.68633872  0.16120609  0.74481078  1
  O  O100  1  0.47640167  0.31379599  0.74494365  1
  O  O101  1  0.83710220  0.52466510  0.74501053  1
  O  O102  1  0.69052679  0.52620805  0.24498380  1
  O  O103  1  0.83406730  0.30903642  0.24608650  1
  O  O104  1  0.46868617  0.15184076  0.24522665  1
  O  O105  1  0.64410207  0.51074967  0.92097760  1
  O  O106  1  0.86213608  0.36186719  0.92222756  1
  O  O107  1  0.48846081  0.14769968  0.92125405  1
  O  O108  1  0.65311499  0.14462916  0.42119612  1
  O  O109  1  0.48974924  0.35880649  0.42211189  1
  O  O110  1  0.85471660  0.50574565  0.42106685  1
  O  O111  1  0.35489946  0.49616568  0.07735941  1
  O  O112  1  0.14166328  0.64612268  0.07804260  1
  O  O113  1  0.50464990  0.85582710  0.07754495  1
  O  O114  1  0.35444318  0.85927034  0.57825987  1
  O  O115  1  0.50229301  0.64490292  0.57730810  1
  O  O116  1  0.14470210  0.49489872  0.57729950  1
  O  O117  1  0.31023289  0.84427939  0.25477096  1
  O  O118  1  0.52577199  0.69206771  0.25635330  1
  O  O119  1  0.15635821  0.48184789  0.25558594  1
  O  O120  1  0.31864068  0.47864799  0.75676279  1
  O  O121  1  0.16015286  0.68439445  0.75516850  1
  O  O122  1  0.52446387  0.83757651  0.75616483  1
