# generated using pymatgen
data_Na6Mg2Ta4Si6(SO12)3
_symmetry_space_group_name_H-M   'P 1'
_cell_length_a   8.96814791
_cell_length_b   8.96814761
_cell_length_c   22.47301273
_cell_angle_alpha   90.00000000
_cell_angle_beta   90.00000000
_cell_angle_gamma   120.00000113
_symmetry_Int_Tables_number   1
_chemical_formula_structural   Na6Mg2Ta4Si6(SO12)3
_chemical_formula_sum   'Na12 Mg4 Ta8 Si12 S6 O72'
_cell_volume   1565.29945840
_cell_formula_units_Z   2
loop_
 _symmetry_equiv_pos_site_id
 _symmetry_equiv_pos_as_xyz
  1  'x, y, z'
loop_
 _atom_site_type_symbol
 _atom_site_label
 _atom_site_symmetry_multiplicity
 _atom_site_fract_x
 _atom_site_fract_y
 _atom_site_fract_z
 _atom_site_occupancy
  Na  Na0  1  0.96798069  0.67998192  0.91714787  1
  Na  Na1  1  0.71200023  0.03201931  0.91714787  1
  Na  Na2  1  0.32001808  0.28799977  0.91714787  1
  Na  Na3  1  0.96798069  0.28799977  0.41714787  1
  Na  Na4  1  0.32001808  0.03201931  0.41714787  1
  Na  Na5  1  0.71200023  0.67998192  0.41714787  1
  Na  Na6  1  0.00000000  0.00000000  0.49313497  1
  Na  Na7  1  0.00000000  0.00000000  0.99313497  1
  Na  Na8  1  0.66666700  0.33333300  0.82641701  1
  Na  Na9  1  0.66666700  0.33333300  0.32641701  1
  Na  Na10  1  0.33333300  0.66666700  0.16048309  1
  Na  Na11  1  0.33333300  0.66666700  0.66048309  1
  Mg  Mg12  1  0.00000000  0.00000000  0.35450080  1
  Mg  Mg13  1  0.00000000  0.00000000  0.85450080  1
  Mg  Mg14  1  0.66666700  0.33333300  0.67993171  1
  Mg  Mg15  1  0.66666700  0.33333300  0.17993171  1
  Ta  Ta16  1  0.00000000  0.00000000  0.63963201  1
  Ta  Ta17  1  0.00000000  0.00000000  0.13963201  1
  Ta  Ta18  1  0.66666700  0.33333300  0.98316259  1
  Ta  Ta19  1  0.66666700  0.33333300  0.48316259  1
  Ta  Ta20  1  0.33333300  0.66666700  0.02271517  1
  Ta  Ta21  1  0.33333300  0.66666700  0.52271517  1
  Ta  Ta22  1  0.33333300  0.66666700  0.31312892  1
  Ta  Ta23  1  0.33333300  0.66666700  0.81312892  1
  Si  Si24  1  0.95518437  0.33892491  0.58744274  1
  Si  Si25  1  0.38374155  0.04481563  0.58744274  1
  Si  Si26  1  0.66107509  0.61625845  0.58744274  1
  Si  Si27  1  0.95518437  0.61625845  0.08744274  1
  Si  Si28  1  0.66107509  0.04481563  0.08744274  1
  Si  Si29  1  0.38374155  0.33892491  0.08744274  1
  Si  Si30  1  0.62247548  0.66333775  0.91595835  1
  Si  Si31  1  0.04086127  0.37752452  0.91595835  1
  Si  Si32  1  0.33666225  0.95913873  0.91595835  1
  Si  Si33  1  0.62247548  0.95913873  0.41595835  1
  Si  Si34  1  0.33666225  0.37752452  0.41595835  1
  Si  Si35  1  0.04086127  0.66333775  0.41595835  1
  S  S36  1  0.28949837  0.99802394  0.25221069  1
  S  S37  1  0.70852558  0.71050163  0.25221069  1
  S  S38  1  0.00197606  0.29147442  0.25221069  1
  S  S39  1  0.28949837  0.29147442  0.75221069  1
  S  S40  1  0.00197606  0.71050163  0.75221069  1
  S  S41  1  0.70852558  0.99802394  0.75221069  1
  O  O42  1  0.20526415  0.00505647  0.30733798  1
  O  O43  1  0.79979232  0.79473585  0.30733798  1
  O  O44  1  0.99494353  0.20020768  0.30733798  1
  O  O45  1  0.20526415  0.20020768  0.80733798  1
  O  O46  1  0.99494353  0.79473585  0.80733798  1
  O  O47  1  0.79979232  0.00505647  0.80733798  1
  O  O48  1  0.80162125  0.98143036  0.69927676  1
  O  O49  1  0.17980911  0.19837875  0.69927676  1
  O  O50  1  0.01856964  0.82019089  0.69927676  1
  O  O51  1  0.80162125  0.82019089  0.19927676  1
  O  O52  1  0.01856964  0.19837875  0.19927676  1
  O  O53  1  0.17980911  0.98143036  0.19927676  1
  O  O54  1  0.87983109  0.37340954  0.64484605  1
  O  O55  1  0.49357945  0.12016891  0.64484605  1
  O  O56  1  0.62659046  0.50642055  0.64484605  1
  O  O57  1  0.87983109  0.50642055  0.14484605  1
  O  O58  1  0.62659046  0.12016891  0.14484605  1
  O  O59  1  0.49357945  0.37340954  0.14484605  1
  O  O60  1  0.46638764  0.30221104  0.02557055  1
  O  O61  1  0.83582440  0.53361236  0.02557055  1
  O  O62  1  0.69778896  0.16417560  0.02557055  1
  O  O63  1  0.46638764  0.16417560  0.52557055  1
  O  O64  1  0.69778896  0.53361236  0.52557055  1
  O  O65  1  0.83582440  0.30221104  0.52557055  1
  O  O66  1  0.52664536  0.69403717  0.97131247  1
  O  O67  1  0.16739081  0.47335464  0.97131247  1
  O  O68  1  0.30596283  0.83260919  0.97131247  1
  O  O69  1  0.52664536  0.83260919  0.47131247  1
  O  O70  1  0.30596283  0.47335464  0.47131247  1
  O  O71  1  0.16739081  0.69403717  0.47131247  1
  O  O72  1  0.13589447  0.63025899  0.35621731  1
  O  O73  1  0.49436352  0.86410553  0.35621731  1
  O  O74  1  0.36974101  0.50563648  0.35621731  1
  O  O75  1  0.13589447  0.50563648  0.85621731  1
  O  O76  1  0.36974101  0.86410553  0.85621731  1
  O  O77  1  0.49436352  0.63025899  0.85621731  1
  O  O78  1  0.01578024  0.82757240  0.40960340  1
  O  O79  1  0.81179216  0.98421976  0.40960340  1
  O  O80  1  0.17242760  0.18820784  0.40960340  1
  O  O81  1  0.01578024  0.18820784  0.90960340  1
  O  O82  1  0.17242760  0.98421976  0.90960340  1
  O  O83  1  0.81179216  0.82757240  0.90960340  1
  O  O84  1  0.97412449  0.16067252  0.59345258  1
  O  O85  1  0.18654804  0.02587551  0.59345258  1
  O  O86  1  0.83932748  0.81345196  0.59345258  1
  O  O87  1  0.97412449  0.81345196  0.09345258  1
  O  O88  1  0.83932747  0.02587551  0.09345258  1
  O  O89  1  0.18654804  0.16067252  0.09345258  1
  O  O90  1  0.68504936  0.14780253  0.74887225  1
  O  O91  1  0.46275417  0.31495064  0.74887225  1
  O  O92  1  0.85219747  0.53724583  0.74887225  1
  O  O93  1  0.68504936  0.53724583  0.24887225  1
  O  O94  1  0.85219747  0.31495064  0.24887225  1
  O  O95  1  0.46275417  0.14780253  0.24887225  1
  O  O96  1  0.62822881  0.48379577  0.92134681  1
  O  O97  1  0.85556796  0.37177119  0.92134681  1
  O  O98  1  0.51620423  0.14443204  0.92134681  1
  O  O99  1  0.62822881  0.14443204  0.42134681  1
  O  O100  1  0.51620423  0.37177119  0.42134681  1
  O  O101  1  0.85556796  0.48379577  0.42134681  1
  O  O102  1  0.34559889  0.49563671  0.07318522  1
  O  O103  1  0.15003682  0.65440111  0.07318522  1
  O  O104  1  0.50436329  0.84996318  0.07318522  1
  O  O105  1  0.34559889  0.84996318  0.57318522  1
  O  O106  1  0.50436329  0.65440111  0.57318522  1
  O  O107  1  0.15003682  0.49563671  0.57318522  1
  O  O108  1  0.29972921  0.83205116  0.25185056  1
  O  O109  1  0.53232095  0.70027079  0.25185056  1
  O  O110  1  0.16794884  0.46767905  0.25185056  1
  O  O111  1  0.29972921  0.46767905  0.75185056  1
  O  O112  1  0.16794884  0.70027079  0.75185056  1
  O  O113  1  0.53232095  0.83205116  0.75185056  1
