# generated using pymatgen
data_Na2Sc3Ta5Si6(SO8)6
_symmetry_space_group_name_H-M   'P 1'
_cell_length_a   17.77205331
_cell_length_b   8.87674033
_cell_length_c   23.08673887
_cell_angle_alpha   89.87362808
_cell_angle_beta   89.89837041
_cell_angle_gamma   120.13779716
_symmetry_Int_Tables_number   1
_chemical_formula_structural   Na2Sc3Ta5Si6(SO8)6
_chemical_formula_sum   'Na6 Sc9 Ta15 Si18 S18 O144'
_cell_volume   3149.75061707
_cell_formula_units_Z   3
loop_
 _symmetry_equiv_pos_site_id
 _symmetry_equiv_pos_as_xyz
  1  'x, y, z'
loop_
 _atom_site_type_symbol
 _atom_site_label
 _atom_site_symmetry_multiplicity
 _atom_site_fract_x
 _atom_site_fract_y
 _atom_site_fract_z
 _atom_site_occupancy
  Na  Na0  1  0.99426883  0.97934433  0.49803623  1
  Na  Na1  1  0.50148694  0.99927680  0.99852149  1
  Na  Na2  1  0.33407722  0.31812692  0.83960633  1
  Na  Na3  1  0.83247038  0.33921896  0.83884786  1
  Na  Na4  1  0.32700745  0.32055597  0.33733917  1
  Na  Na5  1  0.83730343  0.34372575  0.34459214  1
  Sc  Sc6  1  0.00660189  0.00203854  0.35378254  1
  Sc  Sc7  1  0.50320647  0.02608841  0.85276525  1
  Sc  Sc8  1  0.99901279  0.00605308  0.64809882  1
  Sc  Sc9  1  0.49305476  0.98015377  0.14614588  1
  Sc  Sc10  1  0.34126056  0.33961891  0.97594570  1
  Sc  Sc11  1  0.83666326  0.32994651  0.97544491  1
  Sc  Sc12  1  0.33391189  0.33896786  0.47966110  1
  Sc  Sc13  1  0.83062858  0.34693141  0.47801044  1
  Sc  Sc14  1  0.67104904  0.66228988  0.31332571  1
  Ta  Ta15  1  0.49425213  0.99249954  0.36103911  1
  Ta  Ta16  1  0.00566720  0.00767752  0.86308786  1
  Ta  Ta17  1  0.49861958  0.00428412  0.64330805  1
  Ta  Ta18  1  0.00252601  0.01417115  0.14798300  1
  Ta  Ta19  1  0.32701526  0.33544999  0.69034160  1
  Ta  Ta20  1  0.82571415  0.32673771  0.68258872  1
  Ta  Ta21  1  0.33962023  0.34711967  0.19021018  1
  Ta  Ta22  1  0.83248981  0.31916016  0.18667178  1
  Ta  Ta23  1  0.16250888  0.66498948  0.01902774  1
  Ta  Ta24  1  0.66764530  0.66362863  0.02381601  1
  Ta  Ta25  1  0.17055595  0.67560295  0.52027826  1
  Ta  Ta26  1  0.67205503  0.66189745  0.52470710  1
  Ta  Ta27  1  0.16288516  0.67800045  0.30667644  1
  Ta  Ta28  1  0.16648531  0.67251504  0.80796292  1
  Ta  Ta29  1  0.66462459  0.64802925  0.81224347  1
  Si  Si30  1  0.14446596  0.00608603  0.24831144  1
  Si  Si31  1  0.35648328  0.71626261  0.25218387  1
  Si  Si32  1  0.99887664  0.28578388  0.25435487  1
  Si  Si33  1  0.13941134  0.28391790  0.75095421  1
  Si  Si34  1  0.64414818  0.28369939  0.74941867  1
  Si  Si35  1  0.35812528  0.00349919  0.74947452  1
  Si  Si36  1  0.68681869  0.04087531  0.57984286  1
  Si  Si37  1  0.33229391  0.62081807  0.58189335  1
  Si  Si38  1  0.84027444  0.63131961  0.58191359  1
  Si  Si39  1  0.47790475  0.62496834  0.08012475  1
  Si  Si40  1  0.83463631  0.04192482  0.08024891  1
  Si  Si41  1  0.80879074  0.66263233  0.91718243  1
  Si  Si42  1  0.02318469  0.38532500  0.91460787  1
  Si  Si43  1  0.52271987  0.37582362  0.91862753  1
  Si  Si44  1  0.17061588  0.95774858  0.91517553  1
  Si  Si45  1  0.30590447  0.95763133  0.41484099  1
  Si  Si46  1  0.66769864  0.37908783  0.41527754  1
  Si  Si47  1  0.02117041  0.66490735  0.41670209  1
  S  S48  1  0.64418896  0.00160867  0.25060610  1
  S  S49  1  0.85594828  0.70934245  0.24774149  1
  S  S50  1  0.50067647  0.28672876  0.24999127  1
  S  S51  1  0.99812335  0.70844794  0.75050519  1
  S  S52  1  0.50062198  0.71285856  0.74972090  1
  S  S53  1  0.85529809  0.00259831  0.75202831  1
  S  S54  1  0.47680944  0.33471920  0.58326025  1
  S  S55  1  0.97851438  0.33569727  0.58243256  1
  S  S56  1  0.18955076  0.04458352  0.58337456  1
  S  S57  1  0.97777394  0.62370817  0.08382319  1
  S  S58  1  0.33183908  0.04253911  0.08273671  1
  S  S59  1  0.19050237  0.33516643  0.08384236  1
  S  S60  1  0.68952750  0.33347714  0.08331179  1
  S  S61  1  0.30803561  0.66731426  0.91669609  1
  S  S62  1  0.66422138  0.94580752  0.91646052  1
  S  S63  1  0.81010036  0.95229729  0.41738682  1
  S  S64  1  0.16638160  0.38324643  0.41724799  1
  S  S65  1  0.52409472  0.66757034  0.41567655  1
  O  O66  1  0.10650444  0.04700675  0.30508524  1
  O  O67  1  0.60666480  0.03666073  0.30247757  1
  O  O68  1  0.42353150  0.80917979  0.30665577  1
  O  O69  1  0.90839864  0.77659372  0.30006877  1
  O  O70  1  0.48440929  0.17434222  0.30202852  1
  O  O71  1  0.97224276  0.15748960  0.30808606  1
  O  O72  1  0.09374714  0.15508358  0.80670729  1
  O  O73  1  0.60856635  0.17136820  0.80735767  1
  O  O74  1  0.48031111  0.77752091  0.80200035  1
  O  O75  1  0.98300493  0.78605568  0.80257362  1
  O  O76  1  0.41416092  0.03976720  0.80715209  1
  O  O77  1  0.91084754  0.02849337  0.80285519  1
  O  O78  1  0.40380435  0.97385041  0.69284803  1
  O  O79  1  0.88989786  0.96776092  0.69918572  1
  O  O80  1  0.08643032  0.20293418  0.69310152  1
  O  O81  1  0.58378542  0.19222322  0.69318974  1
  O  O82  1  0.01275650  0.81259141  0.69827686  1
  O  O83  1  0.51302532  0.81862978  0.69747002  1
  O  O84  1  0.39739345  0.82797131  0.19456467  1
  O  O85  1  0.90049974  0.82000247  0.19567116  1
  O  O86  1  0.01011096  0.19084646  0.19505534  1
  O  O87  1  0.51368752  0.21186274  0.19754885  1
  O  O88  1  0.08290845  0.97567374  0.19158847  1
  O  O89  1  0.59476682  0.98119039  0.19786193  1
  O  O90  1  0.43603818  0.36012798  0.63538210  1
  O  O91  1  0.93742817  0.36156431  0.63639410  1
  O  O92  1  0.24491649  0.12774115  0.63609109  1
  O  O93  1  0.75055587  0.13277737  0.63938796  1
  O  O94  1  0.32036782  0.49427463  0.63890914  1
  O  O95  1  0.82218024  0.50145757  0.63965959  1
  O  O96  1  0.42859274  0.49688117  0.13842363  1
  O  O97  1  0.93554356  0.51016970  0.13588884  1
  O  O98  1  0.31634595  0.12007515  0.13528759  1
  O  O99  1  0.82050871  0.14231313  0.13884933  1
  O  O100  1  0.24465644  0.36045451  0.13630014  1
  O  O101  1  0.74546588  0.36036978  0.13612421  1
  O  O102  1  0.22477345  0.29965641  0.03188474  1
  O  O103  1  0.72974620  0.30772648  0.03186684  1
  O  O104  1  0.41351264  0.53155028  0.02712059  1
  O  O105  1  0.92620758  0.55016363  0.03170062  1
  O  O106  1  0.34284782  0.14602541  0.03062828  1
  O  O107  1  0.85372162  0.17263885  0.02808268  1
  O  O108  1  0.23022536  0.14968563  0.53153017  1
  O  O109  1  0.73202377  0.16336216  0.52635122  1
  O  O110  1  0.34901395  0.53197228  0.52691513  1
  O  O111  1  0.85465140  0.54715198  0.52593714  1
  O  O112  1  0.42409232  0.30062082  0.53122836  1
  O  O113  1  0.92462979  0.30521062  0.53164309  1
  O  O114  1  0.26363088  0.68856722  0.97077786  1
  O  O115  1  0.76443889  0.69807056  0.97344315  1
  O  O116  1  0.08413977  0.47515111  0.97415221  1
  O  O117  1  0.58584769  0.48314409  0.97316409  1
  O  O118  1  0.15582747  0.83076653  0.97367726  1
  O  O119  1  0.65571853  0.84253544  0.96972516  1
  O  O120  1  0.26477728  0.83644622  0.47390102  1
  O  O121  1  0.76219845  0.83813719  0.46996576  1
  O  O122  1  0.15720450  0.47024146  0.47094659  1
  O  O123  1  0.65069256  0.47502282  0.47182241  1
  O  O124  1  0.08525440  0.68600273  0.47389849  1
  O  O125  1  0.57523606  0.69442852  0.46858696  1
  O  O126  1  0.07478417  0.64893055  0.36032987  1
  O  O127  1  0.56432035  0.64713344  0.36313656  1
  O  O128  1  0.24902113  0.85602126  0.35913882  1
  O  O129  1  0.75749260  0.87092433  0.36501005  1
  O  O130  1  0.17896460  0.48712664  0.36500488  1
  O  O131  1  0.67783604  0.49761390  0.35911461  1
  O  O132  1  0.07626791  0.50748672  0.86050003  1
  O  O133  1  0.57197924  0.49794439  0.85965680  1
  O  O134  1  0.18026864  0.85620590  0.86014150  1
  O  O135  1  0.67674224  0.86447033  0.86334611  1
  O  O136  1  0.25570396  0.64877471  0.86465327  1
  O  O137  1  0.74834195  0.64560318  0.85954032  1
  O  O138  1  0.01499588  0.84164416  0.41367178  1
  O  O139  1  0.51697617  0.83038212  0.40833949  1
  O  O140  1  0.40228557  0.97021590  0.40542087  1
  O  O141  1  0.89445873  0.95936842  0.41519433  1
  O  O142  1  0.08660159  0.21065157  0.41559787  1
  O  O143  1  0.57920336  0.18843727  0.40164977  1
  O  O144  1  0.01681556  0.19538945  0.90704335  1
  O  O145  1  0.51649282  0.18785228  0.91702707  1
  O  O146  1  0.07846395  0.95666773  0.90727172  1
  O  O147  1  0.58411749  0.95500465  0.91217061  1
  O  O148  1  0.39453880  0.82217138  0.91400654  1
  O  O149  1  0.90190043  0.83576451  0.90007201  1
  O  O150  1  0.48958169  0.18226046  0.59197707  1
  O  O151  1  0.99008549  0.18360065  0.59115434  1
  O  O152  1  0.10255262  0.02141044  0.59117395  1
  O  O153  1  0.59320848  0.01657919  0.59961664  1
  O  O154  1  0.41534446  0.81059404  0.59792964  1
  O  O155  1  0.91885634  0.82507385  0.59299746  1
  O  O156  1  0.49368840  0.81997060  0.08911606  1
  O  O157  1  0.99098301  0.79820339  0.09509812  1
  O  O158  1  0.40958476  0.02534551  0.08945211  1
  O  O159  1  0.91600847  0.01368385  0.09823016  1
  O  O160  1  0.10090108  0.18198693  0.09455199  1
  O  O161  1  0.60204800  0.18515035  0.09272755  1
  O  O162  1  0.34522227  0.17162872  0.73387160  1
  O  O163  1  0.84936368  0.16508735  0.74436616  1
  O  O164  1  0.23942167  0.30874944  0.74238057  1
  O  O165  1  0.74438624  0.31559402  0.73884928  1
  O  O166  1  0.42373695  0.52916728  0.73910152  1
  O  O167  1  0.92253903  0.52756438  0.74357278  1
  O  O168  1  0.34783157  0.51919863  0.24175718  1
  O  O169  1  0.84388097  0.53121603  0.23569715  1
  O  O170  1  0.41735750  0.29792940  0.24351627  1
  O  O171  1  0.91538219  0.31764602  0.23624015  1
  O  O172  1  0.24248915  0.16929905  0.23325240  1
  O  O173  1  0.73491085  0.16878867  0.24215207  1
  O  O174  1  0.31062976  0.50586747  0.92270600  1
  O  O175  1  0.81699938  0.49202077  0.92205961  1
  O  O176  1  0.42977119  0.36682923  0.91849436  1
  O  O177  1  0.92876101  0.36259567  0.91934657  1
  O  O178  1  0.25011295  0.14851543  0.92304934  1
  O  O179  1  0.74226278  0.12063823  0.92114934  1
  O  O180  1  0.32226140  0.15148303  0.42202039  1
  O  O181  1  0.81867197  0.12301020  0.42423724  1
  O  O182  1  0.24421546  0.36375699  0.42352093  1
  O  O183  1  0.74886181  0.34988286  0.41859131  1
  O  O184  1  0.43513492  0.51681434  0.42090042  1
  O  O185  1  0.93013695  0.48542034  0.41934296  1
  O  O186  1  0.18052569  0.49197664  0.07677215  1
  O  O187  1  0.68436416  0.49579282  0.07784576  1
  O  O188  1  0.06606372  0.63823565  0.07650413  1
  O  O189  1  0.57251572  0.63752213  0.07169508  1
  O  O190  1  0.25330533  0.86223278  0.07449567  1
  O  O191  1  0.74823579  0.85361396  0.07345882  1
  O  O192  1  0.18279179  0.87041033  0.57724869  1
  O  O193  1  0.67305426  0.84518559  0.56939402  1
  O  O194  1  0.24505658  0.63614776  0.57237353  1
  O  O195  1  0.74878494  0.64039662  0.57376919  1
  O  O196  1  0.06624370  0.49466201  0.57578109  1
  O  O197  1  0.56417365  0.49198779  0.57534987  1
  O  O198  1  0.15506882  0.83516487  0.25523551  1
  O  O199  1  0.65935139  0.85656910  0.25919241  1
  O  O200  1  0.26052536  0.67840640  0.26676930  1
  O  O201  1  0.77042413  0.69438818  0.25269159  1
  O  O202  1  0.08357309  0.47532269  0.25987684  1
  O  O203  1  0.57236325  0.46402621  0.25911615  1
  O  O204  1  0.15760460  0.47837078  0.76525568  1
  O  O205  1  0.65648826  0.48094959  0.75827785  1
  O  O206  1  0.07736737  0.69145153  0.75881695  1
  O  O207  1  0.57876646  0.69490624  0.75713346  1
  O  O208  1  0.26048425  0.83520359  0.75993832  1
  O  O209  1  0.76557372  0.85435476  0.76199956  1
