# generated using pymatgen
data_Na8CaZr3Si4(PO12)2
_symmetry_space_group_name_H-M   'P 1'
_cell_length_a   9.33668454
_cell_length_b   9.33917794
_cell_length_c   22.84546247
_cell_angle_alpha   90.00174404
_cell_angle_beta   89.91226885
_cell_angle_gamma   120.06428408
_symmetry_Int_Tables_number   1
_chemical_formula_structural   Na8CaZr3Si4(PO12)2
_chemical_formula_sum   'Na24 Ca3 Zr9 Si12 P6 O72'
_cell_volume   1724.04885181
_cell_formula_units_Z   3
loop_
 _symmetry_equiv_pos_site_id
 _symmetry_equiv_pos_as_xyz
  1  'x, y, z'
loop_
 _atom_site_type_symbol
 _atom_site_label
 _atom_site_symmetry_multiplicity
 _atom_site_fract_x
 _atom_site_fract_y
 _atom_site_fract_z
 _atom_site_occupancy
  Na  Na0  1  0.63840226  0.01312127  0.24072396  1
  Na  Na1  1  0.37516035  0.35985078  0.24174032  1
  Na  Na2  1  0.98584376  0.62652122  0.24179595  1
  Na  Na3  1  0.63598586  0.62261957  0.74605929  1
  Na  Na4  1  0.98231736  0.36712661  0.75080825  1
  Na  Na5  1  0.38320575  0.00974861  0.74458131  1
  Na  Na6  1  0.31375883  0.33511489  0.58567819  1
  Na  Na7  1  0.02965014  0.69816103  0.58374479  1
  Na  Na8  1  0.65963119  0.97133472  0.58970051  1
  Na  Na9  1  0.31362083  0.97149550  0.08269072  1
  Na  Na10  1  0.65795853  0.68652273  0.08262635  1
  Na  Na11  1  0.02826931  0.34170010  0.08262686  1
  Na  Na12  1  0.96584654  0.66430678  0.91720679  1
  Na  Na13  1  0.69917645  0.03578393  0.91733784  1
  Na  Na14  1  0.33487156  0.30077642  0.91858712  1
  Na  Na15  1  0.97101344  0.29296170  0.41398979  1
  Na  Na16  1  0.31515990  0.03248466  0.41603890  1
  Na  Na17  1  0.71349249  0.67621957  0.41326538  1
  Na  Na18  1  0.00842684  0.99848902  0.49658047  1
  Na  Na19  1  0.00077460  0.00095925  0.99869148  1
  Na  Na20  1  0.67299980  0.33374669  0.82958135  1
  Na  Na21  1  0.66796889  0.33706060  0.32979871  1
  Na  Na22  1  0.33416167  0.66753748  0.15973107  1
  Na  Na23  1  0.34121615  0.67700401  0.66981154  1
  Ca  Ca24  1  0.00170992  -0.00005926  0.35260059  1
  Ca  Ca25  1  0.66434657  0.33237819  0.68303121  1
  Ca  Ca26  1  0.66654930  0.33345898  0.17684314  1
  Zr  Zr27  1  0.99596150  0.99658974  0.85352162  1
  Zr  Zr28  1  0.99776181  0.99205689  0.64874020  1
  Zr  Zr29  1  0.00022361  0.99969594  0.14673149  1
  Zr  Zr30  1  0.66731502  0.33367602  0.98346143  1
  Zr  Zr31  1  0.66387044  0.33890064  0.48289004  1
  Zr  Zr32  1  0.33322634  0.66704862  0.01460151  1
  Zr  Zr33  1  0.33193538  0.66676447  0.51733347  1
  Zr  Zr34  1  0.32967562  0.66160183  0.31650540  1
  Zr  Zr35  1  0.33526033  0.67090133  0.81575860  1
  Si  Si36  1  0.00537860  0.70659355  0.75186434  1
  Si  Si37  1  0.70370615  0.99551437  0.75124071  1
  Si  Si38  1  0.36636474  0.03285279  0.58385058  1
  Si  Si39  1  0.66604365  0.63595114  0.58436199  1
  Si  Si40  1  0.97002689  0.63481320  0.08447372  1
  Si  Si41  1  0.66508336  0.03015969  0.08443761  1
  Si  Si42  1  0.36543729  0.33544776  0.08436377  1
  Si  Si43  1  0.62806386  0.66409061  0.91596669  1
  Si  Si44  1  0.03730813  0.37185146  0.91579891  1
  Si  Si45  1  0.33560442  0.96518766  0.91642015  1
  Si  Si46  1  0.33825469  0.37374559  0.41790881  1
  Si  Si47  1  0.03308330  0.65883177  0.41771648  1
  P  P48  1  0.29812936  0.99556896  0.25206491  1
  P  P49  1  0.69808065  0.70371235  0.25217838  1
  P  P50  1  0.00429873  0.30106649  0.25223389  1
  P  P51  1  0.28586407  0.29259126  0.75114007  1
  P  P52  1  0.96592115  0.33340047  0.58255603  1
  P  P53  1  0.62106374  0.96151571  0.41710243  1
  O  O54  1  0.21976552  0.01548536  0.30752027  1
  O  O55  1  0.79522757  0.78136266  0.30774590  1
  O  O56  1  0.98398646  0.20355330  0.30778554  1
  O  O57  1  0.19463698  0.18676483  0.80560698  1
  O  O58  1  0.99375127  0.80941523  0.80817103  1
  O  O59  1  0.81902869  0.01151160  0.80795148  1
  O  O60  1  0.79849928  0.97648933  0.69235605  1
  O  O61  1  0.18116407  0.20652667  0.69519251  1
  O  O62  1  0.02902864  0.82226471  0.69267504  1
  O  O63  1  0.79204517  0.81506701  0.19748529  1
  O  O64  1  0.02356331  0.20898220  0.19757838  1
  O  O65  1  0.18621730  0.97554998  0.19736804  1
  O  O66  1  0.89938056  0.37015112  0.63761864  1
  O  O67  1  0.47603601  0.09568383  0.64213654  1
  O  O68  1  0.62180945  0.52580032  0.64240646  1
  O  O69  1  0.90717110  0.52976973  0.14376824  1
  O  O70  1  0.62250578  0.09301422  0.14361050  1
  O  O71  1  0.47065944  0.37790867  0.14354245  1
  O  O72  1  0.45856688  0.30200115  0.02835583  1
  O  O73  1  0.84369897  0.54171025  0.02850508  1
  O  O74  1  0.69834048  0.15678277  0.02849478  1
  O  O75  1  0.46414962  0.15618339  0.52693162  1
  O  O76  1  0.69734266  0.54107493  0.52750683  1
  O  O77  1  0.85164343  0.30735274  0.52868334  1
  O  O78  1  0.54164501  0.69530785  0.97274844  1
  O  O79  1  0.15389180  0.45892177  0.97275818  1
  O  O80  1  0.30332688  0.84686391  0.97307310  1
  O  O81  1  0.53160614  0.85447370  0.47129614  1
  O  O82  1  0.32501769  0.47397188  0.47405224  1
  O  O83  1  0.14960418  0.67907342  0.47375156  1
  O  O84  1  0.13087500  0.63882227  0.35979061  1
  O  O85  1  0.51246685  0.87443268  0.36203730  1
  O  O86  1  0.36487330  0.49271948  0.35978216  1
  O  O87  1  0.12715666  0.49014647  0.85852920  1
  O  O88  1  0.36438651  0.87362770  0.85950578  1
  O  O89  1  0.50975556  0.63558341  0.85894823  1
  O  O90  1  0.00878442  0.81810022  0.41783836  1
  O  O91  1  0.79227584  0.97879145  0.41477416  1
  O  O92  1  0.17396412  0.19347871  0.41823467  1
  O  O93  1  0.01996161  0.18800831  0.91183251  1
  O  O94  1  0.17209498  0.98689341  0.91188676  1
  O  O95  1  0.81332940  0.83042132  0.91219145  1
  O  O96  1  0.98297608  0.17591038  0.58645682  1
  O  O97  1  0.18493791  0.02485410  0.58615002  1
  O  O98  1  0.83629012  0.82050930  0.58658514  1
  O  O99  1  0.98349559  0.81926681  0.08966475  1
  O  O100  1  0.83608166  0.01670938  0.08974875  1
  O  O101  1  0.18085331  0.16420954  0.08968199  1
  O  O102  1  0.68298626  0.15699642  0.75230088  1
  O  O103  1  0.45731351  0.30964126  0.74967309  1
  O  O104  1  0.84032626  0.52669354  0.75215942  1
  O  O105  1  0.67233697  0.52776059  0.24705545  1
  O  O106  1  0.85502963  0.32776836  0.24696391  1
  O  O107  1  0.47376525  0.14666905  0.24696781  1
  O  O108  1  0.64555203  0.49861025  0.92223228  1
  O  O109  1  0.85405450  0.35462083  0.92207583  1
  O  O110  1  0.50284258  0.14723004  0.92231384  1
  O  O111  1  0.63287635  0.13314165  0.42173793  1
  O  O112  1  0.50978628  0.36246236  0.42118719  1
  O  O113  1  0.85519057  0.48253847  0.42099289  1
  O  O114  1  0.33539132  0.49202945  0.07338710  1
  O  O115  1  0.15673151  0.66475736  0.07360112  1
  O  O116  1  0.50808563  0.84345453  0.07354412  1
  O  O117  1  0.33145027  0.84304541  0.57386182  1
  O  O118  1  0.50956725  0.66761407  0.57384710  1
  O  O119  1  0.14364924  0.48421243  0.57318856  1
  O  O120  1  0.30831919  0.83163481  0.25361286  1
  O  O121  1  0.52524777  0.69665011  0.25294920  1
  O  O122  1  0.17077458  0.47506442  0.25346292  1
  O  O123  1  0.29607515  0.46395492  0.75443096  1
  O  O124  1  0.17636973  0.69524756  0.75368036  1
  O  O125  1  0.52394778  0.82014329  0.75336315  1
