# generated using pymatgen
data_Na3YZnSi(SO6)2
_symmetry_space_group_name_H-M   'P 1'
_cell_length_a   9.24884951
_cell_length_b   9.31219855
_cell_length_c   23.00837404
_cell_angle_alpha   88.95691084
_cell_angle_beta   90.00000000
_cell_angle_gamma   119.77521914
_symmetry_Int_Tables_number   1
_chemical_formula_structural   Na3YZnSi(SO6)2
_chemical_formula_sum   'Na18 Y6 Zn6 Si6 S12 O72'
_cell_volume   1719.65056795
_cell_formula_units_Z   6
loop_
 _symmetry_equiv_pos_site_id
 _symmetry_equiv_pos_as_xyz
  1  'x, y, z'
loop_
 _atom_site_type_symbol
 _atom_site_label
 _atom_site_symmetry_multiplicity
 _atom_site_fract_x
 _atom_site_fract_y
 _atom_site_fract_z
 _atom_site_occupancy
  Na  Na0  1  0.62676929  0.01162610  0.25272803  1
  Na  Na1  1  0.00496089  0.64345374  0.23758930  1
  Na  Na2  1  0.63849285  0.64345374  0.73758930  1
  Na  Na3  1  0.38485681  0.01162610  0.75272803  1
  Na  Na4  1  0.31917167  0.35152231  0.58456956  1
  Na  Na5  1  0.65096642  0.94255906  0.57947975  1
  Na  Na6  1  0.29159364  0.94255906  0.07947975  1
  Na  Na7  1  0.03235164  0.35152231  0.08456956  1
  Na  Na8  1  0.98404714  0.68643591  0.92421873  1
  Na  Na9  1  0.68930148  0.02588740  0.90395305  1
  Na  Na10  1  0.33658492  0.02588740  0.40395305  1
  Na  Na11  1  0.70238778  0.68643591  0.42421873  1
  Na  Na12  1  0.97170626  0.98240713  0.49279388  1
  Na  Na13  1  0.01070087  0.98240713  0.99279388  1
  Na  Na14  1  0.65686458  0.30607863  0.82668798  1
  Na  Na15  1  0.64921506  0.30607863  0.32668798  1
  Na  Na16  1  0.33157043  0.66615287  0.16066770  1
  Na  Na17  1  0.33458145  0.66615287  0.66066770  1
  Y  Y18  1  0.98538021  0.98600663  0.64907504  1
  Y  Y19  1  0.00062642  0.98600663  0.14907504  1
  Y  Y20  1  0.65634890  0.33479546  0.98354322  1
  Y  Y21  1  0.67844756  0.33479546  0.48354322  1
  Y  Y22  1  0.33647681  0.67406173  0.31759331  1
  Y  Y23  1  0.33758392  0.67406173  0.81759331  1
  Zn  Zn24  1  0.01040822  0.01511522  0.34730048  1
  Zn  Zn25  1  0.00470700  0.01511522  0.84730048  1
  Zn  Zn26  1  0.68073229  0.33649345  0.68146553  1
  Zn  Zn27  1  0.65576216  0.33649345  0.18146553  1
  Zn  Zn28  1  0.29491542  0.67401906  0.01286282  1
  Zn  Zn29  1  0.37910264  0.67401906  0.51286282  1
  Si  Si30  1  0.30648267  0.01256579  0.25229528  1
  Si  Si31  1  0.70608312  0.01256579  0.75229528  1
  Si  Si32  1  0.66083552  0.62399348  0.58467891  1
  Si  Si33  1  0.96315895  0.62399348  0.08467891  1
  Si  Si34  1  0.32324012  0.97281518  0.91440806  1
  Si  Si35  1  0.64957406  0.97281518  0.41440806  1
  S  S36  1  0.70228410  0.69674197  0.25361242  1
  S  S37  1  0.99569636  0.29587289  0.24921230  1
  S  S38  1  0.30017652  0.29587289  0.74921230  1
  S  S39  1  0.99445787  0.69674197  0.75361242  1
  S  S40  1  0.97511990  0.34161520  0.58557432  1
  S  S41  1  0.36998580  0.03310854  0.58477266  1
  S  S42  1  0.66312374  0.03310854  0.08477266  1
  S  S43  1  0.36649629  0.34161520  0.08557432  1
  S  S44  1  0.62920792  0.67030657  0.91859560  1
  S  S45  1  0.03516515  0.36304857  0.92079784  1
  S  S46  1  0.32788242  0.36304857  0.42079784  1
  S  S47  1  0.04109764  0.67030657  0.41859560  1
  O  O48  1  0.21324028  0.02438085  0.31175964  1
  O  O49  1  0.79932271  0.77638941  0.30624668  1
  O  O50  1  0.97760461  0.18836426  0.29989501  1
  O  O51  1  0.21075965  0.18836426  0.79989501  1
  O  O52  1  0.97706670  0.77638941  0.80624668  1
  O  O53  1  0.81114057  0.02438085  0.81175964  1
  O  O54  1  0.78933634  0.98005614  0.69473556  1
  O  O55  1  0.20988497  0.22189212  0.69429689  1
  O  O56  1  0.02733834  0.80789837  0.70160485  1
  O  O57  1  0.78056003  0.80789837  0.20160485  1
  O  O58  1  0.01200715  0.22189212  0.19429689  1
  O  O59  1  0.19071980  0.98005614  0.19473556  1
  O  O60  1  0.89075927  0.35377374  0.63758905  1
  O  O61  1  0.47287247  0.11110331  0.63667035  1
  O  O62  1  0.64086877  0.50887055  0.64282859  1
  O  O63  1  0.86800277  0.50887055  0.14282859  1
  O  O64  1  0.63823184  0.11110331  0.13667035  1
  O  O65  1  0.46301547  0.35377374  0.13758905  1
  O  O66  1  0.43999800  0.30654560  0.03364031  1
  O  O67  1  0.86636520  0.53878388  0.02460513  1
  O  O68  1  0.68216139  0.13495695  0.03116159  1
  O  O69  1  0.45279656  0.13495695  0.53116159  1
  O  O70  1  0.67241969  0.53878388  0.52460513  1
  O  O71  1  0.86654861  0.30654560  0.53364031  1
  O  O72  1  0.53016809  0.67431423  0.96802023  1
  O  O73  1  0.13113494  0.44087450  0.97430192  1
  O  O74  1  0.29197655  0.85891984  0.97461002  1
  O  O75  1  0.56694228  0.85891984  0.47461002  1
  O  O76  1  0.30973856  0.44087450  0.47430192  1
  O  O77  1  0.14414514  0.67431423  0.46802023  1
  O  O78  1  0.11087106  0.65050297  0.36272790  1
  O  O79  1  0.52850720  0.88212203  0.35837387  1
  O  O80  1  0.34478047  0.46655428  0.36891477  1
  O  O81  1  0.12177281  0.46655428  0.86891477  1
  O  O82  1  0.35361383  0.88212203  0.85837387  1
  O  O83  1  0.53963091  0.65050297  0.86272790  1
  O  O84  1  0.03121975  0.82524107  0.41672408  1
  O  O85  1  0.82982712  0.97769226  0.40670781  1
  O  O86  1  0.18559261  0.19320548  0.41748813  1
  O  O87  1  0.00761287  0.19320548  0.91748813  1
  O  O88  1  0.14786513  0.97769226  0.90670781  1
  O  O89  1  0.79402132  0.82524107  0.91672408  1
  O  O90  1  0.00182981  0.19385819  0.58965882  1
  O  O91  1  0.20763820  0.03049571  0.58841279  1
  O  O92  1  0.81772840  0.81755071  0.58509874  1
  O  O93  1  -0.00017769  0.81755071  0.08509874  1
  O  O94  1  0.82285751  0.03049571  0.08841279  1
  O  O95  1  0.19202837  0.19385819  0.08965882  1
  O  O96  1  0.67193849  0.17033646  0.74414808  1
  O  O97  1  0.46904127  0.31305722  0.74810684  1
  O  O98  1  0.83951611  0.53681239  0.74690308  1
  O  O99  1  0.69729728  0.53681239  0.24690308  1
  O  O100  1  0.84401696  0.31305722  0.24810684  1
  O  O101  1  0.49839896  0.17033646  0.24414808  1
  O  O102  1  0.66249973  0.52858377  0.92145737  1
  O  O103  1  0.86738718  0.35343587  0.92200691  1
  O  O104  1  0.50126688  0.14889322  0.91843327  1
  O  O105  1  0.64762734  0.14889322  0.41843327  1
  O  O106  1  0.48604968  0.35343587  0.42200691  1
  O  O107  1  0.86608504  0.52858377  0.42145737  1
  O  O108  1  0.35045022  0.49038792  0.07747102  1
  O  O109  1  0.15252492  0.63898141  0.08391780  1
  O  O110  1  0.51762165  0.86520801  0.07965447  1
  O  O111  1  0.34758536  0.86520801  0.57965447  1
  O  O112  1  0.48645549  0.63898141  0.58391780  1
  O  O113  1  0.13993670  0.49038792  0.57747102  1
  O  O114  1  0.32058080  0.83856954  0.25371689  1
  O  O115  1  0.53099696  0.67405567  0.25616588  1
  O  O116  1  0.14484255  0.46534921  0.25346993  1
  O  O117  1  0.32050566  0.46534921  0.75346993  1
  O  O118  1  0.14305771  0.67405567  0.75616588  1
  O  O119  1  0.51798774  0.83856954  0.75371689  1
