# generated using pymatgen
data_PaCl5
_symmetry_space_group_name_H-M   'P 1'
_cell_length_a   7.10291966
_cell_length_b   7.10291911
_cell_length_c   8.45642197
_cell_angle_alpha   99.47537603
_cell_angle_beta   99.47537558
_cell_angle_gamma   109.70600588
_symmetry_Int_Tables_number   1
_chemical_formula_structural   PaCl5
_chemical_formula_sum   'Pa2 Cl10'
_cell_volume   384.87975068
_cell_formula_units_Z   2
loop_
 _symmetry_equiv_pos_site_id
 _symmetry_equiv_pos_as_xyz
  1  'x, y, z'
loop_
 _atom_site_type_symbol
 _atom_site_label
 _atom_site_symmetry_multiplicity
 _atom_site_fract_x
 _atom_site_fract_y
 _atom_site_fract_z
 _atom_site_occupancy
  Pa  Pa0  1  0.07060763  0.92939237  0.25000000  1
  Pa  Pa1  1  0.92939237  0.07060763  0.75000000  1
  Cl  Cl2  1  0.12714166  0.87243763  0.93565105  1
  Cl  Cl3  1  0.12756237  0.87285834  0.56434895  1
  Cl  Cl4  1  0.71395430  0.28604570  0.75000000  1
  Cl  Cl5  1  0.28604570  0.71395430  0.25000000  1
  Cl  Cl6  1  0.62054725  0.74651113  0.66220712  1
  Cl  Cl7  1  0.25348887  0.37945275  0.83779288  1
  Cl  Cl8  1  0.37945275  0.25348887  0.33779288  1
  Cl  Cl9  1  0.74651113  0.62054725  0.16220712  1
  Cl  Cl10  1  0.87243763  0.12714166  0.43565105  1
  Cl  Cl11  1  0.87285834  0.12756237  0.06434895  1
