# generated using pymatgen
data_LaNb3Si3(SO8)3
_symmetry_space_group_name_H-M   'P 1'
_cell_length_a   9.11072312
_cell_length_b   9.10175386
_cell_length_c   23.35983050
_cell_angle_alpha   89.40436804
_cell_angle_beta   90.09616769
_cell_angle_gamma   120.02216603
_symmetry_Int_Tables_number   1
_chemical_formula_structural   LaNb3Si3(SO8)3
_chemical_formula_sum   'La3 Nb9 Si9 S9 O72'
_cell_volume   1677.08140635
_cell_formula_units_Z   3
loop_
 _symmetry_equiv_pos_site_id
 _symmetry_equiv_pos_as_xyz
  1  'x, y, z'
loop_
 _atom_site_type_symbol
 _atom_site_label
 _atom_site_symmetry_multiplicity
 _atom_site_fract_x
 _atom_site_fract_y
 _atom_site_fract_z
 _atom_site_occupancy
  La  La0  1  0.00207656  0.00763186  0.36816183  1
  La  La1  1  0.67367563  0.34392048  0.69574613  1
  La  La2  1  0.67221030  0.33035290  0.18174711  1
  Nb  Nb3  1  0.00840436  0.98503586  0.85989375  1
  Nb  Nb4  1  0.01565101  0.01778036  0.64856134  1
  Nb  Nb5  1  0.99808678  0.99366111  0.13739250  1
  Nb  Nb6  1  0.68256997  0.33974920  0.97361730  1
  Nb  Nb7  1  0.66709957  0.31962408  0.47708777  1
  Nb  Nb8  1  0.34558585  0.68757589  0.01741260  1
  Nb  Nb9  1  0.33706449  0.65652731  0.52324810  1
  Nb  Nb10  1  0.34662309  0.66983382  0.31246222  1
  Nb  Nb11  1  0.34292735  0.67407453  0.80929346  1
  Si  Si12  1  0.27076972  0.28826342  0.75672672  1
  Si  Si13  1  0.01908257  0.72954297  0.75181812  1
  Si  Si14  1  0.95582476  0.32810628  0.58302337  1
  Si  Si15  1  0.96420814  0.62235983  0.07869069  1
  Si  Si16  1  0.66774344  0.04308483  0.08015278  1
  Si  Si17  1  0.61584857  0.66256976  0.91474070  1
  Si  Si18  1  0.34760549  0.96128613  0.91421868  1
  Si  Si19  1  0.59727718  0.94922557  0.41869733  1
  Si  Si20  1  0.36140101  0.39953558  0.41940510  1
  S  S21  1  0.27689713  0.97873380  0.24976822  1
  S  S22  1  0.70418121  0.72127350  0.24898073  1
  S  S23  1  0.02232471  0.30183498  0.24930993  1
  S  S24  1  0.71804709  0.98261803  0.75304633  1
  S  S25  1  0.36754998  0.03602938  0.58056059  1
  S  S26  1  0.67387279  0.63459980  0.58079929  1
  S  S27  1  0.36435375  0.33422954  0.07918148  1
  S  S28  1  0.04920088  0.38170264  0.91574280  1
  S  S29  1  0.04718505  0.64207877  0.41923234  1
  O  O30  1  0.19963134  0.00004546  0.30144208  1
  O  O31  1  0.80193670  0.79311498  0.30051447  1
  O  O32  1  0.99603665  0.19906308  0.30106889  1
  O  O33  1  0.15860094  0.16890885  0.81010423  1
  O  O34  1  0.99744808  0.82578651  0.80876612  1
  O  O35  1  0.81727677  0.99769673  0.80418095  1
  O  O36  1  0.79942153  0.96469889  0.69908254  1
  O  O37  1  0.15534845  0.19637992  0.69566869  1
  O  O38  1  0.03519170  0.84933679  0.69462585  1
  O  O39  1  0.79114064  0.82879022  0.19709564  1
  O  O40  1  0.04305445  0.21805853  0.19800154  1
  O  O41  1  0.17168483  0.96341390  0.19793066  1
  O  O42  1  0.88913192  0.37284011  0.63838877  1
  O  O43  1  0.46954529  0.09541332  0.63130065  1
  O  O44  1  0.62269040  0.53034472  0.63226251  1
  O  O45  1  0.90112610  0.52999876  0.13879251  1
  O  O46  1  0.62050269  0.09493447  0.13879519  1
  O  O47  1  0.46066835  0.37501975  0.13242521  1
  O  O48  1  0.44411488  0.29446492  0.03167912  1
  O  O49  1  0.82972452  0.52578075  0.02628272  1
  O  O50  1  0.70061768  0.17545219  0.02721604  1
  O  O51  1  0.45533868  0.15471946  0.52996274  1
  O  O52  1  0.69577343  0.54644153  0.53121023  1
  O  O53  1  0.82425149  0.30240724  0.52767073  1
  O  O54  1  0.51504263  0.68155669  0.96940160  1
  O  O55  1  0.15158182  0.45781988  0.96701341  1
  O  O56  1  0.31274740  0.83742767  0.97029230  1
  O  O57  1  0.48906016  0.83895381  0.47313881  1
  O  O58  1  0.33908207  0.50023902  0.47324861  1
  O  O59  1  0.14898657  0.66078689  0.47042068  1
  O  O60  1  0.12613920  0.62198713  0.36599996  1
  O  O61  1  0.48297850  0.85950069  0.35932707  1
  O  O62  1  0.37518813  0.51690812  0.36062964  1
  O  O63  1  0.12305534  0.49168623  0.86439550  1
  O  O64  1  0.37175678  0.86225302  0.86068098  1
  O  O65  1  0.49302807  0.63392748  0.85961181  1
  O  O66  1  0.02688686  0.79079146  0.41566460  1
  O  O67  1  0.77696097  0.96567931  0.41587447  1
  O  O68  1  0.19968541  0.21788941  0.41662847  1
  O  O69  1  0.01761405  0.20825807  0.90849615  1
  O  O70  1  0.17806134  0.98093611  0.90674190  1
  O  O71  1  0.80292658  0.83045869  0.90426175  1
  O  O72  1  0.97374018  0.15672549  0.59423337  1
  O  O73  1  0.19937468  0.02798546  0.58779394  1
  O  O74  1  0.82483305  0.80355563  0.58841766  1
  O  O75  1  0.98486880  0.81877168  0.09373233  1
  O  O76  1  0.84197938  0.02505216  0.09543328  1
  O  O77  1  0.19245067  0.17235100  0.09195174  1
  O  O78  1  0.69249960  0.12652374  0.74877009  1
  O  O79  1  0.44521814  0.29545473  0.74842735  1
  O  O80  1  0.85465910  0.54939815  0.75046355  1
  O  O81  1  0.66203519  0.54539788  0.24135286  1
  O  O82  1  0.88022418  0.33370618  0.24385860  1
  O  O83  1  0.44974398  0.12140792  0.24308720  1
  O  O84  1  0.64003906  0.49788151  0.93087884  1
  O  O85  1  0.87546095  0.36790100  0.92393955  1
  O  O86  1  0.50958869  0.14708955  0.93025715  1
  O  O87  1  0.61575514  0.13941179  0.42832946  1
  O  O88  1  0.53441925  0.39325479  0.43238826  1
  O  O89  1  0.87585164  0.48691049  0.42578914  1
  O  O90  1  0.32508343  0.46852526  0.06511561  1
  O  O91  1  0.14906664  0.65197228  0.06127268  1
  O  O92  1  0.51804564  0.85021186  0.06394577  1
  O  O93  1  0.33194680  0.86173454  0.56662503  1
  O  O94  1  0.52555782  0.66591372  0.56846760  1
  O  O95  1  0.14559322  0.48524971  0.56406993  1
  O  O96  1  0.28446987  0.81657796  0.25697280  1
  O  O97  1  0.53362743  0.71744167  0.25576128  1
  O  O98  1  0.18217797  0.47258050  0.25795084  1
  O  O99  1  0.28418226  0.47369467  0.76569462  1
  O  O100  1  0.19327872  0.72248676  0.76338627  1
  O  O101  1  0.54784074  0.82181893  0.75661810  1
