# generated using pymatgen
data_Ho6MgWO12
_symmetry_space_group_name_H-M   'P 1'
_cell_length_a   6.54723104
_cell_length_b   6.54723114
_cell_length_c   6.54723121
_cell_angle_alpha   93.08589639
_cell_angle_beta   93.08589587
_cell_angle_gamma   93.08589627
_symmetry_Int_Tables_number   1
_chemical_formula_structural   Ho6MgWO12
_chemical_formula_sum   'Ho6 Mg1 W1 O12'
_cell_volume   279.38850305
_cell_formula_units_Z   1
loop_
 _symmetry_equiv_pos_site_id
 _symmetry_equiv_pos_as_xyz
  1  'x, y, z'
loop_
 _atom_site_type_symbol
 _atom_site_label
 _atom_site_symmetry_multiplicity
 _atom_site_fract_x
 _atom_site_fract_y
 _atom_site_fract_z
 _atom_site_occupancy
  Ho  Ho0  1  0.07843578  0.26359164  0.56260741  1
  Ho  Ho1  1  0.73640936  0.43739259  0.92156322  1
  Ho  Ho2  1  0.43739159  0.92156322  0.73640836  1
  Ho  Ho3  1  0.56260841  0.07843678  0.26359164  1
  Ho  Ho4  1  0.26359164  0.56260741  0.07843678  1
  Ho  Ho5  1  0.92156422  0.73640836  0.43739259  1
  Mg  Mg6  1  0.50000000  0.50000000  0.50000000  1
  W  W7  1  -0.00000000  -0.00000000  -0.00000000  1
  O  O8  1  0.40782338  0.19135430  0.54083030  1
  O  O9  1  0.19135330  0.54082930  0.40782238  1
  O  O10  1  0.54083030  0.40782338  0.19135430  1
  O  O11  1  0.59217762  0.80864570  0.45916970  1
  O  O12  1  0.80864670  0.45917070  0.59217762  1
  O  O13  1  0.45916970  0.59217662  0.80864570  1
  O  O14  1  0.07792897  0.93024527  0.69709878  1
  O  O15  1  0.30290022  0.92207203  0.06975473  1
  O  O16  1  0.06975473  0.30290122  0.92207203  1
  O  O17  1  0.93024627  0.69709878  0.07792797  1
  O  O18  1  0.69709978  0.07792797  0.93024527  1
  O  O19  1  0.92207103  0.06975473  0.30290122  1
