# generated using pymatgen
data_Na2Nb2Al2Si3(SO8)3
_symmetry_space_group_name_H-M   'P 1'
_cell_length_a   8.69229368
_cell_length_b   8.68556270
_cell_length_c   22.53597519
_cell_angle_alpha   89.62529323
_cell_angle_beta   90.67151146
_cell_angle_gamma   119.70896379
_symmetry_Int_Tables_number   1
_chemical_formula_structural   Na2Nb2Al2Si3(SO8)3
_chemical_formula_sum   'Na6 Nb6 Al6 Si9 S9 O72'
_cell_volume   1477.66349447
_cell_formula_units_Z   3
loop_
 _symmetry_equiv_pos_site_id
 _symmetry_equiv_pos_as_xyz
  1  'x, y, z'
loop_
 _atom_site_type_symbol
 _atom_site_label
 _atom_site_symmetry_multiplicity
 _atom_site_fract_x
 _atom_site_fract_y
 _atom_site_fract_z
 _atom_site_occupancy
  Na  Na0  1  0.98946209  0.98741620  0.49238847  1
  Na  Na1  1  0.00502139  0.99163598  0.99717854  1
  Na  Na2  1  0.65476685  0.32132223  0.82618302  1
  Na  Na3  1  0.66999890  0.32268806  0.32849504  1
  Na  Na4  1  0.32012256  0.66168349  0.16765640  1
  Na  Na5  1  0.34239879  0.66245329  0.65973819  1
  Nb  Nb6  1  0.98872881  0.00205778  0.64447200  1
  Nb  Nb7  1  0.00728856  0.99619760  0.14977569  1
  Nb  Nb8  1  0.66639641  0.33498992  0.97859592  1
  Nb  Nb9  1  0.67702663  0.34587506  0.47383732  1
  Nb  Nb10  1  0.31952620  0.67633148  0.31168495  1
  Nb  Nb11  1  0.34676262  0.68286015  0.80707838  1
  Al  Al12  1  0.00454967  0.00565090  0.35517699  1
  Al  Al13  1  0.01873039  0.01442646  0.84873474  1
  Al  Al14  1  0.64328161  0.32627860  0.68812817  1
  Al  Al15  1  0.68675969  0.33845518  0.19337669  1
  Al  Al16  1  0.31077314  0.67428040  0.02120870  1
  Al  Al17  1  0.35573372  0.68281558  0.51542062  1
  Si  Si18  1  0.30301130  0.02264515  0.25431659  1
  Si  Si19  1  0.99676632  0.28286506  0.25407675  1
  Si  Si20  1  0.29269582  0.28281319  0.75159071  1
  Si  Si21  1  0.72997208  0.02435372  0.75314571  1
  Si  Si22  1  0.64947682  0.61056917  0.58568489  1
  Si  Si23  1  0.95712760  0.61668619  0.08760301  1
  Si  Si24  1  0.31501623  0.94935531  0.91786318  1
  Si  Si25  1  0.63275454  0.94992714  0.41782002  1
  Si  Si26  1  0.06096512  0.68804055  0.42114646  1
  S  S27  1  0.71257968  0.70665167  0.25119635  1
  S  S28  1  0.99106456  0.70966807  0.75108007  1
  S  S29  1  0.95683991  0.34346901  0.58467114  1
  S  S30  1  0.38165532  0.04241616  0.58435523  1
  S  S31  1  0.65862464  0.03778071  0.08384231  1
  S  S32  1  0.38043959  0.34336451  0.08321084  1
  S  S33  1  0.62128487  0.67467781  0.91904833  1
  S  S34  1  0.05135951  0.37815195  0.91817249  1
  S  S35  1  0.32562229  0.37846468  0.41791572  1
  O  O36  1  0.19709275  0.03338179  0.30933007  1
  O  O37  1  0.82247922  0.78709564  0.30360933  1
  O  O38  1  0.97057925  0.15748647  0.30887851  1
  O  O39  1  0.20336151  0.16671605  0.80926323  1
  O  O40  1  0.96898404  0.79213486  0.80467929  1
  O  O41  1  0.83951527  0.02825004  0.81135133  1
  O  O42  1  0.80170204  0.96888682  0.69312685  1
  O  O43  1  0.16608611  0.19385701  0.69210498  1
  O  O44  1  0.03010159  0.82087521  0.69713728  1
  O  O45  1  0.79299283  0.81953686  0.19559632  1
  O  O46  1  0.02357086  0.19034509  0.19144532  1
  O  O47  1  0.17186617  0.96854992  0.19228538  1
  O  O48  1  0.87060538  0.35841590  0.63762803  1
  O  O49  1  0.48945466  0.12404434  0.63849883  1
  O  O50  1  0.63976283  0.49401771  0.64260860  1
  O  O51  1  0.84747126  0.49044859  0.14130192  1
  O  O52  1  0.62992830  0.11944171  0.13569271  1
  O  O53  1  0.48628188  0.36451120  0.13594374  1
  O  O54  1  0.45961424  0.30726634  0.02840047  1
  O  O55  1  0.83191472  0.52215353  0.02615697  1
  O  O56  1  0.68645079  0.15113014  0.02888112  1
  O  O57  1  0.45918087  0.15142096  0.53102616  1
  O  O58  1  0.68912487  0.52329434  0.52654910  1
  O  O59  1  0.84609185  0.30509133  0.52988113  1
  O  O60  1  0.53256327  0.68869899  0.97178668  1
  O  O61  1  0.15832968  0.46127281  0.97215338  1
  O  O62  1  0.30212281  0.83188033  0.97475826  1
  O  O63  1  0.54066432  0.83377109  0.47542781  1
  O  O64  1  0.30553349  0.46127479  0.47166695  1
  O  O65  1  0.17422236  0.69283658  0.47826439  1
  O  O66  1  0.12980409  0.63334946  0.35975571  1
  O  O67  1  0.50069760  0.85958456  0.35898158  1
  O  O68  1  0.36307350  0.48674059  0.36376545  1
  O  O69  1  0.12539521  0.48613096  0.86460237  1
  O  O70  1  0.35781978  0.86087859  0.85956140  1
  O  O71  1  0.51133831  0.63728403  0.86379428  1
  O  O72  1  0.03069675  0.85118632  0.40807468  1
  O  O73  1  0.82754093  0.98221733  0.40678857  1
  O  O74  1  0.17236289  0.20111412  0.41220372  1
  O  O75  1  0.02451894  0.19810507  0.91295457  1
  O  O76  1  0.14248260  0.97078519  0.90729673  1
  O  O77  1  0.79739146  0.82778780  0.91193616  1
  O  O78  1  0.97411519  0.17612162  0.58793177  1
  O  O79  1  0.20126860  0.02515035  0.59040307  1
  O  O80  1  0.83599100  0.81007281  0.59183393  1
  O  O81  1  0.97205971  0.81457464  0.08828557  1
  O  O82  1  0.82189480  0.02473268  0.08687878  1
  O  O83  1  0.20048939  0.18116331  0.08602392  1
  O  O84  1  0.70067024  0.18810223  0.73833735  1
  O  O85  1  0.48857439  0.31420161  0.74287673  1
  O  O86  1  0.84048202  0.53236177  0.74374377  1
  O  O87  1  0.69407921  0.53119578  0.24119044  1
  O  O88  1  0.82944931  0.31158057  0.24348141  1
  O  O89  1  0.48953181  0.18944420  0.23619828  1
  O  O90  1  0.63873907  0.50827349  0.92318775  1
  O  O91  1  0.86765394  0.35997826  0.92402666  1
  O  O92  1  0.49892901  0.14839813  0.92576390  1
  O  O93  1  0.63867029  0.14492051  0.42640958  1
  O  O94  1  0.48809224  0.35612141  0.42353716  1
  O  O95  1  0.85991829  0.50266039  0.42489938  1
  O  O96  1  0.36431186  0.50230619  0.07200501  1
  O  O97  1  0.15033116  0.63555228  0.07691908  1
  O  O98  1  0.50428629  0.85898452  0.07408610  1
  O  O99  1  0.35899625  0.86322712  0.57895045  1
  O  O100  1  0.47944666  0.63715162  0.57491686  1
  O  O101  1  0.13391197  0.49540073  0.57777022  1
  O  O102  1  0.31666572  0.83768653  0.25420472  1
  O  O103  1  0.53591327  0.69052180  0.25393670  1
  O  O104  1  0.18172232  0.47692038  0.25620451  1
  O  O105  1  0.30464453  0.48028787  0.76020131  1
  O  O106  1  0.15548708  0.69118506  0.75694281  1
  O  O107  1  0.52831888  0.83915325  0.75783379  1
