# generated using pymatgen
data_Na6Nb20Zn4Si21(S5O48)3
_symmetry_space_group_name_H-M   'P 1'
_cell_length_a   17.78653892
_cell_length_b   8.89355120
_cell_length_c   23.00271229
_cell_angle_alpha   89.99875123
_cell_angle_beta   89.99132401
_cell_angle_gamma   119.92391957
_symmetry_Int_Tables_number   1
_chemical_formula_structural   Na6Nb20Zn4Si21(S5O48)3
_chemical_formula_sum   'Na6 Nb20 Zn4 Si21 S15 O144'
_cell_volume   3153.61566406
_cell_formula_units_Z   1
loop_
 _symmetry_equiv_pos_site_id
 _symmetry_equiv_pos_as_xyz
  1  'x, y, z'
loop_
 _atom_site_type_symbol
 _atom_site_label
 _atom_site_symmetry_multiplicity
 _atom_site_fract_x
 _atom_site_fract_y
 _atom_site_fract_z
 _atom_site_occupancy
  Na  Na0  1  0.99865710  0.99744119  0.49898412  1
  Na  Na1  1  0.49992075  0.00151826  0.00172029  1
  Na  Na2  1  0.33518362  0.32308068  0.83687200  1
  Na  Na3  1  0.83232682  0.33226127  0.83437971  1
  Na  Na4  1  0.33463882  0.33380815  0.33280761  1
  Na  Na5  1  0.83173220  0.34380332  0.33413323  1
  Nb  Nb6  1  0.50259788  0.99104141  0.36012303  1
  Nb  Nb7  1  0.99454340  0.00163822  0.86186095  1
  Nb  Nb8  1  0.49275977  0.99125844  0.63852871  1
  Nb  Nb9  1  0.99261656  0.99408021  0.13865934  1
  Nb  Nb10  1  0.33556230  0.33620437  0.68714202  1
  Nb  Nb11  1  0.83772057  0.32108946  0.68497057  1
  Nb  Nb12  1  0.33920462  0.35769774  0.18632831  1
  Nb  Nb13  1  0.83176856  0.32567389  0.19129515  1
  Nb  Nb14  1  0.33432879  0.33496312  0.97889290  1
  Nb  Nb15  1  0.84079330  0.34231374  0.97829114  1
  Nb  Nb16  1  0.34046777  0.33953696  0.47604273  1
  Nb  Nb17  1  0.83332547  0.33070102  0.47701388  1
  Nb  Nb18  1  0.16028873  0.66143036  0.02539364  1
  Nb  Nb19  1  0.66480743  0.65709652  0.02535775  1
  Nb  Nb20  1  0.16545635  0.67351409  0.52373468  1
  Nb  Nb21  1  0.66055312  0.65993181  0.52379432  1
  Nb  Nb22  1  0.16716060  0.67773234  0.31203573  1
  Nb  Nb23  1  0.66618216  0.65879994  0.30607315  1
  Nb  Nb24  1  0.16777989  0.67951126  0.81026601  1
  Nb  Nb25  1  0.66687646  0.65876233  0.81259090  1
  Zn  Zn26  1  0.99649549  0.97126307  0.35442485  1
  Zn  Zn27  1  0.49641609  0.02412308  0.85452133  1
  Zn  Zn28  1  0.99061181  0.01097507  0.64684041  1
  Zn  Zn29  1  0.49435059  0.95929259  0.15164524  1
  Si  Si30  1  0.64115313  0.99919864  0.24981287  1
  Si  Si31  1  0.35661008  0.71997428  0.25049439  1
  Si  Si32  1  0.85954801  0.71612075  0.25088425  1
  Si  Si33  1  0.35819890  0.00113564  0.75071546  1
  Si  Si34  1  0.85613996  0.99655445  0.74999301  1
  Si  Si35  1  0.47646430  0.33353117  0.58294674  1
  Si  Si36  1  0.97969166  0.32512796  0.58033682  1
  Si  Si37  1  0.69060463  0.04605713  0.58218420  1
  Si  Si38  1  0.32795173  0.61074671  0.58245312  1
  Si  Si39  1  0.47911687  0.63628632  0.08097077  1
  Si  Si40  1  0.97460819  0.61644688  0.08563031  1
  Si  Si41  1  0.82834098  0.04573333  0.08300036  1
  Si  Si42  1  0.19089093  0.33394327  0.08282296  1
  Si  Si43  1  0.80569002  0.65739573  0.91824778  1
  Si  Si44  1  0.02652091  0.38801297  0.91596712  1
  Si  Si45  1  0.52293603  0.37272397  0.91733069  1
  Si  Si46  1  0.16832992  0.95661622  0.91719649  1
  Si  Si47  1  0.30934365  0.95403590  0.41739446  1
  Si  Si48  1  0.66768775  0.38410465  0.41581152  1
  Si  Si49  1  0.02272134  0.67388054  0.41668974  1
  Si  Si50  1  0.52698924  0.66565243  0.41537944  1
  S  S51  1  0.14593340  0.00492920  0.24952510  1
  S  S52  1  0.00131462  0.28634291  0.25188869  1
  S  S53  1  0.49765964  0.28238855  0.24854567  1
  S  S54  1  0.14463166  0.28870302  0.75097056  1
  S  S55  1  0.64575073  0.28780574  0.74973701  1
  S  S56  1  0.99916699  0.71474590  0.74910852  1
  S  S57  1  0.49973195  0.71346061  0.75148251  1
  S  S58  1  0.18853964  0.04931674  0.58325934  1
  S  S59  1  0.83523446  0.62077872  0.58246465  1
  S  S60  1  0.33515466  0.04811501  0.08270280  1
  S  S61  1  0.68916490  0.32844574  0.08283927  1
  S  S62  1  0.31040055  0.66782062  0.91689942  1
  S  S63  1  0.66445679  0.95074301  0.91717035  1
  S  S64  1  0.81069423  0.95248648  0.41703046  1
  S  S65  1  0.16451150  0.37868528  0.41734181  1
  O  O66  1  0.11343779  0.04154827  0.30274299  1
  O  O67  1  0.59735308  0.03375415  0.30788384  1
  O  O68  1  0.41823041  0.80650759  0.30751242  1
  O  O69  1  0.91490292  0.78341602  0.30828470  1
  O  O70  1  0.48381535  0.18055291  0.30158214  1
  O  O71  1  0.98611685  0.18220484  0.30393013  1
  O  O72  1  0.10524031  0.17789931  0.80288903  1
  O  O73  1  0.61299276  0.18498961  0.80271525  1
  O  O74  1  0.48356361  0.78510420  0.80358940  1
  O  O75  1  0.98720162  0.79509318  0.80187588  1
  O  O76  1  0.41289710  0.04437977  0.80834404  1
  O  O77  1  0.91883908  0.02941889  0.80741789  1
  O  O78  1  0.40543268  0.97501803  0.69290476  1
  O  O79  1  0.89129738  0.95598807  0.69306768  1
  O  O80  1  0.09610404  0.21872526  0.69767671  1
  O  O81  1  0.59202381  0.20688282  0.69813374  1
  O  O82  1  0.01616585  0.81526167  0.69651498  1
  O  O83  1  0.51180796  0.81550792  0.69826145  1
  O  O84  1  0.38515541  0.82186877  0.19131265  1
  O  O85  1  0.90677197  0.83969440  0.19298524  1
  O  O86  1  0.01336577  0.20870881  0.19837482  1
  O  O87  1  0.51262508  0.21421497  0.19556813  1
  O  O88  1  0.09221979  0.97847805  0.19797773  1
  O  O89  1  0.59230391  0.96907188  0.19024357  1
  O  O90  1  0.42766148  0.35942946  0.63959323  1
  O  O91  1  0.93219308  0.35792889  0.63955312  1
  O  O92  1  0.24412112  0.13185505  0.63624031  1
  O  O93  1  0.75304999  0.14307762  0.64004098  1
  O  O94  1  0.31630413  0.49383892  0.64061515  1
  O  O95  1  0.82021754  0.51123359  0.63545356  1
  O  O96  1  0.43270275  0.50773265  0.13937264  1
  O  O97  1  0.92762995  0.49299957  0.14008538  1
  O  O98  1  0.31855013  0.12552473  0.13481062  1
  O  O99  1  0.81635263  0.13818315  0.14007622  1
  O  O100  1  0.25339470  0.36184885  0.13975531  1
  O  O101  1  0.74279819  0.35674186  0.13549727  1
  O  O102  1  0.23520227  0.29943190  0.02611107  1
  O  O103  1  0.73364923  0.30993291  0.03004654  1
  O  O104  1  0.41410210  0.51511566  0.02753202  1
  O  O105  1  0.91646418  0.53091949  0.02581968  1
  O  O106  1  0.34340675  0.15508899  0.02905928  1
  O  O107  1  0.84420297  0.17088951  0.02619218  1
  O  O108  1  0.23065678  0.15600356  0.53100704  1
  O  O109  1  0.73511635  0.17120481  0.52663238  1
  O  O110  1  0.34368503  0.51535064  0.52698961  1
  O  O111  1  0.84445302  0.53207507  0.52977742  1
  O  O112  1  0.41546730  0.30058222  0.52581530  1
  O  O113  1  0.91356950  0.30898348  0.52753941  1
  O  O114  1  0.26807744  0.68858684  0.96899997  1
  O  O115  1  0.76380562  0.69396605  0.97415012  1
  O  O116  1  0.08306656  0.47512856  0.97439229  1
  O  O117  1  0.58546510  0.48518283  0.97208523  1
  O  O118  1  0.15595120  0.83359719  0.97276310  1
  O  O119  1  0.65536771  0.84792358  0.96988348  1
  O  O120  1  0.26327790  0.83396580  0.47388949  1
  O  O121  1  0.76830927  0.84881685  0.46985044  1
  O  O122  1  0.15564304  0.46345726  0.47045280  1
  O  O123  1  0.65815411  0.48274043  0.47375464  1
  O  O124  1  0.08488335  0.68561225  0.47223465  1
  O  O125  1  0.58261811  0.68987139  0.47495592  1
  O  O126  1  0.06771797  0.63726300  0.35927134  1
  O  O127  1  0.57044282  0.63236889  0.35977309  1
  O  O128  1  0.24593526  0.85954704  0.36029553  1
  O  O129  1  0.75822995  0.87555448  0.36433107  1
  O  O130  1  0.18131313  0.48920757  0.36469576  1
  O  O131  1  0.68401867  0.50679849  0.35925455  1
  O  O132  1  0.07210568  0.50455507  0.85884328  1
  O  O133  1  0.56887904  0.49889870  0.85926192  1
  O  O134  1  0.18276240  0.86119175  0.85905705  1
  O  O135  1  0.68072243  0.87115904  0.86417865  1
  O  O136  1  0.25646922  0.64176948  0.86368107  1
  O  O137  1  0.74705129  0.63378410  0.85962929  1
  O  O138  1  0.01773435  0.84801030  0.41767799  1
  O  O139  1  0.51384003  0.83304157  0.41081971  1
  O  O140  1  0.40410823  0.98337502  0.40356836  1
  O  O141  1  0.89912799  0.98241882  0.41347876  1
  O  O142  1  0.08770326  0.20819764  0.41069653  1
  O  O143  1  0.58117084  0.19793898  0.40535801  1
  O  O144  1  0.01568351  0.19523637  0.90766370  1
  O  O145  1  0.51729558  0.18798311  0.91745275  1
  O  O146  1  0.08312277  0.97109289  0.90075274  1
  O  O147  1  0.58726492  0.96626253  0.90949018  1
  O  O148  1  0.39804681  0.81512118  0.91158832  1
  O  O149  1  0.90264471  0.82415862  0.90503775  1
  O  O150  1  0.48804135  0.16579388  0.59379173  1
  O  O151  1  0.99058591  0.15866101  0.58309813  1
  O  O152  1  0.10225389  0.02483583  0.59086939  1
  O  O153  1  0.59666580  0.02193588  0.60030592  1
  O  O154  1  0.41698301  0.79792845  0.59346911  1
  O  O155  1  0.91427330  0.78871299  0.58688399  1
  O  O156  1  0.48550215  0.81979096  0.08008448  1
  O  O157  1  0.98864616  0.81073881  0.09346256  1
  O  O158  1  0.41364547  0.03766769  0.08622445  1
  O  O159  1  0.91712007  0.03498232  0.09236204  1
  O  O160  1  0.09693211  0.17144220  0.09946511  1
  O  O161  1  0.60211481  0.18217935  0.08646081  1
  O  O162  1  0.33784028  0.16262250  0.73705742  1
  O  O163  1  0.84594234  0.17657527  0.74413706  1
  O  O164  1  0.23485111  0.31044563  0.74563314  1
  O  O165  1  0.73730976  0.32378417  0.74059152  1
  O  O166  1  0.42036937  0.53049250  0.74291257  1
  O  O167  1  0.92007755  0.53623863  0.74458599  1
  O  O168  1  0.34562154  0.51710029  0.24371513  1
  O  O169  1  0.84295060  0.51896307  0.23648276  1
  O  O170  1  0.41785167  0.30456355  0.24357361  1
  O  O171  1  0.92272025  0.31050824  0.24415352  1
  O  O172  1  0.23738959  0.15163646  0.24043954  1
  O  O173  1  0.74195966  0.17178201  0.24434496  1
  O  O174  1  0.31431517  0.50169190  0.92144303  1
  O  O175  1  0.81399867  0.48311690  0.92332163  1
  O  O176  1  0.42736697  0.36186619  0.92482760  1
  O  O177  1  0.92789441  0.35977612  0.92266736  1
  O  O178  1  0.25329627  0.14767901  0.92341170  1
  O  O179  1  0.74450339  0.12720312  0.92270139  1
  O  O180  1  0.31298339  0.14226046  0.42499218  1
  O  O181  1  0.81545849  0.12847480  0.42280594  1
  O  O182  1  0.24463334  0.36121342  0.42378177  1
  O  O183  1  0.75253289  0.35938165  0.42542273  1
  O  O184  1  0.42761720  0.49442970  0.42331075  1
  O  O185  1  0.92733596  0.49417148  0.42563273  1
  O  O186  1  0.18547764  0.50927768  0.07116228  1
  O  O187  1  0.68627879  0.49478481  0.07604514  1
  O  O188  1  0.07063097  0.63889817  0.07475641  1
  O  O189  1  0.57068040  0.63705349  0.07172734  1
  O  O190  1  0.25641394  0.87433999  0.07316232  1
  O  O191  1  0.74718020  0.85601155  0.07081238  1
  O  O192  1  0.18534958  0.87819056  0.57755805  1
  O  O193  1  0.68577426  0.86140826  0.57185429  1
  O  O194  1  0.24687144  0.63866913  0.57188326  1
  O  O195  1  0.75714431  0.63842710  0.57474588  1
  O  O196  1  0.07131209  0.50655617  0.57169790  1
  O  O197  1  0.57107558  0.50393051  0.57578868  1
  O  O198  1  0.15276105  0.84144704  0.25596231  1
  O  O199  1  0.65744082  0.83711763  0.26676323  1
  O  O200  1  0.25635901  0.67463073  0.26711476  1
  O  O201  1  0.76163615  0.69165310  0.25808171  1
  O  O202  1  0.07823738  0.46392454  0.25777281  1
  O  O203  1  0.57354093  0.46464987  0.25705258  1
  O  O204  1  0.15763423  0.46590765  0.76187265  1
  O  O205  1  0.65264000  0.46449896  0.75654645  1
  O  O206  1  0.07569097  0.68538901  0.75911592  1
  O  O207  1  0.57610465  0.68807573  0.75722970  1
  O  O208  1  0.26041485  0.82591906  0.75901932  1
  O  O209  1  0.75726189  0.83928871  0.76655615  1
