# generated using pymatgen
data_Na4YSi2GePO12
_symmetry_space_group_name_H-M   'P 1'
_cell_length_a   9.22380795
_cell_length_b   9.22379786
_cell_length_c   22.60179980
_cell_angle_alpha   91.65546669
_cell_angle_beta   88.34454248
_cell_angle_gamma   120.65773465
_symmetry_Int_Tables_number   1
_chemical_formula_structural   Na4YSi2GePO12
_chemical_formula_sum   'Na24 Y6 Si12 Ge6 P6 O72'
_cell_volume   1653.24329339
_cell_formula_units_Z   6
loop_
 _symmetry_equiv_pos_site_id
 _symmetry_equiv_pos_as_xyz
  1  'x, y, z'
loop_
 _atom_site_type_symbol
 _atom_site_label
 _atom_site_symmetry_multiplicity
 _atom_site_fract_x
 _atom_site_fract_y
 _atom_site_fract_z
 _atom_site_occupancy
  Na  Na0  1  0.63741440  0.00246126  0.25174712  1
  Na  Na1  1  0.36906311  0.37042178  0.24812705  1
  Na  Na2  1  0.99538269  0.62861332  0.25063937  1
  Na  Na3  1  0.62957823  0.63093688  0.74812694  1
  Na  Na4  1  0.99753840  0.36258609  0.75174703  1
  Na  Na5  1  0.37138772  0.00461782  0.75063932  1
  Na  Na6  1  0.30408118  0.33579951  0.58508052  1
  Na  Na7  1  0.03573234  0.70375366  0.58146356  1
  Na  Na8  1  0.66205190  0.96194683  0.58397160  1
  Na  Na9  1  0.29624778  0.96426950  0.08146332  1
  Na  Na10  1  0.66420139  0.69591853  0.08508071  1
  Na  Na11  1  0.03805356  0.33794770  0.08397178  1
  Na  Na12  1  0.97074920  0.66912816  0.91841786  1
  Na  Na13  1  0.70239744  0.03709266  0.91479672  1
  Na  Na14  1  0.32872337  0.29526625  0.91730359  1
  Na  Na15  1  0.96290692  0.29760314  0.41479682  1
  Na  Na16  1  0.33087189  0.02925010  0.41841804  1
  Na  Na17  1  0.70473457  0.67127683  0.41730398  1
  Na  Na18  1  0.99585769  0.99388822  0.50087956  1
  Na  Na19  1  0.00610672  0.00413860  0.00087950  1
  Na  Na20  1  0.66254514  0.32723062  0.83421416  1
  Na  Na21  1  0.67276916  0.33745482  0.33421416  1
  Na  Na22  1  0.32919919  0.66056697  0.16755024  1
  Na  Na23  1  0.33943354  0.67080093  0.66754992  1
  Y  Y24  1  0.99581911  0.99793540  0.35032701  1
  Y  Y25  1  0.00206418  0.00418104  0.85032592  1
  Y  Y26  1  0.66249769  0.33127715  0.68365949  1
  Y  Y27  1  0.66872356  0.33750324  0.18365922  1
  Y  Y28  1  0.32915485  0.66460177  0.01699244  1
  Y  Y29  1  0.33539828  0.67084332  0.51699263  1
  Si  Si30  1  0.69934547  0.71083087  0.24991036  1
  Si  Si31  1  0.00915799  0.29898085  0.25081684  1
  Si  Si32  1  0.28916923  0.30065469  0.74991028  1
  Si  Si33  1  0.70101894  0.99084158  0.75081671  1
  Si  Si34  1  0.36601793  0.04417138  0.58324224  1
  Si  Si35  1  0.67582381  0.63231539  0.58414840  1
  Si  Si36  1  0.95582886  0.63398267  0.08324204  1
  Si  Si37  1  0.36768459  0.32417638  0.08414840  1
  Si  Si38  1  0.03268227  0.37750474  0.91657560  1
  Si  Si39  1  0.34248606  0.96564381  0.91748269  1
  Si  Si40  1  0.62249447  0.96731749  0.41657583  1
  Si  Si41  1  0.03435692  0.65751383  0.41748297  1
  Ge  Ge42  1  0.99922681  0.99457999  0.65093161  1
  Ge  Ge43  1  0.00542031  0.00077340  0.15093190  1
  Ge  Ge44  1  0.66587037  0.32790150  0.98426892  1
  Ge  Ge45  1  0.67209870  0.33412972  0.48426930  1
  Ge  Ge46  1  0.33254773  0.66123463  0.31760146  1
  Ge  Ge47  1  0.33876521  0.66745239  0.81760139  1
  P  P48  1  0.28967381  0.99029963  0.24868806  1
  P  P49  1  0.00970036  0.71032604  0.74868783  1
  P  P50  1  0.95634691  0.32364313  0.58201621  1
  P  P51  1  0.67635697  0.04365339  0.08201631  1
  P  P52  1  0.62300818  0.65697384  0.91534943  1
  P  P53  1  0.34302669  0.37699161  0.41534940  1
  O  O54  1  0.21989575  0.02726130  0.30504500  1
  O  O55  1  0.81243275  0.78040580  0.30744617  1
  O  O56  1  0.97421755  0.19012893  0.30859656  1
  O  O57  1  0.21959554  0.18756800  0.80744609  1
  O  O58  1  0.97273885  0.78010351  0.80504489  1
  O  O59  1  0.80987129  0.02578193  0.80859608  1
  O  O60  1  0.79838053  0.95839585  0.69063470  1
  O  O61  1  0.16029779  0.20247818  0.69123169  1
  O  O62  1  0.03846335  0.82673361  0.69358553  1
  O  O63  1  0.79752181  0.83970209  0.19123172  1
  O  O64  1  0.04160448  0.20161983  0.19063491  1
  O  O65  1  0.17326606  0.96153692  0.19358548  1
  O  O66  1  0.88655855  0.36059608  0.63837514  1
  O  O67  1  0.47909462  0.11374400  0.64077934  1
  O  O68  1  0.64087387  0.52344364  0.64192696  1
  O  O69  1  0.88625642  0.52090567  0.14077919  1
  O  O70  1  0.63940497  0.11344267  0.13837533  1
  O  O71  1  0.47655589  0.35912526  0.14192670  1
  O  O72  1  0.46504808  0.29171750  0.02396926  1
  O  O73  1  0.82694968  0.53580548  0.02456557  1
  O  O74  1  0.70514472  0.16006831  0.02691744  1
  O  O75  1  0.46419467  0.17305034  0.52456558  1
  O  O76  1  0.70828271  0.53495229  0.52396932  1
  O  O77  1  0.83993161  0.29485483  0.52691723  1
  O  O78  1  0.55322504  0.69392314  0.97170934  1
  O  O79  1  0.14576891  0.44707876  0.97411315  1
  O  O80  1  0.30753959  0.85678231  0.97526204  1
  O  O81  1  0.55291909  0.85422976  0.47411345  1
  O  O82  1  0.30607736  0.44677472  0.47170916  1
  O  O83  1  0.14321904  0.69246023  0.47526213  1
  O  O84  1  0.13171703  0.62505728  0.35730140  1
  O  O85  1  0.49361073  0.86913460  0.35790100  1
  O  O86  1  0.37180368  0.49340305  0.36025164  1
  O  O87  1  0.13086586  0.50638973  0.85790092  1
  O  O88  1  0.37494307  0.86828293  0.85730134  1
  O  O89  1  0.50659672  0.62819579  0.86025138  1
  O  O90  1  0.01338843  0.82079045  0.41210268  1
  O  O91  1  0.81178157  0.99911200  0.41202687  1
  O  O92  1  0.18998323  0.19817664  0.40969476  1
  O  O93  1  0.00088767  0.18821726  0.91202665  1
  O  O94  1  0.17920895  0.98661188  0.91210224  1
  O  O95  1  0.80182353  0.81001721  0.90969483  1
  O  O96  1  0.96553153  0.15942297  0.58574068  1
  O  O97  1  0.17753254  0.03320377  0.59141056  1
  O  O98  1  0.85437408  0.82308935  0.59041839  1
  O  O99  1  0.96679604  0.82246719  0.09141047  1
  O  O100  1  0.84057795  0.03446876  0.08574062  1
  O  O101  1  0.17691116  0.14562593  0.09041829  1
  O  O102  1  0.68004374  0.15411217  0.74543469  1
  O  O103  1  0.47846020  0.33245217  0.74536109  1
  O  O104  1  0.85664069  0.53151946  0.74302982  1
  O  O105  1  0.66754737  0.52153984  0.24536134  1
  O  O106  1  0.84588712  0.31995600  0.24543491  1
  O  O107  1  0.46848038  0.14335837  0.24303012  1
  O  O108  1  0.63219171  0.49275459  0.91907363  1
  O  O109  1  0.84419711  0.36653581  0.92474413  1
  O  O110  1  0.52104526  0.15643011  0.92375182  1
  O  O111  1  0.63346425  0.15580258  0.42474423  1
  O  O112  1  0.50724498  0.36780852  0.41907379  1
  O  O113  1  0.84357035  0.47895501  0.42375178  1
  O  O114  1  0.34672431  0.48745121  0.07876980  1
  O  O115  1  0.14512424  0.66579332  0.07869453  1
  O  O116  1  0.52330462  0.86484467  0.07636090  1
  O  O117  1  0.33420693  0.85487709  0.57869472  1
  O  O118  1  0.51254877  0.65327659  0.57876980  1
  O  O119  1  0.13515566  0.47669584  0.57636090  1
  O  O120  1  0.29885939  0.82608195  0.25240753  1
  O  O121  1  0.51084983  0.69986237  0.25807836  1
  O  O122  1  0.18771630  0.48977613  0.25708625  1
  O  O123  1  0.30013754  0.48914952  0.75807845  1
  O  O124  1  0.17391715  0.70114012  0.75240752  1
  O  O125  1  0.51022402  0.81228377  0.75708625  1
