# generated using pymatgen
data_Na14Zr4Zn4Si7S5O48
_symmetry_space_group_name_H-M   'P 1'
_cell_length_a   18.44450801
_cell_length_b   9.26171458
_cell_length_c   22.39600090
_cell_angle_alpha   90.17640779
_cell_angle_beta   89.46491721
_cell_angle_gamma   119.98229024
_symmetry_Int_Tables_number   1
_chemical_formula_structural   Na14Zr4Zn4Si7S5O48
_chemical_formula_sum   'Na42 Zr12 Zn12 Si21 S15 O144'
_cell_volume   3313.73200279
_cell_formula_units_Z   3
loop_
 _symmetry_equiv_pos_site_id
 _symmetry_equiv_pos_as_xyz
  1  'x, y, z'
loop_
 _atom_site_type_symbol
 _atom_site_label
 _atom_site_symmetry_multiplicity
 _atom_site_fract_x
 _atom_site_fract_y
 _atom_site_fract_z
 _atom_site_occupancy
  Na  Na0  1  0.80749950  0.99295647  0.25682959  1
  Na  Na1  1  0.18256566  0.35195088  0.25900310  1
  Na  Na2  1  0.69213584  0.37124637  0.25971409  1
  Na  Na3  1  0.98888489  0.63751191  0.24409404  1
  Na  Na4  1  0.50306553  0.64590514  0.25574224  1
  Na  Na5  1  0.30772087  0.62330025  0.74327211  1
  Na  Na6  1  0.00160045  0.35542006  0.74813898  1
  Na  Na7  1  0.49233666  0.34812777  0.73683558  1
  Na  Na8  1  0.19135754  0.01298093  0.75397829  1
  Na  Na9  1  0.68582484  0.01512458  0.75302278  1
  Na  Na10  1  0.14965612  0.33086912  0.58658892  1
  Na  Na11  1  0.65885027  0.33519484  0.57809458  1
  Na  Na12  1  0.33720658  0.99352148  0.57734733  1
  Na  Na13  1  0.83650201  0.98318285  0.57606526  1
  Na  Na14  1  0.15688895  0.98151476  0.08591787  1
  Na  Na15  1  0.65026612  0.96796298  0.09167280  1
  Na  Na16  1  0.33579834  0.68769978  0.08639548  1
  Na  Na17  1  0.83550039  0.68573762  0.08304850  1
  Na  Na18  1  0.47886356  0.67658364  0.92586198  1
  Na  Na19  1  0.97423790  0.66787759  0.92108989  1
  Na  Na20  1  0.35583379  0.04783823  0.91504611  1
  Na  Na21  1  0.85265260  0.03817381  0.90901219  1
  Na  Na22  1  0.16935958  0.28021329  0.91414906  1
  Na  Na23  1  0.67138448  0.28797856  0.90627458  1
  Na  Na24  1  0.47693995  0.28475622  0.42193070  1
  Na  Na25  1  0.97368907  0.27075987  0.42618095  1
  Na  Na26  1  0.16880787  0.05638044  0.40579276  1
  Na  Na27  1  0.67820805  0.04931027  0.41184081  1
  Na  Na28  1  0.35445553  0.66948899  0.40935539  1
  Na  Na29  1  0.85220619  0.67526814  0.41794524  1
  Na  Na30  1  0.99104620  0.99539752  0.49061883  1
  Na  Na31  1  0.50434882  0.00099235  0.49389485  1
  Na  Na32  1  0.99910181  0.00022701  0.99726006  1
  Na  Na33  1  0.49955923  0.00260168  0.99777285  1
  Na  Na34  1  0.32538359  0.31888423  0.82410958  1
  Na  Na35  1  0.82260471  0.33388466  0.83386945  1
  Na  Na36  1  0.32465009  0.31365802  0.33740513  1
  Na  Na37  1  0.82354355  0.31529799  0.33318085  1
  Na  Na38  1  0.16942706  0.67904707  0.17113837  1
  Na  Na39  1  0.66103746  0.66258030  0.17967654  1
  Na  Na40  1  0.15928728  0.65570159  0.67485271  1
  Na  Na41  1  0.66895727  0.65961274  0.66291776  1
  Zr  Zr42  1  0.99315849  0.99783161  0.64862907  1
  Zr  Zr43  1  0.50009874  0.01336234  0.64933500  1
  Zr  Zr44  1  0.99965728  0.98846358  0.14946249  1
  Zr  Zr45  1  0.49392001  0.98894048  0.14985313  1
  Zr  Zr46  1  0.83140647  0.33448086  0.68056225  1
  Zr  Zr47  1  0.32984753  0.32538400  0.18204243  1
  Zr  Zr48  1  0.16356386  0.66341439  0.02530425  1
  Zr  Zr49  1  0.66617127  0.67413244  0.01631920  1
  Zr  Zr50  1  0.16663291  0.66062270  0.51699343  1
  Zr  Zr51  1  0.67034662  0.67430185  0.52200886  1
  Zr  Zr52  1  0.17774696  0.67903089  0.31443262  1
  Zr  Zr53  1  0.67778894  0.67747164  0.81332910  1
  Zn  Zn54  1  0.99755259  0.99640271  0.34966328  1
  Zn  Zn55  1  0.49612449  0.98666668  0.34122444  1
  Zn  Zn56  1  0.99520832  0.00292471  0.83898004  1
  Zn  Zn57  1  0.50819564  0.01529879  0.84150995  1
  Zn  Zn58  1  0.33434257  0.31512258  0.68665471  1
  Zn  Zn59  1  0.83405220  0.34795029  0.18773310  1
  Zn  Zn60  1  0.33678837  0.33305498  0.01340681  1
  Zn  Zn61  1  0.83017760  0.34573736  0.97912803  1
  Zn  Zn62  1  0.33240593  0.31945274  0.47893813  1
  Zn  Zn63  1  0.83304910  0.31591304  0.49626188  1
  Zn  Zn64  1  0.68132962  0.70533929  0.31335592  1
  Zn  Zn65  1  0.17273023  0.65923554  0.81097324  1
  Si  Si66  1  0.14702552  0.99698122  0.25418712  1
  Si  Si67  1  0.65026232  0.00804702  0.25048038  1
  Si  Si68  1  0.34996014  0.69097726  0.25236885  1
  Si  Si69  1  0.84899575  0.69977541  0.25439981  1
  Si  Si70  1  0.15031935  0.29102552  0.75223048  1
  Si  Si71  1  0.65091442  0.30430707  0.75332780  1
  Si  Si72  1  0.34964063  0.99401622  0.75730365  1
  Si  Si73  1  0.85048699  0.01066710  0.75344811  1
  Si  Si74  1  0.47636689  0.33496674  0.58325466  1
  Si  Si75  1  0.98788195  0.34134443  0.58452235  1
  Si  Si76  1  0.68065965  0.03380668  0.58150851  1
  Si  Si77  1  0.83845673  0.62871620  0.57429660  1
  Si  Si78  1  0.48617206  0.63416484  0.08274688  1
  Si  Si79  1  0.97353972  0.61730468  0.08310534  1
  Si  Si80  1  0.33837009  0.04000392  0.07466108  1
  Si  Si81  1  0.18175200  0.32638750  0.07930545  1
  Si  Si82  1  0.82182919  0.67409776  0.91866366  1
  Si  Si83  1  0.66375984  0.96952311  0.91595574  1
  Si  Si84  1  0.32206633  0.97014975  0.41929210  1
  Si  Si85  1  0.81748067  0.97727491  0.41476911  1
  Si  Si86  1  0.16781305  0.36419193  0.41659613  1
  S  S87  1  0.00009894  0.29445464  0.25243491  1
  S  S88  1  0.49837991  0.29384841  0.25256908  1
  S  S89  1  0.00000686  0.70400099  0.75347983  1
  S  S90  1  0.49901683  0.70602079  0.75453872  1
  S  S91  1  0.18382947  0.03299702  0.58398880  1
  S  S92  1  0.33225365  0.63047783  0.58326852  1
  S  S93  1  0.83241684  0.03602864  0.08123567  1
  S  S94  1  0.68290149  0.33461046  0.08231538  1
  S  S95  1  0.31247757  0.66167351  0.91526672  1
  S  S96  1  0.02394110  0.37962815  0.91456746  1
  S  S97  1  0.51872357  0.37748176  0.91498241  1
  S  S98  1  0.16722169  0.95535747  0.91384422  1
  S  S99  1  0.66449211  0.37338989  0.41304793  1
  S  S100  1  0.02067079  0.66327534  0.41484841  1
  S  S101  1  0.52220156  0.66667968  0.41477489  1
  O  O102  1  0.10815901  0.03668704  0.31276269  1
  O  O103  1  0.60925311  0.04651528  0.30985998  1
  O  O104  1  0.40327616  0.77363839  0.31217455  1
  O  O105  1  0.90784883  0.79060417  0.31169085  1
  O  O106  1  0.48720033  0.20272886  0.30908380  1
  O  O107  1  0.99368168  0.20630915  0.30868612  1
  O  O108  1  0.11139486  0.17414967  0.81269573  1
  O  O109  1  0.61707164  0.19281224  0.81390672  1
  O  O110  1  0.49090574  0.78026249  0.81130924  1
  O  O111  1  0.99066639  0.77434773  0.81062338  1
  O  O112  1  0.40587876  0.01606634  0.81663693  1
  O  O113  1  0.90287868  0.03387128  0.81390351  1
  O  O114  1  0.39761223  0.96904002  0.69815285  1
  O  O115  1  0.89861660  0.99050943  0.69446931  1
  O  O116  1  0.09045178  0.18577570  0.69482972  1
  O  O117  1  0.58844658  0.20163670  0.69684873  1
  O  O118  1  0.00647292  0.81257588  0.70222388  1
  O  O119  1  0.51105113  0.81739580  0.70310346  1
  O  O120  1  0.39652874  0.80493031  0.19251683  1
  O  O121  1  0.89647441  0.81893999  0.19380367  1
  O  O122  1  0.01248258  0.20699815  0.20028099  1
  O  O123  1  0.50366090  0.19698668  0.20065610  1
  O  O124  1  0.08957085  0.97555862  0.19401875  1
  O  O125  1  0.59202088  0.99546689  0.19153476  1
  O  O126  1  0.43709358  0.35814173  0.64546439  1
  O  O127  1  0.94051077  0.35464182  0.64470396  1
  O  O128  1  0.23479880  0.10841063  0.63796767  1
  O  O129  1  0.74206250  0.12688419  0.63958284  1
  O  O130  1  0.32000243  0.53157116  0.63745502  1
  O  O131  1  0.82351891  0.50542720  0.63128104  1
  O  O132  1  0.43415613  0.51858381  0.13995333  1
  O  O133  1  0.93488431  0.51452389  0.14420540  1
  O  O134  1  0.31973616  0.13726345  0.12861164  1
  O  O135  1  0.82029794  0.11144454  0.13523098  1
  O  O136  1  0.24384519  0.35700052  0.13645390  1
  O  O137  1  0.73429013  0.36081610  0.13567735  1
  O  O138  1  0.22129019  0.29059385  0.01937721  1
  O  O139  1  0.71893439  0.30313384  0.02757890  1
  O  O140  1  0.43070244  0.56024150  0.02213260  1
  O  O141  1  0.91864277  0.54013200  0.02299212  1
  O  O142  1  0.35037995  0.13697980  0.01209288  1
  O  O143  1  0.83849995  0.12534555  0.02556063  1
  O  O144  1  0.22073057  0.13701422  0.52985995  1
  O  O145  1  0.71575090  0.14926901  0.52224508  1
  O  O146  1  0.33803310  0.55063486  0.52782048  1
  O  O147  1  0.84744433  0.54617763  0.51322145  1
  O  O148  1  0.41739102  0.29558335  0.52471792  1
  O  O149  1  0.93305546  0.30366193  0.52478297  1
  O  O150  1  0.26576297  0.67034078  0.96956508  1
  O  O151  1  0.77185622  0.68667217  0.97936722  1
  O  O152  1  0.07620261  0.48049785  0.96634727  1
  O  O153  1  0.57152456  0.47253547  0.96794066  1
  O  O154  1  0.16659751  0.86032519  0.96892192  1
  O  O155  1  0.65369959  0.84744880  0.97433793  1
  O  O156  1  0.27259540  0.85887489  0.48009654  1
  O  O157  1  0.76538763  0.85332947  0.47283864  1
  O  O158  1  0.15878526  0.46704498  0.47521215  1
  O  O159  1  0.66020257  0.46294665  0.46832657  1
  O  O160  1  0.07348530  0.67120373  0.46757705  1
  O  O161  1  0.57374843  0.66937092  0.46625839  1
  O  O162  1  0.06490354  0.65418111  0.35967615  1
  O  O163  1  0.55804640  0.64566040  0.35808413  1
  O  O164  1  0.25847240  0.86094341  0.36381107  1
  O  O165  1  0.76069174  0.90355563  0.35491165  1
  O  O166  1  0.17505900  0.48069560  0.35805008  1
  O  O167  1  0.66421399  0.46593784  0.35916617  1
  O  O168  1  0.06192592  0.47391568  0.85860828  1
  O  O169  1  0.56345901  0.47145787  0.85988423  1
  O  O170  1  0.16893300  0.86372236  0.85989450  1
  O  O171  1  0.67171503  0.86642721  0.85810758  1
  O  O172  1  0.26415873  0.64885429  0.86082424  1
  O  O173  1  0.75838387  0.65632846  0.86321353  1
  O  O174  1  0.01800884  0.81968432  0.41710231  1
  O  O175  1  0.52029545  0.82562847  0.41725808  1
  O  O176  1  0.41340280  0.98165077  0.41521344  1
  O  O177  1  0.90717536  0.97921066  0.41451834  1
  O  O178  1  0.08462978  0.18163292  0.41776777  1
  O  O179  1  0.58848642  0.20417949  0.41663395  1
  O  O180  1  0.02253049  0.21807280  0.91727107  1
  O  O181  1  0.51233901  0.21201637  0.91728608  1
  O  O182  1  0.08968802  0.96676805  0.91819799  1
  O  O183  1  0.57823449  0.98216094  0.91571006  1
  O  O184  1  0.39550391  0.81658553  0.91657845  1
  O  O185  1  0.91317985  0.84462579  0.91500139  1
  O  O186  1  0.48488544  0.16001626  0.58893697  1
  O  O187  1  0.00227891  0.17627172  0.58986187  1
  O  O188  1  0.09809528  0.00849885  0.59067113  1
  O  O189  1  0.58669132  0.00637126  0.59259450  1
  O  O190  1  0.40571630  0.80323592  0.58687179  1
  O  O191  1  0.91573770  0.82128783  0.58539572  1
  O  O192  1  0.50019062  0.82664576  0.08796611  1
  O  O193  1  0.98536478  0.81059106  0.08785351  1
  O  O194  1  0.41578650  0.00460967  0.08518077  1
  O  O195  1  0.90596095  0.00882549  0.08487769  1
  O  O196  1  0.08881276  0.16390633  0.08909653  1
  O  O197  1  0.59682259  0.18733134  0.08872310  1
  O  O198  1  0.34237081  0.16375213  0.75208464  1
  O  O199  1  0.84201581  0.17847255  0.74854144  1
  O  O200  1  0.24699749  0.32698191  0.74319597  1
  O  O201  1  0.74447893  0.32983978  0.74353213  1
  O  O202  1  0.42298900  0.54052566  0.74837497  1
  O  O203  1  0.92669003  0.53308682  0.74695787  1
  O  O204  1  0.34172852  0.50618129  0.24681231  1
  O  O205  1  0.84006562  0.51379935  0.25047959  1
  O  O206  1  0.42472622  0.31859269  0.24525730  1
  O  O207  1  0.92392930  0.30694124  0.24607299  1
  O  O208  1  0.24094403  0.15989637  0.24424341  1
  O  O209  1  0.74664904  0.16369491  0.24212824  1
  O  O210  1  0.32163913  0.51180614  0.91707636  1
  O  O211  1  0.82615665  0.50224574  0.91537162  1
  O  O212  1  0.43682161  0.36801157  0.91678137  1
  O  O213  1  0.93833833  0.35463350  0.92018655  1
  O  O214  1  0.24285367  0.12318012  0.91299269  1
  O  O215  1  0.75140766  0.14871473  0.92016189  1
  O  O216  1  0.32622837  0.15005913  0.41604355  1
  O  O217  1  0.82907998  0.16475101  0.42246091  1
  O  O218  1  0.25633464  0.36246020  0.41993957  1
  O  O219  1  0.74163366  0.36189834  0.41268256  1
  O  O220  1  0.43565252  0.52208633  0.42062990  1
  O  O221  1  0.93834205  0.51398476  0.41614413  1
  O  O222  1  0.17817518  0.50112779  0.07662637  1
  O  O223  1  0.67595010  0.48848157  0.07618611  1
  O  O224  1  0.07380101  0.66443733  0.07619328  1
  O  O225  1  0.58201427  0.66049324  0.08249059  1
  O  O226  1  0.25261042  0.85045908  0.07537854  1
  O  O227  1  0.75472763  0.86010962  0.07927768  1
  O  O228  1  0.17737756  0.86575234  0.57784269  1
  O  O229  1  0.67731396  0.85262280  0.57932469  1
  O  O230  1  0.25486972  0.65201723  0.58121520  1
  O  O231  1  0.75183089  0.64542270  0.57591316  1
  O  O232  1  0.08422198  0.50622911  0.58403561  1
  O  O233  1  0.57487427  0.48438351  0.57537684  1
  O  O234  1  0.14718939  0.81857822  0.25560834  1
  O  O235  1  0.64793816  0.82771140  0.24993614  1
  O  O236  1  0.25346565  0.66100362  0.25043504  1
  O  O237  1  0.75448430  0.67703197  0.25216994  1
  O  O238  1  0.07604995  0.46647705  0.25240071  1
  O  O239  1  0.57556481  0.45827849  0.25148312  1
  O  O240  1  0.15085699  0.47060889  0.75261674  1
  O  O241  1  0.64759756  0.47908282  0.75439528  1
  O  O242  1  0.07784103  0.69284650  0.75210963  1
  O  O243  1  0.57468602  0.68512564  0.75485390  1
  O  O244  1  0.25452661  0.82939203  0.75426249  1
  O  O245  1  0.75411485  0.84782568  0.75142575  1
