# generated using pymatgen
data_Na9Mg5Nb7Si9(SO8)9
_symmetry_space_group_name_H-M   'P 1'
_cell_length_a   8.90878977
_cell_length_b   8.88541013
_cell_length_c   22.76015615
_cell_angle_alpha   89.73749519
_cell_angle_beta   90.25935386
_cell_angle_gamma   119.95837777
_symmetry_Int_Tables_number   1
_chemical_formula_structural   Na9Mg5Nb7Si9(SO8)9
_chemical_formula_sum   'Na9 Mg5 Nb7 Si9 S9 O72'
_cell_volume   1560.91065927
_cell_formula_units_Z   1
loop_
 _symmetry_equiv_pos_site_id
 _symmetry_equiv_pos_as_xyz
  1  'x, y, z'
loop_
 _atom_site_type_symbol
 _atom_site_label
 _atom_site_symmetry_multiplicity
 _atom_site_fract_x
 _atom_site_fract_y
 _atom_site_fract_z
 _atom_site_occupancy
  Na  Na0  1  0.98016588  0.35301080  0.74724531  1
  Na  Na1  1  0.64920054  0.97071352  0.58150616  1
  Na  Na2  1  0.32672125  0.02721018  0.40790257  1
  Na  Na3  1  0.99061547  0.00316350  0.49335238  1
  Na  Na4  1  0.98440283  0.00014644  0.98966172  1
  Na  Na5  1  0.65890949  0.32215774  0.82880195  1
  Na  Na6  1  0.66527474  0.32918151  0.32254429  1
  Na  Na7  1  0.32921297  0.67845738  0.16314174  1
  Na  Na8  1  0.31778630  0.67075173  0.65596469  1
  Mg  Mg9  1  0.99589510  0.00309059  0.35056517  1
  Mg  Mg10  1  0.98427141  0.99865055  0.85723761  1
  Mg  Mg11  1  0.66735470  0.32180887  0.68446089  1
  Mg  Mg12  1  0.66626205  0.31854685  0.18577152  1
  Mg  Mg13  1  0.33177516  0.66787717  0.51979796  1
  Nb  Nb14  1  0.99298325  0.00025379  0.64431512  1
  Nb  Nb15  1  0.00081501  0.99221535  0.14341892  1
  Nb  Nb16  1  0.69440580  0.34543169  0.97770114  1
  Nb  Nb17  1  0.66130413  0.31404651  0.48237525  1
  Nb  Nb18  1  0.33573227  0.66463332  0.02126001  1
  Nb  Nb19  1  0.33854868  0.68201814  0.31083056  1
  Nb  Nb20  1  0.34580333  0.66845406  0.81404351  1
  Si  Si21  1  0.29550593  0.01946688  0.25535977  1
  Si  Si22  1  0.70703669  0.00537179  0.75235679  1
  Si  Si23  1  0.97047214  0.34830355  0.58875271  1
  Si  Si24  1  0.36842987  0.03367591  0.58708754  1
  Si  Si25  1  0.95666278  0.61509229  0.08782205  1
  Si  Si26  1  0.66509673  0.04623440  0.08623787  1
  Si  Si27  1  0.63026265  0.66278467  0.91948262  1
  Si  Si28  1  0.05252431  0.37312134  0.91447693  1
  Si  Si29  1  0.63633642  0.95376925  0.42069519  1
  S  S30  1  0.71062418  0.70900652  0.25076910  1
  S  S31  1  0.00221608  0.29139076  0.25146158  1
  S  S32  1  0.29055524  0.28701097  0.75111838  1
  S  S33  1  0.99939962  0.71314792  0.75179248  1
  S  S34  1  0.66693656  0.61735426  0.58468159  1
  S  S35  1  0.37935285  0.33205856  0.08466353  1
  S  S36  1  0.33418458  0.95613062  0.91644001  1
  S  S37  1  0.33598075  0.38086691  0.41759872  1
  S  S38  1  0.04033495  0.66322082  0.41658410  1
  O  O39  1  0.20307013  0.01685970  0.31535965  1
  O  O40  1  0.81132373  0.79423735  0.30304029  1
  O  O41  1  0.98148981  0.18767819  0.30383530  1
  O  O42  1  0.21428917  0.18429092  0.80361093  1
  O  O43  1  0.99170174  0.80180439  0.80410290  1
  O  O44  1  0.83728089  0.03348879  0.80413161  1
  O  O45  1  0.79868510  0.97162501  0.69095887  1
  O  O46  1  0.17515625  0.20229865  0.69754855  1
  O  O47  1  0.02517148  0.82135503  0.69714458  1
  O  O48  1  0.78620102  0.82026039  0.19650532  1
  O  O49  1  0.02652661  0.21058610  0.19759374  1
  O  O50  1  0.16313171  0.98385489  0.19727174  1
  O  O51  1  0.88824119  0.36883816  0.64766027  1
  O  O52  1  0.49702020  0.13652141  0.63847020  1
  O  O53  1  0.65191490  0.51952866  0.63763907  1
  O  O54  1  0.86906295  0.50611808  0.14425771  1
  O  O55  1  0.61884623  0.11285326  0.14303217  1
  O  O56  1  0.47932886  0.35991414  0.13766498  1
  O  O57  1  0.45415205  0.30543485  0.03084459  1
  O  O58  1  0.83897274  0.53396471  0.02614978  1
  O  O59  1  0.69256813  0.16710347  0.02629562  1
  O  O60  1  0.46053914  0.16045677  0.52346281  1
  O  O61  1  0.69333566  0.53726114  0.53048135  1
  O  O62  1  0.82647625  0.30261075  0.53052166  1
  O  O63  1  0.52059575  0.68206238  0.97367367  1
  O  O64  1  0.16454334  0.49036674  0.97095307  1
  O  O65  1  0.31344854  0.85184151  0.97012909  1
  O  O66  1  0.54057558  0.85127416  0.47839041  1
  O  O67  1  0.31653238  0.46331688  0.46967788  1
  O  O68  1  0.14882369  0.68624792  0.46773792  1
  O  O69  1  0.12290000  0.63573560  0.36188926  1
  O  O70  1  0.49701903  0.85551070  0.36178872  1
  O  O71  1  0.35225942  0.48383710  0.36308377  1
  O  O72  1  0.13501794  0.49602956  0.85480321  1
  O  O73  1  0.36368115  0.87005426  0.86354936  1
  O  O74  1  0.50271850  0.64279726  0.86055760  1
  O  O75  1  0.02521418  0.82007113  0.40960501  1
  O  O76  1  0.82598682  0.98744395  0.40947417  1
  O  O77  1  0.19014196  0.20071350  0.41265305  1
  O  O78  1  0.04289279  0.19146039  0.91488049  1
  O  O79  1  0.17993654  0.96920113  0.90828034  1
  O  O80  1  0.81903630  0.82282728  0.91504004  1
  O  O81  1  0.96175239  0.15088641  0.59071852  1
  O  O82  1  0.17660485  0.01983058  0.59236885  1
  O  O83  1  0.83164904  0.79739519  0.58746014  1
  O  O84  1  0.97858614  0.81485530  0.09251284  1
  O  O85  1  0.84338043  0.02999819  0.09341824  1
  O  O86  1  0.19794083  0.17589197  0.08984361  1
  O  O87  1  0.68278433  0.17264903  0.74758406  1
  O  O88  1  0.46748949  0.32572841  0.74149191  1
  O  O89  1  0.84429137  0.54031366  0.74582704  1
  O  O90  1  0.68615164  0.53625405  0.24336324  1
  O  O91  1  0.85698023  0.32327160  0.24632442  1
  O  O92  1  0.48665550  0.17662098  0.24755477  1
  O  O93  1  0.61815066  0.47249561  0.92482720  1
  O  O94  1  0.85879563  0.36148949  0.92136053  1
  O  O95  1  0.49347349  0.12784178  0.92122026  1
  O  O96  1  0.63521858  0.14810295  0.42202318  1
  O  O97  1  0.50168356  0.37008967  0.42035411  1
  O  O98  1  0.86464123  0.50594470  0.42082929  1
  O  O99  1  0.35081327  0.48571999  0.07774319  1
  O  O100  1  0.15234087  0.65023423  0.07471928  1
  O  O101  1  0.50585921  0.84840870  0.07093822  1
  O  O102  1  0.35499625  0.85035482  0.57642805  1
  O  O103  1  0.52195713  0.64915304  0.57789583  1
  O  O104  1  0.16092852  0.49309378  0.57399391  1
  O  O105  1  0.30413789  0.82537722  0.25876354  1
  O  O106  1  0.52976506  0.69275238  0.25605168  1
  O  O107  1  0.16954879  0.46788677  0.25708551  1
  O  O108  1  0.29027247  0.46073034  0.75403625  1
  O  O109  1  0.15728388  0.68905048  0.75344995  1
  O  O110  1  0.51070471  0.82331527  0.75678222  1
