# generated using pymatgen
data_NaHfTaSi(PO6)2
_symmetry_space_group_name_H-M   'P 1'
_cell_length_a   8.84795048
_cell_length_b   8.84285285
_cell_length_c   23.01861910
_cell_angle_alpha   89.98889824
_cell_angle_beta   90.00000000
_cell_angle_gamma   120.01907126
_symmetry_Int_Tables_number   1
_chemical_formula_structural   NaHfTaSi(PO6)2
_chemical_formula_sum   'Na6 Hf6 Ta6 Si6 P12 O72'
_cell_volume   1559.41417103
_cell_formula_units_Z   6
loop_
 _symmetry_equiv_pos_site_id
 _symmetry_equiv_pos_as_xyz
  1  'x, y, z'
loop_
 _atom_site_type_symbol
 _atom_site_label
 _atom_site_symmetry_multiplicity
 _atom_site_fract_x
 _atom_site_fract_y
 _atom_site_fract_z
 _atom_site_occupancy
  Na  Na0  1  0.00267523  0.00454997  0.49851605  1
  Na  Na1  1  0.00187474  0.00454997  0.99851605  1
  Na  Na2  1  0.67019809  0.33679978  0.83195806  1
  Na  Na3  1  0.66660269  0.33679978  0.33195806  1
  Na  Na4  1  0.33507741  0.66533774  0.16515669  1
  Na  Na5  1  0.33025932  0.66533774  0.66515669  1
  Hf  Hf6  1  0.99991335  0.99831305  0.35386155  1
  Hf  Hf7  1  0.99839970  0.99831305  0.85386155  1
  Hf  Hf8  1  0.67355298  0.33693465  0.68728746  1
  Hf  Hf9  1  0.66338267  0.33693465  0.18728746  1
  Hf  Hf10  1  0.33121752  0.66018276  0.02059375  1
  Hf  Hf11  1  0.32896424  0.66018276  0.52059375  1
  Ta  Ta12  1  0.00134545  0.99989910  0.64576150  1
  Ta  Ta13  1  0.99855365  0.99989910  0.14576150  1
  Ta  Ta14  1  0.66462922  0.33214480  0.97911054  1
  Ta  Ta15  1  0.66751658  0.33214480  0.47911054  1
  Ta  Ta16  1  0.33777418  0.66368915  0.31239286  1
  Ta  Ta17  1  0.32591397  0.66368915  0.81239286  1
  Si  Si18  1  0.71111302  0.71102573  0.25030127  1
  Si  Si19  1  -0.00008729  0.71102573  0.75030127  1
  Si  Si20  1  0.95675241  0.33220225  0.58334760  1
  Si  Si21  1  0.37545084  0.33220225  0.08334760  1
  Si  Si22  1  0.04107293  0.37499209  0.91717123  1
  Si  Si23  1  0.33391817  0.37499209  0.41717123  1
  P  P24  1  0.28642609  0.99704403  0.25010710  1
  P  P25  1  0.00065729  0.28860383  0.25026907  1
  P  P26  1  0.28794654  0.28860383  0.75026907  1
  P  P27  1  0.71061794  0.99704403  0.75010710  1
  P  P28  1  0.37871781  0.04669421  0.58371601  1
  P  P29  1  0.66820079  0.62212977  0.58353707  1
  P  P30  1  0.95392998  0.62212977  0.08353707  1
  P  P31  1  0.66797740  0.04669421  0.08371601  1
  P  P32  1  0.62016902  0.66516475  0.91660660  1
  P  P33  1  0.33489058  0.95472591  0.91696279  1
  P  P34  1  0.61983433  0.95472591  0.41696279  1
  P  P35  1  0.04499473  0.66516475  0.41660660  1
  O  O36  1  0.20582415  0.02892730  0.30386093  1
  O  O37  1  0.82676342  0.80003926  0.30696953  1
  O  O38  1  0.97539441  0.17842441  0.30403907  1
  O  O39  1  0.20303000  0.17842441  0.80403907  1
  O  O40  1  0.97327584  0.80003926  0.80696953  1
  O  O41  1  0.82310315  0.02892730  0.80386093  1
  O  O42  1  0.80103954  0.97166156  0.69544696  1
  O  O43  1  0.17036995  0.20235547  0.69539346  1
  O  O44  1  0.03011860  0.83527982  0.69290706  1
  O  O45  1  0.80516123  0.83527982  0.19290706  1
  O  O46  1  0.03198551  0.20235547  0.19539346  1
  O  O47  1  0.17062202  0.97166156  0.19544696  1
  O  O48  1  0.86596733  0.36013154  0.63963156  1
  O  O49  1  0.48700440  0.12993603  0.63774392  1
  O  O50  1  0.63722913  0.51024069  0.63738233  1
  O  O51  1  0.87301256  0.51024069  0.13738233  1
  O  O52  1  0.64293263  0.12993603  0.13774392  1
  O  O53  1  0.49416521  0.36013154  0.13963156  1
  O  O54  1  0.47149953  0.30311347  0.02620792  1
  O  O55  1  0.83758078  0.53363554  0.02889711  1
  O  O56  1  0.69793591  0.16338430  0.02877223  1
  O  O57  1  0.46544939  0.16338430  0.52877223  1
  O  O58  1  0.69605576  0.53363554  0.52889711  1
  O  O59  1  0.83161494  0.30311347  0.52620792  1
  O  O60  1  0.53887733  0.69517046  0.97081312  1
  O  O61  1  0.16096038  0.46725348  0.97308105  1
  O  O62  1  0.30860197  0.84617039  0.97103430  1
  O  O63  1  0.53756743  0.84617039  0.47103430  1
  O  O64  1  0.30629209  0.46725348  0.47308105  1
  O  O65  1  0.15629213  0.69517046  0.47081312  1
  O  O66  1  0.13177495  0.63738222  0.36201758  1
  O  O67  1  0.50331659  0.86843173  0.36214302  1
  O  O68  1  0.36296006  0.50184968  0.35990964  1
  O  O69  1  0.13888862  0.50184968  0.85990964  1
  O  O70  1  0.36511413  0.86843173  0.86214302  1
  O  O71  1  0.50560627  0.63738222  0.86201758  1
  O  O72  1  0.02081523  0.82407542  0.40979753  1
  O  O73  1  0.80229287  0.97859740  0.40904061  1
  O  O74  1  0.16547237  0.18414311  0.40988048  1
  O  O75  1  0.01867074  0.18414311  0.90988048  1
  O  O76  1  0.17630453  0.97859740  0.90904061  1
  O  O77  1  0.80326019  0.82407542  0.90979753  1
  O  O78  1  0.97385652  0.15622863  0.59183018  1
  O  O79  1  0.19508750  0.02979433  0.59071093  1
  O  O80  1  0.83572428  0.80521861  0.59110779  1
  O  O81  1  0.96949433  0.80521861  0.09110779  1
  O  O82  1  0.83470683  0.02979433  0.09071093  1
  O  O83  1  0.18237211  0.15622863  0.09183018  1
  O  O84  1  0.68443261  0.15495541  0.74241862  1
  O  O85  1  0.46805065  0.30885915  0.74222367  1
  O  O86  1  0.83126197  0.51834356  0.74415322  1
  O  O87  1  0.68708259  0.51834356  0.24415322  1
  O  O88  1  0.84080950  0.30885915  0.24222367  1
  O  O89  1  0.47052380  0.15495541  0.24241862  1
  O  O90  1  0.63745193  0.49885913  0.92475459  1
  O  O91  1  0.84933910  0.36041301  0.92514580  1
  O  O92  1  0.50185331  0.13904448  0.92393001  1
  O  O93  1  0.63719217  0.13904448  0.42393001  1
  O  O94  1  0.51107491  0.36041301  0.42514580  1
  O  O95  1  0.86140820  0.49885913  0.42475459  1
  O  O96  1  0.35487888  0.50289726  0.07756943  1
  O  O97  1  0.13791676  0.64981636  0.07579159  1
  O  O98  1  0.50864337  0.86570707  0.07542093  1
  O  O99  1  0.35706270  0.86570707  0.57542093  1
  O  O100  1  0.51189860  0.64981636  0.57579159  1
  O  O101  1  0.14801738  0.50289726  0.57756943  1
  O  O102  1  0.30073780  0.83015524  0.25767071  1
  O  O103  1  0.51744714  0.69599850  0.25785613  1
  O  O104  1  0.16559584  0.47307238  0.25778978  1
  O  O105  1  0.30747554  0.47307238  0.75778978  1
  O  O106  1  0.17855036  0.69599850  0.75785613  1
  O  O107  1  0.52941645  0.83015524  0.75767071  1
