# generated using pymatgen
data_Na8Ta2Zn2Si5SO24
_symmetry_space_group_name_H-M   'P 1'
_cell_length_a   9.16990144
_cell_length_b   9.16496957
_cell_length_c   22.30303113
_cell_angle_alpha   90.24452065
_cell_angle_beta   89.82750897
_cell_angle_gamma   120.20745168
_symmetry_Int_Tables_number   1
_chemical_formula_structural   Na8Ta2Zn2Si5SO24
_chemical_formula_sum   'Na24 Ta6 Zn6 Si15 S3 O72'
_cell_volume   1619.84845783
_cell_formula_units_Z   3
loop_
 _symmetry_equiv_pos_site_id
 _symmetry_equiv_pos_as_xyz
  1  'x, y, z'
loop_
 _atom_site_type_symbol
 _atom_site_label
 _atom_site_symmetry_multiplicity
 _atom_site_fract_x
 _atom_site_fract_y
 _atom_site_fract_z
 _atom_site_occupancy
  Na  Na0  1  0.64204306  0.02556660  0.24500028  1
  Na  Na1  1  0.37296785  0.35116422  0.24988629  1
  Na  Na2  1  0.98191817  0.62116966  0.24444776  1
  Na  Na3  1  0.62324098  0.64033411  0.76043738  1
  Na  Na4  1  0.01395201  0.37620778  0.75997319  1
  Na  Na5  1  0.36043071  0.98413448  0.75583699  1
  Na  Na6  1  0.29531541  0.35090798  0.57981010  1
  Na  Na7  1  0.05004621  0.69954186  0.58443209  1
  Na  Na8  1  0.64797512  0.94668991  0.57939081  1
  Na  Na9  1  0.31122469  0.95421316  0.08348215  1
  Na  Na10  1  0.65656126  0.70308929  0.07222287  1
  Na  Na11  1  0.03494162  0.35065850  0.07637385  1
  Na  Na12  1  0.97679233  0.68253931  0.90360925  1
  Na  Na13  1  0.71673187  0.01968248  0.91014937  1
  Na  Na14  1  0.32080320  0.30705897  0.90598498  1
  Na  Na15  1  0.97404507  0.28049898  0.41204256  1
  Na  Na16  1  0.32060336  0.03364429  0.40685226  1
  Na  Na17  1  0.70386383  0.68484366  0.41200507  1
  Na  Na18  1  0.99916959  0.01074371  0.49491763  1
  Na  Na19  1  0.98811329  0.99875466  0.99026541  1
  Na  Na20  1  0.67022353  0.34085978  0.83126502  1
  Na  Na21  1  0.66358091  0.32978508  0.32297337  1
  Na  Na22  1  0.33077383  0.67707544  0.15860269  1
  Na  Na23  1  0.33289047  0.66546085  0.66996175  1
  Ta  Ta24  1  0.99763625  0.99909278  0.64749112  1
  Ta  Ta25  1  0.99097536  0.99441977  0.15023666  1
  Ta  Ta26  1  0.66775258  0.33438651  0.68725190  1
  Ta  Ta27  1  0.68756805  0.34461637  0.98084874  1
  Ta  Ta28  1  0.65662612  0.32506323  0.48068453  1
  Ta  Ta29  1  0.34722835  0.67129395  0.31090899  1
  Zn  Zn30  1  0.99968724  0.00952070  0.34559077  1
  Zn  Zn31  1  0.98887243  0.00174791  0.84440146  1
  Zn  Zn32  1  0.67940231  0.33028540  0.18533556  1
  Zn  Zn33  1  0.33645319  0.66769990  0.01081508  1
  Zn  Zn34  1  0.34600535  0.66323115  0.52184281  1
  Zn  Zn35  1  0.32905338  0.64405049  0.81291326  1
  Si  Si36  1  0.29052563  0.99870218  0.25321012  1
  Si  Si37  1  0.70953859  0.70397548  0.25432162  1
  Si  Si38  1  0.00184768  0.29631221  0.25299405  1
  Si  Si39  1  0.29219823  0.28798503  0.75159468  1
  Si  Si40  1  0.00052099  0.70879707  0.75145399  1
  Si  Si41  1  0.70443804  0.00131823  0.75117312  1
  Si  Si42  1  0.95693810  0.33175613  0.58252905  1
  Si  Si43  1  0.36932581  0.03903478  0.58444605  1
  Si  Si44  1  0.67120504  0.62605594  0.58322119  1
  Si  Si45  1  0.96699402  0.63355332  0.08749616  1
  Si  Si46  1  0.66381229  0.03687230  0.08650144  1
  Si  Si47  1  0.62677089  0.66553760  0.91796004  1
  Si  Si48  1  0.04784522  0.37490319  0.91763967  1
  Si  Si49  1  0.62773910  0.95992389  0.42032848  1
  Si  Si50  1  0.33222362  0.37335170  0.41994201  1
  S  S51  1  0.37252700  0.32708871  0.08564702  1
  S  S52  1  0.33952865  0.96835853  0.91915857  1
  S  S53  1  0.04115393  0.66100983  0.41833513  1
  O  O54  1  0.20788988  0.02412367  0.31247792  1
  O  O55  1  0.82096552  0.78370368  0.31284279  1
  O  O56  1  0.96840236  0.18627513  0.31187519  1
  O  O57  1  0.22187224  0.17018741  0.80998856  1
  O  O58  1  0.95506372  0.78176940  0.80963941  1
  O  O59  1  0.82176997  0.05403394  0.80968678  1
  O  O60  1  0.80767504  0.97962299  0.69167364  1
  O  O61  1  0.16965308  0.18549004  0.69182184  1
  O  O62  1  0.01701740  0.82876394  0.69118698  1
  O  O63  1  0.80167238  0.83549892  0.19474428  1
  O  O64  1  0.03590559  0.20025126  0.19335359  1
  O  O65  1  0.16246877  0.96811675  0.19319950  1
  O  O66  1  0.85469067  0.35048826  0.63977661  1
  O  O67  1  0.49488346  0.14184691  0.64017254  1
  O  O68  1  0.65190344  0.50364999  0.63962408  1
  O  O69  1  0.87812876  0.52137921  0.14499474  1
  O  O70  1  0.63052638  0.11713666  0.14500300  1
  O  O71  1  0.47029739  0.34766604  0.13953889  1
  O  O72  1  0.45556078  0.30412972  0.03090787  1
  O  O73  1  0.83711152  0.53417457  0.02804400  1
  O  O74  1  0.69141936  0.16594139  0.02812844  1
  O  O75  1  0.46683799  0.16714938  0.52490631  1
  O  O76  1  0.70019896  0.53024847  0.52380226  1
  O  O77  1  0.82984396  0.30233249  0.52370394  1
  O  O78  1  0.54760758  0.69616561  0.97853149  1
  O  O79  1  0.14668243  0.45706293  0.97973067  1
  O  O80  1  0.31801799  0.86906396  0.97400061  1
  O  O81  1  0.53878107  0.85168111  0.47883549  1
  O  O82  1  0.29852919  0.45472446  0.47803264  1
  O  O83  1  0.13860796  0.68213305  0.47226536  1
  O  O84  1  0.12484786  0.63815449  0.36325023  1
  O  O85  1  0.49861872  0.86440452  0.36024148  1
  O  O86  1  0.36225689  0.50312947  0.36020295  1
  O  O87  1  0.11047259  0.49531877  0.85897080  1
  O  O88  1  0.37304731  0.89864516  0.86519520  1
  O  O89  1  0.50962900  0.61848883  0.85845989  1
  O  O90  1  0.01500792  0.80610804  0.41274291  1
  O  O91  1  0.81361407  0.98260134  0.41415300  1
  O  O92  1  0.17761517  0.18187366  0.41356042  1
  O  O93  1  0.01965874  0.18527407  0.91423303  1
  O  O94  1  0.19082055  0.98977053  0.91521820  1
  O  O95  1  0.82065453  0.82208204  0.91495741  1
  O  O96  1  0.96566554  0.15612443  0.58723965  1
  O  O97  1  0.18755049  0.03418674  0.58725932  1
  O  O98  1  0.84664609  0.81101278  0.58679475  1
  O  O99  1  0.97476476  0.82164744  0.08905247  1
  O  O100  1  0.84787005  0.03440146  0.08983926  1
  O  O101  1  0.20055639  0.16602643  0.08726215  1
  O  O102  1  0.68591308  0.17167474  0.74064494  1
  O  O103  1  0.48362350  0.31147445  0.74125756  1
  O  O104  1  0.82913741  0.51729462  0.74161583  1
  O  O105  1  0.66822846  0.51458705  0.24320286  1
  O  O106  1  0.84431769  0.32628020  0.24680171  1
  O  O107  1  0.47698149  0.15888842  0.24517812  1
  O  O108  1  0.63663147  0.48241309  0.92798929  1
  O  O109  1  0.84553358  0.34958036  0.92536063  1
  O  O110  1  0.49607407  0.14530807  0.92648480  1
  O  O111  1  0.63949449  0.15116824  0.42099667  1
  O  O112  1  0.51683115  0.37112284  0.42150398  1
  O  O113  1  0.86939351  0.49935783  0.41936252  1
  O  O114  1  0.34690186  0.47291939  0.08045201  1
  O  O115  1  0.15342392  0.66003353  0.07857746  1
  O  O116  1  0.50637749  0.84666898  0.07901975  1
  O  O117  1  0.34865866  0.85585149  0.57992127  1
  O  O118  1  0.50607136  0.64326481  0.58385105  1
  O  O119  1  0.13843419  0.49915915  0.58046896  1
  O  O120  1  0.29747994  0.81818047  0.25691100  1
  O  O121  1  0.52452534  0.70363054  0.25605551  1
  O  O122  1  0.18111301  0.48386464  0.25710171  1
  O  O123  1  0.30699814  0.47066283  0.74835372  1
  O  O124  1  0.16778651  0.69333123  0.74999751  1
  O  O125  1  0.52018644  0.83465243  0.75157209  1
