# generated using pymatgen
data_NaTiInP2SO12
_symmetry_space_group_name_H-M   'P 1'
_cell_length_a   8.73965448
_cell_length_b   8.77104653
_cell_length_c   22.64696874
_cell_angle_alpha   89.43413892
_cell_angle_beta   90.00000000
_cell_angle_gamma   119.88167630
_symmetry_Int_Tables_number   1
_chemical_formula_structural   NaTiInP2SO12
_chemical_formula_sum   'Na6 Ti6 In6 P12 S6 O72'
_cell_volume   1505.13271482
_cell_formula_units_Z   6
loop_
 _symmetry_equiv_pos_site_id
 _symmetry_equiv_pos_as_xyz
  1  'x, y, z'
loop_
 _atom_site_type_symbol
 _atom_site_label
 _atom_site_symmetry_multiplicity
 _atom_site_fract_x
 _atom_site_fract_y
 _atom_site_fract_z
 _atom_site_occupancy
  Na  Na0  1  0.98381924  0.99306832  0.50138976  1
  Na  Na1  1  0.00924908  0.99306832  0.00138976  1
  Na  Na2  1  0.65048624  0.32640132  0.83472276  1
  Na  Na3  1  0.67591608  0.32640132  0.33472276  1
  Na  Na4  1  0.31715224  0.65973532  0.16805676  1
  Na  Na5  1  0.34258208  0.65973532  0.66805676  1
  Ti  Ti6  1  0.00487750  0.00583815  0.35347301  1
  Ti  Ti7  1  0.00096065  0.00583815  0.85347301  1
  Ti  Ti8  1  0.67154450  0.33917115  0.68680601  1
  Ti  Ti9  1  0.66762765  0.33917115  0.18680601  1
  Ti  Ti10  1  0.33821050  0.67250515  0.02014001  1
  Ti  Ti11  1  0.33429365  0.67250515  0.52014001  1
  In  In12  1  0.99433250  0.00385657  0.64843208  1
  In  In13  1  0.00952407  0.00385657  0.14843208  1
  In  In14  1  0.66099950  0.33718957  0.98176508  1
  In  In15  1  0.67619107  0.33718957  0.48176508  1
  In  In16  1  0.32766550  0.67052357  0.31509908  1
  In  In17  1  0.34285707  0.67052357  0.81509908  1
  P  P18  1  0.29959920  0.00928647  0.24985294  1
  P  P19  1  0.99276819  0.28910089  0.24963958  1
  P  P20  1  0.29633270  0.28910089  0.74963958  1
  P  P21  1  0.70968727  0.00928647  0.74985294  1
  P  P22  1  0.96626620  0.34261947  0.58318594  1
  P  P23  1  0.65943519  0.62243389  0.58297258  1
  P  P24  1  0.96299970  0.62243389  0.08297258  1
  P  P25  1  0.37635427  0.34261947  0.08318594  1
  P  P26  1  0.63293220  0.67595347  0.91651994  1
  P  P27  1  0.32610119  0.95576789  0.91630658  1
  P  P28  1  0.62966570  0.95576789  0.41630658  1
  P  P29  1  0.04302027  0.67595347  0.41651994  1
  S  S30  1  0.71116996  0.70413010  0.25093881  1
  S  S31  1  0.99296014  0.70413010  0.75093881  1
  S  S32  1  0.37783696  0.03746310  0.58427181  1
  S  S33  1  0.65962714  0.03746310  0.08427181  1
  S  S34  1  0.04450296  0.37079710  0.91760581  1
  S  S35  1  0.32629314  0.37079710  0.41760581  1
  O  O36  1  0.19666469  0.02553387  0.30436752  1
  O  O37  1  0.82027048  0.79314554  0.30331289  1
  O  O38  1  0.97203364  0.16923642  0.30499579  1
  O  O39  1  0.19720278  0.16923642  0.80499579  1
  O  O40  1  0.97287505  0.79314554  0.80331289  1
  O  O41  1  0.82886918  0.02553387  0.80436752  1
  O  O42  1  0.78032167  0.97045425  0.69420134  1
  O  O43  1  0.19238579  0.21070713  0.69367382  1
  O  O44  1  0.02533068  0.80586382  0.69588282  1
  O  O45  1  0.78053314  0.80586382  0.19588282  1
  O  O46  1  0.01832134  0.21070713  0.19367382  1
  O  O47  1  0.19013258  0.97045425  0.19420134  1
  O  O48  1  0.86333169  0.35886687  0.63770052  1
  O  O49  1  0.48693748  0.12647854  0.63664589  1
  O  O50  1  0.63870064  0.50256942  0.63832879  1
  O  O51  1  0.86386978  0.50256942  0.13832879  1
  O  O52  1  0.63954205  0.12647854  0.13664589  1
  O  O53  1  0.49553618  0.35886687  0.13770052  1
  O  O54  1  0.44698867  0.30378725  0.02753434  1
  O  O55  1  0.85905279  0.54404013  0.02700682  1
  O  O56  1  0.69199768  0.13919682  0.02921582  1
  O  O57  1  0.44720014  0.13919682  0.52921582  1
  O  O58  1  0.68498834  0.54404013  0.52700682  1
  O  O59  1  0.85679958  0.30378725  0.52753434  1
  O  O60  1  0.52999769  0.69220087  0.97103452  1
  O  O61  1  0.15360348  0.45981254  0.96997989  1
  O  O62  1  0.30536664  0.83590342  0.97166279  1
  O  O63  1  0.53053578  0.83590342  0.47166279  1
  O  O64  1  0.30620805  0.45981254  0.46997989  1
  O  O65  1  0.16220218  0.69220087  0.47103452  1
  O  O66  1  0.11365467  0.63712125  0.36086834  1
  O  O67  1  0.52571879  0.87737413  0.36034082  1
  O  O68  1  0.35866368  0.47253082  0.36254982  1
  O  O69  1  0.11386614  0.47253082  0.86254982  1
  O  O70  1  0.35165434  0.87737413  0.86034082  1
  O  O71  1  0.52346558  0.63712125  0.86086834  1
  O  O72  1  0.04166095  0.85298135  0.40994541  1
  O  O73  1  0.81459849  0.96776187  0.41026080  1
  O  O74  1  0.15923171  0.19805138  0.41306592  1
  O  O75  1  0.03881967  0.19805138  0.91306592  1
  O  O76  1  0.15316337  0.96776187  0.91026080  1
  O  O77  1  0.81132040  0.85298135  0.90994541  1
  O  O78  1  0.00488898  0.19141936  0.58842840  1
  O  O79  1  0.19622344  0.00379379  0.58960925  1
  O  O80  1  0.82110283  0.80577073  0.58852983  1
  O  O81  1  0.98466791  0.80577073  0.08852983  1
  O  O82  1  0.80757035  0.00379379  0.08960925  1
  O  O83  1  0.18653038  0.19141936  0.08842840  1
  O  O84  1  0.70832795  0.18631435  0.74327841  1
  O  O85  1  0.48126549  0.30109487  0.74359380  1
  O  O86  1  0.82589871  0.53138438  0.74639892  1
  O  O87  1  0.70548667  0.53138438  0.24639892  1
  O  O88  1  0.81983037  0.30109487  0.24359380  1
  O  O89  1  0.47798740  0.18631435  0.24327841  1
  O  O90  1  0.67155598  0.52475236  0.92176140  1
  O  O91  1  0.86289044  0.33712679  0.92294225  1
  O  O92  1  0.48776983  0.13910373  0.92186283  1
  O  O93  1  0.65133491  0.13910373  0.42186283  1
  O  O94  1  0.47423735  0.33712679  0.42294225  1
  O  O95  1  0.85319738  0.52475236  0.42176140  1
  O  O96  1  0.37499395  0.51964835  0.07661241  1
  O  O97  1  0.14793149  0.63442887  0.07692780  1
  O  O98  1  0.49256471  0.86471838  0.07973292  1
  O  O99  1  0.37215267  0.86471838  0.57973292  1
  O  O100  1  0.48649637  0.63442887  0.57692780  1
  O  O101  1  0.14465340  0.51964835  0.57661241  1
  O  O102  1  0.33822198  0.85808636  0.25509540  1
  O  O103  1  0.52955644  0.67046079  0.25627625  1
  O  O104  1  0.15443583  0.47243773  0.25519683  1
  O  O105  1  0.31800091  0.47243773  0.75519683  1
  O  O106  1  0.14090335  0.67046079  0.75627625  1
  O  O107  1  0.51986338  0.85808636  0.75509540  1
