# generated using pymatgen
data_Na6Sc3TaSi2(PO6)4
_symmetry_space_group_name_H-M   'P 1'
_cell_length_a   15.74343210
_cell_length_b   9.05126930
_cell_length_c   9.06688096
_cell_angle_alpha   89.48415190
_cell_angle_beta   124.91057927
_cell_angle_gamma   90.19964221
_symmetry_Int_Tables_number   1
_chemical_formula_structural   Na6Sc3TaSi2(PO6)4
_chemical_formula_sum   'Na12 Sc6 Ta2 Si4 P8 O48'
_cell_volume   1059.46507843
_cell_formula_units_Z   2
loop_
 _symmetry_equiv_pos_site_id
 _symmetry_equiv_pos_as_xyz
  1  'x, y, z'
loop_
 _atom_site_type_symbol
 _atom_site_label
 _atom_site_symmetry_multiplicity
 _atom_site_fract_x
 _atom_site_fract_y
 _atom_site_fract_z
 _atom_site_occupancy
  Na  Na0  1  0.25027453  0.75115402  0.99818037  1
  Na  Na1  1  0.74600110  0.75331133  0.48502165  1
  Na  Na2  1  0.75027453  0.25115402  0.99818037  1
  Na  Na3  1  0.24600110  0.25331133  0.48502165  1
  Na  Na4  1  0.49835420  0.09210763  0.73485664  1
  Na  Na5  1  0.50634425  0.88198708  0.25739792  1
  Na  Na6  1  0.99835420  0.59210763  0.73485664  1
  Na  Na7  1  0.00634425  0.38198708  0.25739792  1
  Na  Na8  1  0.19190800  0.93271596  0.29031463  1
  Na  Na9  1  0.80819157  0.07929103  0.70786834  1
  Na  Na10  1  0.69190800  0.43271596  0.29031463  1
  Na  Na11  1  0.30819157  0.57929103  0.70786834  1
  Sc  Sc12  1  0.10550246  0.75563558  0.56384150  1
  Sc  Sc13  1  0.89434409  0.24463672  0.43731898  1
  Sc  Sc14  1  0.10314012  0.25410884  0.05583346  1
  Sc  Sc15  1  0.60550246  0.25563558  0.56384150  1
  Sc  Sc16  1  0.39434409  0.74463672  0.43731898  1
  Sc  Sc17  1  0.60314012  0.75410884  0.05583346  1
  Ta  Ta18  1  0.89569720  0.74788878  0.94145251  1
  Ta  Ta19  1  0.39569720  0.24788878  0.94145251  1
  Si  Si20  1  0.35227449  0.90050766  0.75386694  1
  Si  Si21  1  0.65085326  0.10299647  0.25313746  1
  Si  Si22  1  0.85227449  0.40050766  0.75386694  1
  Si  Si23  1  0.15085326  0.60299647  0.25313746  1
  P  P24  1  0.00171413  0.95377844  0.76052443  1
  P  P25  1  0.99659785  0.04299229  0.24507562  1
  P  P26  1  0.50171413  0.45377844  0.76052443  1
  P  P27  1  0.49659785  0.54299229  0.24507562  1
  P  P28  1  0.64672613  0.89212634  0.74057464  1
  P  P29  1  0.35610185  0.10367377  0.25988908  1
  P  P30  1  0.14672613  0.39212634  0.74057464  1
  P  P31  1  0.85610185  0.60367377  0.25988908  1
  O  O32  1  0.15496307  0.56361395  0.74364509  1
  O  O33  1  0.84727788  0.58549878  0.76847701  1
  O  O34  1  0.85276150  0.43346866  0.24214177  1
  O  O35  1  0.15291859  0.42393947  0.24358715  1
  O  O36  1  0.65496307  0.06361395  0.74364509  1
  O  O37  1  0.34727788  0.08549878  0.76847701  1
  O  O38  1  0.35276150  0.93346866  0.24214177  1
  O  O39  1  0.65291859  0.92393947  0.24358715  1
  O  O40  1  0.43537133  0.55661866  0.59541096  1
  O  O41  1  0.56825523  0.54122518  0.93372715  1
  O  O42  1  0.55490482  0.44021697  0.40915652  1
  O  O43  1  0.43375117  0.44432093  0.07154730  1
  O  O44  1  0.93537133  0.05661866  0.59541096  1
  O  O45  1  0.06825523  0.04122518  0.93372715  1
  O  O46  1  0.05490482  0.94021697  0.40915652  1
  O  O47  1  0.93375117  0.94432093  0.07154730  1
  O  O48  1  0.25607660  0.82340270  0.74468018  1
  O  O49  1  0.74720372  0.83212395  0.76259582  1
  O  O50  1  0.73902844  0.19265175  0.24777777  1
  O  O51  1  0.25977547  0.15956350  0.24626102  1
  O  O52  1  0.75607660  0.32340270  0.74468018  1
  O  O53  1  0.24720372  0.33212395  0.76259582  1
  O  O54  1  0.23902844  0.69265175  0.24777777  1
  O  O55  1  0.75977547  0.65956350  0.24626102  1
  O  O56  1  0.35385144  0.87474563  0.57564323  1
  O  O57  1  0.64379791  0.84690315  0.90076405  1
  O  O58  1  0.65271284  0.14700243  0.42856411  1
  O  O59  1  0.35854715  0.16532368  0.09657335  1
  O  O60  1  0.85385144  0.37474563  0.57564323  1
  O  O61  1  0.14379791  0.34690315  0.90076405  1
  O  O62  1  0.15271284  0.64700243  0.42856411  1
  O  O63  1  0.85854715  0.66532368  0.09657335  1
  O  O64  1  0.46047240  0.84053761  0.93171622  1
  O  O65  1  0.55154041  0.83404394  0.56264141  1
  O  O66  1  0.53373717  0.16988849  0.07671735  1
  O  O67  1  0.45528893  0.15467875  0.43466446  1
  O  O68  1  0.96047240  0.34053761  0.93171622  1
  O  O69  1  0.05154041  0.33404394  0.56264141  1
  O  O70  1  0.03373717  0.66988849  0.07671735  1
  O  O71  1  0.95528893  0.65467875  0.43466446  1
  O  O72  1  0.06650166  0.83696565  0.74368705  1
  O  O73  1  0.91653727  0.86100692  0.76624780  1
  O  O74  1  0.92100850  0.14921506  0.24609022  1
  O  O75  1  0.07969129  0.13413227  0.24252882  1
  O  O76  1  0.56650166  0.33696565  0.74368705  1
  O  O77  1  0.41653727  0.36100692  0.76624780  1
  O  O78  1  0.42100850  0.64921506  0.24609022  1
  O  O79  1  0.57969129  0.63413227  0.24252882  1
