# generated using pymatgen
data_Na5Zr2Ti2Si3(PO8)3
_symmetry_space_group_name_H-M   'P 1'
_cell_length_a   9.01067081
_cell_length_b   9.02400398
_cell_length_c   22.58151723
_cell_angle_alpha   89.91483656
_cell_angle_beta   90.14523105
_cell_angle_gamma   120.01745856
_symmetry_Int_Tables_number   1
_chemical_formula_structural   Na5Zr2Ti2Si3(PO8)3
_chemical_formula_sum   'Na15 Zr6 Ti6 Si9 P9 O72'
_cell_volume   1589.87255950
_cell_formula_units_Z   3
loop_
 _symmetry_equiv_pos_site_id
 _symmetry_equiv_pos_as_xyz
  1  'x, y, z'
loop_
 _atom_site_type_symbol
 _atom_site_label
 _atom_site_symmetry_multiplicity
 _atom_site_fract_x
 _atom_site_fract_y
 _atom_site_fract_z
 _atom_site_occupancy
  Na  Na0  1  0.00047112  0.63559016  0.24931102  1
  Na  Na1  1  0.36548940  0.99587079  0.75251536  1
  Na  Na2  1  0.02993044  0.69997096  0.58033055  1
  Na  Na3  1  0.66069867  0.96565345  0.58633593  1
  Na  Na4  1  0.29616775  0.96389817  0.08045135  1
  Na  Na5  1  0.03831502  0.33936530  0.08332268  1
  Na  Na6  1  0.96417911  0.66632710  0.91747141  1
  Na  Na7  1  0.96505593  0.29915680  0.41192676  1
  Na  Na8  1  0.33435971  0.02896420  0.41689813  1
  Na  Na9  1  0.99608934  0.99009606  0.49969209  1
  Na  Na10  1  0.99229421  0.99975459  0.99597033  1
  Na  Na11  1  0.66804704  0.32771524  0.83801582  1
  Na  Na12  1  0.65988391  0.32936606  0.32761501  1
  Na  Na13  1  0.35553541  0.66426217  0.16853431  1
  Na  Na14  1  0.33778371  0.64468207  0.67114673  1
  Zr  Zr15  1  0.98975353  0.99493126  0.34872516  1
  Zr  Zr16  1  0.00046956  0.00265381  0.65076368  1
  Zr  Zr17  1  0.99637538  -0.00010667  0.14636679  1
  Zr  Zr18  1  0.66614338  0.33457847  0.69099202  1
  Zr  Zr19  1  0.66501174  0.34141340  0.47808035  1
  Zr  Zr20  1  0.34039533  0.66894432  0.51953974  1
  Ti  Ti21  1  0.00104510  0.00931135  0.85497675  1
  Ti  Ti22  1  0.66999619  0.33637622  0.18301879  1
  Ti  Ti23  1  0.65343912  0.32827565  0.98003385  1
  Ti  Ti24  1  0.33017008  0.66291050  0.01821316  1
  Ti  Ti25  1  0.33086747  0.66754534  0.31334588  1
  Ti  Ti26  1  0.34500770  0.67627915  0.81770043  1
  Si  Si27  1  0.00028735  0.30393650  0.24827683  1
  Si  Si28  1  0.70497278  0.99390758  0.75385900  1
  Si  Si29  1  0.37057117  0.04114590  0.58365230  1
  Si  Si30  1  0.66553452  0.62657607  0.58586976  1
  Si  Si31  1  0.95197988  0.61833640  0.07927001  1
  Si  Si32  1  0.38598208  0.34368556  0.08269728  1
  Si  Si33  1  0.33558684  0.95947735  0.91769763  1
  Si  Si34  1  0.62514291  0.95613586  0.41478038  1
  Si  Si35  1  0.04279046  0.66802515  0.41477026  1
  P  P36  1  0.30408310  0.00359509  0.24942271  1
  P  P37  1  0.69519933  0.69649695  0.24803894  1
  P  P38  1  0.28656923  0.29657818  0.75571144  1
  P  P39  1  0.00543284  0.71031428  0.75609391  1
  P  P40  1  0.95711103  0.33237025  0.58298991  1
  P  P41  1  0.66113086  0.04771859  0.08108879  1
  P  P42  1  0.62080432  0.66766370  0.91773581  1
  P  P43  1  0.04774538  0.37906324  0.91618729  1
  P  P44  1  0.33294876  0.37968811  0.41231037  1
  O  O45  1  0.21735998  0.02637562  0.30532794  1
  O  O46  1  0.81712563  0.78079710  0.30232898  1
  O  O47  1  0.97188048  0.18577845  0.30706247  1
  O  O48  1  0.19315228  0.17207022  0.80844280  1
  O  O49  1  0.98709989  0.80577648  0.80994708  1
  O  O50  1  0.83769228  0.01344256  0.80805637  1
  O  O51  1  0.78331428  0.97125496  0.69149478  1
  O  O52  1  0.18305659  0.21387928  0.69834833  1
  O  O53  1  0.03437583  0.81969634  0.69859692  1
  O  O54  1  0.78746728  0.81320144  0.19409944  1
  O  O55  1  0.02605044  0.21020459  0.19002317  1
  O  O56  1  0.18100696  0.96883002  0.19526354  1
  O  O57  1  0.86675571  0.35726490  0.63687252  1
  O  O58  1  0.49071859  0.12864546  0.64245649  1
  O  O59  1  0.64889437  0.51193032  0.64348374  1
  O  O60  1  0.86436773  0.49804009  0.13885513  1
  O  O61  1  0.63437267  0.13213356  0.13686651  1
  O  O62  1  0.50472246  0.36061428  0.14015749  1
  O  O63  1  0.47637909  0.30524891  0.02527205  1
  O  O64  1  0.83631001  0.52202614  0.02078678  1
  O  O65  1  0.69278172  0.16408291  0.02652034  1
  O  O66  1  0.46175661  0.14929959  0.52327975  1
  O  O67  1  0.70274146  0.54188982  0.52756165  1
  O  O68  1  0.85089872  0.30517236  0.52550353  1
  O  O69  1  0.52767209  0.68837319  0.97214375  1
  O  O70  1  0.15590374  0.45975567  0.97425592  1
  O  O71  1  0.30333775  0.82999306  0.97507828  1
  O  O72  1  0.54681454  0.85328703  0.47699859  1
  O  O73  1  0.30394398  0.45639415  0.46918580  1
  O  O74  1  0.15150907  0.69173160  0.47561634  1
  O  O75  1  0.14321181  0.64491923  0.35716903  1
  O  O76  1  0.49621549  0.84712040  0.36006418  1
  O  O77  1  0.34958455  0.48963173  0.35814510  1
  O  O78  1  0.14327106  0.50002082  0.86392908  1
  O  O79  1  0.35982773  0.86146917  0.85937356  1
  O  O80  1  0.50979833  0.64463191  0.86205339  1
  O  O81  1  0.03575572  0.84434401  0.40951182  1
  O  O82  1  0.82070034  0.98938452  0.41116615  1
  O  O83  1  0.17385360  0.19704689  0.40796895  1
  O  O84  1  0.02866792  0.19798983  0.90968939  1
  O  O85  1  0.15719900  0.96814275  0.91069825  1
  O  O86  1  0.80419059  0.82753074  0.91250346  1
  O  O87  1  0.97009225  0.16912158  0.58897190  1
  O  O88  1  0.17795977  0.01366317  0.58811800  1
  O  O89  1  0.83642862  0.81835519  0.58910827  1
  O  O90  1  0.98476553  0.81333468  0.08560267  1
  O  O91  1  0.82600972  0.03375915  0.08672103  1
  O  O92  1  0.19422645  0.16961846  0.08735902  1
  O  O93  1  0.67727007  0.16008005  0.75333415  1
  O  O94  1  0.46232486  0.30265791  0.75147456  1
  O  O95  1  0.84469604  0.53180901  0.75134541  1
  O  O96  1  0.68725178  0.52176215  0.24128663  1
  O  O97  1  0.83060895  0.32717112  0.24115512  1
  O  O98  1  0.48112607  0.16228233  0.24133734  1
  O  O99  1  0.64450647  0.50793900  0.92238496  1
  O  O100  1  0.87052267  0.36698645  0.92071474  1
  O  O101  1  0.50791182  0.14861970  0.92443296  1
  O  O102  1  0.63652061  0.14353271  0.41583341  1
  O  O103  1  0.49232718  0.35784751  0.41612191  1
  O  O104  1  0.85833424  0.49135050  0.41587171  1
  O  O105  1  0.35890323  0.50895106  0.07497850  1
  O  O106  1  0.14597848  0.63664262  0.07392983  1
  O  O107  1  0.49851128  0.86914119  0.07517446  1
  O  O108  1  0.34907310  0.84865847  0.58123115  1
  O  O109  1  0.49840346  0.64977358  0.58284886  1
  O  O110  1  0.13398152  0.49443497  0.57947672  1
  O  O111  1  0.31349349  0.83653814  0.25510784  1
  O  O112  1  0.51968675  0.68085683  0.25605752  1
  O  O113  1  0.16930533  0.49700154  0.25505213  1
  O  O114  1  0.30632824  0.47398538  0.76254930  1
  O  O115  1  0.16974405  0.69580363  0.76074222  1
  O  O116  1  0.51178844  0.82313216  0.76110517  1
