# generated using pymatgen
data_Pb2O3
_symmetry_space_group_name_H-M   'P 1'
_cell_length_a   5.68097231
_cell_length_b   7.60067163
_cell_length_c   7.85062154
_cell_angle_alpha   67.07269080
_cell_angle_beta   90.00000000
_cell_angle_gamma   90.00000000
_symmetry_Int_Tables_number   1
_chemical_formula_structural   Pb2O3
_chemical_formula_sum   'Pb8 O12'
_cell_volume   312.20383581
_cell_formula_units_Z   4
loop_
 _symmetry_equiv_pos_site_id
 _symmetry_equiv_pos_as_xyz
  1  'x, y, z'
loop_
 _atom_site_type_symbol
 _atom_site_label
 _atom_site_symmetry_multiplicity
 _atom_site_fract_x
 _atom_site_fract_y
 _atom_site_fract_z
 _atom_site_occupancy
  Pb  Pb0  1  0.75435687  0.08860114  0.88293811  1
  Pb  Pb1  1  0.25435687  0.91139886  0.61706189  1
  Pb  Pb2  1  0.24564313  0.91139886  0.11706189  1
  Pb  Pb3  1  0.74564313  0.08860114  0.38293811  1
  Pb  Pb4  1  0.74169656  0.61225745  0.85385280  1
  Pb  Pb5  1  0.24169656  0.38774255  0.64614720  1
  Pb  Pb6  1  0.25830344  0.38774255  0.14614720  1
  Pb  Pb7  1  0.75830344  0.61225745  0.35385280  1
  O  O8  1  0.62692466  0.36872257  0.73486691  1
  O  O9  1  0.12692466  0.63127743  0.76513309  1
  O  O10  1  0.37307534  0.63127743  0.26513309  1
  O  O11  1  0.87307534  0.36872257  0.23486691  1
  O  O12  1  0.90880329  0.80944940  0.05043084  1
  O  O13  1  0.40880329  0.19055060  0.44956916  1
  O  O14  1  0.09119671  0.19055060  0.94956916  1
  O  O15  1  0.59119671  0.80944940  0.55043084  1
  O  O16  1  0.43250456  0.93369731  0.85960165  1
  O  O17  1  0.93250456  0.06630269  0.64039835  1
  O  O18  1  0.56749544  0.06630269  0.14039835  1
  O  O19  1  0.06749544  0.93369731  0.35960165  1
