# generated using pymatgen
data_Na6Ca7Sn(SO4)12
_symmetry_space_group_name_H-M   'P 1'
_cell_length_a   18.39182695
_cell_length_b   9.18742141
_cell_length_c   24.08164221
_cell_angle_alpha   90.07097512
_cell_angle_beta   89.91379611
_cell_angle_gamma   119.95357194
_symmetry_Int_Tables_number   1
_chemical_formula_structural   Na6Ca7Sn(SO4)12
_chemical_formula_sum   'Na18 Ca21 Sn3 S36 O144'
_cell_volume   3525.63760862
_cell_formula_units_Z   3
loop_
 _symmetry_equiv_pos_site_id
 _symmetry_equiv_pos_as_xyz
  1  'x, y, z'
loop_
 _atom_site_type_symbol
 _atom_site_label
 _atom_site_symmetry_multiplicity
 _atom_site_fract_x
 _atom_site_fract_y
 _atom_site_fract_z
 _atom_site_occupancy
  Na  Na0  1  0.32110674  0.64052371  0.74916849  1
  Na  Na1  1  0.65069639  0.33163915  0.58430994  1
  Na  Na2  1  0.98752390  0.66793761  0.91844288  1
  Na  Na3  1  0.66496690  0.30280909  0.91538663  1
  Na  Na4  1  0.16666468  0.02845365  0.41752879  1
  Na  Na5  1  0.66662648  0.02861232  0.41799001  1
  Na  Na6  1  0.99443750  0.00391079  0.49839105  1
  Na  Na7  1  0.48304875  0.98025646  0.50193532  1
  Na  Na8  1  0.00349199  0.01879481  0.00071336  1
  Na  Na9  1  0.48956103  0.98234796  0.99738011  1
  Na  Na10  1  0.33857852  0.32403370  0.83796694  1
  Na  Na11  1  0.82870906  0.31396638  0.82995274  1
  Na  Na12  1  0.34089315  0.34856934  0.33508920  1
  Na  Na13  1  0.84164624  0.34848190  0.33444880  1
  Na  Na14  1  0.16774536  0.66703520  0.16651915  1
  Na  Na15  1  0.66580444  0.66604794  0.16658516  1
  Na  Na16  1  0.16467560  0.67118661  0.66321728  1
  Na  Na17  1  0.66230055  0.67561126  0.67044317  1
  Ca  Ca18  1  0.99579511  0.99979081  0.35067105  1
  Ca  Ca19  1  0.49525849  0.00046522  0.35112224  1
  Ca  Ca20  1  0.00173503  0.01082406  0.85118731  1
  Ca  Ca21  1  0.49675653  0.99560643  0.84919716  1
  Ca  Ca22  1  0.49824632  0.99479974  0.65121490  1
  Ca  Ca23  1  0.33650158  0.32779498  0.68073747  1
  Ca  Ca24  1  0.83256665  0.33139828  0.68449977  1
  Ca  Ca25  1  0.33287013  0.33249664  0.18284795  1
  Ca  Ca26  1  0.83274397  0.33251965  0.18288371  1
  Ca  Ca27  1  0.33362914  0.33546345  0.98589579  1
  Ca  Ca28  1  0.83280452  0.32243153  0.99013001  1
  Ca  Ca29  1  0.33645586  0.34090400  0.48600091  1
  Ca  Ca30  1  0.84297655  0.34442254  0.48589550  1
  Ca  Ca31  1  0.17058779  0.66819959  0.01841109  1
  Ca  Ca32  1  0.66588607  0.67125142  0.01832091  1
  Ca  Ca33  1  0.16657301  0.65935096  0.51810768  1
  Ca  Ca34  1  0.66684244  0.67117591  0.51587528  1
  Ca  Ca35  1  0.16717267  0.66143020  0.31402468  1
  Ca  Ca36  1  0.66669353  0.66114965  0.31389649  1
  Ca  Ca37  1  0.16495324  0.66868103  0.81701697  1
  Ca  Ca38  1  0.66684369  0.66970106  0.81570743  1
  Sn  Sn39  1  0.00070773  0.00187742  0.65184932  1
  Sn  Sn40  1  0.00062851  0.00022120  0.15188945  1
  Sn  Sn41  1  0.49962043  0.99963133  0.15139211  1
  S  S42  1  0.14481015  0.99772406  0.24854507  1
  S  S43  1  0.64447801  0.99818792  0.24846465  1
  S  S44  1  0.35411853  0.71002928  0.24671178  1
  S  S45  1  0.85436412  0.71055237  0.24648427  1
  S  S46  1  0.00090306  0.29226400  0.24656363  1
  S  S47  1  0.50111652  0.29200712  0.24638577  1
  S  S48  1  0.14716320  0.29549606  0.74644939  1
  S  S49  1  0.65170120  0.30276384  0.75032326  1
  S  S50  1  0.00098128  0.71144135  0.74829480  1
  S  S51  1  0.49850644  0.69715497  0.74950732  1
  S  S52  1  0.34830256  0.99632674  0.75027940  1
  S  S53  1  0.85469224  0.99790165  0.74702270  1
  S  S54  1  0.48674579  0.33300757  0.58273556  1
  S  S55  1  0.98413423  0.32165476  0.58773789  1
  S  S56  1  0.17518830  0.02859709  0.58554949  1
  S  S57  1  0.68401547  0.03766307  0.58154136  1
  S  S58  1  0.33263987  0.63573034  0.58603655  1
  S  S59  1  0.83876345  0.64312875  0.58672706  1
  S  S60  1  0.48389960  0.64631111  0.08737726  1
  S  S61  1  0.98480262  0.64725045  0.08553435  1
  S  S62  1  0.33926658  0.03260160  0.08710325  1
  S  S63  1  0.83934809  0.02961901  0.08776043  1
  S  S64  1  0.17677120  0.32118975  0.08729401  1
  S  S65  1  0.67610706  0.32182243  0.08583613  1
  S  S66  1  0.31667559  0.66327767  0.91480799  1
  S  S67  1  0.81605670  0.66327103  0.91795514  1
  S  S68  1  0.01628193  0.37193782  0.91812896  1
  S  S69  1  0.51831426  0.36863095  0.91709158  1
  S  S70  1  0.16575595  0.96492996  0.91747576  1
  S  S71  1  0.66781450  0.97160750  0.91681688  1
  S  S72  1  0.31318860  0.96506643  0.41739607  1
  S  S73  1  0.81439416  0.96652203  0.41665782  1
  S  S74  1  0.16708481  0.36372291  0.41622378  1
  S  S75  1  0.66819325  0.36431421  0.41861624  1
  S  S76  1  0.01943377  0.66875021  0.41592552  1
  S  S77  1  0.51799522  0.66800722  0.41521605  1
  O  O78  1  0.10489850  0.01347382  0.29972520  1
  O  O79  1  0.60490396  0.01403486  0.29985755  1
  O  O80  1  0.40366114  0.79283008  0.29642519  1
  O  O81  1  0.90380219  0.79277123  0.29630776  1
  O  O82  1  0.49339561  0.19350900  0.29615658  1
  O  O83  1  0.99283222  0.19312888  0.29618796  1
  O  O84  1  0.10600304  0.19572013  0.79618041  1
  O  O85  1  0.60897793  0.20546733  0.80115685  1
  O  O86  1  0.48933009  0.78128576  0.79949333  1
  O  O87  1  0.99329602  0.79148527  0.79962442  1
  O  O88  1  0.39714405  0.01403863  0.80083655  1
  O  O89  1  0.90430750  0.01257991  0.79650977  1
  O  O90  1  0.39046849  0.97884445  0.70018811  1
  O  O91  1  0.89722434  0.97898917  0.69456653  1
  O  O92  1  0.09438387  0.21110440  0.69477418  1
  O  O93  1  0.60415925  0.21891912  0.69884444  1
  O  O94  1  0.01104065  0.82065996  0.69707868  1
  O  O95  1  0.50679713  0.79480778  0.69888528  1
  O  O96  1  0.39636659  0.81459935  0.19452891  1
  O  O97  1  0.89682070  0.81539071  0.19441586  1
  O  O98  1  0.01062038  0.20719437  0.19431885  1
  O  O99  1  0.51100286  0.20696836  0.19424045  1
  O  O100  1  0.09051342  0.97749140  0.19737243  1
  O  O101  1  0.59037695  0.97883169  0.19742293  1
  O  O102  1  0.44619856  0.34828446  0.63347386  1
  O  O103  1  0.94233265  0.33941297  0.63702009  1
  O  O104  1  0.22718920  0.11699924  0.63371833  1
  O  O105  1  0.73580687  0.12604408  0.63062428  1
  O  O106  1  0.32679908  0.54378652  0.63849215  1
  O  O107  1  0.82778933  0.53867299  0.63560099  1
  O  O108  1  0.44256350  0.54587968  0.13688273  1
  O  O109  1  0.94008409  0.54078727  0.13316890  1
  O  O110  1  0.33020621  0.11460572  0.13683030  1
  O  O111  1  0.82993926  0.11385557  0.13661219  1
  O  O112  1  0.22648768  0.33836918  0.13696103  1
  O  O113  1  0.72926470  0.33930539  0.13345983  1
  O  O114  1  0.21310889  0.29436615  0.03624974  1
  O  O115  1  0.71058805  0.29596577  0.03288738  1
  O  O116  1  0.43442670  0.57375136  0.03624778  1
  O  O117  1  0.93738571  0.57880249  0.03255386  1
  O  O118  1  0.35183287  0.13167321  0.03612596  1
  O  O119  1  0.85298990  0.12790044  0.03623936  1
  O  O120  1  0.20893449  0.12197491  0.53276476  1
  O  O121  1  0.72437451  0.13562415  0.52972318  1
  O  O122  1  0.33790532  0.54392993  0.53697838  1
  O  O123  1  0.85354918  0.57350819  0.53560988  1
  O  O124  1  0.43778512  0.31908764  0.53266963  1
  O  O125  1  0.93548262  0.29402161  0.53628341  1
  O  O126  1  0.27111225  0.67684505  0.96352657  1
  O  O127  1  0.77634408  0.68338432  0.96815924  1
  O  O128  1  0.06599841  0.45452266  0.96814725  1
  O  O129  1  0.57005432  0.45324009  0.96716071  1
  O  O130  1  0.15489788  0.85925071  0.96695167  1
  O  O131  1  0.66120336  0.87538505  0.96740898  1
  O  O132  1  0.27223800  0.86707675  0.46775648  1
  O  O133  1  0.77410751  0.86890622  0.46722839  1
  O  O134  1  0.15909768  0.44497818  0.46663314  1
  O  O135  1  0.66077356  0.44079343  0.47102010  1
  O  O136  1  0.06920617  0.68519957  0.46646277  1
  O  O137  1  0.56867092  0.68720255  0.46553515  1
  O  O138  1  0.06037676  0.65277037  0.36535683  1
  O  O139  1  0.55957399  0.65190789  0.36480047  1
  O  O140  1  0.26317847  0.88185134  0.36674891  1
  O  O141  1  0.76353308  0.88216375  0.36649603  1
  O  O142  1  0.17416624  0.45936698  0.36568397  1
  O  O143  1  0.67488447  0.46599797  0.36960680  1
  O  O144  1  0.05658150  0.47027020  0.86719042  1
  O  O145  1  0.55909236  0.46727313  0.86653110  1
  O  O146  1  0.17347165  0.88472381  0.86626972  1
  O  O147  1  0.67652268  0.89102300  0.86629813  1
  O  O148  1  0.27093802  0.64914908  0.86194082  1
  O  O149  1  0.76621891  0.64398967  0.86767636  1
  O  O150  1  0.01544087  0.82874001  0.41323225  1
  O  O151  1  0.51420677  0.82803690  0.41226103  1
  O  O152  1  0.39927270  0.98936590  0.41406065  1
  O  O153  1  0.90026209  0.99016215  0.41333045  1
  O  O154  1  0.09171268  0.18845185  0.41377732  1
  O  O155  1  0.59283322  0.19042709  0.41449433  1
  O  O156  1  0.00389371  0.19904454  0.91459573  1
  O  O157  1  0.51502355  0.20179028  0.91390160  1
  O  O158  1  0.08557210  0.97289523  0.91432076  1
  O  O159  1  0.59263574  0.99457347  0.91396240  1
  O  O160  1  0.40144010  0.81671860  0.91400699  1
  O  O161  1  0.90413051  0.80868456  0.91337965  1
  O  O162  1  0.49795784  0.18210598  0.58502443  1
  O  O163  1  0.99134991  0.16058229  0.59281692  1
  O  O164  1  0.08765450  0.01466415  0.59191772  1
  O  O165  1  0.60121756  0.03178078  0.58553583  1
  O  O166  1  0.40928582  0.80504960  0.58597477  1
  O  O167  1  0.91535963  0.81892218  0.59335818  1
  O  O168  1  0.49145979  0.82167713  0.09245946  1
  O  O169  1  0.99153054  0.82082469  0.09194798  1
  O  O170  1  0.41948703  0.01809784  0.09198856  1
  O  O171  1  0.91918290  0.01547529  0.09289742  1
  O  O172  1  0.08901533  0.16052475  0.09232076  1
  O  O173  1  0.58978121  0.16210834  0.09218966  1
  O  O174  1  0.33540155  0.14307602  0.74645866  1
  O  O175  1  0.84832836  0.15163808  0.74258972  1
  O  O176  1  0.23179230  0.31640939  0.74083229  1
  O  O177  1  0.73657687  0.31763135  0.74878245  1
  O  O178  1  0.41850702  0.52992231  0.74672778  1
  O  O179  1  0.92484056  0.54613924  0.74207885  1
  O  O180  1  0.34672733  0.54272229  0.24169662  1
  O  O181  1  0.84706531  0.54334264  0.24127789  1
  O  O182  1  0.42508363  0.30702103  0.24150251  1
  O  O183  1  0.92490186  0.30756614  0.24160014  1
  O  O184  1  0.22766081  0.15041640  0.24242179  1
  O  O185  1  0.72754223  0.15103654  0.24233553  1
  O  O186  1  0.32505261  0.51009405  0.91926962  1
  O  O187  1  0.82282619  0.50585915  0.92236120  1
  O  O188  1  0.43256645  0.34436295  0.92176611  1
  O  O189  1  0.93262069  0.36446688  0.92179431  1
  O  O190  1  0.23950339  0.13532376  0.92228695  1
  O  O191  1  0.74329335  0.14697691  0.92010964  1
  O  O192  1  0.31720795  0.13281295  0.42055149  1
  O  O193  1  0.81861650  0.13433449  0.41984559  1
  O  O194  1  0.24227073  0.33938500  0.41912979  1
  O  O195  1  0.74377088  0.34146379  0.42038593  1
  O  O196  1  0.43233618  0.52049742  0.41901344  1
  O  O197  1  0.93339161  0.52131329  0.41926805  1
  O  O198  1  0.16392810  0.46741511  0.08271441  1
  O  O199  1  0.66424952  0.46930635  0.08201174  1
  O  O200  1  0.07020266  0.67132744  0.08173120  1
  O  O201  1  0.56983269  0.67181668  0.08277539  1
  O  O202  1  0.26629952  0.86036444  0.08264132  1
  O  O203  1  0.76582720  0.85825446  0.08289329  1
  O  O204  1  0.16245545  0.85685893  0.58233816  1
  O  O205  1  0.67235550  0.86667449  0.57929801  1
  O  O206  1  0.25639191  0.65326038  0.58315424  1
  O  O207  1  0.76127199  0.65649174  0.58129940  1
  O  O208  1  0.06961593  0.46796162  0.58319183  1
  O  O209  1  0.57395694  0.48331506  0.58033715  1
  O  O210  1  0.15203730  0.84420885  0.24890437  1
  O  O211  1  0.65196027  0.84487119  0.24883083  1
  O  O212  1  0.27026331  0.69574859  0.24797864  1
  O  O213  1  0.77053185  0.69626459  0.24781829  1
  O  O214  1  0.07768201  0.46005900  0.24773919  1
  O  O215  1  0.57800544  0.45976274  0.24753054  1
  O  O216  1  0.15590776  0.46595515  0.74857401  1
  O  O217  1  0.66059134  0.47295577  0.75231770  1
  O  O218  1  0.07741263  0.69673291  0.74851206  1
  O  O219  1  0.57275868  0.67459035  0.75304699  1
  O  O220  1  0.26526067  0.83500020  0.75287976  1
  O  O221  1  0.77073372  0.84601472  0.74795368  1
