# generated using pymatgen
data_MgMn2V2O8
_symmetry_space_group_name_H-M   'P 1'
_cell_length_a   5.36402693
_cell_length_b   5.36402718
_cell_length_c   6.53965639
_cell_angle_alpha   92.87178803
_cell_angle_beta   92.87178518
_cell_angle_gamma   66.34884331
_symmetry_Int_Tables_number   1
_chemical_formula_structural   MgMn2V2O8
_chemical_formula_sum   'Mg1 Mn2 V2 O8'
_cell_volume   172.05022137
_cell_formula_units_Z   1
loop_
 _symmetry_equiv_pos_site_id
 _symmetry_equiv_pos_as_xyz
  1  'x, y, z'
loop_
 _atom_site_type_symbol
 _atom_site_label
 _atom_site_symmetry_multiplicity
 _atom_site_fract_x
 _atom_site_fract_y
 _atom_site_fract_z
 _atom_site_occupancy
  Mg  Mg0  1  0.50000000  0.50000000  0.00000000  1
  Mn  Mn1  1  0.00000000  0.00000000  0.50000000  1
  Mn  Mn2  1  0.00000000  0.00000000  0.00000000  1
  V  V3  1  0.66357500  0.66357400  0.70672300  1
  V  V4  1  0.33642500  0.33642500  0.29327800  1
  O  O5  1  0.23342100  0.23341800  0.50041400  1
  O  O6  1  0.69589400  0.23246300  0.24202700  1
  O  O7  1  0.23246200  0.69589600  0.24202700  1
  O  O8  1  0.30410500  0.76753800  0.75797400  1
  O  O9  1  0.23116600  0.23116300  0.06647400  1
  O  O10  1  0.76883600  0.76883500  0.93352700  1
  O  O11  1  0.76753700  0.30410500  0.75797400  1
  O  O12  1  0.76658100  0.76658000  0.49958700  1
