# generated using pymatgen
data_MgFe5CuO8
_symmetry_space_group_name_H-M   'P 1'
_cell_length_a   5.99991534
_cell_length_b   6.37907205
_cell_length_c   5.99391288
_cell_angle_alpha   62.73602651
_cell_angle_beta   59.78187955
_cell_angle_gamma   62.07837177
_symmetry_Int_Tables_number   1
_chemical_formula_structural   MgFe5CuO8
_chemical_formula_sum   'Mg1 Fe5 Cu1 O8'
_cell_volume   167.56353628
_cell_formula_units_Z   1
loop_
 _symmetry_equiv_pos_site_id
 _symmetry_equiv_pos_as_xyz
  1  'x, y, z'
loop_
 _atom_site_type_symbol
 _atom_site_label
 _atom_site_symmetry_multiplicity
 _atom_site_fract_x
 _atom_site_fract_y
 _atom_site_fract_z
 _atom_site_occupancy
  Mg  Mg0  1  0.13190500  0.60922700  0.13225300  1
  Fe  Fe1  1  0.95839400  0.08293800  0.96942000  1
  Fe  Fe2  1  0.12786000  0.62882400  0.62254800  1
  Fe  Fe3  1  0.61900300  0.13035600  0.62020400  1
  Fe  Fe4  1  0.62172300  0.62949500  0.12790400  1
  Fe  Fe5  1  0.62295600  0.62825000  0.62353200  1
  Cu  Cu6  1  0.28335200  0.15797800  0.27603100  1
  O  O7  1  0.36834400  0.41126700  0.36455400  1
  O  O8  1  0.37362400  0.40494900  0.85104200  1
  O  O9  1  0.39457200  0.81444600  0.39979100  1
  O  O10  1  0.85478000  0.40751300  0.36805500  1
  O  O11  1  0.38660000  0.84684800  0.88536700  1
  O  O12  1  0.85587000  0.44178900  0.85154500  1
  O  O13  1  0.87937300  0.84903800  0.39238500  1
  O  O14  1  0.88622700  0.84249700  0.89036900  1
