# generated using pymatgen
data_Na6Nb2Zn4P6(SO12)3
_symmetry_space_group_name_H-M   'P 1'
_cell_length_a   8.92163089
_cell_length_b   8.88639360
_cell_length_c   22.42197434
_cell_angle_alpha   90.25394191
_cell_angle_beta   90.00000000
_cell_angle_gamma   120.13125823
_symmetry_Int_Tables_number   1
_chemical_formula_structural   Na6Nb2Zn4P6(SO12)3
_chemical_formula_sum   'Na12 Nb4 Zn8 P12 S6 O72'
_cell_volume   1537.42039704
_cell_formula_units_Z   2
loop_
 _symmetry_equiv_pos_site_id
 _symmetry_equiv_pos_as_xyz
  1  'x, y, z'
loop_
 _atom_site_type_symbol
 _atom_site_label
 _atom_site_symmetry_multiplicity
 _atom_site_fract_x
 _atom_site_fract_y
 _atom_site_fract_z
 _atom_site_occupancy
  Na  Na0  1  0.99312043  0.63756617  0.24548655  1
  Na  Na1  1  0.64444574  0.63756617  0.74548655  1
  Na  Na2  1  0.30104829  0.33887700  0.58566251  1
  Na  Na3  1  0.66743802  0.95727108  0.58370784  1
  Na  Na4  1  0.28983406  0.95727108  0.08370784  1
  Na  Na5  1  0.03782970  0.33887700  0.08566251  1
  Na  Na6  1  0.99589277  0.98515303  0.49155800  1
  Na  Na7  1  0.98926027  0.98515303  0.99155800  1
  Na  Na8  1  0.65830241  0.31157086  0.82501265  1
  Na  Na9  1  0.65326945  0.31157086  0.32501265  1
  Na  Na10  1  0.34749684  0.66695220  0.16361200  1
  Na  Na11  1  0.31945435  0.66695220  0.66361200  1
  Nb  Nb12  1  0.67428226  0.34445603  0.97474192  1
  Nb  Nb13  1  0.67017477  0.34445603  0.47474192  1
  Nb  Nb14  1  0.33240193  0.66761372  0.31556479  1
  Nb  Nb15  1  0.33521079  0.66761372  0.81556479  1
  Zn  Zn16  1  0.00950602  0.01467038  0.35143391  1
  Zn  Zn17  1  0.00516436  0.01467038  0.85143391  1
  Zn  Zn18  1  0.99233352  0.99452079  0.65815233  1
  Zn  Zn19  1  0.00218726  0.99452079  0.15815233  1
  Zn  Zn20  1  0.65639039  0.32448503  0.68589407  1
  Zn  Zn21  1  0.66809564  0.32448503  0.18589407  1
  Zn  Zn22  1  0.33132442  0.66836302  0.00931959  1
  Zn  Zn23  1  0.33703760  0.66836302  0.50931959  1
  P  P24  1  0.29772165  0.00560096  0.25014231  1
  P  P25  1  0.99752959  0.29019333  0.24953595  1
  P  P26  1  0.29266374  0.29019333  0.74953595  1
  P  P27  1  0.70787931  0.00560096  0.75014231  1
  P  P28  1  0.66983266  0.62890974  0.58609699  1
  P  P29  1  0.95907808  0.62890974  0.08609699  1
  P  P30  1  0.62944412  0.67613128  0.91848876  1
  P  P31  1  0.04464794  0.37143003  0.91995861  1
  P  P32  1  0.32762942  0.95926323  0.92020899  1
  P  P33  1  0.63163281  0.95926323  0.42020899  1
  P  P34  1  0.32678109  0.37143003  0.41995861  1
  P  P35  1  0.04668615  0.67613128  0.41848876  1
  S  S36  1  0.70468833  0.70711387  0.25084523  1
  S  S37  1  0.00242554  0.70711387  0.75084523  1
  S  S38  1  0.95776090  0.33758037  0.58363970  1
  S  S39  1  0.37446668  0.03996269  0.58256508  1
  S  S40  1  0.66549701  0.03996269  0.08256508  1
  S  S41  1  0.37982046  0.33758037  0.08363970  1
  O  O42  1  0.20621785  0.02045445  0.30417780  1
  O  O43  1  0.81217326  0.78721621  0.30356927  1
  O  O44  1  0.97129109  0.17902996  0.30285912  1
  O  O45  1  0.20773886  0.17902996  0.80285912  1
  O  O46  1  0.97504294  0.78721621  0.80356927  1
  O  O47  1  0.81423659  0.02045445  0.80417780  1
  O  O48  1  0.76314348  0.95078580  0.69160629  1
  O  O49  1  0.19313582  0.22563143  0.68963995  1
  O  O50  1  0.03801131  0.81019500  0.69580933  1
  O  O51  1  0.77218369  0.81019500  0.19580933  1
  O  O52  1  0.03249561  0.22563143  0.18963995  1
  O  O53  1  0.18764231  0.95078580  0.19160629  1
  O  O54  1  0.87531378  0.35611197  0.63697230  1
  O  O55  1  0.48233904  0.11819877  0.63600397  1
  O  O56  1  0.64126869  0.51643703  0.64106563  1
  O  O57  1  0.87516934  0.51643703  0.14106563  1
  O  O58  1  0.63586072  0.11819877  0.13600397  1
  O  O59  1  0.48079919  0.35611197  0.13697230  1
  O  O60  1  0.47002273  0.31502618  0.02926394  1
  O  O61  1  0.83881746  0.52172316  0.02962123  1
  O  O62  1  0.68675509  0.15444306  0.02888390  1
  O  O63  1  0.46768897  0.15444306  0.52888390  1
  O  O64  1  0.68290670  0.52172316  0.52962123  1
  O  O65  1  0.84500445  0.31502618  0.52926394  1
  O  O66  1  0.54375709  0.69413921  0.97363105  1
  O  O67  1  0.13868623  0.44837501  0.97838255  1
  O  O68  1  0.30836402  0.86298468  0.97826377  1
  O  O69  1  0.55461967  0.86298468  0.47826377  1
  O  O70  1  0.30968778  0.44837501  0.47838255  1
  O  O71  1  0.15038112  0.69413921  0.47363105  1
  O  O72  1  0.12984711  0.63972859  0.36134525  1
  O  O73  1  0.50343451  0.86357764  0.36592076  1
  O  O74  1  0.35875161  0.49600447  0.36576034  1
  O  O75  1  0.13725185  0.49600447  0.86576034  1
  O  O76  1  0.36014212  0.86357764  0.86592076  1
  O  O77  1  0.50988048  0.63972859  0.86134525  1
  O  O78  1  0.01096207  0.82196432  0.40886872  1
  O  O79  1  0.80868461  0.98454566  0.40952837  1
  O  O80  1  0.17754287  0.18986705  0.41182331  1
  O  O81  1  0.01232418  0.18986705  0.91182331  1
  O  O82  1  0.17586105  0.98454566  0.90952837  1
  O  O83  1  0.81100225  0.82196432  0.90886872  1
  O  O84  1  0.96991431  0.17531565  0.58357710  1
  O  O85  1  0.20625985  0.03443212  0.58513963  1
  O  O86  1  0.83405455  0.80946680  0.58494173  1
  O  O87  1  0.97541225  0.80946680  0.08494173  1
  O  O88  1  0.82817227  0.03443212  0.08513963  1
  O  O89  1  0.20540134  0.17531565  0.08357710  1
  O  O90  1  0.68020675  0.16092137  0.74392800  1
  O  O91  1  0.48503756  0.33703689  0.74637014  1
  O  O92  1  0.84845514  0.53036443  0.74469198  1
  O  O93  1  0.68191029  0.53036443  0.24469198  1
  O  O94  1  0.85200033  0.33703689  0.24637014  1
  O  O95  1  0.48071562  0.16092137  0.24392800  1
  O  O96  1  0.63433455  0.49715141  0.92366264  1
  O  O97  1  0.86042354  0.36381760  0.92312648  1
  O  O98  1  0.50379911  0.14233415  0.92492652  1
  O  O99  1  0.63853604  0.14233415  0.42492652  1
  O  O100  1  0.50339506  0.36381760  0.42312648  1
  O  O101  1  0.86281786  0.49715141  0.42366264  1
  O  O102  1  0.35651199  0.49063901  0.07797822  1
  O  O103  1  0.13957336  0.64390143  0.07934557  1
  O  O104  1  0.50944881  0.86600481  0.07624104  1
  O  O105  1  0.35655499  0.86600481  0.57624104  1
  O  O106  1  0.50432707  0.64390143  0.57934557  1
  O  O107  1  0.13412603  0.49063901  0.57797822  1
  O  O108  1  0.31444775  0.83202940  0.26036161  1
  O  O109  1  0.52506474  0.68677208  0.25819646  1
  O  O110  1  0.17052442  0.48175443  0.25955423  1
  O  O111  1  0.31122901  0.48175443  0.75955423  1
  O  O112  1  0.16170634  0.68677208  0.75819646  1
  O  O113  1  0.51758064  0.83202940  0.76036161  1
