# generated using pymatgen
data_NaMgFe5O8
_symmetry_space_group_name_H-M   'P 1'
_cell_length_a   6.48184370
_cell_length_b   6.48184280
_cell_length_c   6.02115708
_cell_angle_alpha   62.32444267
_cell_angle_beta   90.00005282
_cell_angle_gamma   124.64912881
_symmetry_Int_Tables_number   1
_chemical_formula_structural   NaMgFe5O8
_chemical_formula_sum   'Na1 Mg1 Fe5 O8'
_cell_volume   171.76681804
_cell_formula_units_Z   1
loop_
 _symmetry_equiv_pos_site_id
 _symmetry_equiv_pos_as_xyz
  1  'x, y, z'
loop_
 _atom_site_type_symbol
 _atom_site_label
 _atom_site_symmetry_multiplicity
 _atom_site_fract_x
 _atom_site_fract_y
 _atom_site_fract_z
 _atom_site_occupancy
  Na  Na0  1  0.62500000  0.75000000  0.62500000  1
  Mg  Mg1  1  0.12500000  0.75000000  0.12500000  1
  Fe  Fe2  1  0.62500000  0.25000000  0.12500000  1
  Fe  Fe3  1  0.97761200  0.04477600  0.97761200  1
  Fe  Fe4  1  0.62500000  0.25000000  0.62500000  1
  Fe  Fe5  1  0.27238800  0.45522400  0.27238800  1
  Fe  Fe6  1  0.12500000  0.75000000  0.62500000  1
  O  O7  1  0.86491800  0.27901900  0.36049000  1
  O  O8  1  0.39486900  0.21026100  0.39486900  1
  O  O9  1  0.85513100  0.28973900  0.85513100  1
  O  O10  1  0.88950900  0.72540700  0.38508300  1
  O  O11  1  0.88950900  0.72540700  0.88951000  1
  O  O12  1  0.38508200  0.22098100  0.88951000  1
  O  O13  1  0.36049100  0.77459300  0.36049000  1
  O  O14  1  0.36049100  0.77459300  0.86491700  1
