# generated using pymatgen
data_Mn2H2SO6
_symmetry_space_group_name_H-M   'P 1'
_cell_length_a   5.80256913
_cell_length_b   6.61103665
_cell_length_c   6.61103624
_cell_angle_alpha   66.82918153
_cell_angle_beta   70.03217475
_cell_angle_gamma   70.03216990
_symmetry_Int_Tables_number   1
_chemical_formula_structural   Mn2H2SO6
_chemical_formula_sum   'Mn4 H4 S2 O12'
_cell_volume   212.74436608
_cell_formula_units_Z   2
loop_
 _symmetry_equiv_pos_site_id
 _symmetry_equiv_pos_as_xyz
  1  'x, y, z'
loop_
 _atom_site_type_symbol
 _atom_site_label
 _atom_site_symmetry_multiplicity
 _atom_site_fract_x
 _atom_site_fract_y
 _atom_site_fract_z
 _atom_site_occupancy
  Mn  Mn0  1  0.19130068  0.64173221  0.84667660  1
  Mn  Mn1  1  0.80869932  0.35826779  0.15332340  1
  Mn  Mn2  1  0.30869932  0.15332340  0.35826779  1
  Mn  Mn3  1  0.69130068  0.84667660  0.64173221  1
  H  H4  1  0.19601548  0.03959677  0.78020790  1
  H  H5  1  0.30398452  0.21979210  0.96040323  1
  H  H6  1  0.80398452  0.96040323  0.21979210  1
  H  H7  1  0.69601548  0.78020790  0.03959677  1
  S  S8  1  0.25000000  0.68531411  0.31468589  1
  S  S9  1  0.75000000  0.31468589  0.68531411  1
  O  O10  1  0.07874521  0.67379592  0.54412731  1
  O  O11  1  0.42125479  0.45587269  0.32620408  1
  O  O12  1  0.57874521  0.54412731  0.67379592  1
  O  O13  1  0.92125479  0.32620408  0.45587269  1
  O  O14  1  0.79765053  0.68416033  0.94494627  1
  O  O15  1  0.70234947  0.05505373  0.31583967  1
  O  O16  1  0.20234947  0.31583967  0.05505373  1
  O  O17  1  0.29765053  0.94494627  0.68416033  1
  O  O18  1  0.89818786  0.25345509  0.85044992  1
  O  O19  1  0.60181214  0.14955008  0.74654491  1
  O  O20  1  0.10181214  0.74654491  0.14955008  1
  O  O21  1  0.39818786  0.85044992  0.25345509  1
