# generated using pymatgen
data_Na8MgSi4Sn3(PO12)2
_symmetry_space_group_name_H-M   'P 1'
_cell_length_a   9.10954169
_cell_length_b   9.11881940
_cell_length_c   22.24590337
_cell_angle_alpha   89.90489968
_cell_angle_beta   90.07367153
_cell_angle_gamma   120.01873584
_symmetry_Int_Tables_number   1
_chemical_formula_structural   Na8MgSi4Sn3(PO12)2
_chemical_formula_sum   'Na24 Mg3 Si12 Sn9 P6 O72'
_cell_volume   1600.04846837
_cell_formula_units_Z   3
loop_
 _symmetry_equiv_pos_site_id
 _symmetry_equiv_pos_as_xyz
  1  'x, y, z'
loop_
 _atom_site_type_symbol
 _atom_site_label
 _atom_site_symmetry_multiplicity
 _atom_site_fract_x
 _atom_site_fract_y
 _atom_site_fract_z
 _atom_site_occupancy
  Na  Na0  1  0.63751034  0.01305350  0.24111287  1
  Na  Na1  1  0.37652621  0.36336431  0.24291690  1
  Na  Na2  1  0.98713423  0.62352262  0.24297559  1
  Na  Na3  1  0.63724726  0.62390981  0.74612770  1
  Na  Na4  1  0.98241580  0.36623567  0.75063060  1
  Na  Na5  1  0.38031909  0.00811962  0.74466969  1
  Na  Na6  1  0.31251673  0.33537230  0.58569988  1
  Na  Na7  1  0.02918628  0.69957819  0.58503779  1
  Na  Na8  1  0.66218824  0.96952196  0.59080526  1
  Na  Na9  1  0.30738227  0.97177281  0.08225870  1
  Na  Na10  1  0.66410486  0.69262392  0.08223939  1
  Na  Na11  1  0.02823595  0.33547431  0.08223949  1
  Na  Na12  1  0.96501390  0.66535776  0.91772461  1
  Na  Na13  1  0.70004791  0.03565443  0.91766696  1
  Na  Na14  1  0.33496990  0.30099517  0.91971444  1
  Na  Na15  1  0.97175387  0.29434957  0.41330892  1
  Na  Na16  1  0.31718035  0.03412033  0.41649666  1
  Na  Na17  1  0.71067283  0.67332372  0.41380471  1
  Na  Na18  1  0.00579878  0.99713105  0.49593717  1
  Na  Na19  1  0.99974531  0.00008934  0.00039535  1
  Na  Na20  1  0.67178247  0.33347404  0.82964317  1
  Na  Na21  1  0.66708639  0.33726152  0.32985736  1
  Na  Na22  1  0.33333401  0.66620721  0.16113884  1
  Na  Na23  1  0.33867912  0.67458323  0.66840432  1
  Mg  Mg24  1  0.00309779  0.99995037  0.35306985  1
  Mg  Mg25  1  0.66433298  0.33209251  0.68531175  1
  Mg  Mg26  1  0.66673841  0.33286981  0.17959653  1
  Si  Si27  1  0.00096846  0.70211434  0.75052950  1
  Si  Si28  1  0.70461129  0.00074484  0.75026952  1
  Si  Si29  1  0.37335674  0.03965466  0.58476619  1
  Si  Si30  1  0.66608332  0.62899574  0.58477802  1
  Si  Si31  1  0.96105163  0.62657452  0.08610369  1
  Si  Si32  1  0.66549269  0.03870828  0.08590718  1
  Si  Si33  1  0.37350620  0.33463151  0.08613203  1
  Si  Si34  1  0.62582010  0.66456628  0.91651713  1
  Si  Si35  1  0.03954382  0.37293749  0.91609873  1
  Si  Si36  1  0.33502322  0.96354042  0.91645283  1
  Si  Si37  1  0.33347871  0.37060985  0.41681373  1
  Si  Si38  1  0.03514604  0.66411903  0.41704151  1
  Sn  Sn39  1  0.99597165  0.99681601  0.85266861  1
  Sn  Sn40  1  0.99907717  0.99341368  0.64882718  1
  Sn  Sn41  1  0.00022941  0.99940522  0.14848779  1
  Sn  Sn42  1  0.66736835  0.33383333  0.98323888  1
  Sn  Sn43  1  0.66470841  0.33791597  0.48331510  1
  Sn  Sn44  1  0.33233959  0.66683247  0.01825902  1
  Sn  Sn45  1  0.33241562  0.66750386  0.51821198  1
  Sn  Sn46  1  0.33091940  0.66323056  0.31683303  1
  Sn  Sn47  1  0.33524189  0.67052803  0.81534467  1
  P  P48  1  0.29455843  0.99838042  0.25337447  1
  P  P49  1  0.70515602  0.70871219  0.25358811  1
  P  P50  1  0.00093689  0.29338213  0.25296666  1
  P  P51  1  0.29140357  0.29327227  0.75001537  1
  P  P52  1  0.95856033  0.33260616  0.58447479  1
  P  P53  1  0.62771186  0.96279003  0.41640295  1
  O  O54  1  0.20691567  0.01834183  0.30841158  1
  O  O55  1  0.81268952  0.79705129  0.30853754  1
  O  O56  1  0.98107831  0.18598626  0.30820849  1
  O  O57  1  0.20743789  0.18116807  0.80658903  1
  O  O58  1  0.97008054  0.79129396  0.80981916  1
  O  O59  1  0.82647426  0.03682763  0.80948008  1
  O  O60  1  0.78932145  0.96373043  0.69001392  1
  O  O61  1  0.17623740  0.21386093  0.69296844  1
  O  O62  1  0.04826628  0.82725693  0.69064647  1
  O  O63  1  0.78320874  0.81928335  0.19504884  1
  O  O64  1  0.03406703  0.21481503  0.19498148  1
  O  O65  1  0.18185713  0.96244743  0.19519610  1
  O  O66  1  0.87757345  0.36282702  0.63879500  1
  O  O67  1  0.49275506  0.11977631  0.64220827  1
  O  O68  1  0.62862277  0.50936748  0.64225640  1
  O  O69  1  0.88247071  0.51214459  0.14533672  1
  O  O70  1  0.62943500  0.11729480  0.14494476  1
  O  O71  1  0.48802678  0.37025391  0.14532129  1
  O  O72  1  0.44956345  0.29264048  0.02491250  1
  O  O73  1  0.84318464  0.55115445  0.02475279  1
  O  O74  1  0.70808899  0.15736029  0.02472964  1
  O  O75  1  0.45195830  0.15279141  0.52205651  1
  O  O76  1  0.71006643  0.55548809  0.52299970  1
  O  O77  1  0.85009448  0.29718699  0.52553689  1
  O  O78  1  0.54521296  0.70561453  0.97537039  1
  O  O79  1  0.15955774  0.45279610  0.97551470  1
  O  O80  1  0.29117392  0.84088791  0.97540617  1
  O  O81  1  0.54675906  0.84951839  0.47285259  1
  O  O82  1  0.30084786  0.45872117  0.47608255  1
  O  O83  1  0.15851245  0.70289587  0.47594541  1
  O  O84  1  0.11788604  0.62316950  0.35715468  1
  O  O85  1  0.50962113  0.88436059  0.36008775  1
  O  O86  1  0.38220498  0.49866405  0.35768903  1
  O  O87  1  0.12047145  0.49225851  0.85623217  1
  O  O88  1  0.37645690  0.88497745  0.85677858  1
  O  O89  1  0.50568300  0.62339421  0.85662028  1
  O  O90  1  0.01008626  0.82662462  0.41221172  1
  O  O91  1  0.80254629  0.98102471  0.40989896  1
  O  O92  1  0.16515626  0.18673565  0.41210566  1
  O  O93  1  0.02392927  0.18499653  0.91205365  1
  O  O94  1  0.16570759  0.98422565  0.91159232  1
  O  O95  1  0.81457844  0.83610266  0.91333775  1
  O  O96  1  0.98237767  0.17401311  0.58816125  1
  O  O97  1  0.18423279  0.02760588  0.58671558  1
  O  O98  1  0.83583573  0.82246212  0.58608562  1
  O  O99  1  0.98129410  0.81806285  0.08983105  1
  O  O100  1  0.83675987  0.01829346  0.08975701  1
  O  O101  1  0.18189597  0.16295581  0.08990741  1
  O  O102  1  0.68194247  0.16481130  0.74654765  1
  O  O103  1  0.46591568  0.31052890  0.74529444  1
  O  O104  1  0.83249104  0.51850692  0.74574822  1
  O  O105  1  0.68273627  0.52997504  0.24838492  1
  O  O106  1  0.84465995  0.31583197  0.24764446  1
  O  O107  1  0.47283026  0.15534251  0.24769014  1
  O  O108  1  0.64427777  0.49507586  0.92119231  1
  O  O109  1  0.85168161  0.35552884  0.92089008  1
  O  O110  1  0.50533704  0.15064003  0.92157040  1
  O  O111  1  0.64169444  0.13971016  0.42202310  1
  O  O112  1  0.50743008  0.35549681  0.41982194  1
  O  O113  1  0.85218143  0.48285779  0.42141181  1
  O  O114  1  0.35079857  0.50252218  0.07899637  1
  O  O115  1  0.15149327  0.64886815  0.07905556  1
  O  O116  1  0.49714943  0.84837600  0.07880812  1
  O  O117  1  0.34609685  0.84531020  0.57844883  1
  O  O118  1  0.49522382  0.65020952  0.57787009  1
  O  O119  1  0.13922478  0.49337449  0.57824384  1
  O  O120  1  0.31124316  0.83189749  0.25515500  1
  O  O121  1  0.52379678  0.69661392  0.25439069  1
  O  O122  1  0.16924557  0.47521147  0.25347545  1
  O  O123  1  0.30233584  0.46931716  0.75373512  1
  O  O124  1  0.17554322  0.68778846  0.75324027  1
  O  O125  1  0.52072660  0.81966624  0.75301420  1
