# generated using pymatgen
data_Na6TaIn3Si2(PO6)4
_symmetry_space_group_name_H-M   'P 1'
_cell_length_a   9.13174861
_cell_length_b   9.14822544
_cell_length_c   22.45387935
_cell_angle_alpha   90.04522534
_cell_angle_beta   89.86462818
_cell_angle_gamma   120.18112638
_symmetry_Int_Tables_number   1
_chemical_formula_structural   Na6TaIn3Si2(PO6)4
_chemical_formula_sum   'Na18 Ta3 In9 Si6 P12 O72'
_cell_volume   1621.49649625
_cell_formula_units_Z   3
loop_
 _symmetry_equiv_pos_site_id
 _symmetry_equiv_pos_as_xyz
  1  'x, y, z'
loop_
 _atom_site_type_symbol
 _atom_site_label
 _atom_site_symmetry_multiplicity
 _atom_site_fract_x
 _atom_site_fract_y
 _atom_site_fract_z
 _atom_site_occupancy
  Na  Na0  1  0.99498695  0.98534885  0.50314297  1
  Na  Na1  1  0.96754370  0.98595003  0.99356985  1
  Na  Na2  1  0.66188802  0.33624880  0.82723593  1
  Na  Na3  1  0.65948715  0.33717433  0.32702619  1
  Na  Na4  1  0.33499966  0.65255632  0.16122383  1
  Na  Na5  1  0.33200693  0.66354242  0.66527989  1
  Na  Na6  1  0.65076473  0.01249263  0.24402948  1
  Na  Na7  1  0.99795972  0.34682064  0.74457445  1
  Na  Na8  1  0.36005812  0.01053137  0.75086162  1
  Na  Na9  1  0.30063625  0.33231172  0.58942967  1
  Na  Na10  1  0.66540572  0.96638713  0.58373950  1
  Na  Na11  1  0.28883701  0.95454590  0.08275082  1
  Na  Na12  1  0.04144518  0.33934024  0.07957130  1
  Na  Na13  1  0.98830724  0.68540374  0.91549168  1
  Na  Na14  1  0.31616254  0.28886769  0.91240921  1
  Na  Na15  1  0.95902404  0.28768865  0.41549556  1
  Na  Na16  1  0.33438834  0.04022928  0.41049647  1
  Na  Na17  1  0.70487389  0.67778177  0.41823635  1
  Ta  Ta18  1  0.66649372  0.33255323  0.97775670  1
  Ta  Ta19  1  0.33104863  0.67087189  0.31235418  1
  Ta  Ta20  1  0.33963915  0.66537220  0.81876832  1
  In  In21  1  0.00172946  0.00027288  0.34547701  1
  In  In22  1  0.99687709  0.99902314  0.85031755  1
  In  In23  1  0.99747413  0.99443622  0.65280007  1
  In  In24  1  0.99810841  0.99309776  0.14904890  1
  In  In25  1  0.67026525  0.34325772  0.68240754  1
  In  In26  1  0.66121825  0.33803341  0.18605257  1
  In  In27  1  0.66703323  0.33421590  0.48217546  1
  In  In28  1  0.34313460  0.66974670  0.01566202  1
  In  In29  1  0.33186494  0.66925057  0.51749660  1
  Si  Si30  1  0.30072097  0.00142640  0.24995360  1
  Si  Si31  1  0.30249787  0.30474702  0.74991090  1
  Si  Si32  1  0.63218633  0.66784703  0.92064887  1
  Si  Si33  1  0.03641498  0.37112369  0.92010987  1
  Si  Si34  1  0.33644843  0.96134259  0.91994594  1
  Si  Si35  1  0.63211816  0.96334565  0.41771718  1
  P  P36  1  0.69587380  0.70139605  0.25387865  1
  P  P37  1  0.00415093  0.30398009  0.24927295  1
  P  P38  1  0.00837307  0.69861979  0.75289724  1
  P  P39  1  0.69469176  0.99399347  0.74737826  1
  P  P40  1  0.96740130  0.33067438  0.58280671  1
  P  P41  1  0.36459697  0.03367116  0.58293809  1
  P  P42  1  0.66853208  0.63585835  0.57912894  1
  P  P43  1  0.95617586  0.62523616  0.08249606  1
  P  P44  1  0.66856603  0.04351868  0.08549086  1
  P  P45  1  0.37082761  0.33219937  0.08256778  1
  P  P46  1  0.33174437  0.37544171  0.41740622  1
  P  P47  1  0.03973656  0.66641574  0.41627008  1
  O  O48  1  0.22042282  0.02175671  0.31190905  1
  O  O49  1  0.78719411  0.77447783  0.31353038  1
  O  O50  1  0.96901289  0.19152198  0.30530166  1
  O  O51  1  0.21669455  0.18516490  0.80769111  1
  O  O52  1  0.98164953  0.77088947  0.81077575  1
  O  O53  1  0.81805602  0.02584989  0.79817174  1
  O  O54  1  0.75932099  0.96392473  0.68737619  1
  O  O55  1  0.18016288  0.22996908  0.69070088  1
  O  O56  1  0.03854043  0.81387584  0.69870284  1
  O  O57  1  0.77645773  0.82932644  0.20226774  1
  O  O58  1  0.03274611  0.22600154  0.19245790  1
  O  O59  1  0.19105328  0.96958134  0.18957800  1
  O  O60  1  0.87988257  0.34260094  0.63997848  1
  O  O61  1  0.47537914  0.12261804  0.63808461  1
  O  O62  1  0.64632921  0.51799969  0.63092876  1
  O  O63  1  0.86994952  0.51856653  0.13754350  1
  O  O64  1  0.65488927  0.12143449  0.14449649  1
  O  O65  1  0.46779765  0.34411940  0.13895628  1
  O  O66  1  0.47460692  0.32586933  0.02671101  1
  O  O67  1  0.85048070  0.52625902  0.02540154  1
  O  O68  1  0.67819762  0.16495996  0.03282476  1
  O  O69  1  0.44524451  0.13789320  0.52470812  1
  O  O70  1  0.68664649  0.56241161  0.51852916  1
  O  O71  1  0.86601210  0.31684775  0.52529668  1
  O  O72  1  0.56330606  0.70445033  0.98037737  1
  O  O73  1  0.14400879  0.44700130  0.98025300  1
  O  O74  1  0.29433196  0.84998050  0.97967094  1
  O  O75  1  0.55753010  0.85459459  0.47857611  1
  O  O76  1  0.30502470  0.44421387  0.47672791  1
  O  O77  1  0.14315308  0.69202987  0.47261558  1
  O  O78  1  0.13994926  0.65139633  0.36183072  1
  O  O79  1  0.50268723  0.84988901  0.36158942  1
  O  O80  1  0.33933690  0.49237527  0.36544910  1
  O  O81  1  0.13936019  0.50474911  0.86330285  1
  O  O82  1  0.36216939  0.86333351  0.86176965  1
  O  O83  1  0.49957760  0.63768779  0.86430387  1
  O  O84  1  0.01601899  0.82136324  0.41145849  1
  O  O85  1  0.82247326  0.98946955  0.41109634  1
  O  O86  1  0.17860389  0.19435449  0.41185155  1
  O  O87  1  0.01313247  0.18689996  0.91090244  1
  O  O88  1  0.18033049  0.99528566  0.91165488  1
  O  O89  1  0.82586313  0.81022868  0.90942700  1
  O  O90  1  0.97674411  0.16448009  0.58342462  1
  O  O91  1  0.18943051  0.02188106  0.58694407  1
  O  O92  1  0.82364820  0.81658129  0.58487071  1
  O  O93  1  0.97141373  0.80189083  0.08124476  1
  O  O94  1  0.83735777  0.04120136  0.08211167  1
  O  O95  1  0.19646639  0.16332098  0.07958025  1
  O  O96  1  0.67074113  0.15094925  0.74516044  1
  O  O97  1  0.48837183  0.32127347  0.74505734  1
  O  O98  1  0.86434264  0.51202182  0.74631242  1
  O  O99  1  0.67402243  0.52585421  0.24658435  1
  O  O100  1  0.85075920  0.33017669  0.24573845  1
  O  O101  1  0.49851589  0.15290685  0.24858139  1
  O  O102  1  0.62911477  0.48253527  0.92390678  1
  O  O103  1  0.85409643  0.37121014  0.92362097  1
  O  O104  1  0.51211494  0.14901162  0.92574501  1
  O  O105  1  0.63690242  0.14579516  0.41592802  1
  O  O106  1  0.50109680  0.37283435  0.41529046  1
  O  O107  1  0.86539322  0.49991324  0.41572802  1
  O  O108  1  0.33962754  0.48330851  0.08147549  1
  O  O109  1  0.13525213  0.64426558  0.08066253  1
  O  O110  1  0.50512982  0.86990144  0.08137345  1
  O  O111  1  0.35287840  0.85869820  0.58152228  1
  O  O112  1  0.50362791  0.64812246  0.58145020  1
  O  O113  1  0.15057252  0.48430076  0.58185316  1
  O  O114  1  0.31906753  0.82558966  0.25786812  1
  O  O115  1  0.51267859  0.68037648  0.25922603  1
  O  O116  1  0.16830628  0.47975974  0.25932690  1
  O  O117  1  0.31471804  0.49177147  0.76007208  1
  O  O118  1  0.17794373  0.69171410  0.75717889  1
  O  O119  1  0.51409442  0.83700773  0.75834843  1
