# generated using pymatgen
data_Na3Y2Ta2SiP5O24
_symmetry_space_group_name_H-M   'P 1'
_cell_length_a   9.07634919
_cell_length_b   9.07330039
_cell_length_c   22.92862232
_cell_angle_alpha   89.93892370
_cell_angle_beta   90.13947175
_cell_angle_gamma   120.09215485
_symmetry_Int_Tables_number   1
_chemical_formula_structural   Na3Y2Ta2SiP5O24
_chemical_formula_sum   'Na9 Y6 Ta6 Si3 P15 O72'
_cell_volume   1633.72796346
_cell_formula_units_Z   3
loop_
 _symmetry_equiv_pos_site_id
 _symmetry_equiv_pos_as_xyz
  1  'x, y, z'
loop_
 _atom_site_type_symbol
 _atom_site_label
 _atom_site_symmetry_multiplicity
 _atom_site_fract_x
 _atom_site_fract_y
 _atom_site_fract_z
 _atom_site_occupancy
  Na  Na0  1  0.34679164  0.98858474  0.75207812  1
  Na  Na1  1  0.67525031  0.98353711  0.58803479  1
  Na  Na2  1  0.68586970  0.69720353  0.08156194  1
  Na  Na3  1  0.02782116  0.00029012  0.50294015  1
  Na  Na4  1  0.01965671  0.00597267  0.00258572  1
  Na  Na5  1  0.68104056  0.35126714  0.83722290  1
  Na  Na6  1  0.66318946  0.33113489  0.33583353  1
  Na  Na7  1  0.32074739  0.66647396  0.17110711  1
  Na  Na8  1  0.33036915  0.64498360  0.67064990  1
  Y  Y9  1  0.00045682  0.99663598  0.64657515  1
  Y  Y10  1  0.00879159  0.00832993  0.14762880  1
  Y  Y11  1  0.66733524  0.32994240  0.97846797  1
  Y  Y12  1  0.66341468  0.33494339  0.47714405  1
  Y  Y13  1  0.33534829  0.66765244  0.31175321  1
  Y  Y14  1  0.33756404  0.66304394  0.81407036  1
  Ta  Ta15  1  0.00026852  0.99990008  0.35242508  1
  Ta  Ta16  1  0.99264449  0.99915741  0.85259249  1
  Ta  Ta17  1  0.66852372  0.33286038  0.68521089  1
  Ta  Ta18  1  0.67070251  0.33393663  0.18669711  1
  Ta  Ta19  1  0.32682191  0.66715235  0.01869074  1
  Ta  Ta20  1  0.33127126  0.66634803  0.51850494  1
  Si  Si21  1  0.70885036  0.01189482  0.74616767  1
  Si  Si22  1  0.37220121  0.03121906  0.58161300  1
  Si  Si23  1  0.96380924  0.62154698  0.08291343  1
  P  P24  1  0.30272545  0.01736650  0.25079972  1
  P  P25  1  0.71573135  0.69908913  0.24792360  1
  P  P26  1  0.98214508  0.28582956  0.25074770  1
  P  P27  1  0.30005840  0.28583785  0.75032796  1
  P  P28  1  0.98449713  0.70000928  0.75238461  1
  P  P29  1  0.96467951  0.34954707  0.58260997  1
  P  P30  1  0.65044879  0.61716718  0.58248497  1
  P  P31  1  0.65027115  0.03226485  0.08436038  1
  P  P32  1  0.38265743  0.34820421  0.08270832  1
  P  P33  1  0.63753839  0.68187679  0.91817872  1
  P  P34  1  0.04858918  0.36392219  0.91609810  1
  P  P35  1  0.31539735  0.95182850  0.91400826  1
  P  P36  1  0.63670078  0.95174477  0.41657930  1
  P  P37  1  0.31575217  0.36574611  0.41519541  1
  P  P38  1  0.05047188  0.68381815  0.41522606  1
  O  O39  1  0.19946654  0.03281157  0.30506606  1
  O  O40  1  0.83678169  0.80398973  0.30159947  1
  O  O41  1  0.96750228  0.16746312  0.30489541  1
  O  O42  1  0.20363232  0.16550030  0.80469464  1
  O  O43  1  0.96749151  0.80022371  0.80687583  1
  O  O44  1  0.83762247  0.02545179  0.80339165  1
  O  O45  1  0.77965506  0.98545511  0.68622801  1
  O  O46  1  0.19945460  0.20386143  0.69580955  1
  O  O47  1  0.02588570  0.81365580  0.69909701  1
  O  O48  1  0.78951550  0.79455707  0.19160138  1
  O  O49  1  0.00491337  0.20963183  0.19578635  1
  O  O50  1  0.20008936  0.99115339  0.19607200  1
  O  O51  1  0.87006491  0.37321402  0.63795114  1
  O  O52  1  0.50039213  0.13644263  0.64136288  1
  O  O53  1  0.63616301  0.50635412  0.63815425  1
  O  O54  1  0.86127474  0.49363249  0.14153674  1
  O  O55  1  0.62984512  0.12802304  0.13934347  1
  O  O56  1  0.50182718  0.36857464  0.13744667  1
  O  O57  1  0.45754180  0.31936533  0.02853533  1
  O  O58  1  0.84328015  0.53781818  0.02840245  1
  O  O59  1  0.67925897  0.13566146  0.02982661  1
  O  O60  1  0.47212664  0.14065066  0.52703543  1
  O  O61  1  0.68329295  0.54486180  0.52840842  1
  O  O62  1  0.85624906  0.32050934  0.52957834  1
  O  O63  1  0.54466758  0.69942352  0.97428578  1
  O  O64  1  0.16759402  0.46623097  0.97075383  1
  O  O65  1  0.30491436  0.83020049  0.96767960  1
  O  O66  1  0.54017068  0.83638855  0.47284389  1
  O  O67  1  0.29889186  0.46406770  0.47023984  1
  O  O68  1  0.16832150  0.70076278  0.47061903  1
  O  O69  1  0.13126437  0.66159249  0.36165166  1
  O  O70  1  0.52898454  0.86894269  0.36368083  1
  O  O71  1  0.33604309  0.46691252  0.36102936  1
  O  O72  1  0.12512025  0.46643007  0.86186244  1
  O  O73  1  0.33567088  0.87695007  0.85788102  1
  O  O74  1  0.53473041  0.66530140  0.86442364  1
  O  O75  1  0.04616161  0.85572431  0.41027309  1
  O  O76  1  0.81126191  0.95312467  0.40959030  1
  O  O77  1  0.14439566  0.18761067  0.41004896  1
  O  O78  1  0.04707744  0.18952391  0.91099810  1
  O  O79  1  0.14471184  0.95484874  0.91268559  1
  O  O80  1  0.81493433  0.85405905  0.91184665  1
  O  O81  1  0.98597438  0.19451363  0.59080242  1
  O  O82  1  0.18062968  0.99037296  0.58536876  1
  O  O83  1  0.79023259  0.80347901  0.58883333  1
  O  O84  1  0.99054627  0.80970786  0.08919460  1
  O  O85  1  0.79316156  0.99179395  0.09203689  1
  O  O86  1  0.19918946  0.20816771  0.08993305  1
  O  O87  1  0.70926073  0.19721152  0.74205227  1
  O  O88  1  0.47605155  0.28994973  0.74598336  1
  O  O89  1  0.81436959  0.52944474  0.74529925  1
  O  O90  1  0.70945501  0.52202014  0.24472034  1
  O  O91  1  0.80796224  0.28591155  0.24610594  1
  O  O92  1  0.47633030  0.18926562  0.24608376  1
  O  O93  1  0.66917592  0.53291809  0.92096736  1
  O  O94  1  0.86732260  0.32658273  0.92337735  1
  O  O95  1  0.46529628  0.13004823  0.92180377  1
  O  O96  1  0.67498650  0.13392485  0.42246519  1
  O  O97  1  0.46322207  0.33253617  0.42060235  1
  O  O98  1  0.87023848  0.53779608  0.42212256  1
  O  O99  1  0.38705715  0.52532533  0.07735799  1
  O  O100  1  0.15071766  0.62986318  0.07328979  1
  O  O101  1  0.48009954  0.85460747  0.07709233  1
  O  O102  1  0.37487315  0.84601084  0.57539686  1
  O  O103  1  0.47687173  0.61801526  0.57626493  1
  O  O104  1  0.14262855  0.51478717  0.57641175  1
  O  O105  1  0.33573107  0.86993267  0.25717947  1
  O  O106  1  0.53576815  0.66728943  0.25534486  1
  O  O107  1  0.12704339  0.46786937  0.25702426  1
  O  O108  1  0.33242416  0.46608831  0.75585204  1
  O  O109  1  0.13442722  0.67099438  0.76037497  1
  O  O110  1  0.51293967  0.86501723  0.75412934  1
