# generated using pymatgen
data_NaTaSiSn(PO6)2
_symmetry_space_group_name_H-M   'P 1'
_cell_length_a   8.80538842
_cell_length_b   8.79033357
_cell_length_c   22.89775265
_cell_angle_alpha   90.22340503
_cell_angle_beta   90.00000000
_cell_angle_gamma   120.05667052
_symmetry_Int_Tables_number   1
_chemical_formula_structural   NaTaSiSn(PO6)2
_chemical_formula_sum   'Na6 Ta6 Si6 Sn6 P12 O72'
_cell_volume   1533.99756810
_cell_formula_units_Z   6
loop_
 _symmetry_equiv_pos_site_id
 _symmetry_equiv_pos_as_xyz
  1  'x, y, z'
loop_
 _atom_site_type_symbol
 _atom_site_label
 _atom_site_symmetry_multiplicity
 _atom_site_fract_x
 _atom_site_fract_y
 _atom_site_fract_z
 _atom_site_occupancy
  Na  Na0  1  0.00172350  0.00319282  0.49860611  1
  Na  Na1  1  0.00146932  0.00319282  0.99860611  1
  Na  Na2  1  0.66979776  0.33590871  0.83193739  1
  Na  Na3  1  0.66611195  0.33590871  0.33193739  1
  Na  Na4  1  0.33454799  0.66497650  0.16519945  1
  Na  Na5  1  0.33042751  0.66497650  0.66519945  1
  Ta  Ta6  1  0.00043123  0.99985334  0.64540769  1
  Ta  Ta7  1  0.99942210  0.99985334  0.14540769  1
  Ta  Ta8  1  0.66487736  0.33290949  0.97871160  1
  Ta  Ta9  1  0.66803313  0.33290949  0.47871160  1
  Ta  Ta10  1  0.33803669  0.66356846  0.31192807  1
  Ta  Ta11  1  0.32553078  0.66356846  0.81192807  1
  Si  Si12  1  0.71358199  0.71000601  0.24989609  1
  Si  Si13  1  0.99642401  0.71000601  0.74989609  1
  Si  Si14  1  0.95863044  0.33600782  0.58319626  1
  Si  Si15  1  0.37737838  0.33600782  0.08319626  1
  Si  Si16  1  0.04287274  0.37366340  0.91667106  1
  Si  Si17  1  0.33078965  0.37366340  0.41667106  1
  Sn  Sn18  1  0.00019502  0.99918490  0.35248871  1
  Sn  Sn19  1  0.99898988  0.99918490  0.85248871  1
  Sn  Sn20  1  0.67179017  0.33620789  0.68587072  1
  Sn  Sn21  1  0.66441873  0.33620789  0.18587072  1
  Sn  Sn22  1  0.33234672  0.66197426  0.01923522  1
  Sn  Sn23  1  0.32962654  0.66197426  0.51923522  1
  P  P24  1  0.29017705  0.00083225  0.24978403  1
  P  P25  1  0.99703964  0.28786799  0.24963462  1
  P  P26  1  0.29082835  0.28786799  0.74963462  1
  P  P27  1  0.71065520  0.00083225  0.74978403  1
  P  P28  1  0.37982520  0.04475387  0.58331913  1
  P  P29  1  0.66450882  0.62108267  0.58342712  1
  P  P30  1  0.95657485  0.62108267  0.08342712  1
  P  P31  1  0.66492967  0.04475387  0.08331913  1
  P  P32  1  0.62208676  0.66859233  0.91655220  1
  P  P33  1  0.33167859  0.95325408  0.91715739  1
  P  P34  1  0.62157449  0.95325408  0.41715739  1
  P  P35  1  0.04650457  0.66859233  0.41655220  1
  O  O36  1  0.21272737  0.03550901  0.30472953  1
  O  O37  1  0.82833383  0.79433761  0.30796312  1
  O  O38  1  0.96651324  0.17873131  0.30482498  1
  O  O39  1  0.21221807  0.17873131  0.80482498  1
  O  O40  1  0.96600379  0.79433761  0.80796312  1
  O  O41  1  0.82278164  0.03550901  0.80472953  1
  O  O42  1  0.79889920  0.96995140  0.69519460  1
  O  O43  1  0.17148941  0.20361706  0.69509948  1
  O  O44  1  0.03213349  0.83604279  0.69265900  1
  O  O45  1  0.80390930  0.83604279  0.19265900  1
  O  O46  1  0.03212765  0.20361706  0.19509948  1
  O  O47  1  0.17105220  0.96995140  0.19519460  1
  O  O48  1  0.87386290  0.36768525  0.64044459  1
  O  O49  1  0.48781073  0.12306103  0.63860875  1
  O  O50  1  0.63008593  0.51022647  0.63801880  1
  O  O51  1  0.88014155  0.51022647  0.13801880  1
  O  O52  1  0.63525130  0.12306103  0.13860875  1
  O  O53  1  0.49382334  0.36768525  0.14044459  1
  O  O54  1  0.47030817  0.30107865  0.02572119  1
  O  O55  1  0.83804949  0.53528309  0.02864397  1
  O  O56  1  0.69843620  0.16264471  0.02849057  1
  O  O57  1  0.46420951  0.16264471  0.52849057  1
  O  O58  1  0.69723460  0.53528309  0.52864397  1
  O  O59  1  0.83077147  0.30107865  0.52572119  1
  O  O60  1  0.54654498  0.70268976  0.97145690  1
  O  O61  1  0.16006518  0.45825363  0.97367966  1
  O  O62  1  0.30228509  0.84496569  0.97194078  1
  O  O63  1  0.54267960  0.84496569  0.47194078  1
  O  O64  1  0.29818745  0.45825363  0.47367966  1
  O  O65  1  0.15614378  0.70268976  0.47145690  1
  O  O66  1  0.13048739  0.63596755  0.36174243  1
  O  O67  1  0.50342309  0.86945819  0.36204420  1
  O  O68  1  0.36447914  0.50185731  0.35921629  1
  O  O69  1  0.13737717  0.50185731  0.85921629  1
  O  O70  1  0.36603410  0.86945819  0.86204420  1
  O  O71  1  0.50547916  0.63596755  0.86174243  1
  O  O72  1  0.02163676  0.82807805  0.41038382  1
  O  O73  1  0.80441377  0.97666266  0.41014654  1
  O  O74  1  0.16043237  0.18130604  0.40925171  1
  O  O75  1  0.02087367  0.18130604  0.90925171  1
  O  O76  1  0.17224890  0.97666266  0.91014654  1
  O  O77  1  0.80644129  0.82807805  0.91038382  1
  O  O78  1  0.97531302  0.15790228  0.59186515  1
  O  O79  1  0.19479698  0.02708486  0.59084617  1
  O  O80  1  0.83349541  0.80550254  0.59100726  1
  O  O81  1  0.97200713  0.80550254  0.09100726  1
  O  O82  1  0.83228787  0.02708486  0.09084617  1
  O  O83  1  0.18258927  0.15790228  0.09186515  1
  O  O84  1  0.68554227  0.15889088  0.74316324  1
  O  O85  1  0.47216657  0.30841191  0.74201693  1
  O  O86  1  0.82702338  0.51679443  0.74470005  1
  O  O87  1  0.68977205  0.51679443  0.24470005  1
  O  O88  1  0.83624634  0.30841191  0.24201693  1
  O  O89  1  0.47334961  0.15889088  0.24316324  1
  O  O90  1  0.63949888  0.50025706  0.92459705  1
  O  O91  1  0.84942075  0.35755411  0.92501824  1
  O  O92  1  0.50015386  0.13860246  0.92419528  1
  O  O93  1  0.63844960  0.13860246  0.42419528  1
  O  O94  1  0.50813436  0.35755411  0.42501824  1
  O  O95  1  0.86075918  0.50025706  0.42459705  1
  O  O96  1  0.35633557  0.50701751  0.07774579  1
  O  O97  1  0.14066757  0.64848799  0.07644412  1
  O  O98  1  0.50353076  0.86228917  0.07567051  1
  O  O99  1  0.35875742  0.86228917  0.57567051  1
  O  O100  1  0.50781942  0.64848799  0.57644412  1
  O  O101  1  0.15068094  0.50701751  0.57774579  1
  O  O102  1  0.30394556  0.83197177  0.25761061  1
  O  O103  1  0.51800074  0.69444868  0.25818486  1
  O  O104  1  0.16361478  0.47354028  0.25765095  1
  O  O105  1  0.30992450  0.47354028  0.75765095  1
  O  O106  1  0.17644694  0.69444868  0.75818486  1
  O  O107  1  0.52802522  0.83197177  0.75761061  1
