# generated using pymatgen
data_Na5ScNb3Si5PO24
_symmetry_space_group_name_H-M   'P 1'
_cell_length_a   9.06823807
_cell_length_b   9.05815180
_cell_length_c   22.62930130
_cell_angle_alpha   90.08260158
_cell_angle_beta   90.04075172
_cell_angle_gamma   119.97826455
_symmetry_Int_Tables_number   1
_chemical_formula_structural   Na5ScNb3Si5PO24
_chemical_formula_sum   'Na15 Sc3 Nb9 Si15 P3 O72'
_cell_volume   1610.12027026
_cell_formula_units_Z   3
loop_
 _symmetry_equiv_pos_site_id
 _symmetry_equiv_pos_as_xyz
  1  'x, y, z'
loop_
 _atom_site_type_symbol
 _atom_site_label
 _atom_site_symmetry_multiplicity
 _atom_site_fract_x
 _atom_site_fract_y
 _atom_site_fract_z
 _atom_site_occupancy
  Na  Na0  1  0.99214520  0.62991249  0.24395786  1
  Na  Na1  1  0.63289317  0.62271820  0.74690074  1
  Na  Na2  1  0.98966458  0.36566993  0.74656077  1
  Na  Na3  1  0.37481218  0.00936711  0.74819168  1
  Na  Na4  1  0.31466637  0.97308805  0.08398187  1
  Na  Na5  1  0.66469228  0.69024484  0.08423039  1
  Na  Na6  1  0.96698959  0.29071444  0.41385075  1
  Na  Na7  1  0.32295728  0.03265489  0.41293831  1
  Na  Na8  1  0.70810780  0.67658462  0.41447513  1
  Na  Na9  1  0.99968598  0.99973381  0.50102672  1
  Na  Na10  1  0.99919834  0.00890344  0.99556587  1
  Na  Na11  1  0.66601585  0.33367151  0.83413432  1
  Na  Na12  1  0.65024586  0.31868123  0.32425381  1
  Na  Na13  1  0.33358000  0.65709860  0.16524871  1
  Na  Na14  1  0.33217174  0.66389737  0.66407286  1
  Sc  Sc15  1  0.00463057  0.00236373  0.35264535  1
  Sc  Sc16  1  0.66965828  0.33807952  0.68556286  1
  Sc  Sc17  1  0.65819057  0.32541784  0.18397955  1
  Nb  Nb18  1  0.00015347  0.99903845  0.85676566  1
  Nb  Nb19  1  0.99561885  0.99944705  0.64473317  1
  Nb  Nb20  1  0.00441189  0.00417859  0.14555722  1
  Nb  Nb21  1  0.66701991  0.33187197  0.97788823  1
  Nb  Nb22  1  0.67127328  0.33633231  0.48205103  1
  Nb  Nb23  1  0.32900204  0.66303278  0.01858538  1
  Nb  Nb24  1  0.33329525  0.66348234  0.52210778  1
  Nb  Nb25  1  0.33744908  0.67069220  0.31174672  1
  Nb  Nb26  1  0.33299778  0.66565048  0.81438535  1
  Si  Si27  1  0.29793208  0.00438387  0.25244560  1
  Si  Si28  1  0.28623061  0.28715082  0.75046403  1
  Si  Si29  1  0.00217817  0.71363079  0.75010241  1
  Si  Si30  1  0.71055144  0.99812816  0.75102015  1
  Si  Si31  1  0.96070378  0.33303663  0.58567030  1
  Si  Si32  1  0.66789851  0.62803300  0.58564736  1
  Si  Si33  1  0.95699346  0.61938195  0.08604823  1
  Si  Si34  1  0.66803402  0.04404327  0.08296513  1
  Si  Si35  1  0.37871229  0.33605924  0.08332386  1
  Si  Si36  1  0.62429965  0.66601987  0.91719119  1
  Si  Si37  1  0.04013469  0.37473409  0.91582437  1
  Si  Si38  1  0.33464676  0.95924272  0.91670963  1
  Si  Si39  1  0.62090107  0.95678641  0.41771685  1
  Si  Si40  1  0.33503677  0.37876926  0.41670944  1
  Si  Si41  1  0.04447246  0.66465515  0.41669385  1
  P  P42  1  0.70792926  0.70977579  0.25091441  1
  P  P43  1  0.00148419  0.29263337  0.25199856  1
  P  P44  1  0.37443041  0.04164037  0.58383820  1
  O  O45  1  0.20440364  0.01500849  0.31198750  1
  O  O46  1  0.81228437  0.79507518  0.30710739  1
  O  O47  1  0.98100563  0.19303985  0.30908404  1
  O  O48  1  0.18905525  0.16415899  0.80696016  1
  O  O49  1  0.97479861  0.81005716  0.80669711  1
  O  O50  1  0.83586038  0.02664670  0.80687044  1
  O  O51  1  0.80327909  0.96410155  0.69306023  1
  O  O52  1  0.16015238  0.19613861  0.69289138  1
  O  O53  1  0.03672853  0.84026529  0.69291333  1
  O  O54  1  0.79669684  0.82217141  0.19495329  1
  O  O55  1  0.01857884  0.19259423  0.19782473  1
  O  O56  1  0.16843175  0.97354102  0.19417807  1
  O  O57  1  0.88090619  0.36216453  0.64480449  1
  O  O58  1  0.47800905  0.11740434  0.64018861  1
  O  O59  1  0.63404891  0.51853534  0.64492557  1
  O  O60  1  0.88505864  0.51925772  0.14694669  1
  O  O61  1  0.61735226  0.11818504  0.13884863  1
  O  O62  1  0.49976102  0.38203242  0.14006566  1
  O  O63  1  0.46444949  0.29387978  0.02628903  1
  O  O64  1  0.82657496  0.52834611  0.02974720  1
  O  O65  1  0.69777342  0.16623240  0.02526795  1
  O  O66  1  0.46912402  0.15622984  0.52822178  1
  O  O67  1  0.68781127  0.52586652  0.52651107  1
  O  O68  1  0.83787282  0.30868813  0.52627177  1
  O  O69  1  0.53011989  0.69069569  0.97494134  1
  O  O70  1  0.16441044  0.47549554  0.97205628  1
  O  O71  1  0.31097331  0.84192540  0.97480469  1
  O  O72  1  0.52389776  0.83112165  0.47275835  1
  O  O73  1  0.30783472  0.47616116  0.47290264  1
  O  O74  1  0.17103251  0.69422967  0.47174689  1
  O  O75  1  0.13161419  0.62842989  0.35775105  1
  O  O76  1  0.49350286  0.86301072  0.35957002  1
  O  O77  1  0.36998015  0.50696434  0.35993499  1
  O  O78  1  0.13507828  0.49350185  0.85694603  1
  O  O79  1  0.35763090  0.86248897  0.85790642  1
  O  O80  1  0.50420831  0.64193669  0.85831127  1
  O  O81  1  0.01683355  0.82760872  0.41351464  1
  O  O82  1  0.80814644  0.97854103  0.41279397  1
  O  O83  1  0.16640260  0.19224458  0.41411617  1
  O  O84  1  0.02551175  0.18894397  0.91103538  1
  O  O85  1  0.16322038  0.97401285  0.91081407  1
  O  O86  1  0.81059995  0.83686716  0.91063509  1
  O  O87  1  0.97988019  0.16196888  0.58731737  1
  O  O88  1  0.19700025  0.02675776  0.58615608  1
  O  O89  1  0.84310355  0.81476938  0.58724980  1
  O  O90  1  0.97503876  0.81447740  0.09118960  1
  O  O91  1  0.83318650  0.01442313  0.09105193  1
  O  O92  1  0.18884331  0.16112288  0.09164061  1
  O  O93  1  0.68706954  0.16323298  0.74686350  1
  O  O94  1  0.47332849  0.30634272  0.74739341  1
  O  O95  1  0.83459027  0.52549036  0.74778476  1
  O  O96  1  0.69680677  0.53585487  0.24602922  1
  O  O97  1  0.85237836  0.32577114  0.24607426  1
  O  O98  1  0.48472305  0.16668572  0.24754173  1
  O  O99  1  0.63903858  0.49472576  0.92330905  1
  O  O100  1  0.85585633  0.36246606  0.92272197  1
  O  O101  1  0.50588650  0.14556574  0.92198808  1
  O  O102  1  0.62996519  0.14244672  0.42324141  1
  O  O103  1  0.50715164  0.36264193  0.42367040  1
  O  O104  1  0.85636254  0.48867884  0.42352644  1
  O  O105  1  0.35499771  0.50265176  0.07393283  1
  O  O106  1  0.15402517  0.66140368  0.07547413  1
  O  O107  1  0.50297341  0.84975148  0.07374846  1
  O  O108  1  0.35401441  0.86261004  0.57443795  1
  O  O109  1  0.50273855  0.65360808  0.57445719  1
  O  O110  1  0.14808837  0.50293005  0.57459427  1
  O  O111  1  0.29708568  0.81706299  0.25466116  1
  O  O112  1  0.52767255  0.69378481  0.25485399  1
  O  O113  1  0.17039290  0.47166047  0.25374116  1
  O  O114  1  0.30047459  0.47617393  0.75552264  1
  O  O115  1  0.17687796  0.69989815  0.75535207  1
  O  O116  1  0.52336979  0.82197619  0.75530446  1
