# generated using pymatgen
data_Na6Zr4Nb4Si9(SO16)3
_symmetry_space_group_name_H-M   'P 1'
_cell_length_a   18.08773015
_cell_length_b   9.01828548
_cell_length_c   23.11096471
_cell_angle_alpha   89.99572450
_cell_angle_beta   89.92280441
_cell_angle_gamma   119.85126083
_symmetry_Int_Tables_number   1
_chemical_formula_structural   Na6Zr4Nb4Si9(SO16)3
_chemical_formula_sum   'Na18 Zr12 Nb12 Si27 S9 O144'
_cell_volume   3269.67938859
_cell_formula_units_Z   3
loop_
 _symmetry_equiv_pos_site_id
 _symmetry_equiv_pos_as_xyz
  1  'x, y, z'
loop_
 _atom_site_type_symbol
 _atom_site_label
 _atom_site_symmetry_multiplicity
 _atom_site_fract_x
 _atom_site_fract_y
 _atom_site_fract_z
 _atom_site_occupancy
  Na  Na0  1  0.00230957  0.64648015  0.24450219  1
  Na  Na1  1  0.49988404  0.62160610  0.24771341  1
  Na  Na2  1  0.99951394  0.37831251  0.74811484  1
  Na  Na3  1  0.50291201  0.36546683  0.74633292  1
  Na  Na4  1  0.33389383  0.97534489  0.58753919  1
  Na  Na5  1  0.83189758  0.69093873  0.08124442  1
  Na  Na6  1  0.99748791  0.00912207  0.50339242  1
  Na  Na7  1  0.50571029  0.00229271  0.50383916  1
  Na  Na8  1  0.00518336  0.01137193  0.99849475  1
  Na  Na9  1  0.49811848  0.98766606  0.99635118  1
  Na  Na10  1  0.32770235  0.33911099  0.82956148  1
  Na  Na11  1  0.82687947  0.33921265  0.83138736  1
  Na  Na12  1  0.32920101  0.31825505  0.33354531  1
  Na  Na13  1  0.82090581  0.31263770  0.33390721  1
  Na  Na14  1  0.17220243  0.68083053  0.15962692  1
  Na  Na15  1  0.66218283  0.65309686  0.16870800  1
  Na  Na16  1  0.16455112  0.67463227  0.67099909  1
  Na  Na17  1  0.66570657  0.66250485  0.66631698  1
  Zr  Zr18  1  0.50721811  0.01282600  0.64867492  1
  Zr  Zr19  1  0.00547511  0.98891021  0.14450225  1
  Zr  Zr20  1  0.33416107  0.32507103  0.69071578  1
  Zr  Zr21  1  0.82763584  0.34389651  0.68601105  1
  Zr  Zr22  1  0.32876037  0.31203693  0.18579104  1
  Zr  Zr23  1  0.82944556  0.34177101  0.18769349  1
  Zr  Zr24  1  0.66277476  0.67185336  0.01811615  1
  Zr  Zr25  1  0.16472584  0.65492308  0.52043471  1
  Zr  Zr26  1  0.17701567  0.67726095  0.31645332  1
  Zr  Zr27  1  0.66709619  0.67687185  0.31080425  1
  Zr  Zr28  1  0.16812559  0.65753165  0.81078384  1
  Zr  Zr29  1  0.67175170  0.67806684  0.81438662  1
  Nb  Nb30  1  0.99977208  0.99811934  0.35534756  1
  Nb  Nb31  1  0.50478610  0.01009295  0.35648670  1
  Nb  Nb32  1  0.00341258  0.99832186  0.85573717  1
  Nb  Nb33  1  0.49880963  0.98474754  0.85084492  1
  Nb  Nb34  1  0.00642365  0.99658343  0.64047851  1
  Nb  Nb35  1  0.50619937  0.01593458  0.13963065  1
  Nb  Nb36  1  0.33512283  0.34772446  0.98634994  1
  Nb  Nb37  1  0.83231364  0.34368316  0.97381996  1
  Nb  Nb38  1  0.33280059  0.32319618  0.47559115  1
  Nb  Nb39  1  0.83407564  0.32098816  0.48734716  1
  Nb  Nb40  1  0.16859112  0.65222599  0.02149871  1
  Nb  Nb41  1  0.66794493  0.68424426  0.52281774  1
  Si  Si42  1  0.14693621  0.00054946  0.25318600  1
  Si  Si43  1  0.64277291  0.00355977  0.24821539  1
  Si  Si44  1  0.85484516  0.71401463  0.24925384  1
  Si  Si45  1  0.49912774  0.28601821  0.25026277  1
  Si  Si46  1  0.14196844  0.28108704  0.74822709  1
  Si  Si47  1  0.64696430  0.29097956  0.75384665  1
  Si  Si48  1  0.99915457  0.71132216  0.75026987  1
  Si  Si49  1  0.50129157  0.70787993  0.74798455  1
  Si  Si50  1  0.35533560  0.99393122  0.74935427  1
  Si  Si51  1  0.47925046  0.33618616  0.58209435  1
  Si  Si52  1  0.97903059  0.33157960  0.58938225  1
  Si  Si53  1  0.19160880  0.04620470  0.58180315  1
  Si  Si54  1  0.68566782  0.04396703  0.58568775  1
  Si  Si55  1  0.83282170  0.62568854  0.57996483  1
  Si  Si56  1  0.47947959  0.62582958  0.08916187  1
  Si  Si57  1  0.97893886  0.61519838  0.08248879  1
  Si  Si58  1  0.33241291  0.03971534  0.08003249  1
  Si  Si59  1  0.18749562  0.33027258  0.08551905  1
  Si  Si60  1  0.69004675  0.33772853  0.08059467  1
  Si  Si61  1  0.31356985  0.66688873  0.91651507  1
  Si  Si62  1  0.81372080  0.67509580  0.91810264  1
  Si  Si63  1  0.02210171  0.37631545  0.91562536  1
  Si  Si64  1  0.66522953  0.96451747  0.91653701  1
  Si  Si65  1  0.31575868  0.95769010  0.41931790  1
  Si  Si66  1  0.81158678  0.96065296  0.41623928  1
  Si  Si67  1  0.16677416  0.37114157  0.41597719  1
  Si  Si68  1  0.52196844  0.66697402  0.41573993  1
  S  S69  1  0.35851821  0.71776089  0.25017028  1
  S  S70  1  0.00070807  0.28760454  0.25107656  1
  S  S71  1  0.85937097  0.99976842  0.74985100  1
  S  S72  1  0.33345839  0.61990298  0.58226433  1
  S  S73  1  0.83369247  0.04643935  0.08315583  1
  S  S74  1  0.51741244  0.37047117  0.91633346  1
  S  S75  1  0.16923725  0.96029299  0.91737311  1
  S  S76  1  0.66939227  0.37839328  0.41693076  1
  S  S77  1  0.01854752  0.66406279  0.41555020  1
  O  O78  1  0.09292601  0.01483384  0.30883817  1
  O  O79  1  0.59311084  0.02076288  0.30596350  1
  O  O80  1  0.40906354  0.80054562  0.30312306  1
  O  O81  1  0.91927616  0.81991399  0.30424739  1
  O  O82  1  0.48984267  0.16530013  0.30726809  1
  O  O83  1  0.99107635  0.18467699  0.30377572  1
  O  O84  1  0.09083341  0.16495228  0.80603522  1
  O  O85  1  0.59388227  0.16778511  0.80907003  1
  O  O86  1  0.48954434  0.80334793  0.80651785  1
  O  O87  1  0.98960629  0.81368876  0.80734387  1
  O  O88  1  0.41839826  0.02058955  0.80505897  1
  O  O89  1  0.91047767  0.01934868  0.80312724  1
  O  O90  1  0.39628783  0.97257786  0.68907887  1
  O  O91  1  0.89810137  0.97715646  0.69745596  1
  O  O92  1  0.07894592  0.18378087  0.69250172  1
  O  O93  1  0.58774359  0.21118562  0.69581225  1
  O  O94  1  0.00561081  0.82948335  0.69331720  1
  O  O95  1  0.51552780  0.82736626  0.69233876  1
  O  O96  1  0.39639072  0.81793423  0.19742934  1
  O  O97  1  0.89800914  0.82202099  0.19023747  1
  O  O98  1  0.01251918  0.20980225  0.19888461  1
  O  O99  1  0.50554728  0.18100205  0.19335655  1
  O  O100  1  0.08653959  0.96731476  0.19607442  1
  O  O101  1  0.58067111  0.97706283  0.19249902  1
  O  O102  1  0.44151855  0.36849019  0.64184371  1
  O  O103  1  0.93600304  0.35861178  0.64644743  1
  O  O104  1  0.25094647  0.13326885  0.63764368  1
  O  O105  1  0.74490334  0.12863413  0.64095422  1
  O  O106  1  0.32259748  0.52104902  0.63487467  1
  O  O107  1  0.81482763  0.50996447  0.63746271  1
  O  O108  1  0.43597127  0.51274708  0.14634540  1
  O  O109  1  0.94085798  0.51187246  0.14353015  1
  O  O110  1  0.31425584  0.11829488  0.13800229  1
  O  O111  1  0.82330919  0.12653764  0.13594554  1
  O  O112  1  0.24500144  0.36186291  0.14175548  1
  O  O113  1  0.74906758  0.36807769  0.13792446  1
  O  O114  1  0.23754869  0.30964065  0.02814922  1
  O  O115  1  0.73667597  0.30801822  0.02533418  1
  O  O116  1  0.41777822  0.52787247  0.03102360  1
  O  O117  1  0.91233639  0.51353406  0.02984087  1
  O  O118  1  0.34765815  0.16724987  0.02458827  1
  O  O119  1  0.84313018  0.14633291  0.03087370  1
  O  O120  1  0.23636685  0.16622290  0.52472725  1
  O  O121  1  0.73809178  0.16401267  0.52783665  1
  O  O122  1  0.34117300  0.53695778  0.52976775  1
  O  O123  1  0.84777176  0.52780029  0.52385211  1
  O  O124  1  0.41332418  0.31408753  0.52844496  1
  O  O125  1  0.91740922  0.30683308  0.53078207  1
  O  O126  1  0.26365228  0.68759652  0.97344532  1
  O  O127  1  0.77313739  0.70041713  0.97741711  1
  O  O128  1  0.08539124  0.47705199  0.97095853  1
  O  O129  1  0.57117155  0.45621822  0.96791769  1
  O  O130  1  0.15476799  0.85447058  0.96942267  1
  O  O131  1  0.64963219  0.84295321  0.97269454  1
  O  O132  1  0.27229166  0.84405412  0.47616478  1
  O  O133  1  0.76589690  0.84076452  0.47300858  1
  O  O134  1  0.14798508  0.45679658  0.47147240  1
  O  O135  1  0.65509741  0.45462336  0.46896200  1
  O  O136  1  0.07143171  0.68920207  0.46651625  1
  O  O137  1  0.58624383  0.69582609  0.47036363  1
  O  O138  1  0.05854462  0.64391652  0.36218519  1
  O  O139  1  0.55867076  0.62948935  0.35700885  1
  O  O140  1  0.25606080  0.87276572  0.36213229  1
  O  O141  1  0.75306734  0.87414281  0.36001831  1
  O  O142  1  0.17822324  0.48782474  0.35904168  1
  O  O143  1  0.67946433  0.47660207  0.36445179  1
  O  O144  1  0.05823203  0.48748544  0.85728572  1
  O  O145  1  0.55692971  0.47406904  0.86364498  1
  O  O146  1  0.17921880  0.88175453  0.86494624  1
  O  O147  1  0.68007265  0.87438801  0.86045675  1
  O  O148  1  0.25312937  0.63270488  0.86110610  1
  O  O149  1  0.75431662  0.64055965  0.86224502  1
  O  O150  1  0.00962693  0.82063151  0.41094288  1
  O  O151  1  0.51302132  0.84050915  0.40741538  1
  O  O152  1  0.41064594  0.98126259  0.40760330  1
  O  O153  1  0.90804991  0.98222650  0.40707116  1
  O  O154  1  0.08191396  0.17925491  0.40588468  1
  O  O155  1  0.59099778  0.20104872  0.41175150  1
  O  O156  1  0.01295569  0.18503271  0.90875474  1
  O  O157  1  0.50859388  0.19992949  0.91243225  1
  O  O158  1  0.09046257  0.97997240  0.91226042  1
  O  O159  1  0.58204835  0.98948005  0.90993752  1
  O  O160  1  0.40774982  0.83798519  0.91126530  1
  O  O161  1  0.91002774  0.84045322  0.90797426  1
  O  O162  1  0.47980018  0.15534782  0.58307557  1
  O  O163  1  0.98482506  0.15624655  0.59155938  1
  O  O164  1  0.09560473  0.02533672  0.58838593  1
  O  O165  1  0.59234527  0.02308201  0.58371208  1
  O  O166  1  0.40867030  0.79490794  0.58510937  1
  O  O167  1  0.91769243  0.81366382  0.58881696  1
  O  O168  1  0.48506266  0.81285981  0.09256707  1
  O  O169  1  0.98054629  0.80094242  0.08523697  1
  O  O170  1  0.41727132  0.02095933  0.08987500  1
  O  O171  1  0.90966213  0.02389947  0.08789753  1
  O  O172  1  0.09199055  0.16654101  0.08677229  1
  O  O173  1  0.59526353  0.16681222  0.08800399  1
  O  O174  1  0.35434470  0.17516347  0.74783973  1
  O  O175  1  0.85308551  0.15692331  0.74761827  1
  O  O176  1  0.23503127  0.30126246  0.74470783  1
  O  O177  1  0.73882135  0.30192239  0.75038498  1
  O  O178  1  0.41672951  0.52012532  0.74714293  1
  O  O179  1  0.91647659  0.51967430  0.74771443  1
  O  O180  1  0.35149951  0.54762681  0.24772939  1
  O  O181  1  0.85689411  0.53219261  0.24802676  1
  O  O182  1  0.41659250  0.31350945  0.24783346  1
  O  O183  1  0.92342024  0.30524762  0.24798627  1
  O  O184  1  0.23863246  0.17021312  0.25066565  1
  O  O185  1  0.73809420  0.16849721  0.24475368  1
  O  O186  1  0.32560797  0.49649747  0.92714356  1
  O  O187  1  0.82670712  0.50522848  0.92353921  1
  O  O188  1  0.43204717  0.35552735  0.92292955  1
  O  O189  1  0.92695916  0.34795174  0.93075926  1
  O  O190  1  0.24399459  0.13394196  0.92357246  1
  O  O191  1  0.75202056  0.15095046  0.92601908  1
  O  O192  1  0.32674494  0.14995971  0.42334008  1
  O  O193  1  0.82623301  0.15701788  0.42551262  1
  O  O194  1  0.25141785  0.35380433  0.42426213  1
  O  O195  1  0.74444449  0.35384803  0.42261818  1
  O  O196  1  0.42647659  0.50702023  0.42978650  1
  O  O197  1  0.93259876  0.51254235  0.42069812  1
  O  O198  1  0.17918142  0.50270592  0.07572791  1
  O  O199  1  0.68313355  0.50905353  0.07568311  1
  O  O200  1  0.07481722  0.64768572  0.07148834  1
  O  O201  1  0.57269304  0.64645459  0.07818806  1
  O  O202  1  0.24847604  0.85285537  0.06943110  1
  O  O203  1  0.75744705  0.87081183  0.07953156  1
  O  O204  1  0.18270665  0.85863396  0.57443062  1
  O  O205  1  0.67860348  0.85580597  0.57554442  1
  O  O206  1  0.25629494  0.64229655  0.57836125  1
  O  O207  1  0.74880588  0.64397795  0.56838285  1
  O  O208  1  0.07159137  0.49790007  0.57726484  1
  O  O209  1  0.57480377  0.50029559  0.56908965  1
  O  O210  1  0.14763882  0.81905210  0.25835429  1
  O  O211  1  0.64474450  0.82516615  0.25256841  1
  O  O212  1  0.27123998  0.69677568  0.25510753  1
  O  O213  1  0.76064471  0.68410558  0.25711287  1
  O  O214  1  0.07538515  0.46344742  0.25720239  1
  O  O215  1  0.58376970  0.47266210  0.25438800  1
  O  O216  1  0.14341172  0.46313420  0.75263301  1
  O  O217  1  0.65223856  0.47631885  0.75994146  1
  O  O218  1  0.08406784  0.69530640  0.75445083  1
  O  O219  1  0.58317278  0.68005355  0.75638382  1
  O  O220  1  0.26097946  0.83234053  0.75743099  1
  O  O221  1  0.77315230  0.84725973  0.75492302  1
