# generated using pymatgen
data_Na6Hf6Mg2Si5S7O48
_symmetry_space_group_name_H-M   'P 1'
_cell_length_a   17.87161521
_cell_length_b   8.96656242
_cell_length_c   23.23846872
_cell_angle_alpha   89.99236090
_cell_angle_beta   90.03283753
_cell_angle_gamma   120.13837032
_symmetry_Int_Tables_number   1
_chemical_formula_structural   Na6Hf6Mg2Si5S7O48
_chemical_formula_sum   'Na18 Hf18 Mg6 Si15 S21 O144'
_cell_volume   3220.48002760
_cell_formula_units_Z   3
loop_
 _symmetry_equiv_pos_site_id
 _symmetry_equiv_pos_as_xyz
  1  'x, y, z'
loop_
 _atom_site_type_symbol
 _atom_site_label
 _atom_site_symmetry_multiplicity
 _atom_site_fract_x
 _atom_site_fract_y
 _atom_site_fract_z
 _atom_site_occupancy
  Na  Na0  1  0.65516196  0.34583442  0.58202939  1
  Na  Na1  1  0.52201161  0.69069620  0.58380261  1
  Na  Na2  1  0.82285741  0.95389842  0.58250978  1
  Na  Na3  1  0.15366935  0.96169620  0.08447138  1
  Na  Na4  1  0.32264968  0.69287817  0.08485972  1
  Na  Na5  1  0.02190031  0.35386083  0.08628727  1
  Na  Na6  1  0.00452532  0.99456626  0.49530633  1
  Na  Na7  1  0.49601733  0.00576452  0.50024812  1
  Na  Na8  1  0.99696952  0.98694707  0.00230067  1
  Na  Na9  1  0.50286769  0.00656258  0.99981066  1
  Na  Na10  1  0.32844411  0.32283721  0.82116091  1
  Na  Na11  1  0.82914810  0.33051995  0.83384876  1
  Na  Na12  1  0.32708825  0.32590415  0.33489560  1
  Na  Na13  1  0.83455557  0.34223562  0.32486789  1
  Na  Na14  1  0.16423591  0.66497659  0.16117092  1
  Na  Na15  1  0.67193556  0.67531151  0.17134916  1
  Na  Na16  1  0.17149520  0.66747304  0.66690936  1
  Na  Na17  1  0.66514834  0.66449234  0.65641484  1
  Hf  Hf18  1  0.00004477  0.99084492  0.35523621  1
  Hf  Hf19  1  0.50228572  0.99874625  0.35285233  1
  Hf  Hf20  1  0.00291647  0.00532839  0.85225668  1
  Hf  Hf21  1  0.49950982  0.99736538  0.85051311  1
  Hf  Hf22  1  0.00586431  0.00512513  0.64624435  1
  Hf  Hf23  1  0.49315539  0.00394584  0.64432390  1
  Hf  Hf24  1  0.99509020  0.98413530  0.14816638  1
  Hf  Hf25  1  0.50356646  0.00629127  0.14979775  1
  Hf  Hf26  1  0.32812896  0.31807623  0.98548197  1
  Hf  Hf27  1  0.83303734  0.34677071  0.97822175  1
  Hf  Hf28  1  0.33226176  0.31866887  0.47737533  1
  Hf  Hf29  1  0.83274045  0.34797417  0.48275399  1
  Hf  Hf30  1  0.67217025  0.67904798  0.01579163  1
  Hf  Hf31  1  0.16735382  0.66757418  0.51165351  1
  Hf  Hf32  1  0.16465638  0.66235079  0.31961416  1
  Hf  Hf33  1  0.67271782  0.68038098  0.30943494  1
  Hf  Hf34  1  0.17119241  0.66447422  0.80833534  1
  Hf  Hf35  1  0.67233475  0.67790979  0.81585430  1
  Mg  Mg36  1  0.33473848  0.32291168  0.68946247  1
  Mg  Mg37  1  0.82681804  0.33106246  0.67839205  1
  Mg  Mg38  1  0.32498781  0.31936545  0.18168503  1
  Mg  Mg39  1  0.83727345  0.34741668  0.19185294  1
  Mg  Mg40  1  0.16587300  0.66875513  0.02510795  1
  Mg  Mg41  1  0.66660193  0.66482268  0.52441260  1
  Si  Si42  1  0.64998698  0.00813800  0.24929289  1
  Si  Si43  1  0.85517256  0.70219155  0.25085518  1
  Si  Si44  1  0.14998808  0.29104542  0.74909812  1
  Si  Si45  1  0.35580210  0.01026362  0.75054005  1
  Si  Si46  1  0.47610003  0.33841106  0.58541704  1
  Si  Si47  1  0.68860322  0.04051503  0.58486525  1
  Si  Si48  1  0.83489294  0.62843136  0.58641117  1
  Si  Si49  1  0.97608589  0.61700729  0.08573527  1
  Si  Si50  1  0.33611568  0.04229501  0.08583968  1
  Si  Si51  1  0.18679322  0.33606914  0.08623777  1
  Si  Si52  1  0.81502368  0.67094775  0.91543232  1
  Si  Si53  1  0.66580958  0.96144615  0.91692773  1
  Si  Si54  1  0.31465849  0.95743483  0.41505921  1
  Si  Si55  1  0.16661027  0.37304225  0.41663278  1
  Si  Si56  1  0.01721549  0.66058379  0.41683614  1
  S  S57  1  0.14795993  0.00243137  0.25020168  1
  S  S58  1  0.35436439  0.70555704  0.24928771  1
  S  S59  1  0.00056138  0.29125732  0.24949986  1
  S  S60  1  0.49734783  0.29059230  0.25106123  1
  S  S61  1  0.64715485  0.29223353  0.75008470  1
  S  S62  1  0.99730180  0.70523283  0.75059050  1
  S  S63  1  0.50054046  0.70823496  0.74928946  1
  S  S64  1  0.85557866  0.00478232  0.74934734  1
  S  S65  1  0.97977812  0.33811115  0.58541165  1
  S  S66  1  0.18992805  0.04195987  0.58466532  1
  S  S67  1  0.32983118  0.61693098  0.58480066  1
  S  S68  1  0.47941818  0.62119110  0.08464867  1
  S  S69  1  0.83135294  0.04464749  0.08434916  1
  S  S70  1  0.68850485  0.33533734  0.08403252  1
  S  S71  1  0.31165318  0.66615114  0.91768612  1
  S  S72  1  0.02272154  0.37840553  0.91740679  1
  S  S73  1  0.52155093  0.37755141  0.91624719  1
  S  S74  1  0.16694077  0.95496171  0.91689601  1
  S  S75  1  0.81090733  0.95660528  0.41827389  1
  S  S76  1  0.66608049  0.37842653  0.41711396  1
  S  S77  1  0.52277960  0.66668407  0.41760259  1
  O  O78  1  0.10444645  0.02385707  0.30098736  1
  O  O79  1  0.59613077  0.02304002  0.30461568  1
  O  O80  1  0.40887053  0.79744989  0.30044761  1
  O  O81  1  0.91414977  0.81080967  0.30571126  1
  O  O82  1  0.48580845  0.18079455  0.30202120  1
  O  O83  1  0.99240217  0.18581188  0.30046602  1
  O  O84  1  0.09659522  0.17007132  0.80527373  1
  O  O85  1  0.60282948  0.18324881  0.80216542  1
  O  O86  1  0.49252614  0.79978504  0.80155038  1
  O  O87  1  0.98599710  0.79177679  0.80243053  1
  O  O88  1  0.41452677  0.02048180  0.80700362  1
  O  O89  1  0.90817424  0.01886641  0.80144473  1
  O  O90  1  0.39927856  0.96431483  0.69625436  1
  O  O91  1  0.89429553  0.97391702  0.69713260  1
  O  O92  1  0.08328375  0.19703936  0.69499164  1
  O  O93  1  0.59377586  0.21063795  0.69799988  1
  O  O94  1  0.01233962  0.81582259  0.69907257  1
  O  O95  1  0.51629756  0.81595465  0.69771080  1
  O  O96  1  0.39626389  0.81572242  0.19622505  1
  O  O97  1  0.89704371  0.83071661  0.19450789  1
  O  O98  1  0.01433013  0.21187630  0.19584398  1
  O  O99  1  0.51227327  0.20939477  0.19879567  1
  O  O100  1  0.09442287  0.97877183  0.19690344  1
  O  O101  1  0.58386019  0.96946147  0.19396048  1
  O  O102  1  0.43403031  0.37814095  0.63954628  1
  O  O103  1  0.94055874  0.35998830  0.63733977  1
  O  O104  1  0.24038637  0.12304412  0.63611927  1
  O  O105  1  0.74992262  0.12084480  0.63984127  1
  O  O106  1  0.31836576  0.51674554  0.63658567  1
  O  O107  1  0.81763986  0.51044476  0.64152421  1
  O  O108  1  0.44099472  0.52030270  0.13621743  1
  O  O109  1  0.93263482  0.48723066  0.13796728  1
  O  O110  1  0.31885809  0.12952786  0.13958056  1
  O  O111  1  0.81638850  0.11620050  0.13580111  1
  O  O112  1  0.25179868  0.37948543  0.13865920  1
  O  O113  1  0.74002018  0.36163118  0.13509230  1
  O  O114  1  0.23173625  0.29654059  0.02803115  1
  O  O115  1  0.72535321  0.30450989  0.03077872  1
  O  O116  1  0.42523836  0.54427898  0.03128181  1
  O  O117  1  0.91703436  0.53103677  0.02666828  1
  O  O118  1  0.35319608  0.16529301  0.02679914  1
  O  O119  1  0.84421745  0.14615462  0.03118272  1
  O  O120  1  0.22538290  0.14589559  0.53152941  1
  O  O121  1  0.73205699  0.16751595  0.52770624  1
  O  O122  1  0.34530837  0.54350130  0.53207108  1
  O  O123  1  0.85293617  0.54300680  0.52820115  1
  O  O124  1  0.41667192  0.30457126  0.52730726  1
  O  O125  1  0.92569777  0.30388975  0.53279601  1
  O  O126  1  0.27382323  0.69306785  0.96903006  1
  O  O127  1  0.76674257  0.69317527  0.97206664  1
  O  O128  1  0.07424490  0.45230487  0.96915441  1
  O  O129  1  0.57413424  0.45717818  0.96870314  1
  O  O130  1  0.15472250  0.85654467  0.96922213  1
  O  O131  1  0.64973473  0.83489030  0.97249247  1
  O  O132  1  0.27114902  0.84332875  0.47302304  1
  O  O133  1  0.77227539  0.85075880  0.46923743  1
  O  O134  1  0.15121405  0.46233293  0.47354108  1
  O  O135  1  0.65349829  0.45270819  0.46916452  1
  O  O136  1  0.07848542  0.69517587  0.47361465  1
  O  O137  1  0.57410266  0.69594928  0.46923641  1
  O  O138  1  0.06480052  0.63745264  0.36014415  1
  O  O139  1  0.56258692  0.63989799  0.36535376  1
  O  O140  1  0.25419362  0.86935093  0.35861989  1
  O  O141  1  0.75616190  0.87092573  0.36571369  1
  O  O142  1  0.18305901  0.49477319  0.36002664  1
  O  O143  1  0.67647766  0.48298880  0.36488059  1
  O  O144  1  0.06252672  0.48523223  0.86548069  1
  O  O145  1  0.56322256  0.48256027  0.86437906  1
  O  O146  1  0.17780197  0.87297194  0.86500974  1
  O  O147  1  0.67782337  0.86243974  0.86103363  1
  O  O148  1  0.25737396  0.64095579  0.86561215  1
  O  O149  1  0.75219774  0.63849651  0.85992386  1
  O  O150  1  0.00959758  0.83446081  0.41072952  1
  O  O151  1  0.51195582  0.82180081  0.40858556  1
  O  O152  1  0.41084074  0.97965309  0.40772069  1
  O  O153  1  0.89790298  0.97730018  0.40902264  1
  O  O154  1  0.08011226  0.18613883  0.40830921  1
  O  O155  1  0.58800567  0.20144988  0.40890689  1
  O  O156  1  0.01165943  0.20150177  0.90840019  1
  O  O157  1  0.51273454  0.20427397  0.90995922  1
  O  O158  1  0.08949146  0.97745713  0.90915635  1
  O  O159  1  0.57962203  0.97897795  0.90921118  1
  O  O160  1  0.39959810  0.82188567  0.90856641  1
  O  O161  1  0.90979547  0.84227815  0.90818630  1
  O  O162  1  0.48984393  0.16639380  0.59019960  1
  O  O163  1  0.98563432  0.17439007  0.59094573  1
  O  O164  1  0.10039690  0.02151473  0.59039162  1
  O  O165  1  0.59041831  0.01869090  0.59249626  1
  O  O166  1  0.41262733  0.79305265  0.58992527  1
  O  O167  1  0.91985139  0.82803133  0.59236313  1
  O  O168  1  0.48628210  0.79609509  0.08921205  1
  O  O169  1  0.99038848  0.81648378  0.09048449  1
  O  O170  1  0.42102161  0.01194549  0.09021668  1
  O  O171  1  0.91169407  0.02985277  0.08894480  1
  O  O172  1  0.08965236  0.16139884  0.09072089  1
  O  O173  1  0.59939945  0.17784139  0.08971886  1
  O  O174  1  0.34606615  0.17520789  0.74750322  1
  O  O175  1  0.84745736  0.15746055  0.74536780  1
  O  O176  1  0.24423016  0.32020237  0.74322386  1
  O  O177  1  0.73269642  0.31016408  0.74678073  1
  O  O178  1  0.42256003  0.54055587  0.74611243  1
  O  O179  1  0.92226821  0.53372062  0.74457176  1
  O  O180  1  0.34927996  0.53859438  0.24404323  1
  O  O181  1  0.84471722  0.51781465  0.24655746  1
  O  O182  1  0.42229956  0.31077848  0.24365565  1
  O  O183  1  0.92345583  0.30503133  0.24402647  1
  O  O184  1  0.23335524  0.15753875  0.24527493  1
  O  O185  1  0.74359509  0.16726334  0.24188227  1
  O  O186  1  0.32362024  0.51302276  0.92256793  1
  O  O187  1  0.82198490  0.49733460  0.92128898  1
  O  O188  1  0.43512244  0.36192026  0.92242905  1
  O  O189  1  0.93387219  0.35247015  0.92304729  1
  O  O190  1  0.24546946  0.13345210  0.92139789  1
  O  O191  1  0.75310784  0.14537665  0.92519255  1
  O  O192  1  0.32353565  0.14765780  0.42146020  1
  O  O193  1  0.81983514  0.12916606  0.42284397  1
  O  O194  1  0.25332415  0.35955424  0.42580334  1
  O  O195  1  0.74318705  0.35630111  0.42123505  1
  O  O196  1  0.43407706  0.51528384  0.42298343  1
  O  O197  1  0.92310922  0.48586389  0.42299903  1
  O  O198  1  0.17574954  0.50004711  0.07381545  1
  O  O199  1  0.67503450  0.48593778  0.07477927  1
  O  O200  1  0.07305831  0.65101455  0.07491094  1
  O  O201  1  0.56658501  0.64225787  0.07579125  1
  O  O202  1  0.25276943  0.85546657  0.07401166  1
  O  O203  1  0.75468984  0.86373180  0.07639771  1
  O  O204  1  0.17733076  0.86606342  0.57813948  1
  O  O205  1  0.67484831  0.85044577  0.57468035  1
  O  O206  1  0.25534284  0.64640147  0.57819023  1
  O  O207  1  0.75193284  0.65085640  0.57530033  1
  O  O208  1  0.06760706  0.48857665  0.57845814  1
  O  O209  1  0.57362988  0.49643522  0.57528825  1
  O  O210  1  0.15408857  0.84361565  0.25458536  1
  O  O211  1  0.64888968  0.82277403  0.25881300  1
  O  O212  1  0.26901867  0.69279991  0.25397260  1
  O  O213  1  0.75854443  0.68756487  0.25830123  1
  O  O214  1  0.08041569  0.46605811  0.25446164  1
  O  O215  1  0.57785283  0.46092173  0.25828441  1
  O  O216  1  0.14942600  0.47454326  0.75923921  1
  O  O217  1  0.65206848  0.46271036  0.75752785  1
  O  O218  1  0.07765681  0.69528047  0.75887204  1
  O  O219  1  0.57880682  0.69027545  0.75833670  1
  O  O220  1  0.25988825  0.83174186  0.75952367  1
  O  O221  1  0.76819142  0.84410076  0.75614651  1
