# generated using pymatgen
data_Na18Mg8Ta4Si9(SO8)9
_symmetry_space_group_name_H-M   'P 1'
_cell_length_a   9.02792038
_cell_length_b   9.03393014
_cell_length_c   22.38615295
_cell_angle_alpha   90.67789409
_cell_angle_beta   89.69293369
_cell_angle_gamma   119.87999625
_symmetry_Int_Tables_number   1
_chemical_formula_structural   Na18Mg8Ta4Si9(SO8)9
_chemical_formula_sum   'Na18 Mg8 Ta4 Si9 S9 O72'
_cell_volume   1582.95278711
_cell_formula_units_Z   1
loop_
 _symmetry_equiv_pos_site_id
 _symmetry_equiv_pos_as_xyz
  1  'x, y, z'
loop_
 _atom_site_type_symbol
 _atom_site_label
 _atom_site_symmetry_multiplicity
 _atom_site_fract_x
 _atom_site_fract_y
 _atom_site_fract_z
 _atom_site_occupancy
  Na  Na0  1  0.65674418  0.03021002  0.25882832  1
  Na  Na1  1  0.34154736  0.33203195  0.25404835  1
  Na  Na2  1  0.99310489  0.63351491  0.24052924  1
  Na  Na3  1  0.64094618  0.63407692  0.73206718  1
  Na  Na4  1  0.98985735  0.33838114  0.73644218  1
  Na  Na5  1  0.37689575  0.03331333  0.74997118  1
  Na  Na6  1  0.29735697  0.34138358  0.59166931  1
  Na  Na7  1  0.02299659  0.68737907  0.58670669  1
  Na  Na8  1  0.67698312  0.95348978  0.58141938  1
  Na  Na9  1  0.27788325  0.94596169  0.08366241  1
  Na  Na10  1  0.67981682  0.70494471  0.08463907  1
  Na  Na11  1  0.03002695  0.34104542  0.09613910  1
  Na  Na12  1  0.97087383  0.99588128  0.49800936  1
  Na  Na13  1  0.01155651  0.98302706  0.99279727  1
  Na  Na14  1  0.64512051  0.31209818  0.82320898  1
  Na  Na15  1  0.66255994  0.30975725  0.33190310  1
  Na  Na16  1  0.30408399  0.66119181  0.16695987  1
  Na  Na17  1  0.33800598  0.65002329  0.65504024  1
  Mg  Mg18  1  0.00221583  0.01797798  0.35208115  1
  Mg  Mg19  1  0.01650594  0.01575401  0.84912089  1
  Mg  Mg20  1  0.98650211  0.01421773  0.64613214  1
  Mg  Mg21  1  0.01355167  0.99813843  0.15548914  1
  Mg  Mg22  1  0.66859556  0.33454391  0.68365555  1
  Mg  Mg23  1  0.67510469  0.33203217  0.18773739  1
  Mg  Mg24  1  0.31819999  0.67339912  0.01552856  1
  Mg  Mg25  1  0.34788918  0.66749785  0.51925444  1
  Ta  Ta26  1  0.66959096  0.33795407  0.97534941  1
  Ta  Ta27  1  0.67575319  0.33006588  0.48149984  1
  Ta  Ta28  1  0.33318393  0.67559077  0.31748921  1
  Ta  Ta29  1  0.34082038  0.67974487  0.81391281  1
  Si  Si30  1  0.29298743  0.00169891  0.24913545  1
  Si  Si31  1  0.00037262  0.29344331  0.24762705  1
  Si  Si32  1  0.29668683  0.29225240  0.74960809  1
  Si  Si33  1  0.71665377  0.00538400  0.75139339  1
  Si  Si34  1  0.97007094  0.33966218  0.58632910  1
  Si  Si35  1  0.66996056  0.62914753  0.58591875  1
  Si  Si36  1  0.96129279  0.62994151  0.08589577  1
  Si  Si37  1  0.31946964  0.96080142  0.92234157  1
  Si  Si38  1  0.63798034  0.96334385  0.42237801  1
  S  S39  1  0.70179973  0.70657625  0.24991963  1
  S  S40  1  0.00308968  0.70913302  0.75258362  1
  S  S41  1  0.37632390  0.04267950  0.58310594  1
  S  S42  1  0.66595801  0.04240501  0.08134368  1
  S  S43  1  0.38027742  0.33749719  0.08159273  1
  S  S44  1  0.62180528  0.66560753  0.91971478  1
  S  S45  1  0.04029463  0.37319975  0.91959132  1
  S  S46  1  0.33723774  0.37513838  0.41745697  1
  S  S47  1  0.03794434  0.66683030  0.41893016  1
  O  O48  1  0.19510841  0.02656883  0.30429025  1
  O  O49  1  0.81165836  0.78588229  0.30136884  1
  O  O50  1  0.95676129  0.16037740  0.30011154  1
  O  O51  1  0.21600032  0.16694660  0.80499658  1
  O  O52  1  0.98115924  0.79217258  0.80549176  1
  O  O53  1  0.82675518  0.02480509  0.80933205  1
  O  O54  1  0.76878417  0.94290498  0.69070884  1
  O  O55  1  0.18050887  0.22969496  0.68913566  1
  O  O56  1  0.04491565  0.81000588  0.69780594  1
  O  O57  1  0.76828636  0.80939067  0.19421388  1
  O  O58  1  0.04811244  0.22815043  0.18513364  1
  O  O59  1  0.18357819  0.94188099  0.18671387  1
  O  O60  1  0.88269978  0.36739152  0.64511223  1
  O  O61  1  0.47951861  0.11785189  0.63761240  1
  O  O62  1  0.63859735  0.51117639  0.64321390  1
  O  O63  1  0.86585218  0.51399304  0.14289146  1
  O  O64  1  0.63489795  0.11647357  0.13576936  1
  O  O65  1  0.47844442  0.35784488  0.13623829  1
  O  O66  1  0.47353804  0.31565270  0.02823580  1
  O  O67  1  0.83011672  0.51517451  0.02701093  1
  O  O68  1  0.68156855  0.15355779  0.02849351  1
  O  O69  1  0.46815219  0.15442385  0.52954740  1
  O  O70  1  0.67837670  0.51086211  0.52618057  1
  O  O71  1  0.83276833  0.31253046  0.52724650  1
  O  O72  1  0.53659034  0.67581401  0.97437699  1
  O  O73  1  0.13758953  0.45483596  0.97402335  1
  O  O74  1  0.31810382  0.86737368  0.98263498  1
  O  O75  1  0.53650329  0.86101273  0.47998563  1
  O  O76  1  0.31851308  0.45890049  0.47095777  1
  O  O77  1  0.13818082  0.68159898  0.47181698  1
  O  O78  1  0.12595570  0.63871135  0.36314898  1
  O  O79  1  0.50506000  0.85517257  0.36187656  1
  O  O80  1  0.35494995  0.48299569  0.36228730  1
  O  O81  1  0.11871343  0.47986015  0.86621520  1
  O  O82  1  0.34982248  0.85740941  0.86408811  1
  O  O83  1  0.51097274  0.63724238  0.86598866  1
  O  O84  1  0.01747364  0.81326118  0.40935534  1
  O  O85  1  0.82181921  0.98336248  0.41231344  1
  O  O86  1  0.18973002  0.20497451  0.41067639  1
  O  O87  1  0.00934385  0.19942066  0.91431515  1
  O  O88  1  0.15792357  0.98475647  0.91351056  1
  O  O89  1  0.79230300  0.81040674  0.91308194  1
  O  O90  1  0.97989172  0.16605324  0.58118210  1
  O  O91  1  0.20899476  0.03385265  0.58550454  1
  O  O92  1  0.85159580  0.80784543  0.58371309  1
  O  O93  1  0.97015797  0.81608776  0.08336879  1
  O  O94  1  0.82710829  0.03716506  0.08311502  1
  O  O95  1  0.20975960  0.18302098  0.08091515  1
  O  O96  1  0.67852440  0.16266942  0.74566417  1
  O  O97  1  0.49390012  0.33621791  0.74490780  1
  O  O98  1  0.85712831  0.53521107  0.74779176  1
  O  O99  1  0.66982468  0.52984343  0.24200190  1
  O  O100  1  0.84488003  0.33627498  0.24560661  1
  O  O101  1  0.48609125  0.16572802  0.24284772  1
  O  O102  1  0.63481868  0.50127150  0.92226714  1
  O  O103  1  0.86234298  0.36029268  0.92417468  1
  O  O104  1  0.50676632  0.15557490  0.92540866  1
  O  O105  1  0.64107959  0.15361921  0.42110888  1
  O  O106  1  0.49926323  0.36652994  0.41846423  1
  O  O107  1  0.86618264  0.50399706  0.41980696  1
  O  O108  1  0.36835574  0.49423564  0.07371618  1
  O  O109  1  0.14819276  0.64104647  0.08058746  1
  O  O110  1  0.52088998  0.86567520  0.07470950  1
  O  O111  1  0.35271652  0.86980555  0.57547454  1
  O  O112  1  0.50404143  0.65253539  0.57942018  1
  O  O113  1  0.15062052  0.51295197  0.57493365  1
  O  O114  1  0.31946321  0.82697192  0.26119968  1
  O  O115  1  0.52520831  0.68859824  0.25800148  1
  O  O116  1  0.18179150  0.48687316  0.26067716  1
  O  O117  1  0.30704421  0.48546659  0.76590140  1
  O  O118  1  0.16167532  0.68466090  0.76125126  1
  O  O119  1  0.51150517  0.82772865  0.76260998  1
