# generated using pymatgen
data_Na9Nb10Zn2Si9(PO8)9
_symmetry_space_group_name_H-M   'P 1'
_cell_length_a   8.92292169
_cell_length_b   8.91749843
_cell_length_c   22.69012743
_cell_angle_alpha   89.99896641
_cell_angle_beta   89.98679375
_cell_angle_gamma   119.88938378
_symmetry_Int_Tables_number   1
_chemical_formula_structural   Na9Nb10Zn2Si9(PO8)9
_chemical_formula_sum   'Na9 Nb10 Zn2 Si9 P9 O72'
_cell_volume   1565.31114620
_cell_formula_units_Z   1
loop_
 _symmetry_equiv_pos_site_id
 _symmetry_equiv_pos_as_xyz
  1  'x, y, z'
loop_
 _atom_site_type_symbol
 _atom_site_label
 _atom_site_symmetry_multiplicity
 _atom_site_fract_x
 _atom_site_fract_y
 _atom_site_fract_z
 _atom_site_occupancy
  Na  Na0  1  0.62844748  0.00839745  0.24477263  1
  Na  Na1  1  0.37827292  0.36489890  0.24361107  1
  Na  Na2  1  0.99108121  0.36944725  0.74400545  1
  Na  Na3  1  0.00039186  0.99926360  0.49845640  1
  Na  Na4  1  0.99959468  0.99888528  0.99906827  1
  Na  Na5  1  0.65237353  0.33209049  0.82561812  1
  Na  Na6  1  0.68240225  0.34754214  0.32708715  1
  Na  Na7  1  0.32054374  0.66462271  0.16445800  1
  Na  Na8  1  0.34676646  0.67803296  0.66556841  1
  Nb  Nb9  1  0.99251236  0.99732818  0.35673697  1
  Nb  Nb10  1  0.00657550  0.00385738  0.85645627  1
  Nb  Nb11  1  0.00297737  0.00234201  0.64499682  1
  Nb  Nb12  1  0.99705703  0.00035970  0.14507973  1
  Nb  Nb13  1  0.66718373  0.33441347  0.97781692  1
  Nb  Nb14  1  0.66635688  0.33441206  0.47811120  1
  Nb  Nb15  1  0.33406542  0.66614150  0.01957369  1
  Nb  Nb16  1  0.33234201  0.66536941  0.52001348  1
  Nb  Nb17  1  0.32983230  0.66299395  0.31326541  1
  Nb  Nb18  1  0.33781554  0.66749476  0.81237791  1
  Zn  Zn19  1  0.65238673  0.33183664  0.68515152  1
  Zn  Zn20  1  0.68170702  0.34678648  0.18524399  1
  Si  Si21  1  0.71087750  0.70598598  0.25029981  1
  Si  Si22  1  0.99793051  0.29162721  0.24986590  1
  Si  Si23  1  0.29804963  0.29132597  0.74982771  1
  Si  Si24  1  0.62303712  0.66760933  0.91669411  1
  Si  Si25  1  0.04547696  0.38036297  0.91589327  1
  Si  Si26  1  0.33515497  0.95446164  0.91676765  1
  Si  Si27  1  0.61886991  0.95491160  0.41663937  1
  Si  Si28  1  0.33299776  0.37672827  0.41674991  1
  Si  Si29  1  0.04454507  0.66702017  0.41748826  1
  P  P30  1  0.28207793  0.99488957  0.25023498  1
  P  P31  1  0.00059417  0.71274943  0.75033730  1
  P  P32  1  0.71215348  0.99792006  0.74995948  1
  P  P33  1  0.95460562  0.33464083  0.58656673  1
  P  P34  1  0.38038181  0.04447890  0.58510270  1
  P  P35  1  0.66595206  0.62171575  0.58505620  1
  P  P36  1  0.95701385  0.62217935  0.08437919  1
  P  P37  1  0.66428812  0.04407304  0.08589092  1
  P  P38  1  0.37817960  0.33350042  0.08583122  1
  O  O39  1  0.19215458  0.01730282  0.30484739  1
  O  O40  1  0.83002013  0.80894305  0.30753853  1
  O  O41  1  0.98330181  0.16990221  0.30663869  1
  O  O42  1  0.18626758  0.17132488  0.80678880  1
  O  O43  1  0.98372545  0.80666061  0.80528039  1
  O  O44  1  0.82438296  0.01308290  0.80451117  1
  O  O45  1  0.80086878  0.97095711  0.69399137  1
  O  O46  1  0.16362058  0.19084412  0.69284069  1
  O  O47  1  0.02191113  0.82707670  0.69466051  1
  O  O48  1  0.80902359  0.83614423  0.19281437  1
  O  O49  1  0.03396728  0.19635952  0.19199325  1
  O  O50  1  0.16982874  0.97065977  0.19400222  1
  O  O51  1  0.88441928  0.36268645  0.64370552  1
  O  O52  1  0.48568914  0.11675538  0.64011352  1
  O  O53  1  0.63487048  0.51723296  0.64020109  1
  O  O54  1  0.88619820  0.51835257  0.13968067  1
  O  O55  1  0.63529920  0.11350938  0.14289722  1
  O  O56  1  0.47577975  0.36103471  0.14296452  1
  O  O57  1  0.47251118  0.31236916  0.03114394  1
  O  O58  1  0.84285937  0.53373964  0.02884109  1
  O  O59  1  0.68956960  0.16007586  0.03112276  1
  O  O60  1  0.46473566  0.15843522  0.52930325  1
  O  O61  1  0.69119289  0.53346816  0.52923768  1
  O  O62  1  0.83876498  0.30990328  0.53182887  1
  O  O63  1  0.52935326  0.69573587  0.97400785  1
  O  O64  1  0.16905826  0.47315889  0.97289990  1
  O  O65  1  0.30602518  0.83344888  0.97432404  1
  O  O66  1  0.52414866  0.83162942  0.47341163  1
  O  O67  1  0.30500724  0.47240301  0.47346690  1
  O  O68  1  0.16515033  0.69282376  0.47478299  1
  O  O69  1  0.13700272  0.63595943  0.35948992  1
  O  O70  1  0.50376938  0.86897389  0.35688729  1
  O  O71  1  0.36550946  0.49683042  0.35735555  1
  O  O72  1  0.13212049  0.49772288  0.85652076  1
  O  O73  1  0.36431521  0.86263824  0.85880843  1
  O  O74  1  0.49855085  0.63459185  0.85876846  1
  O  O75  1  0.02678315  0.83778466  0.41020263  1
  O  O76  1  0.81014572  0.97517005  0.41100343  1
  O  O77  1  0.16471295  0.18719877  0.40948811  1
  O  O78  1  0.02254103  0.18806494  0.90908739  1
  O  O79  1  0.16382780  0.97380640  0.90959666  1
  O  O80  1  0.81195758  0.83641485  0.90847451  1
  O  O81  1  0.97287180  0.16640401  0.58938339  1
  O  O82  1  0.19313133  0.02375817  0.59003613  1
  O  O83  1  0.83183616  0.80700973  0.58882691  1
  O  O84  1  0.97668685  0.80759129  0.08807460  1
  O  O85  1  0.83209096  0.02566649  0.08855536  1
  O  O86  1  0.19379336  0.16652664  0.08754276  1
  O  O87  1  0.70404294  0.16292067  0.74644672  1
  O  O88  1  0.48224664  0.30836551  0.74787146  1
  O  O89  1  0.84821674  0.53110996  0.74698527  1
  O  O90  1  0.67524360  0.51312070  0.24746309  1
  O  O91  1  0.82248321  0.29610978  0.24701510  1
  O  O92  1  0.46099128  0.15381012  0.24608793  1
  O  O93  1  0.63882908  0.49448092  0.92626119  1
  O  O94  1  0.85517420  0.36028192  0.92651930  1
  O  O95  1  0.50475745  0.14493174  0.92668952  1
  O  O96  1  0.64005449  0.14571136  0.42682984  1
  O  O97  1  0.50642894  0.36154666  0.42625490  1
  O  O98  1  0.85545136  0.49451065  0.42647159  1
  O  O99  1  0.35075078  0.49230049  0.07578518  1
  O  O100  1  0.14297023  0.64924831  0.07467092  1
  O  O101  1  0.50752540  0.85804563  0.07575974  1
  O  O102  1  0.35002812  0.85772943  0.57519734  1
  O  O103  1  0.50774698  0.64994781  0.57517731  1
  O  O104  1  0.14075250  0.49091231  0.57619053  1
  O  O105  1  0.29936606  0.82949715  0.25447999  1
  O  O106  1  0.52469177  0.70640569  0.25474847  1
  O  O107  1  0.18038760  0.47737066  0.25462154  1
  O  O108  1  0.29442528  0.47605215  0.75451159  1
  O  O109  1  0.17192007  0.70373003  0.75419087  1
  O  O110  1  0.53129111  0.83163027  0.75477342  1
