# generated using pymatgen
data_Na14Ti6Zn2Si9(SO16)3
_symmetry_space_group_name_H-M   'P 1'
_cell_length_a   18.03212329
_cell_length_b   9.05063318
_cell_length_c   22.01982330
_cell_angle_alpha   90.19438379
_cell_angle_beta   90.08579395
_cell_angle_gamma   120.13410260
_symmetry_Int_Tables_number   1
_chemical_formula_structural   Na14Ti6Zn2Si9(SO16)3
_chemical_formula_sum   'Na42 Ti18 Zn6 Si27 S9 O144'
_cell_volume   3107.96677180
_cell_formula_units_Z   3
loop_
 _symmetry_equiv_pos_site_id
 _symmetry_equiv_pos_as_xyz
  1  'x, y, z'
loop_
 _atom_site_type_symbol
 _atom_site_label
 _atom_site_symmetry_multiplicity
 _atom_site_fract_x
 _atom_site_fract_y
 _atom_site_fract_z
 _atom_site_occupancy
  Na  Na0  1  0.31322212  0.00725524  0.24512776  1
  Na  Na1  1  0.81465581  0.01390623  0.24640563  1
  Na  Na2  1  0.19024741  0.37151004  0.25301533  1
  Na  Na3  1  0.69292140  0.36982480  0.24907686  1
  Na  Na4  1  0.99211661  0.61736627  0.25163492  1
  Na  Na5  1  0.49497985  0.62519748  0.24781952  1
  Na  Na6  1  0.31467046  0.61525363  0.74290765  1
  Na  Na7  1  0.81407113  0.62150990  0.74179973  1
  Na  Na8  1  0.99372805  0.35628583  0.74240025  1
  Na  Na9  1  0.49301837  0.37090283  0.74822795  1
  Na  Na10  1  0.19358775  0.02067945  0.74503710  1
  Na  Na11  1  0.69205532  0.00892267  0.74935908  1
  Na  Na12  1  0.15530812  0.34164505  0.58469152  1
  Na  Na13  1  0.65500012  0.35000178  0.57792388  1
  Na  Na14  1  0.01287183  0.69509979  0.58153630  1
  Na  Na15  1  0.51657184  0.69339854  0.57328816  1
  Na  Na16  1  0.33098670  0.96878480  0.58432417  1
  Na  Na17  1  0.82753816  0.95309816  0.57471995  1
  Na  Na18  1  0.15547193  0.96261860  0.08337452  1
  Na  Na19  1  0.65636017  0.96930011  0.08699978  1
  Na  Na20  1  0.33037665  0.70011430  0.08274966  1
  Na  Na21  1  0.83071179  0.69401735  0.08692507  1
  Na  Na22  1  0.01569425  0.33513094  0.07757240  1
  Na  Na23  1  0.51505741  0.33210246  0.08584256  1
  Na  Na24  1  0.98375539  0.67323472  0.91911989  1
  Na  Na25  1  0.35023844  0.03412929  0.91349740  1
  Na  Na26  1  0.16444127  0.29625499  0.91664791  1
  Na  Na27  1  0.48612843  0.29897710  0.41895290  1
  Na  Na28  1  0.66822991  0.03329149  0.41649440  1
  Na  Na29  1  0.84897606  0.67297095  0.41981704  1
  Na  Na30  1  0.00197787  0.00311219  0.49467536  1
  Na  Na31  1  0.49370599  0.98755464  0.49506594  1
  Na  Na32  1  0.99149121  0.99865537  0.99585004  1
  Na  Na33  1  0.50854706  0.01128155  0.99945895  1
  Na  Na34  1  0.33722437  0.34093539  0.82731140  1
  Na  Na35  1  0.82726581  0.31958757  0.83245266  1
  Na  Na36  1  0.32738701  0.33488693  0.33291353  1
  Na  Na37  1  0.83620544  0.32923595  0.32995509  1
  Na  Na38  1  0.17117429  0.67438711  0.16747977  1
  Na  Na39  1  0.66886497  0.67549752  0.16811530  1
  Na  Na40  1  0.16886223  0.66145733  0.66299386  1
  Na  Na41  1  0.67225365  0.66864179  0.66360859  1
  Ti  Ti42  1  0.99726026  0.99545307  0.35125426  1
  Ti  Ti43  1  0.49708200  0.97711821  0.35799299  1
  Ti  Ti44  1  0.99591060  0.01557881  0.85770639  1
  Ti  Ti45  1  0.50479251  0.01194221  0.84879561  1
  Ti  Ti46  1  0.99594418  0.01411704  0.64034795  1
  Ti  Ti47  1  0.49533208  0.98471103  0.65291978  1
  Ti  Ti48  1  0.99516259  0.00411939  0.15400502  1
  Ti  Ti49  1  0.49743430  0.97971241  0.14303687  1
  Ti  Ti50  1  0.34570813  0.32650861  0.97943658  1
  Ti  Ti51  1  0.82705056  0.31816225  0.97807485  1
  Ti  Ti52  1  0.32723047  0.33636533  0.47777174  1
  Ti  Ti53  1  0.84653693  0.35453019  0.47437864  1
  Ti  Ti54  1  0.66935546  0.65360382  0.02078341  1
  Ti  Ti55  1  0.16933454  0.68413421  0.51970385  1
  Ti  Ti56  1  0.16582045  0.68451628  0.31004593  1
  Ti  Ti57  1  0.67214251  0.68026955  0.32067874  1
  Ti  Ti58  1  0.16438014  0.66851479  0.81545885  1
  Ti  Ti59  1  0.66597349  0.64779370  0.80976982  1
  Zn  Zn60  1  0.32428210  0.33159034  0.68641309  1
  Zn  Zn61  1  0.83537796  0.33507217  0.68094750  1
  Zn  Zn62  1  0.33479812  0.33243437  0.18339192  1
  Zn  Zn63  1  0.82368444  0.31700536  0.18840226  1
  Zn  Zn64  1  0.16545438  0.67864664  0.01013262  1
  Zn  Zn65  1  0.67408549  0.66440423  0.50444164  1
  Si  Si66  1  0.14409189  0.00395629  0.24951984  1
  Si  Si67  1  0.64131766  0.99057905  0.25217241  1
  Si  Si68  1  0.35370796  0.70956080  0.24919067  1
  Si  Si69  1  0.85059830  0.70621030  0.25189588  1
  Si  Si70  1  0.00256531  0.29527909  0.25288160  1
  Si  Si71  1  0.14081106  0.28961098  0.75237112  1
  Si  Si72  1  0.64611275  0.28932339  0.74698074  1
  Si  Si73  1  0.50267484  0.71106132  0.75366822  1
  Si  Si74  1  0.35206749  0.99452247  0.75266307  1
  Si  Si75  1  0.85354643  0.99718304  0.74923760  1
  Si  Si76  1  0.98017998  0.34096623  0.58357807  1
  Si  Si77  1  0.18860698  0.04533344  0.58576215  1
  Si  Si78  1  0.33498237  0.62883811  0.58383246  1
  Si  Si79  1  0.83050663  0.62385990  0.58616320  1
  Si  Si80  1  0.48010317  0.62023769  0.08376708  1
  Si  Si81  1  0.33074665  0.03026836  0.08622796  1
  Si  Si82  1  0.83512822  0.04130053  0.08320849  1
  Si  Si83  1  0.68874607  0.33208265  0.08561227  1
  Si  Si84  1  0.81063737  0.66040680  0.91619214  1
  Si  Si85  1  0.01912328  0.37863935  0.92034150  1
  Si  Si86  1  0.52520549  0.37374838  0.91558644  1
  Si  Si87  1  0.16613856  0.96602756  0.91747381  1
  Si  Si88  1  0.31123636  0.96128589  0.41638639  1
  Si  Si89  1  0.82069988  0.97403508  0.41954205  1
  Si  Si90  1  0.66529517  0.36960127  0.41717459  1
  Si  Si91  1  0.02617313  0.67744602  0.41533913  1
  Si  Si92  1  0.51911803  0.65895186  0.41981979  1
  S  S93  1  0.50266323  0.28777070  0.25082187  1
  S  S94  1  0.00336115  0.71649856  0.75246344  1
  S  S95  1  0.47869985  0.32990339  0.58500535  1
  S  S96  1  0.68312778  0.03862536  0.58443673  1
  S  S97  1  0.97905791  0.62774091  0.08397662  1
  S  S98  1  0.18523973  0.32976009  0.08215434  1
  S  S99  1  0.31562832  0.66618705  0.91651939  1
  S  S100  1  0.66519605  0.95467106  0.91653947  1
  S  S101  1  0.16673528  0.37878838  0.41669256  1
  O  O102  1  0.09221767  0.02234729  0.30656350  1
  O  O103  1  0.59128221  0.01215283  0.31005310  1
  O  O104  1  0.41697163  0.81743924  0.30552609  1
  O  O105  1  0.91239206  0.80564102  0.31042350  1
  O  O106  1  0.49397926  0.18670935  0.30552204  1
  O  O107  1  0.98952913  0.16363289  0.30720907  1
  O  O108  1  0.09205203  0.16972332  0.81104321  1
  O  O109  1  0.59371595  0.16886675  0.80581148  1
  O  O110  1  0.49085492  0.81825240  0.80934622  1
  O  O111  1  0.99599159  0.80137098  0.80731981  1
  O  O112  1  0.41297468  0.01648320  0.81209549  1
  O  O113  1  0.91675503  0.01619293  0.80612251  1
  O  O114  1  0.39914520  0.96147343  0.69274882  1
  O  O115  1  0.89947027  0.96772819  0.68858922  1
  O  O116  1  0.08052367  0.19678229  0.69144679  1
  O  O117  1  0.58290095  0.19510789  0.68791203  1
  O  O118  1  0.01437058  0.81458798  0.69636309  1
  O  O119  1  0.51630670  0.83297233  0.69212928  1
  O  O120  1  0.39896089  0.82894498  0.18747004  1
  O  O121  1  0.89911270  0.83538983  0.19183998  1
  O  O122  1  0.01697991  0.20231172  0.19027077  1
  O  O123  1  0.51037775  0.20449591  0.19435595  1
  O  O124  1  0.08349488  0.97216216  0.18754598  1
  O  O125  1  0.58116343  0.96971911  0.19078490  1
  O  O126  1  0.43792501  0.34572209  0.64062972  1
  O  O127  1  0.94787224  0.38253617  0.64611239  1
  O  O128  1  0.24657873  0.10593608  0.64630846  1
  O  O129  1  0.73312736  0.11537214  0.64073764  1
  O  O130  1  0.31421731  0.51839845  0.64512759  1
  O  O131  1  0.81423461  0.51146192  0.64685636  1
  O  O132  1  0.44602477  0.50888416  0.14474904  1
  O  O133  1  0.93849299  0.53014681  0.13941071  1
  O  O134  1  0.30980539  0.11099371  0.14439546  1
  O  O135  1  0.81404845  0.11158041  0.14409558  1
  O  O136  1  0.23578536  0.35385625  0.13816414  1
  O  O137  1  0.74738075  0.38786554  0.14546416  1
  O  O138  1  0.22845057  0.31256173  0.02699778  1
  O  O139  1  0.73994388  0.30269858  0.02809587  1
  O  O140  1  0.41195604  0.51909535  0.02689791  1
  O  O141  1  0.92713078  0.54400425  0.02825683  1
  O  O142  1  0.34598167  0.15936123  0.02540457  1
  O  O143  1  0.85105799  0.17400631  0.02559598  1
  O  O144  1  0.23964187  0.17843218  0.52917588  1
  O  O145  1  0.72538849  0.14188967  0.52975401  1
  O  O146  1  0.35143318  0.52812422  0.52685820  1
  O  O147  1  0.84640543  0.52753796  0.52642610  1
  O  O148  1  0.42585352  0.30735107  0.52954271  1
  O  O149  1  0.91323984  0.30619895  0.52735381  1
  O  O150  1  0.27845147  0.69271004  0.97235983  1
  O  O151  1  0.76494729  0.68920675  0.97582379  1
  O  O152  1  0.07946001  0.45080482  0.97980801  1
  O  O153  1  0.58213683  0.47313033  0.97511139  1
  O  O154  1  0.14562771  0.85488045  0.97834504  1
  O  O155  1  0.65691360  0.85713004  0.97222812  1
  O  O156  1  0.26559914  0.84139388  0.47605441  1
  O  O157  1  0.78357348  0.85470623  0.47840079  1
  O  O158  1  0.15962224  0.46267393  0.47241937  1
  O  O159  1  0.63857164  0.43253611  0.47769787  1
  O  O160  1  0.08287385  0.68840560  0.47483494  1
  O  O161  1  0.57780404  0.70370285  0.47983310  1
  O  O162  1  0.06990005  0.64557584  0.35502679  1
  O  O163  1  0.56892489  0.63413178  0.36026128  1
  O  O164  1  0.25073264  0.86347615  0.35640082  1
  O  O165  1  0.75259998  0.87025074  0.36103645  1
  O  O166  1  0.17776341  0.47995435  0.36121705  1
  O  O167  1  0.68311481  0.50468848  0.35978199  1
  O  O168  1  0.07307498  0.50884124  0.86221862  1
  O  O169  1  0.56840310  0.48904648  0.85479991  1
  O  O170  1  0.18435848  0.86614269  0.85970658  1
  O  O171  1  0.67553955  0.87471032  0.86116725  1
  O  O172  1  0.25963563  0.64481361  0.86245065  1
  O  O173  1  0.74986533  0.63763487  0.85654260  1
  O  O174  1  0.01149951  0.84040241  0.41275810  1
  O  O175  1  0.50872872  0.82943127  0.41112449  1
  O  O176  1  0.40856136  0.99160733  0.40975399  1
  O  O177  1  0.91367411  0.98924682  0.40895732  1
  O  O178  1  0.09122245  0.20576710  0.41355592  1
  O  O179  1  0.58198003  0.17792348  0.40613149  1
  O  O180  1  0.00879073  0.18830606  0.91122335  1
  O  O181  1  0.50750050  0.17642650  0.91331299  1
  O  O182  1  0.08158237  0.98543532  0.90771006  1
  O  O183  1  0.58877773  0.97729483  0.91332092  1
  O  O184  1  0.40175595  0.82039274  0.91060346  1
  O  O185  1  0.90809197  0.82563136  0.90945225  1
  O  O186  1  0.48652850  0.17066022  0.58595328  1
  O  O187  1  0.98547206  0.16142934  0.58563254  1
  O  O188  1  0.09312593  0.02651557  0.59025889  1
  O  O189  1  0.59653972  0.02914766  0.58673590  1
  O  O190  1  0.42379708  0.82309659  0.58709230  1
  O  O191  1  0.92219268  0.81333366  0.59002753  1
  O  O192  1  0.48538071  0.80970158  0.08566966  1
  O  O193  1  0.98767398  0.80265085  0.08486192  1
  O  O194  1  0.42221310  0.02927733  0.08768948  1
  O  O195  1  0.92343954  0.02372998  0.08590504  1
  O  O196  1  0.09903979  0.16756651  0.08402258  1
  O  O197  1  0.59334330  0.15999035  0.08889650  1
  O  O198  1  0.34627522  0.16531953  0.75147494  1
  O  O199  1  0.84561425  0.16745801  0.74773340  1
  O  O200  1  0.23538252  0.31191239  0.75257746  1
  O  O201  1  0.73965459  0.30941091  0.74936810  1
  O  O202  1  0.41924185  0.52479324  0.74897665  1
  O  O203  1  0.92805753  0.54199520  0.75149207  1
  O  O204  1  0.34573661  0.52321774  0.24694054  1
  O  O205  1  0.84585315  0.52460062  0.24938697  1
  O  O206  1  0.42557884  0.30757955  0.24950391  1
  O  O207  1  0.91962203  0.31618934  0.24758349  1
  O  O208  1  0.23924121  0.16952532  0.24878007  1
  O  O209  1  0.73510495  0.15910158  0.25212396  1
  O  O210  1  0.31906871  0.50553166  0.91857199  1
  O  O211  1  0.82221741  0.49204143  0.92466040  1
  O  O212  1  0.42721591  0.35085426  0.92204175  1
  O  O213  1  0.92629071  0.36972926  0.92232281  1
  O  O214  1  0.25312190  0.15874445  0.92221564  1
  O  O215  1  0.74460799  0.13053529  0.92010137  1
  O  O216  1  0.32165888  0.15189203  0.42533473  1
  O  O217  1  0.81945739  0.15338188  0.42257443  1
  O  O218  1  0.24674506  0.36323068  0.42052390  1
  O  O219  1  0.75292250  0.35646733  0.42281318  1
  O  O220  1  0.42483867  0.48281946  0.42323447  1
  O  O221  1  0.92914605  0.50590262  0.42097351  1
  O  O222  1  0.17290068  0.47950229  0.07931404  1
  O  O223  1  0.67390406  0.49828572  0.07546362  1
  O  O224  1  0.06583425  0.64631066  0.08114892  1
  O  O225  1  0.57797949  0.65843015  0.07200580  1
  O  O226  1  0.24970195  0.83693406  0.07659321  1
  O  O227  1  0.75106123  0.84905796  0.07277631  1
  O  O228  1  0.17375578  0.84946908  0.57550968  1
  O  O229  1  0.66935932  0.86335856  0.58170452  1
  O  O230  1  0.25158219  0.65475403  0.57407315  1
  O  O231  1  0.74840232  0.65260088  0.58033361  1
  O  O232  1  0.07870640  0.49809466  0.57293509  1
  O  O233  1  0.56500706  0.48351296  0.58195121  1
  O  O234  1  0.14965223  0.82510066  0.25238461  1
  O  O235  1  0.64565033  0.81248674  0.25482998  1
  O  O236  1  0.25967768  0.69642848  0.25453423  1
  O  O237  1  0.75670706  0.69514388  0.25468415  1
  O  O238  1  0.09242436  0.47964430  0.25606261  1
  O  O239  1  0.58173477  0.46054570  0.25281062  1
  O  O240  1  0.14796551  0.48071485  0.75884894  1
  O  O241  1  0.65035719  0.47652725  0.75172749  1
  O  O242  1  0.08402987  0.70156011  0.75547310  1
  O  O243  1  0.59191657  0.70505227  0.75711450  1
  O  O244  1  0.25786688  0.81673789  0.75710639  1
  O  O245  1  0.75934494  0.82291190  0.75596350  1
