# generated using pymatgen
data_Na5TiGa3(PO4)6
_symmetry_space_group_name_H-M   'P 1'
_cell_length_a   8.71803712
_cell_length_b   8.71673765
_cell_length_c   21.95587008
_cell_angle_alpha   89.95284141
_cell_angle_beta   89.96298404
_cell_angle_gamma   120.00282142
_symmetry_Int_Tables_number   1
_chemical_formula_structural   Na5TiGa3(PO4)6
_chemical_formula_sum   'Na15 Ti3 Ga9 P18 O72'
_cell_volume   1444.91118827
_cell_formula_units_Z   3
loop_
 _symmetry_equiv_pos_site_id
 _symmetry_equiv_pos_as_xyz
  1  'x, y, z'
loop_
 _atom_site_type_symbol
 _atom_site_label
 _atom_site_symmetry_multiplicity
 _atom_site_fract_x
 _atom_site_fract_y
 _atom_site_fract_z
 _atom_site_occupancy
  Na  Na0  1  0.63331328  0.99964675  0.25294023  1
  Na  Na1  1  0.36592588  0.36665489  0.25354430  1
  Na  Na2  1  0.00061428  0.63455506  0.25308416  1
  Na  Na3  1  0.63826373  0.63307480  0.74854830  1
  Na  Na4  1  0.99951054  0.36298950  0.74878568  1
  Na  Na5  1  0.03224216  0.70067822  0.58138115  1
  Na  Na6  1  0.66411660  0.96583227  0.58109717  1
  Na  Na7  1  0.66433025  0.69929193  0.08142237  1
  Na  Na8  1  0.03285807  0.33152273  0.08165880  1
  Na  Na9  1  0.01054855  0.01185911  0.49571648  1
  Na  Na10  1  0.00984256  0.99866562  0.99478418  1
  Na  Na11  1  0.65578115  0.32179744  0.83321121  1
  Na  Na12  1  0.66666094  0.33349319  0.33842509  1
  Na  Na13  1  0.33208559  0.67714677  0.16517337  1
  Na  Na14  1  0.33316127  0.66536095  0.66346600  1
  Ti  Ti15  1  0.66598910  0.33405830  0.97648148  1
  Ti  Ti16  1  0.66363041  0.33174863  0.47726658  1
  Ti  Ti17  1  0.33408633  0.67434910  0.81601493  1
  Ga  Ga18  1  0.00048398  -0.00037527  0.35531352  1
  Ga  Ga19  1  0.00163971  0.00148253  0.85276025  1
  Ga  Ga20  1  0.00884059  0.00816697  0.64842547  1
  Ga  Ga21  1  0.00669012  0.99876886  0.14906484  1
  Ga  Ga22  1  0.65868997  0.32663852  0.68258078  1
  Ga  Ga23  1  0.66573387  0.33145571  0.18163729  1
  Ga  Ga24  1  0.33270120  0.67301840  0.01551199  1
  Ga  Ga25  1  0.33221806  0.65879651  0.51520314  1
  Ga  Ga26  1  0.33313740  0.66633732  0.32189091  1
  P  P27  1  0.29006301  0.99999571  0.25051970  1
  P  P28  1  0.71019902  0.70995832  0.24941097  1
  P  P29  1  -0.00034053  0.28997496  0.24947200  1
  P  P30  1  0.29118509  0.28644362  0.75112844  1
  P  P31  1  0.00080043  0.71251260  0.74947522  1
  P  P32  1  0.71098663  0.00268805  0.74959160  1
  P  P33  1  0.95922307  0.33415251  0.58404283  1
  P  P34  1  0.37529718  0.04426230  0.58289965  1
  P  P35  1  0.66258123  0.62189436  0.58427254  1
  P  P36  1  0.96004715  0.62613870  0.08343436  1
  P  P37  1  0.66261876  0.04065211  0.08369331  1
  P  P38  1  0.37449432  0.32992392  0.08330008  1
  P  P39  1  0.62737481  0.67192046  0.91758396  1
  P  P40  1  0.04427573  0.37296320  0.91797054  1
  P  P41  1  0.32831245  0.95664476  0.91813608  1
  P  P42  1  0.62765647  0.95714073  0.41700780  1
  P  P43  1  0.32965938  0.37270806  0.41609967  1
  P  P44  1  0.04235478  0.66957954  0.41728153  1
  O  O45  1  0.20877856  0.04124186  0.30556185  1
  O  O46  1  0.83422488  0.79436979  0.30380632  1
  O  O47  1  0.96040597  0.16571349  0.30382554  1
  O  O48  1  0.20830786  0.17368537  0.80760852  1
  O  O49  1  0.96169062  0.79562759  0.80436748  1
  O  O50  1  0.83214389  0.03972361  0.80482409  1
  O  O51  1  0.78317459  0.95895786  0.69087556  1
  O  O52  1  0.17085441  0.21313849  0.69426047  1
  O  O53  1  0.03408075  0.81928613  0.68979991  1
  O  O54  1  0.78485472  0.82353562  0.19003320  1
  O  O55  1  0.03829252  0.21548657  0.19004801  1
  O  O56  1  0.17184102  0.95739211  0.19303955  1
  O  O57  1  0.88334181  0.37175678  0.64326642  1
  O  O58  1  0.49390272  0.12050362  0.63972996  1
  O  O59  1  0.63477872  0.51661382  0.64420265  1
  O  O60  1  0.88373385  0.51205224  0.14255408  1
  O  O61  1  0.63379598  0.11719831  0.14352030  1
  O  O62  1  0.48854539  0.36944897  0.14207599  1
  O  O63  1  0.47131110  0.30637631  0.02821150  1
  O  O64  1  0.83368938  0.53173839  0.02890886  1
  O  O65  1  0.69541825  0.16732967  0.02933706  1
  O  O66  1  0.46847555  0.16296231  0.52703188  1
  O  O67  1  0.69532997  0.52855933  0.52989322  1
  O  O68  1  0.83339733  0.30151523  0.52945245  1
  O  O69  1  0.54458840  0.69682567  0.97625433  1
  O  O70  1  0.15308256  0.45541534  0.97639937  1
  O  O71  1  0.29887938  0.84403290  0.97464501  1
  O  O72  1  0.54252588  0.84608893  0.47482597  1
  O  O73  1  0.30029536  0.45937044  0.47166728  1
  O  O74  1  0.15468644  0.69726857  0.47481862  1
  O  O75  1  0.11762438  0.63316006  0.35790852  1
  O  O76  1  0.51592119  0.88158601  0.35781042  1
  O  O77  1  0.36738688  0.48231844  0.35602917  1
  O  O78  1  0.13289921  0.49272638  0.86054799  1
  O  O79  1  0.35959663  0.86487341  0.86142173  1
  O  O80  1  0.50827162  0.64159041  0.86028998  1
  O  O81  1  0.02267787  0.83460920  0.41167299  1
  O  O82  1  0.81234036  0.97694286  0.41145925  1
  O  O83  1  0.16530357  0.18762798  0.41101270  1
  O  O84  1  0.02248452  0.18868397  0.91106881  1
  O  O85  1  0.16583574  0.97684215  0.91016434  1
  O  O86  1  0.81154526  0.83467252  0.91056316  1
  O  O87  1  0.96847623  0.16107545  0.58870775  1
  O  O88  1  0.18774449  0.02192063  0.58760650  1
  O  O89  1  0.83415479  0.80926769  0.58753306  1
  O  O90  1  0.96862176  0.80772992  0.08795797  1
  O  O91  1  0.83414288  0.02524501  0.08714225  1
  O  O92  1  0.18660428  0.16516589  0.08747434  1
  O  O93  1  0.69396917  0.17077553  0.74369327  1
  O  O94  1  0.48167202  0.31635306  0.74465266  1
  O  O95  1  0.83519762  0.52147738  0.74510888  1
  O  O96  1  0.68920636  0.52083928  0.24379290  1
  O  O97  1  0.83173605  0.31134820  0.24418206  1
  O  O98  1  0.47862022  0.16821896  0.24404133  1
  O  O99  1  0.63964927  0.49861393  0.92293405  1
  O  O100  1  0.85886190  0.36072605  0.92357124  1
  O  O101  1  0.50179060  0.14052882  0.92284671  1
  O  O102  1  0.64354963  0.14395792  0.42381062  1
  O  O103  1  0.50090663  0.35795574  0.42393231  1
  O  O104  1  0.85593150  0.49872864  0.42455365  1
  O  O105  1  0.35543571  0.49869572  0.07754335  1
  O  O106  1  0.14289702  0.63876202  0.07697839  1
  O  O107  1  0.50076928  0.85122028  0.07751637  1
  O  O108  1  0.35453591  0.85587370  0.57700659  1
  O  O109  1  0.50081377  0.64944994  0.57779872  1
  O  O110  1  0.14272160  0.50397449  0.57721993  1
  O  O111  1  0.31203179  0.83293925  0.25641545  1
  O  O112  1  0.52188695  0.68924317  0.25546925  1
  O  O113  1  0.16706260  0.47853374  0.25554659  1
  O  O114  1  0.31215555  0.47773098  0.75760344  1
  O  O115  1  0.16567490  0.68590010  0.75741694  1
  O  O116  1  0.52494791  0.83096309  0.75777097  1
