# generated using pymatgen
data_Na4LaTa(SiO4)3
_symmetry_space_group_name_H-M   'P 1'
_cell_length_a   9.52971255
_cell_length_b   9.52971219
_cell_length_c   22.25866842
_cell_angle_alpha   90.00000000
_cell_angle_beta   90.00000000
_cell_angle_gamma   120.00000129
_symmetry_Int_Tables_number   1
_chemical_formula_structural   Na4LaTa(SiO4)3
_chemical_formula_sum   'Na24 La6 Ta6 Si18 O72'
_cell_volume   1750.60994603
_cell_formula_units_Z   6
loop_
 _symmetry_equiv_pos_site_id
 _symmetry_equiv_pos_as_xyz
  1  'x, y, z'
loop_
 _atom_site_type_symbol
 _atom_site_label
 _atom_site_symmetry_multiplicity
 _atom_site_fract_x
 _atom_site_fract_y
 _atom_site_fract_z
 _atom_site_occupancy
  Na  Na0  1  0.64499360  0.01307859  0.24519643  1
  Na  Na1  1  0.36808499  0.35500640  0.24519643  1
  Na  Na2  1  0.98692141  0.63191501  0.24519643  1
  Na  Na3  1  0.64499360  0.63191501  0.74519643  1
  Na  Na4  1  0.98692141  0.35500640  0.74519643  1
  Na  Na5  1  0.36808499  0.01307859  0.74519643  1
  Na  Na6  1  0.31166060  0.34641159  0.57852943  1
  Na  Na7  1  0.03475199  0.68833940  0.57852943  1
  Na  Na8  1  0.65358841  0.96524801  0.57852943  1
  Na  Na9  1  0.31166060  0.96524801  0.07852943  1
  Na  Na10  1  0.65358841  0.68833940  0.07852943  1
  Na  Na11  1  0.03475199  0.34641159  0.07852943  1
  Na  Na12  1  0.97832660  0.67974559  0.91186343  1
  Na  Na13  1  0.70141799  0.02167340  0.91186343  1
  Na  Na14  1  0.32025441  0.29858201  0.91186343  1
  Na  Na15  1  0.97832660  0.29858201  0.41186343  1
  Na  Na16  1  0.32025441  0.02167340  0.41186343  1
  Na  Na17  1  0.70141799  0.67974559  0.41186343  1
  Na  Na18  1  -0.00000000  -0.00000000  0.49642503  1
  Na  Na19  1  -0.00000000  -0.00000000  0.99642503  1
  Na  Na20  1  0.66666700  0.33333300  0.82975803  1
  Na  Na21  1  0.66666700  0.33333300  0.32975803  1
  Na  Na22  1  0.33333300  0.66666700  0.16309203  1
  Na  Na23  1  0.33333300  0.66666700  0.66309203  1
  La  La24  1  -0.00000000  -0.00000000  0.34202533  1
  La  La25  1  -0.00000000  -0.00000000  0.84202533  1
  La  La26  1  0.66666700  0.33333300  0.67535833  1
  La  La27  1  0.66666700  0.33333300  0.17535833  1
  La  La28  1  0.33333300  0.66666700  0.00869233  1
  La  La29  1  0.33333300  0.66666700  0.50869233  1
  Ta  Ta30  1  -0.00000000  -0.00000000  0.64816018  1
  Ta  Ta31  1  -0.00000000  -0.00000000  0.14816018  1
  Ta  Ta32  1  0.66666700  0.33333300  0.98149318  1
  Ta  Ta33  1  0.66666700  0.33333300  0.48149318  1
  Ta  Ta34  1  0.33333300  0.66666700  0.31482718  1
  Ta  Ta35  1  0.33333300  0.66666700  0.81482718  1
  Si  Si36  1  0.29579093  0.98280683  0.25108906  1
  Si  Si37  1  0.68701590  0.70420907  0.25108906  1
  Si  Si38  1  0.01719317  0.31298410  0.25108906  1
  Si  Si39  1  0.29579093  0.31298410  0.75108906  1
  Si  Si40  1  0.01719317  0.70420907  0.75108906  1
  Si  Si41  1  0.68701590  0.98280683  0.75108906  1
  Si  Si42  1  0.96245793  0.31613983  0.58442206  1
  Si  Si43  1  0.35368290  0.03754207  0.58442206  1
  Si  Si44  1  0.68386017  0.64631710  0.58442206  1
  Si  Si45  1  0.96245793  0.64631710  0.08442206  1
  Si  Si46  1  0.68386017  0.03754207  0.08442206  1
  Si  Si47  1  0.35368290  0.31613983  0.08442206  1
  Si  Si48  1  0.62912393  0.64947383  0.91775606  1
  Si  Si49  1  0.02034890  0.37087607  0.91775606  1
  Si  Si50  1  0.35052617  0.97965110  0.91775606  1
  Si  Si51  1  0.62912393  0.97965110  0.41775606  1
  Si  Si52  1  0.35052617  0.37087607  0.41775606  1
  Si  Si53  1  0.02034890  0.64947383  0.41775606  1
  O  O54  1  0.23481187  0.01319152  0.31406580  1
  O  O55  1  0.77837965  0.76518813  0.31406580  1
  O  O56  1  0.98680848  0.22162035  0.31406580  1
  O  O57  1  0.23481187  0.22162035  0.81406580  1
  O  O58  1  0.98680848  0.76518813  0.81406580  1
  O  O59  1  0.77837965  0.01319152  0.81406580  1
  O  O60  1  0.80798505  0.96853688  0.69641839  1
  O  O61  1  0.16055182  0.19201495  0.69641839  1
  O  O62  1  0.03146312  0.83944818  0.69641839  1
  O  O63  1  0.80798505  0.83944818  0.19641839  1
  O  O64  1  0.03146312  0.19201495  0.19641839  1
  O  O65  1  0.16055182  0.96853688  0.19641839  1
  O  O66  1  0.90147887  0.34652452  0.64739880  1
  O  O67  1  0.44504665  0.09852113  0.64739880  1
  O  O68  1  0.65347548  0.55495335  0.64739880  1
  O  O69  1  0.90147887  0.55495335  0.14739880  1
  O  O70  1  0.65347548  0.09852113  0.14739880  1
  O  O71  1  0.44504665  0.34652452  0.14739880  1
  O  O72  1  0.47465205  0.30186988  0.02975139  1
  O  O73  1  0.82721882  0.52534795  0.02975139  1
  O  O74  1  0.69813012  0.17278118  0.02975139  1
  O  O75  1  0.47465205  0.17278118  0.52975139  1
  O  O76  1  0.69813012  0.52534795  0.52975139  1
  O  O77  1  0.82721882  0.30186988  0.52975139  1
  O  O78  1  0.56814487  0.67985852  0.98073280  1
  O  O79  1  0.11171265  0.43185513  0.98073280  1
  O  O80  1  0.32014148  0.88828735  0.98073280  1
  O  O81  1  0.56814487  0.88828735  0.48073280  1
  O  O82  1  0.32014148  0.43185513  0.48073280  1
  O  O83  1  0.11171265  0.67985852  0.48073280  1
  O  O84  1  0.14131805  0.63520388  0.36308539  1
  O  O85  1  0.49388482  0.85868195  0.36308539  1
  O  O86  1  0.36479612  0.50611518  0.36308539  1
  O  O87  1  0.14131805  0.50611518  0.86308539  1
  O  O88  1  0.36479612  0.85868195  0.86308539  1
  O  O89  1  0.49388482  0.63520388  0.86308539  1
  O  O90  1  0.98302674  0.79622866  0.41026245  1
  O  O91  1  0.81320192  0.01697326  0.41026245  1
  O  O92  1  0.20377134  0.18679808  0.41026245  1
  O  O93  1  0.98302674  0.18679808  0.91026245  1
  O  O94  1  0.20377134  0.01697326  0.91026245  1
  O  O95  1  0.81320192  0.79622866  0.91026245  1
  O  O96  1  0.95261903  0.13515427  0.58743102  1
  O  O97  1  0.18253524  0.04738097  0.58743102  1
  O  O98  1  0.86484573  0.81746476  0.58743102  1
  O  O99  1  0.95261903  0.81746476  0.08743102  1
  O  O100  1  0.86484573  0.04738097  0.08743102  1
  O  O101  1  0.18253524  0.13515427  0.08743102  1
  O  O102  1  0.64969374  0.12956166  0.74359545  1
  O  O103  1  0.47986892  0.35030626  0.74359545  1
  O  O104  1  0.87043834  0.52013108  0.74359545  1
  O  O105  1  0.64969374  0.52013108  0.24359545  1
  O  O106  1  0.87043834  0.35030626  0.24359545  1
  O  O107  1  0.47986892  0.12956166  0.24359545  1
  O  O108  1  0.61928603  0.46848727  0.92076402  1
  O  O109  1  0.84920224  0.38071397  0.92076402  1
  O  O110  1  0.53151273  0.15079776  0.92076402  1
  O  O111  1  0.61928603  0.15079776  0.42076402  1
  O  O112  1  0.53151273  0.38071397  0.42076402  1
  O  O113  1  0.84920224  0.46848727  0.42076402  1
  O  O114  1  0.31635974  0.46289566  0.07692945  1
  O  O115  1  0.14653492  0.68364026  0.07692945  1
  O  O116  1  0.53710434  0.85346508  0.07692945  1
  O  O117  1  0.31635974  0.85346508  0.57692945  1
  O  O118  1  0.53710434  0.68364026  0.57692945  1
  O  O119  1  0.14653492  0.46289566  0.57692945  1
  O  O120  1  0.28595203  0.80182127  0.25409802  1
  O  O121  1  0.51586824  0.71404797  0.25409802  1
  O  O122  1  0.19817873  0.48413176  0.25409802  1
  O  O123  1  0.28595203  0.48413176  0.75409802  1
  O  O124  1  0.19817873  0.71404797  0.75409802  1
  O  O125  1  0.51586824  0.80182127  0.75409802  1
