# generated using pymatgen
data_Na9CaNb5(SiO4)9
_symmetry_space_group_name_H-M   'P 1'
_cell_length_a   15.89352996
_cell_length_b   27.45066771
_cell_length_c   9.12011674
_cell_angle_alpha   89.87943227
_cell_angle_beta   125.07653198
_cell_angle_gamma   90.00605301
_symmetry_Int_Tables_number   1
_chemical_formula_structural   Na9CaNb5(SiO4)9
_chemical_formula_sum   'Na36 Ca4 Nb20 Si36 O144'
_cell_volume   3256.34243046
_cell_formula_units_Z   4
loop_
 _symmetry_equiv_pos_site_id
 _symmetry_equiv_pos_as_xyz
  1  'x, y, z'
loop_
 _atom_site_type_symbol
 _atom_site_label
 _atom_site_symmetry_multiplicity
 _atom_site_fract_x
 _atom_site_fract_y
 _atom_site_fract_z
 _atom_site_occupancy
  Na  Na0  1  0.25394749  0.25328264  0.01140835  1
  Na  Na1  1  0.25650462  0.58772636  0.01444473  1
  Na  Na2  1  0.24886420  0.91572685  0.99837463  1
  Na  Na3  1  0.74807622  0.25430345  0.50382241  1
  Na  Na4  1  0.74388665  0.57918593  0.49655253  1
  Na  Na5  1  0.75166492  0.91561754  0.50581945  1
  Na  Na6  1  0.75650462  0.08772636  0.01444473  1
  Na  Na7  1  0.74886420  0.41572685  0.99837463  1
  Na  Na8  1  0.75394749  0.75328264  0.01140835  1
  Na  Na9  1  0.24388665  0.07918593  0.49655253  1
  Na  Na10  1  0.25166492  0.41561754  0.50581945  1
  Na  Na11  1  0.24807622  0.75430345  0.50382241  1
  Na  Na12  1  0.50182528  0.03101711  0.75336400  1
  Na  Na13  1  0.49326047  0.35919157  0.73189690  1
  Na  Na14  1  0.49276760  0.69334001  0.73602742  1
  Na  Na15  1  0.50123101  0.29821365  0.26765397  1
  Na  Na16  1  0.49927293  0.63242453  0.26868000  1
  Na  Na17  1  0.49851404  0.96960694  0.25274465  1
  Na  Na18  1  0.99276760  0.19334001  0.73602742  1
  Na  Na19  1  0.00182528  0.53101711  0.75336400  1
  Na  Na20  1  0.99326047  0.85919157  0.73189690  1
  Na  Na21  1  0.99927293  0.13242453  0.26868000  1
  Na  Na22  1  0.99851404  0.46960694  0.25274465  1
  Na  Na23  1  0.00123101  0.79821365  0.26765397  1
  Na  Na24  1  0.81271106  0.64741246  0.22298036  1
  Na  Na25  1  0.81918303  0.98029239  0.22685314  1
  Na  Na26  1  0.19303659  0.30435551  0.29669561  1
  Na  Na27  1  0.19764530  0.64093965  0.29104710  1
  Na  Na28  1  0.81935844  0.02758173  0.69047429  1
  Na  Na29  1  0.81738602  0.69415741  0.68905135  1
  Na  Na30  1  0.31271106  0.14741246  0.22298036  1
  Na  Na31  1  0.31918303  0.48029239  0.22685314  1
  Na  Na32  1  0.69764530  0.14093965  0.29104710  1
  Na  Na33  1  0.69303659  0.80435551  0.29669561  1
  Na  Na34  1  0.31738602  0.19415741  0.68905135  1
  Na  Na35  1  0.31935844  0.52758173  0.69047429  1
  Ca  Ca36  1  0.90008179  0.08259802  0.43800552  1
  Ca  Ca37  1  0.89989074  0.74856605  0.43882246  1
  Ca  Ca38  1  0.39989074  0.24856605  0.43882246  1
  Ca  Ca39  1  0.40008179  0.58259802  0.43800552  1
  Nb  Nb40  1  0.10552883  0.25044106  0.57232905  1
  Nb  Nb41  1  0.10673174  0.58460402  0.57170871  1
  Nb  Nb42  1  0.10735748  0.91728470  0.56943287  1
  Nb  Nb43  1  0.89239356  0.25295226  0.93569335  1
  Nb  Nb44  1  0.89459688  0.58074723  0.93545289  1
  Nb  Nb45  1  0.89759131  0.91696769  0.93803061  1
  Nb  Nb46  1  0.89188941  0.41528912  0.43265204  1
  Nb  Nb47  1  0.10164939  0.08115611  0.05855341  1
  Nb  Nb48  1  0.10448820  0.41544230  0.06584417  1
  Nb  Nb49  1  0.10707580  0.75066783  0.05981255  1
  Nb  Nb50  1  0.60673174  0.08460402  0.57170871  1
  Nb  Nb51  1  0.60735748  0.41728470  0.56943287  1
  Nb  Nb52  1  0.60552883  0.75044106  0.57232905  1
  Nb  Nb53  1  0.39459688  0.08074723  0.93545289  1
  Nb  Nb54  1  0.39759131  0.41696769  0.93803061  1
  Nb  Nb55  1  0.39239356  0.75295226  0.93569335  1
  Nb  Nb56  1  0.39188941  0.91528912  0.43265204  1
  Nb  Nb57  1  0.60707580  0.25066783  0.05981255  1
  Nb  Nb58  1  0.60164939  0.58115611  0.05855341  1
  Nb  Nb59  1  0.60448820  0.91544230  0.06584417  1
  Si  Si60  1  0.99971172  0.31981030  0.74999934  1
  Si  Si61  1  0.00204799  0.65038459  0.75179070  1
  Si  Si62  1  -0.00001945  0.98324187  0.74312765  1
  Si  Si63  1  0.00463928  0.01334740  0.24612678  1
  Si  Si64  1  0.00105101  0.34711050  0.25332618  1
  Si  Si65  1  0.00295123  0.67949017  0.24367009  1
  Si  Si66  1  0.50204799  0.15038459  0.75179070  1
  Si  Si67  1  0.49998055  0.48324187  0.74312765  1
  Si  Si68  1  0.49971172  0.81981030  0.74999934  1
  Si  Si69  1  0.50295123  0.17949017  0.24367009  1
  Si  Si70  1  0.50463928  0.51334740  0.24612678  1
  Si  Si71  1  0.50105101  0.84711050  0.25332618  1
  Si  Si72  1  0.35089828  0.29886733  0.75547799  1
  Si  Si73  1  0.34921448  0.63349858  0.75261139  1
  Si  Si74  1  0.35338253  0.96348445  0.75019984  1
  Si  Si75  1  0.64811488  0.30017443  0.73975097  1
  Si  Si76  1  0.65012797  0.63258520  0.74793614  1
  Si  Si77  1  0.64589523  0.96332818  0.74497072  1
  Si  Si78  1  0.64356899  0.03260345  0.24624071  1
  Si  Si79  1  0.64504145  0.36800109  0.25046684  1
  Si  Si80  1  0.64046887  0.69990777  0.24180829  1
  Si  Si81  1  0.35335837  0.03535312  0.25487000  1
  Si  Si82  1  0.35363189  0.37030500  0.25227232  1
  Si  Si83  1  0.35198372  0.70547160  0.24953166  1
  Si  Si84  1  0.84921448  0.13349858  0.75261139  1
  Si  Si85  1  0.85338253  0.46348445  0.75019984  1
  Si  Si86  1  0.85089828  0.79886733  0.75547799  1
  Si  Si87  1  0.15012797  0.13258520  0.74793614  1
  Si  Si88  1  0.14589523  0.46332818  0.74497072  1
  Si  Si89  1  0.14811488  0.80017443  0.73975097  1
  Si  Si90  1  0.14046887  0.19990777  0.24180829  1
  Si  Si91  1  0.14356899  0.53260345  0.24624071  1
  Si  Si92  1  0.14504145  0.86800109  0.25046684  1
  Si  Si93  1  0.85198372  0.20547160  0.24953166  1
  Si  Si94  1  0.85335837  0.53535312  0.25487000  1
  Si  Si95  1  0.85363189  0.87030500  0.25227232  1
  O  O96  1  0.15434558  0.19345320  0.74910926  1
  O  O97  1  0.14594518  0.52326483  0.73197304  1
  O  O98  1  0.15229979  0.86044006  0.74965906  1
  O  O99  1  0.84759124  0.19228615  0.77908793  1
  O  O100  1  0.84903794  0.52307937  0.75627377  1
  O  O101  1  0.84935500  0.85765722  0.78342181  1
  O  O102  1  0.84038089  0.14753696  0.23427072  1
  O  O103  1  0.85194875  0.47569342  0.26585713  1
  O  O104  1  0.84006329  0.81281349  0.23179090  1
  O  O105  1  0.14321728  0.13978734  0.23668469  1
  O  O106  1  0.14825638  0.47224171  0.24553859  1
  O  O107  1  0.14531853  0.80824723  0.23635386  1
  O  O108  1  0.64594518  0.02326483  0.73197304  1
  O  O109  1  0.65229979  0.36044006  0.74965906  1
  O  O110  1  0.65434558  0.69345320  0.74910926  1
  O  O111  1  0.34903794  0.02307937  0.75627377  1
  O  O112  1  0.34935500  0.35765722  0.78342181  1
  O  O113  1  0.34759124  0.69228615  0.77908793  1
  O  O114  1  0.34006329  0.31281349  0.23179090  1
  O  O115  1  0.34038089  0.64753696  0.23427072  1
  O  O116  1  0.35194875  0.97569342  0.26585713  1
  O  O117  1  0.64531853  0.30824723  0.23635386  1
  O  O118  1  0.64321728  0.63978734  0.23668469  1
  O  O119  1  0.64825638  0.97224171  0.24553859  1
  O  O120  1  0.41643450  0.17727944  0.57067724  1
  O  O121  1  0.41563521  0.51079681  0.56253705  1
  O  O122  1  0.43489792  0.85720963  0.57829035  1
  O  O123  1  0.56768173  0.18889548  0.92306741  1
  O  O124  1  0.56277331  0.52335417  0.91331438  1
  O  O125  1  0.56795243  0.85567250  0.92799425  1
  O  O126  1  0.56870756  0.14218763  0.42360856  1
  O  O127  1  0.56591951  0.47634846  0.42305226  1
  O  O128  1  0.57051245  0.80987613  0.42487329  1
  O  O129  1  0.44811402  0.13873668  0.08147109  1
  O  O130  1  0.44653061  0.47683548  0.07181670  1
  O  O131  1  0.43878812  0.81358773  0.07519308  1
  O  O132  1  0.91563521  0.01079681  0.56253705  1
  O  O133  1  0.93489792  0.35720963  0.57829035  1
  O  O134  1  0.91643450  0.67727944  0.57067724  1
  O  O135  1  0.06277331  0.02335417  0.91331438  1
  O  O136  1  0.06795243  0.35567250  0.92799425  1
  O  O137  1  0.06768173  0.68889548  0.92306741  1
  O  O138  1  0.07051245  0.30987613  0.42487329  1
  O  O139  1  0.06870756  0.64218763  0.42360856  1
  O  O140  1  0.06591951  0.97634846  0.42305226  1
  O  O141  1  0.93878812  0.31358773  0.07519308  1
  O  O142  1  0.94811402  0.63873668  0.08147109  1
  O  O143  1  0.94653061  0.97683548  0.07181670  1
  O  O144  1  0.25666379  0.27067610  0.74654059  1
  O  O145  1  0.25696835  0.60352091  0.74731093  1
  O  O146  1  0.25625937  0.93874036  0.73484670  1
  O  O147  1  0.75275661  0.27863092  0.77067267  1
  O  O148  1  0.75698920  0.61264870  0.77759011  1
  O  O149  1  0.74696176  0.94367496  0.75787043  1
  O  O150  1  0.72693497  0.05828283  0.22799051  1
  O  O151  1  0.74552582  0.39271111  0.27036655  1
  O  O152  1  0.72834815  0.72454263  0.23247195  1
  O  O153  1  0.25764444  0.06341486  0.23786629  1
  O  O154  1  0.25622732  0.39710346  0.24150107  1
  O  O155  1  0.25502744  0.73064266  0.24088493  1
  O  O156  1  0.75696835  0.10352091  0.74731093  1
  O  O157  1  0.75625937  0.43874036  0.73484670  1
  O  O158  1  0.75666379  0.77067610  0.74654059  1
  O  O159  1  0.25698920  0.11264870  0.77759011  1
  O  O160  1  0.24696176  0.44367496  0.75787043  1
  O  O161  1  0.25275661  0.77863092  0.77067267  1
  O  O162  1  0.22834815  0.22454263  0.23247195  1
  O  O163  1  0.22693497  0.55828283  0.22799051  1
  O  O164  1  0.24552582  0.89271111  0.27036655  1
  O  O165  1  0.75502744  0.23064266  0.24088493  1
  O  O166  1  0.75764444  0.56341486  0.23786629  1
  O  O167  1  0.75622732  0.89710346  0.24150107  1
  O  O168  1  0.34341603  0.29271449  0.57409524  1
  O  O169  1  0.34182262  0.62556552  0.57231240  1
  O  O170  1  0.36243671  0.95145238  0.58274448  1
  O  O171  1  0.63675218  0.28441751  0.90799521  1
  O  O172  1  0.64487770  0.61928939  0.92247379  1
  O  O173  1  0.64385316  0.95186837  0.92310905  1
  O  O174  1  0.64693585  0.04681268  0.42771209  1
  O  O175  1  0.63906448  0.38077513  0.42105146  1
  O  O176  1  0.64505920  0.71421518  0.42586276  1
  O  O177  1  0.35550259  0.04803110  0.08091414  1
  O  O178  1  0.35785235  0.39261398  0.08876193  1
  O  O179  1  0.35634558  0.72548102  0.08488500  1
  O  O180  1  0.84182262  0.12556552  0.57231240  1
  O  O181  1  0.86243671  0.45145238  0.58274448  1
  O  O182  1  0.84341603  0.79271449  0.57409524  1
  O  O183  1  0.14487770  0.11928939  0.92247379  1
  O  O184  1  0.14385316  0.45186837  0.92310905  1
  O  O185  1  0.13675218  0.78441751  0.90799521  1
  O  O186  1  0.14505920  0.21421518  0.42586276  1
  O  O187  1  0.14693585  0.54681268  0.42771209  1
  O  O188  1  0.13906448  0.88077513  0.42105146  1
  O  O189  1  0.85634558  0.22548102  0.08488500  1
  O  O190  1  0.85550259  0.54803110  0.08091414  1
  O  O191  1  0.85785235  0.89261398  0.08876193  1
  O  O192  1  0.46133622  0.27491471  0.92796441  1
  O  O193  1  0.46041929  0.60851364  0.92328185  1
  O  O194  1  0.46313287  0.94273509  0.93110098  1
  O  O195  1  0.55188112  0.28195797  0.55270707  1
  O  O196  1  0.55446009  0.61427846  0.56058442  1
  O  O197  1  0.53772418  0.94228498  0.56937695  1
  O  O198  1  0.52791667  0.04704078  0.07486948  1
  O  O199  1  0.53805148  0.38781419  0.07032763  1
  O  O200  1  0.52936134  0.72100278  0.07360124  1
  O  O201  1  0.46227133  0.05704316  0.43200775  1
  O  O202  1  0.46152504  0.39092800  0.43640048  1
  O  O203  1  0.46362109  0.72397610  0.43463457  1
  O  O204  1  0.96041929  0.10851364  0.92328185  1
  O  O205  1  0.96313287  0.44273509  0.93110098  1
  O  O206  1  0.96133622  0.77491471  0.92796441  1
  O  O207  1  0.05446009  0.11427846  0.56058442  1
  O  O208  1  0.03772418  0.44228498  0.56937695  1
  O  O209  1  0.05188112  0.78195797  0.55270707  1
  O  O210  1  0.02936134  0.22100278  0.07360124  1
  O  O211  1  0.02791667  0.54704078  0.07486948  1
  O  O212  1  0.03805148  0.88781419  0.07032763  1
  O  O213  1  0.96362109  0.22397610  0.43463457  1
  O  O214  1  0.96227133  0.55704316  0.43200775  1
  O  O215  1  0.96152504  0.89092800  0.43640048  1
  O  O216  1  0.07857269  0.28548180  0.73414484  1
  O  O217  1  0.08423038  0.61533841  0.74443892  1
  O  O218  1  0.08620933  0.94950478  0.74723707  1
  O  O219  1  0.92300502  0.28322541  0.76047967  1
  O  O220  1  0.93559764  0.61100483  0.78590437  1
  O  O221  1  0.92840745  0.94583790  0.77193911  1
  O  O222  1  0.91561020  0.04589432  0.22816988  1
  O  O223  1  0.92409845  0.38404592  0.26498552  1
  O  O224  1  0.91357018  0.71097676  0.22652649  1
  O  O225  1  0.08835135  0.04736642  0.24097960  1
  O  O226  1  0.08496534  0.38047717  0.24402118  1
  O  O227  1  0.08926889  0.71185786  0.24216365  1
  O  O228  1  0.58423038  0.11533841  0.74443892  1
  O  O229  1  0.58620933  0.44950478  0.74723707  1
  O  O230  1  0.57857269  0.78548180  0.73414484  1
  O  O231  1  0.43559764  0.11100483  0.78590437  1
  O  O232  1  0.42840745  0.44583790  0.77193911  1
  O  O233  1  0.42300502  0.78322541  0.76047967  1
  O  O234  1  0.41357018  0.21097676  0.22652649  1
  O  O235  1  0.41561020  0.54589432  0.22816988  1
  O  O236  1  0.42409845  0.88404592  0.26498552  1
  O  O237  1  0.58926889  0.21185786  0.24216365  1
  O  O238  1  0.58835135  0.54736642  0.24097960  1
  O  O239  1  0.58496534  0.88047717  0.24402118  1
