# generated using pymatgen
data_Na15Mg7Ta5Si9(SO8)9
_symmetry_space_group_name_H-M   'P 1'
_cell_length_a   8.99028930
_cell_length_b   8.95640222
_cell_length_c   22.52219397
_cell_angle_alpha   89.88324742
_cell_angle_beta   90.45559809
_cell_angle_gamma   120.00912751
_symmetry_Int_Tables_number   1
_chemical_formula_structural   Na15Mg7Ta5Si9(SO8)9
_chemical_formula_sum   'Na15 Mg7 Ta5 Si9 S9 O72'
_cell_volume   1570.34042820
_cell_formula_units_Z   1
loop_
 _symmetry_equiv_pos_site_id
 _symmetry_equiv_pos_as_xyz
  1  'x, y, z'
loop_
 _atom_site_type_symbol
 _atom_site_label
 _atom_site_symmetry_multiplicity
 _atom_site_fract_x
 _atom_site_fract_y
 _atom_site_fract_z
 _atom_site_occupancy
  Na  Na0  1  0.63099996  0.00430283  0.23681400  1
  Na  Na1  1  0.99388004  0.64916867  0.25020882  1
  Na  Na2  1  0.65558096  0.64124417  0.75564661  1
  Na  Na3  1  0.34254010  0.99596122  0.74506257  1
  Na  Na4  1  0.97783617  0.69078414  0.91211618  1
  Na  Na5  1  0.70262623  0.01057317  0.91999325  1
  Na  Na6  1  0.31465662  0.30050597  0.91878901  1
  Na  Na7  1  0.30237688  0.01901228  0.41106354  1
  Na  Na8  1  0.70461091  0.67736950  0.40662234  1
  Na  Na9  1  0.01766785  0.01533662  0.49721432  1
  Na  Na10  1  0.99654268  0.00164954  0.99141483  1
  Na  Na11  1  0.69519755  0.35446484  0.82758925  1
  Na  Na12  1  0.64527025  0.33638617  0.32112851  1
  Na  Na13  1  0.35212193  0.67654111  0.15442079  1
  Na  Na14  1  0.30636740  0.65709840  0.66234636  1
  Mg  Mg15  1  0.00951418  0.99569403  0.35237210  1
  Mg  Mg16  1  0.99582018  0.99086939  0.85212268  1
  Mg  Mg17  1  0.00802346  0.99380480  0.64925701  1
  Mg  Mg18  1  0.68260069  0.34047703  0.68373874  1
  Mg  Mg19  1  0.64673844  0.32389646  0.18545762  1
  Mg  Mg20  1  0.34436596  0.67679979  0.01735633  1
  Mg  Mg21  1  0.32121528  0.65787176  0.51872372  1
  Ta  Ta22  1  0.99095781  0.98612985  0.14556655  1
  Ta  Ta23  1  0.66675341  0.32403218  0.97934361  1
  Ta  Ta24  1  0.66979058  0.34000674  0.47975413  1
  Ta  Ta25  1  0.32775662  0.65593724  0.31262526  1
  Ta  Ta26  1  0.32177024  0.66419778  0.81939611  1
  Si  Si27  1  0.29773066  0.00593917  0.25397227  1
  Si  Si28  1  0.70525976  0.70265888  0.25372000  1
  Si  Si29  1  0.99946912  0.70264659  0.74949457  1
  Si  Si30  1  0.66268522  0.03560400  0.08912827  1
  Si  Si31  1  0.62469313  0.66715438  0.91795982  1
  Si  Si32  1  0.04344839  0.37253038  0.92290985  1
  Si  Si33  1  0.32696007  0.95689801  0.92004027  1
  Si  Si34  1  0.32094597  0.37062233  0.42148052  1
  Si  Si35  1  0.04576501  0.66868453  0.41989617  1
  S  S36  1  0.00508675  0.28665708  0.25053998  1
  S  S37  1  0.29098334  0.29629228  0.74837601  1
  S  S38  1  0.70532184  0.99952730  0.74870579  1
  S  S39  1  0.95790028  0.32894306  0.58490382  1
  S  S40  1  0.37858685  0.04271591  0.58446431  1
  S  S41  1  0.66518065  0.62826257  0.58450872  1
  S  S42  1  0.95569632  0.62042675  0.08600889  1
  S  S43  1  0.37251706  0.33068242  0.08427156  1
  S  S44  1  0.62099067  0.95771400  0.41843834  1
  O  O45  1  0.21399770  0.02211267  0.31377385  1
  O  O46  1  0.81116238  0.79435597  0.31263616  1
  O  O47  1  0.97895858  0.18356426  0.30312650  1
  O  O48  1  0.21454026  0.19937774  0.80332685  1
  O  O49  1  0.97383437  0.78409362  0.81015412  1
  O  O50  1  0.80146745  0.02450876  0.80409170  1
  O  O51  1  0.79094978  0.97795043  0.69686156  1
  O  O52  1  0.18402491  0.21808459  0.69561284  1
  O  O53  1  0.05344191  0.83422409  0.69381695  1
  O  O54  1  0.80540452  0.83837521  0.19499878  1
  O  O55  1  0.03086382  0.20698628  0.19604475  1
  O  O56  1  0.16387822  0.97342782  0.19577230  1
  O  O57  1  0.87220957  0.34641329  0.63732969  1
  O  O58  1  0.47953926  0.13123571  0.63840352  1
  O  O59  1  0.64519702  0.52124009  0.63666905  1
  O  O60  1  0.87073868  0.52665977  0.13936207  1
  O  O61  1  0.66220336  0.13680134  0.14695316  1
  O  O62  1  0.47798487  0.35277209  0.13610273  1
  O  O63  1  0.45644080  0.30829488  0.02864219  1
  O  O64  1  0.84686191  0.54116616  0.03108522  1
  O  O65  1  0.68744431  0.16359862  0.02870489  1
  O  O66  1  0.47857811  0.15311670  0.53014858  1
  O  O67  1  0.68186062  0.52917380  0.52922703  1
  O  O68  1  0.84538843  0.31513779  0.53037650  1
  O  O69  1  0.53599505  0.70519934  0.97100707  1
  O  O70  1  0.16603029  0.45537632  0.97792880  1
  O  O71  1  0.28150432  0.82803098  0.97317026  1
  O  O72  1  0.54485974  0.85160788  0.47081422  1
  O  O73  1  0.32640150  0.47490431  0.47801870  1
  O  O74  1  0.17858492  0.71689220  0.47273143  1
  O  O75  1  0.13390937  0.63381252  0.35809418  1
  O  O76  1  0.50829525  0.87956482  0.36338430  1
  O  O77  1  0.37002678  0.50253389  0.36122386  1
  O  O78  1  0.13168585  0.50719600  0.86305542  1
  O  O79  1  0.37390878  0.87334985  0.85867729  1
  O  O80  1  0.50131276  0.62533472  0.85470131  1
  O  O81  1  0.99561173  0.81707857  0.41329938  1
  O  O82  1  0.79352960  0.98744407  0.40907535  1
  O  O83  1  0.16490088  0.17945784  0.41325879  1
  O  O84  1  0.00320792  0.18248295  0.90622186  1
  O  O85  1  0.18108395  0.00541288  0.90777320  1
  O  O86  1  0.81579278  0.82689999  0.90941921  1
  O  O87  1  0.96765418  0.16945975  0.58554032  1
  O  O88  1  0.21156587  0.03571589  0.58259856  1
  O  O89  1  0.82573243  0.79571269  0.58451153  1
  O  O90  1  0.97041189  0.80052006  0.08819030  1
  O  O91  1  0.85121219  0.03010297  0.09108431  1
  O  O92  1  0.20078438  0.16490580  0.08849024  1
  O  O93  1  0.66427474  0.14104328  0.74210198  1
  O  O94  1  0.46460432  0.31106090  0.74246224  1
  O  O95  1  0.82664958  0.51351716  0.74301394  1
  O  O96  1  0.69964971  0.52363632  0.24189739  1
  O  O97  1  0.86350726  0.32335916  0.24346521  1
  O  O98  1  0.49378693  0.15561175  0.24720616  1
  O  O99  1  0.63466961  0.48636676  0.92615911  1
  O  O100  1  0.85545040  0.37038638  0.92687512  1
  O  O101  1  0.51252992  0.14540917  0.92495705  1
  O  O102  1  0.62678249  0.13010669  0.42428295  1
  O  O103  1  0.50567075  0.35163683  0.42708512  1
  O  O104  1  0.85178049  0.48522915  0.42801762  1
  O  O105  1  0.34528714  0.47749272  0.07815989  1
  O  O106  1  0.12752741  0.64344656  0.08028122  1
  O  O107  1  0.50229765  0.84646449  0.08147275  1
  O  O108  1  0.36613864  0.87283300  0.57927452  1
  O  O109  1  0.51328335  0.64652375  0.57698495  1
  O  O110  1  0.12734431  0.48549633  0.57919529  1
  O  O111  1  0.30100755  0.81591237  0.25690085  1
  O  O112  1  0.51637026  0.69664748  0.25666926  1
  O  O113  1  0.16903578  0.46348229  0.25453312  1
  O  O114  1  0.32256038  0.47953437  0.75289853  1
  O  O115  1  0.18242092  0.68528010  0.75657550  1
  O  O116  1  0.53025868  0.83181473  0.75241096  1
