# generated using pymatgen
data_Na4Cd3Se5
_symmetry_space_group_name_H-M   'P 1'
_cell_length_a   4.26260889
_cell_length_b   14.10003254
_cell_length_c   20.25571435
_cell_angle_alpha   90.00000000
_cell_angle_beta   90.00000000
_cell_angle_gamma   90.00000000
_symmetry_Int_Tables_number   1
_chemical_formula_structural   Na4Cd3Se5
_chemical_formula_sum   'Na16 Cd12 Se20'
_cell_volume   1217.42766124
_cell_formula_units_Z   4
loop_
 _symmetry_equiv_pos_site_id
 _symmetry_equiv_pos_as_xyz
  1  'x, y, z'
loop_
 _atom_site_type_symbol
 _atom_site_label
 _atom_site_symmetry_multiplicity
 _atom_site_fract_x
 _atom_site_fract_y
 _atom_site_fract_z
 _atom_site_occupancy
  Na  Na0  1  0.25000000  0.27620370  0.83374816  1
  Na  Na1  1  0.75000000  0.72379630  0.16625184  1
  Na  Na2  1  0.25000000  0.77620370  0.66625184  1
  Na  Na3  1  0.75000000  0.22379630  0.33374816  1
  Na  Na4  1  0.25000000  0.11108223  0.94819343  1
  Na  Na5  1  0.75000000  0.88891777  0.05180657  1
  Na  Na6  1  0.25000000  0.61108223  0.55180657  1
  Na  Na7  1  0.75000000  0.38891777  0.44819343  1
  Na  Na8  1  0.25000000  0.00654713  0.41850420  1
  Na  Na9  1  0.75000000  0.99345287  0.58149580  1
  Na  Na10  1  0.25000000  0.50654713  0.08149580  1
  Na  Na11  1  0.75000000  0.49345287  0.91850420  1
  Na  Na12  1  0.25000000  0.50153604  0.73278840  1
  Na  Na13  1  0.75000000  0.49846396  0.26721160  1
  Na  Na14  1  0.25000000  0.00153604  0.76721160  1
  Na  Na15  1  0.75000000  0.99846396  0.23278840  1
  Cd  Cd16  1  0.25000000  0.57582510  0.37006564  1
  Cd  Cd17  1  0.75000000  0.42417490  0.62993436  1
  Cd  Cd18  1  0.25000000  0.07582510  0.12993436  1
  Cd  Cd19  1  0.75000000  0.92417490  0.87006564  1
  Cd  Cd20  1  0.25000000  0.31713027  0.21690337  1
  Cd  Cd21  1  0.75000000  0.68286973  0.78309663  1
  Cd  Cd22  1  0.25000000  0.81713027  0.28309663  1
  Cd  Cd23  1  0.75000000  0.18286973  0.71690337  1
  Cd  Cd24  1  0.25000000  0.20633564  0.53532523  1
  Cd  Cd25  1  0.75000000  0.79366436  0.46467477  1
  Cd  Cd26  1  0.25000000  0.70633564  0.96467477  1
  Cd  Cd27  1  0.75000000  0.29366436  0.03532523  1
  Se  Se28  1  0.25000000  0.11434213  0.65152154  1
  Se  Se29  1  0.75000000  0.36196970  0.75302502  1
  Se  Se30  1  0.75000000  0.86196970  0.74697498  1
  Se  Se31  1  0.25000000  0.13803030  0.25302502  1
  Se  Se32  1  0.75000000  0.14596252  0.46818690  1
  Se  Se33  1  0.25000000  0.85403748  0.53181310  1
  Se  Se34  1  0.75000000  0.64596252  0.03181310  1
  Se  Se35  1  0.25000000  0.35403748  0.96818690  1
  Se  Se36  1  0.75000000  0.11453343  0.84357659  1
  Se  Se37  1  0.25000000  0.88546657  0.15642341  1
  Se  Se38  1  0.75000000  0.61453343  0.65642341  1
  Se  Se39  1  0.25000000  0.38546657  0.34357659  1
  Se  Se40  1  0.75000000  0.10657265  0.05404396  1
  Se  Se41  1  0.25000000  0.89342735  0.94595604  1
  Se  Se42  1  0.75000000  0.60657265  0.44595604  1
  Se  Se43  1  0.25000000  0.39342735  0.55404396  1
  Se  Se44  1  0.25000000  0.61434213  0.84847846  1
  Se  Se45  1  0.75000000  0.38565787  0.15152154  1
  Se  Se46  1  0.25000000  0.63803030  0.24697498  1
  Se  Se47  1  0.75000000  0.88565787  0.34847846  1
