# generated using pymatgen
data_KNaS
_symmetry_space_group_name_H-M   'P 1'
_cell_length_a   4.63523182
_cell_length_b   7.77581025
_cell_length_c   8.27467189
_cell_angle_alpha   90.00000000
_cell_angle_beta   90.00000000
_cell_angle_gamma   90.00000000
_symmetry_Int_Tables_number   1
_chemical_formula_structural   KNaS
_chemical_formula_sum   'K4 Na4 S4'
_cell_volume   298.24137666
_cell_formula_units_Z   4
loop_
 _symmetry_equiv_pos_site_id
 _symmetry_equiv_pos_as_xyz
  1  'x, y, z'
loop_
 _atom_site_type_symbol
 _atom_site_label
 _atom_site_symmetry_multiplicity
 _atom_site_fract_x
 _atom_site_fract_y
 _atom_site_fract_z
 _atom_site_occupancy
  K  K0  1  0.75000000  0.98840276  0.81407984  1
  K  K1  1  0.25000000  0.01159724  0.18592016  1
  K  K2  1  0.75000000  0.48840276  0.68592016  1
  K  K3  1  0.25000000  0.51159724  0.31407984  1
  Na  Na4  1  0.75000000  0.85370142  0.42392653  1
  Na  Na5  1  0.25000000  0.14629858  0.57607347  1
  Na  Na6  1  0.75000000  0.35370142  0.07607347  1
  Na  Na7  1  0.25000000  0.64629858  0.92392653  1
  S  S8  1  0.75000000  0.71790353  0.10343470  1
  S  S9  1  0.25000000  0.28209647  0.89656530  1
  S  S10  1  0.75000000  0.21790353  0.39656530  1
  S  S11  1  0.25000000  0.78209647  0.60343470  1
