# generated using pymatgen
data_Na3MgMn2SbO6
_symmetry_space_group_name_H-M   'P 1'
_cell_length_a   6.59280236
_cell_length_b   6.21592549
_cell_length_c   5.63765385
_cell_angle_alpha   86.76514319
_cell_angle_beta   83.89180337
_cell_angle_gamma   57.97323057
_symmetry_Int_Tables_number   1
_chemical_formula_structural   Na3MgMn2SbO6
_chemical_formula_sum   'Na3 Mg1 Mn2 Sb1 O6'
_cell_volume   194.75797848
_cell_formula_units_Z   1
loop_
 _symmetry_equiv_pos_site_id
 _symmetry_equiv_pos_as_xyz
  1  'x, y, z'
loop_
 _atom_site_type_symbol
 _atom_site_label
 _atom_site_symmetry_multiplicity
 _atom_site_fract_x
 _atom_site_fract_y
 _atom_site_fract_z
 _atom_site_occupancy
  Na  Na0  1  0.59380849  -0.00000000  0.53586517  1
  Na  Na1  1  0.28396377  0.54285054  0.52376934  1
  Na  Na2  1  0.82681631  0.45714946  0.52376934  1
  Mg  Mg3  1  0.19617814  -0.00000000  0.60594543  1
  Mn  Mn4  1  0.20506166  0.31656758  0.05619092  1
  Mn  Mn5  1  0.52162924  0.68343242  0.05619092  1
  Sb  Sb6  1  0.86379001  -0.00000000  0.06005328  1
  O  O7  1  0.17833064  0.29821686  0.71144092  1
  O  O8  1  0.26634663  -0.00000000  0.25614563  1
  O  O9  1  0.89182211  -0.00000000  0.70469656  1
  O  O10  1  0.47654750  0.70178314  0.71144092  1
  O  O11  1  0.52515431  0.31206388  0.15328728  1
  O  O12  1  0.83721818  0.68793612  0.15328728  1
