# generated using pymatgen
data_Cs2PbCl6
_symmetry_space_group_name_H-M   'P 1'
_cell_length_a   7.45913749
_cell_length_b   7.45913824
_cell_length_c   7.45913803
_cell_angle_alpha   60.00000096
_cell_angle_beta   59.99999764
_cell_angle_gamma   59.99999919
_symmetry_Int_Tables_number   1
_chemical_formula_structural   Cs2PbCl6
_chemical_formula_sum   'Cs2 Pb1 Cl6'
_cell_volume   293.46134697
_cell_formula_units_Z   1
loop_
 _symmetry_equiv_pos_site_id
 _symmetry_equiv_pos_as_xyz
  1  'x, y, z'
loop_
 _atom_site_type_symbol
 _atom_site_label
 _atom_site_symmetry_multiplicity
 _atom_site_fract_x
 _atom_site_fract_y
 _atom_site_fract_z
 _atom_site_occupancy
  Cs  Cs0  1  0.75000000  0.75000000  0.75000000  1
  Cs  Cs1  1  0.25000000  0.25000000  0.25000000  1
  Pb  Pb2  1  0.00000000  -0.00000000  0.00000000  1
  Cl  Cl3  1  0.24165883  0.75834117  0.75834117  1
  Cl  Cl4  1  0.24165883  0.75834117  0.24165883  1
  Cl  Cl5  1  0.75834117  0.24165883  0.75834117  1
  Cl  Cl6  1  0.75834117  0.24165883  0.24165883  1
  Cl  Cl7  1  0.75834117  0.75834117  0.24165883  1
  Cl  Cl8  1  0.24165883  0.24165883  0.75834117  1
