# generated using pymatgen
data_Na3YZn3(SO4)6
_symmetry_space_group_name_H-M   'P 1'
_cell_length_a   8.89326186
_cell_length_b   8.89145512
_cell_length_c   23.06263729
_cell_angle_alpha   89.95595743
_cell_angle_beta   90.03818997
_cell_angle_gamma   119.98950255
_symmetry_Int_Tables_number   1
_chemical_formula_structural   Na3YZn3(SO4)6
_chemical_formula_sum   'Na9 Y3 Zn9 S18 O72'
_cell_volume   1579.49879804
_cell_formula_units_Z   3
loop_
 _symmetry_equiv_pos_site_id
 _symmetry_equiv_pos_as_xyz
  1  'x, y, z'
loop_
 _atom_site_type_symbol
 _atom_site_label
 _atom_site_symmetry_multiplicity
 _atom_site_fract_x
 _atom_site_fract_y
 _atom_site_fract_z
 _atom_site_occupancy
  Na  Na0  1  0.63390003  0.99877061  0.24853864  1
  Na  Na1  1  0.36568061  0.36499603  0.24818857  1
  Na  Na2  1  0.02944582  0.69738871  0.58691929  1
  Na  Na3  1  0.99886673  0.01147455  0.49931859  1
  Na  Na4  1  0.99989825  0.99926558  0.99843055  1
  Na  Na5  1  0.66599068  0.33253396  0.82762069  1
  Na  Na6  1  0.68110883  0.34651449  0.33174356  1
  Na  Na7  1  0.32028675  0.66547353  0.15967901  1
  Na  Na8  1  0.34643109  0.66543587  0.66457236  1
  Y  Y9  1  0.66668598  0.33345187  0.98332592  1
  Y  Y10  1  0.66309570  0.32929757  0.48133681  1
  Y  Y11  1  0.33304318  0.66671274  0.81222425  1
  Zn  Zn12  1  0.99982598  0.99624469  0.35026330  1
  Zn  Zn13  1  0.00003609  0.00081575  0.84790406  1
  Zn  Zn14  1  0.99956262  0.00648960  0.65417511  1
  Zn  Zn15  1  0.00007449  0.99626041  0.14932712  1
  Zn  Zn16  1  0.66262342  0.32922917  0.68494142  1
  Zn  Zn17  1  0.67397104  0.33992201  0.17463710  1
  Zn  Zn18  1  0.33271942  0.66676773  0.01515539  1
  Zn  Zn19  1  0.34114683  0.66549634  0.51423312  1
  Zn  Zn20  1  0.32582466  0.66574009  0.32051940  1
  S  S21  1  0.29254410  0.99855678  0.25040387  1
  S  S22  1  0.70795653  0.70555493  0.25050994  1
  S  S23  1  0.99952759  0.29283989  0.25041152  1
  S  S24  1  0.29497059  0.28476024  0.74817214  1
  S  S25  1  0.98987855  0.70472515  0.74684674  1
  S  S26  1  0.71525102  0.00993466  0.74805237  1
  S  S27  1  0.96734966  0.33306706  0.58545942  1
  S  S28  1  0.36514765  0.03161490  0.58591883  1
  S  S29  1  0.66565553  0.63359937  0.58576191  1
  S  S30  1  0.97151141  0.63741805  0.08611929  1
  S  S31  1  0.66601126  0.02847007  0.08761919  1
  S  S32  1  0.36228424  0.33383423  0.08758640  1
  S  S33  1  0.63508363  0.67770056  0.91787115  1
  S  S34  1  0.04239511  0.36467815  0.91784026  1
  S  S35  1  0.32225903  0.95756632  0.91776235  1
  S  S36  1  0.62898950  0.95297065  0.41348916  1
  S  S37  1  0.32423167  0.37100501  0.41355979  1
  S  S38  1  0.04600707  0.67553677  0.41628527  1
  O  O39  1  0.21402414  0.02949888  0.30241031  1
  O  O40  1  0.81097826  0.78376541  0.30341092  1
  O  O41  1  0.96751886  0.18236033  0.30259024  1
  O  O42  1  0.21315496  0.18572095  0.80167238  1
  O  O43  1  0.97342440  0.79070341  0.79924442  1
  O  O44  1  0.81439953  0.02762238  0.80159850  1
  O  O45  1  0.79274909  0.98392475  0.69545791  1
  O  O46  1  0.19239368  0.20668309  0.69547738  1
  O  O47  1  0.01376130  0.80452461  0.69262688  1
  O  O48  1  0.78725529  0.81607272  0.19879255  1
  O  O49  1  0.03138214  0.21356849  0.19857790  1
  O  O50  1  0.18882113  0.97418314  0.19775024  1
  O  O51  1  0.88260395  0.36438285  0.63572043  1
  O  O52  1  0.47491370  0.11642270  0.63674765  1
  O  O53  1  0.64022004  0.52365990  0.63689250  1
  O  O54  1  0.88974388  0.52894235  0.13840071  1
  O  O55  1  0.64109188  0.10921918  0.14138649  1
  O  O56  1  0.46748672  0.35787765  0.14141214  1
  O  O57  1  0.44932676  0.30975824  0.03637972  1
  O  O58  1  0.86346554  0.55483264  0.03381457  1
  O  O59  1  0.69057778  0.13991328  0.03638541  1
  O  O60  1  0.44334465  0.13470666  0.53240218  1
  O  O61  1  0.69601761  0.55350825  0.53296449  1
  O  O62  1  0.86249822  0.30774331  0.53194074  1
  O  O63  1  0.54967099  0.69495110  0.97038480  1
  O  O64  1  0.14520167  0.45018687  0.97034174  1
  O  O65  1  0.30511988  0.85498901  0.97033197  1
  O  O66  1  0.54290475  0.85078946  0.46601262  1
  O  O67  1  0.30653960  0.45641621  0.46602042  1
  O  O68  1  0.14250593  0.69220572  0.47098484  1
  O  O69  1  0.12705807  0.65005367  0.36451881  1
  O  O70  1  0.52880825  0.87668395  0.35937485  1
  O  O71  1  0.34974825  0.47203113  0.35946269  1
  O  O72  1  0.12159994  0.47028625  0.86521372  1
  O  O73  1  0.34856888  0.87832698  0.86517596  1
  O  O74  1  0.52955319  0.65148221  0.86522248  1
  O  O75  1  0.02829117  0.83258472  0.41139267  1
  O  O76  1  0.80445730  0.97211141  0.41030488  1
  O  O77  1  0.16766690  0.19583966  0.41007474  1
  O  O78  1  0.02543042  0.19117287  0.91249227  1
  O  O79  1  0.16569648  0.97448372  0.91229976  1
  O  O80  1  0.80880742  0.83390957  0.91240805  1
  O  O81  1  0.98793023  0.17922031  0.59111080  1
  O  O82  1  0.18727724  0.00873665  0.59062955  1
  O  O83  1  0.82684181  0.80684910  0.59064607  1
  O  O84  1  0.98690887  0.81076399  0.09138058  1
  O  O85  1  0.82393011  0.01318059  0.09219031  1
  O  O86  1  0.18889061  0.17612769  0.09200944  1
  O  O87  1  0.69648742  0.16692897  0.74391026  1
  O  O88  1  0.47101966  0.30420677  0.74427985  1
  O  O89  1  0.83345929  0.52890011  0.74351001  1
  O  O90  1  0.68113539  0.52606576  0.24422977  1
  O  O91  1  0.84014236  0.30829478  0.24360398  1
  O  O92  1  0.47125197  0.15918943  0.24506262  1
  O  O93  1  0.65306132  0.51920889  0.92178330  1
  O  O94  1  0.86576141  0.34615690  0.92173391  1
  O  O95  1  0.48054039  0.13407097  0.92170878  1
  O  O96  1  0.64712925  0.12988949  0.41793082  1
  O  O97  1  0.48300209  0.35311458  0.41831158  1
  O  O98  1  0.86821275  0.51723575  0.41954015  1
  O  O99  1  0.34850486  0.49242289  0.08085862  1
  O  O100  1  0.14471065  0.65263874  0.07956698  1
  O  O101  1  0.50753932  0.85623158  0.08080563  1
  O  O102  1  0.34432356  0.85392406  0.57962091  1
  O  O103  1  0.50970409  0.65168880  0.57818428  1
  O  O104  1  0.14004152  0.49674173  0.57867157  1
  O  O105  1  0.31925124  0.84571635  0.25637507  1
  O  O106  1  0.52921330  0.68759911  0.25556533  1
  O  O107  1  0.15912926  0.46764603  0.25692873  1
  O  O108  1  0.31504353  0.46277567  0.75172789  1
  O  O109  1  0.14823436  0.68594265  0.75094878  1
  O  O110  1  0.53723421  0.85225088  0.75170966  1
