# generated using pymatgen
data_Na8Hf3ZnSi5SO24
_symmetry_space_group_name_H-M   'P 1'
_cell_length_a   9.24232883
_cell_length_b   9.24083961
_cell_length_c   22.44322873
_cell_angle_alpha   89.69863004
_cell_angle_beta   90.40389404
_cell_angle_gamma   119.95009157
_symmetry_Int_Tables_number   1
_chemical_formula_structural   Na8Hf3ZnSi5SO24
_chemical_formula_sum   'Na24 Hf9 Zn3 Si15 S3 O72'
_cell_volume   1660.79236789
_cell_formula_units_Z   3
loop_
 _symmetry_equiv_pos_site_id
 _symmetry_equiv_pos_as_xyz
  1  'x, y, z'
loop_
 _atom_site_type_symbol
 _atom_site_label
 _atom_site_symmetry_multiplicity
 _atom_site_fract_x
 _atom_site_fract_y
 _atom_site_fract_z
 _atom_site_occupancy
  Na  Na0  1  0.64892766  0.03009354  0.24550253  1
  Na  Na1  1  0.36876202  0.36117198  0.23806247  1
  Na  Na2  1  0.97893307  0.60597713  0.24091788  1
  Na  Na3  1  0.63215321  0.61362790  0.74522842  1
  Na  Na4  1  0.98232016  0.36571046  0.75160605  1
  Na  Na5  1  0.38630122  0.01524872  0.74551368  1
  Na  Na6  1  0.32554761  0.33697776  0.59172395  1
  Na  Na7  1  0.03162801  0.70656736  0.58272611  1
  Na  Na8  1  0.65554418  0.96501213  0.59529865  1
  Na  Na9  1  0.31125339  0.97156602  0.07724949  1
  Na  Na10  1  0.66501027  0.68991218  0.07707312  1
  Na  Na11  1  0.02810134  0.34388699  0.07954742  1
  Na  Na12  1  0.96588424  0.66493405  0.91342847  1
  Na  Na13  1  0.69946434  0.03457200  0.91258008  1
  Na  Na14  1  0.33446202  0.30036174  0.91279125  1
  Na  Na15  1  0.96400480  0.28515887  0.40901299  1
  Na  Na16  1  0.31471018  0.02810178  0.41813694  1
  Na  Na17  1  0.71658092  0.68403215  0.41782154  1
  Na  Na18  1  0.00148448  0.99215459  0.49343048  1
  Na  Na19  1  0.00108072  0.99928988  0.99432146  1
  Na  Na20  1  0.66757930  0.33281585  0.82432667  1
  Na  Na21  1  0.68339779  0.33128319  0.33110397  1
  Na  Na22  1  0.32550698  0.65836621  0.15959000  1
  Na  Na23  1  0.34491843  0.67688195  0.67191216  1
  Hf  Hf24  1  0.99733560  0.99657116  0.85174786  1
  Hf  Hf25  1  0.00175604  0.99362619  0.64948551  1
  Hf  Hf26  1  0.00405622  0.01281705  0.14492623  1
  Hf  Hf27  1  0.66895753  0.33472252  0.98193686  1
  Hf  Hf28  1  0.65846967  0.33634190  0.47888368  1
  Hf  Hf29  1  0.33398928  0.66520067  0.01749736  1
  Hf  Hf30  1  0.33886614  0.67381496  0.51710220  1
  Hf  Hf31  1  0.32667714  0.66003519  0.31747946  1
  Hf  Hf32  1  0.33427081  0.66750099  0.81314309  1
  Zn  Zn33  1  0.99658629  0.01295060  0.35879480  1
  Zn  Zn34  1  0.64283154  0.32728021  0.68826809  1
  Zn  Zn35  1  0.68196926  0.33115336  0.16630427  1
  Si  Si36  1  0.99971812  0.29843951  0.25349880  1
  Si  Si37  1  0.29025260  0.29540040  0.75038295  1
  Si  Si38  1  0.99966701  0.70105179  0.75046472  1
  Si  Si39  1  0.70469728  0.00010885  0.74905565  1
  Si  Si40  1  0.37147076  0.03714500  0.58484283  1
  Si  Si41  1  0.66616181  0.62958166  0.58515585  1
  Si  Si42  1  0.96700574  0.63252575  0.08610092  1
  Si  Si43  1  0.66211042  0.03415268  0.08663385  1
  Si  Si44  1  0.37932827  0.33661887  0.08737361  1
  Si  Si45  1  0.62835346  0.66553443  0.91718019  1
  Si  Si46  1  0.03781308  0.37083605  0.91656318  1
  Si  Si47  1  0.33487821  0.96242769  0.91686839  1
  Si  Si48  1  0.62724177  0.96438626  0.41481869  1
  Si  Si49  1  0.33331041  0.37235675  0.41778512  1
  Si  Si50  1  0.03486853  0.66481917  0.41624057  1
  S  S51  1  0.28998464  0.99378745  0.25313119  1
  S  S52  1  0.70424566  0.71041108  0.25258008  1
  S  S53  1  0.96217614  0.33420372  0.58283843  1
  O  O54  1  0.20476314  0.00010044  0.30670865  1
  O  O55  1  0.80098050  0.78971221  0.30643668  1
  O  O56  1  0.97777333  0.18843852  0.31257070  1
  O  O57  1  0.19005589  0.18020656  0.80827504  1
  O  O58  1  0.97943720  0.79687585  0.80876676  1
  O  O59  1  0.81723300  0.01525238  0.80831514  1
  O  O60  1  0.79827833  0.97715355  0.68971477  1
  O  O61  1  0.17785983  0.20431737  0.68979070  1
  O  O62  1  0.02564573  0.82059010  0.69106436  1
  O  O63  1  0.79400493  0.81092660  0.19798835  1
  O  O64  1  0.02435872  0.20089001  0.19488432  1
  O  O65  1  0.18707015  0.97781563  0.19829871  1
  O  O66  1  0.89085393  0.35830299  0.63637059  1
  O  O67  1  0.48852260  0.11227007  0.64284135  1
  O  O68  1  0.63203280  0.51513302  0.64342688  1
  O  O69  1  0.89624639  0.52210407  0.14604446  1
  O  O70  1  0.62260527  0.10352679  0.14664332  1
  O  O71  1  0.48974188  0.36568851  0.14707443  1
  O  O72  1  0.46798309  0.30596826  0.02972238  1
  O  O73  1  0.84146600  0.54043033  0.02942614  1
  O  O74  1  0.69836902  0.16100102  0.03029657  1
  O  O75  1  0.46647778  0.15493755  0.52549569  1
  O  O76  1  0.69534001  0.53874011  0.52602953  1
  O  O77  1  0.85950153  0.31694956  0.52854982  1
  O  O78  1  0.53932246  0.69094436  0.97611780  1
  O  O79  1  0.15272096  0.45952654  0.97604778  1
  O  O80  1  0.30877892  0.84584423  0.97579313  1
  O  O81  1  0.52595823  0.84676550  0.47233413  1
  O  O82  1  0.31196483  0.46871061  0.47484610  1
  O  O83  1  0.15024344  0.68865539  0.47516182  1
  O  O84  1  0.12834922  0.63554892  0.35811845  1
  O  O85  1  0.50968209  0.87476801  0.35521627  1
  O  O86  1  0.36131327  0.49187271  0.35862696  1
  O  O87  1  0.12908979  0.49066630  0.85894859  1
  O  O88  1  0.36299122  0.87162469  0.85933427  1
  O  O89  1  0.50981818  0.63804532  0.85917125  1
  O  O90  1  0.01358747  0.82782084  0.41053295  1
  O  O91  1  0.80803300  0.97690635  0.41613443  1
  O  O92  1  0.17501354  0.18569084  0.41584968  1
  O  O93  1  0.01750106  0.18434506  0.91319955  1
  O  O94  1  0.16755697  0.98120570  0.91355109  1
  O  O95  1  0.81437598  0.83231373  0.91437394  1
  O  O96  1  0.97707810  0.17969396  0.58365337  1
  O  O97  1  0.18670751  0.02686948  0.58626604  1
  O  O98  1  0.83356077  0.81951354  0.58611077  1
  O  O99  1  0.98542582  0.81969436  0.09217334  1
  O  O100  1  0.83235596  0.01522998  0.09125220  1
  O  O101  1  0.19008910  0.16553862  0.09115579  1
  O  O102  1  0.68870864  0.16606241  0.74705871  1
  O  O103  1  0.47242227  0.31133620  0.75131324  1
  O  O104  1  0.83723558  0.51780453  0.74651251  1
  O  O105  1  0.67542506  0.53916288  0.24915810  1
  O  O106  1  0.83541758  0.32086859  0.24812935  1
  O  O107  1  0.45653297  0.14364861  0.24998834  1
  O  O108  1  0.64638137  0.49836471  0.92297856  1
  O  O109  1  0.85304339  0.35435543  0.92238066  1
  O  O110  1  0.50170381  0.14781534  0.92333407  1
  O  O111  1  0.64572534  0.15030518  0.42069171  1
  O  O112  1  0.50763255  0.36426641  0.42057286  1
  O  O113  1  0.85339567  0.49194583  0.42060428  1
  O  O114  1  0.34853754  0.49605282  0.07994606  1
  O  O115  1  0.15460442  0.65776148  0.07767437  1
  O  O116  1  0.50410966  0.84546071  0.07789104  1
  O  O117  1  0.33619776  0.84295054  0.57823921  1
  O  O118  1  0.49902163  0.65281205  0.57844283  1
  O  O119  1  0.13427148  0.48193387  0.57648466  1
  O  O120  1  0.30582752  0.83874130  0.25139669  1
  O  O121  1  0.53790141  0.70550447  0.25152009  1
  O  O122  1  0.17749045  0.48688924  0.25216459  1
  O  O123  1  0.30269921  0.47913540  0.75295099  1
  O  O124  1  0.17372718  0.69430419  0.75324563  1
  O  O125  1  0.52126274  0.82788500  0.75262618  1
