# generated using pymatgen
data_LiMoPO5
_symmetry_space_group_name_H-M   'P 1'
_cell_length_a   6.52369800
_cell_length_b   10.78757400
_cell_length_c   13.15335700
_cell_angle_alpha   90.00000000
_cell_angle_beta   90.00000000
_cell_angle_gamma   90.00000000
_symmetry_Int_Tables_number   1
_chemical_formula_structural   LiMoPO5
_chemical_formula_sum   'Li8 Mo8 P8 O40'
_cell_volume   925.66585377
_cell_formula_units_Z   8
loop_
 _symmetry_equiv_pos_site_id
 _symmetry_equiv_pos_as_xyz
  1  'x, y, z'
loop_
 _atom_site_type_symbol
 _atom_site_label
 _atom_site_symmetry_multiplicity
 _atom_site_fract_x
 _atom_site_fract_y
 _atom_site_fract_z
 _atom_site_occupancy
  Li  Li0  1  0.00194400  0.03104000  0.09633700  1
  Li  Li1  1  0.26343100  0.77369400  0.24585400  1
  Li  Li2  1  0.76343100  0.27369400  0.25414600  1
  Li  Li3  1  0.50194400  0.53104000  0.40366300  1
  Li  Li4  1  0.49805600  0.03104000  0.59633700  1
  Li  Li5  1  0.23656900  0.77369400  0.74585400  1
  Li  Li6  1  0.73656900  0.27369400  0.75414600  1
  Li  Li7  1  0.99805600  0.53104000  0.90366300  1
  Mo  Mo8  1  0.01590300  0.51296600  0.13081700  1
  Mo  Mo9  1  0.26433200  0.25978000  0.23690900  1
  Mo  Mo10  1  0.76433200  0.75978000  0.26309100  1
  Mo  Mo11  1  0.51590300  0.01296600  0.36918300  1
  Mo  Mo12  1  0.48409700  0.51296600  0.63081700  1
  Mo  Mo13  1  0.23566800  0.25978000  0.73690900  1
  Mo  Mo14  1  0.73566800  0.75978000  0.76309100  1
  Mo  Mo15  1  0.98409700  0.01296600  0.86918300  1
  P  P16  1  0.16103000  0.26914300  0.98970000  1
  P  P17  1  0.47949900  0.01049200  0.81397800  1
  P  P18  1  0.97949900  0.51049200  0.68602200  1
  P  P19  1  0.66103000  0.76914300  0.51030000  1
  P  P20  1  0.33897000  0.26914300  0.48970000  1
  P  P21  1  0.02050100  0.01049200  0.31397800  1
  P  P22  1  0.52050100  0.51049200  0.18602200  1
  P  P23  1  0.83897000  0.76914300  0.01030000  1
  O  O24  1  0.04176100  0.11440200  0.23065700  1
  O  O25  1  0.00772400  0.15752000  0.98694800  1
  O  O26  1  0.69446400  0.75231600  0.91780300  1
  O  O27  1  0.29739900  0.99991900  0.88608600  1
  O  O28  1  0.29073600  0.27736000  0.89227900  1
  O  O29  1  0.67411500  0.03639800  0.87553400  1
  O  O30  1  0.98359300  0.86595600  0.78163800  1
  O  O31  1  0.02749200  0.13762200  0.77275800  1
  O  O32  1  0.96142800  0.89437600  0.99912300  1
  O  O33  1  0.99227600  0.65752000  0.01305200  1
  O  O34  1  0.30553600  0.25231600  0.08219700  1
  O  O35  1  0.70260100  0.49991900  0.11391400  1
  O  O36  1  0.70926400  0.77736000  0.10772100  1
  O  O37  1  0.32588500  0.53639800  0.12446600  1
  O  O38  1  0.01640700  0.36595600  0.21836200  1
  O  O39  1  0.03857200  0.39437600  0.00087700  1
  O  O40  1  0.97250800  0.63762200  0.22724200  1
  O  O41  1  0.50432600  0.38878100  0.25117600  1
  O  O42  1  0.00432600  0.88878100  0.24882400  1
  O  O43  1  0.47250800  0.13762200  0.27275800  1
  O  O44  1  0.54176100  0.61440200  0.26934300  1
  O  O45  1  0.51640700  0.86595600  0.28163800  1
  O  O46  1  0.82588500  0.03639800  0.37553400  1
  O  O47  1  0.20926400  0.27736000  0.39227900  1
  O  O48  1  0.20260100  0.99991900  0.38608600  1
  O  O49  1  0.80553600  0.75231600  0.41780300  1
  O  O50  1  0.49227600  0.15752000  0.48694800  1
  O  O51  1  0.46142800  0.39437600  0.50087700  1
  O  O52  1  0.53857200  0.89437600  0.49912300  1
  O  O53  1  0.50772400  0.65752000  0.51305200  1
  O  O54  1  0.19446400  0.25231600  0.58219700  1
  O  O55  1  0.79739900  0.49991900  0.61391400  1
  O  O56  1  0.79073600  0.77736000  0.60772100  1
  O  O57  1  0.17411500  0.53639800  0.62446600  1
  O  O58  1  0.48359300  0.36595600  0.71836200  1
  O  O59  1  0.45823900  0.11440200  0.73065700  1
  O  O60  1  0.52749200  0.63762200  0.72724200  1
  O  O61  1  0.99567400  0.38878100  0.75117600  1
  O  O62  1  0.49567400  0.88878100  0.74882400  1
  O  O63  1  0.95823900  0.61440200  0.76934300  1
