# generated using pymatgen
data_Na6Y4Zn4SiS11O48
_symmetry_space_group_name_H-M   'P 1'
_cell_length_a   18.08227336
_cell_length_b   9.02652853
_cell_length_c   23.52165945
_cell_angle_alpha   89.87079083
_cell_angle_beta   89.89658048
_cell_angle_gamma   120.04829841
_symmetry_Int_Tables_number   1
_chemical_formula_structural   Na6Y4Zn4SiS11O48
_chemical_formula_sum   'Na18 Y12 Zn12 Si3 S33 O144'
_cell_volume   3323.20558160
_cell_formula_units_Z   3
loop_
 _symmetry_equiv_pos_site_id
 _symmetry_equiv_pos_as_xyz
  1  'x, y, z'
loop_
 _atom_site_type_symbol
 _atom_site_label
 _atom_site_symmetry_multiplicity
 _atom_site_fract_x
 _atom_site_fract_y
 _atom_site_fract_z
 _atom_site_occupancy
  Na  Na0  1  0.81958946  0.99851677  0.24590826  1
  Na  Na1  1  0.99623852  0.63574091  0.25350568  1
  Na  Na2  1  0.31702652  0.64960368  0.75049402  1
  Na  Na3  1  0.81716414  0.64375143  0.74616781  1
  Na  Na4  1  0.99348775  0.35691840  0.75119840  1
  Na  Na5  1  0.68830630  0.00334229  0.74860342  1
  Na  Na6  1  0.99771627  0.99767742  0.49906933  1
  Na  Na7  1  0.50331383  0.00239168  0.49323709  1
  Na  Na8  1  0.00166107  0.00177350  0.00045950  1
  Na  Na9  1  0.50028620  0.00041342  0.00034637  1
  Na  Na10  1  0.33476120  0.31036988  0.83772739  1
  Na  Na11  1  0.83420894  0.32384584  0.83665472  1
  Na  Na12  1  0.33446394  0.33551945  0.32743556  1
  Na  Na13  1  0.82788079  0.34594523  0.33568626  1
  Na  Na14  1  0.17488080  0.66942855  0.17151392  1
  Na  Na15  1  0.66675607  0.65575796  0.17021788  1
  Na  Na16  1  0.17177860  0.68602344  0.66493054  1
  Na  Na17  1  0.67045241  0.67156145  0.66233500  1
  Y  Y18  1  0.99721218  0.98773251  0.35244975  1
  Y  Y19  1  0.99615520  0.00201080  0.85158741  1
  Y  Y20  1  0.49695768  0.00762887  0.85266505  1
  Y  Y21  1  0.99166739  0.99386695  0.64647479  1
  Y  Y22  1  0.49572641  0.00083549  0.64783505  1
  Y  Y23  1  0.99889964  0.99819022  0.14823015  1
  Y  Y24  1  0.49718337  0.99578652  0.14918401  1
  Y  Y25  1  0.33390086  0.31672149  0.68298397  1
  Y  Y26  1  0.33243500  0.33086816  0.47836624  1
  Y  Y27  1  0.16746922  0.66735371  0.01948327  1
  Y  Y28  1  0.66690664  0.66869805  0.01996029  1
  Y  Y29  1  0.66644214  0.65514908  0.31755793  1
  Zn  Zn30  1  0.49769501  0.99896009  0.35005004  1
  Zn  Zn31  1  0.83386091  0.31587697  0.67556575  1
  Zn  Zn32  1  0.33414556  0.33691501  0.18321601  1
  Zn  Zn33  1  0.82834355  0.34791675  0.18296554  1
  Zn  Zn34  1  0.33312776  0.33311645  0.98437794  1
  Zn  Zn35  1  0.83317599  0.33310029  0.98434110  1
  Zn  Zn36  1  0.83224025  0.33328193  0.48430198  1
  Zn  Zn37  1  0.16486603  0.66444397  0.51329154  1
  Zn  Zn38  1  0.66901771  0.66825190  0.51437181  1
  Zn  Zn39  1  0.17359483  0.67211195  0.32167549  1
  Zn  Zn40  1  0.17582122  0.69492820  0.81933436  1
  Zn  Zn41  1  0.67140754  0.67474135  0.81983041  1
  Si  Si42  1  0.84930427  0.69314535  0.24789598  1
  Si  Si43  1  0.34481992  0.99129147  0.75201550  1
  Si  Si44  1  0.84600876  0.00021642  0.75049721  1
  S  S45  1  0.15319011  0.00148852  0.25008855  1
  S  S46  1  0.64748525  0.00435882  0.25178237  1
  S  S47  1  0.35023199  0.70009990  0.25296284  1
  S  S48  1  0.00266642  0.30425266  0.25026764  1
  S  S49  1  0.49430706  0.28860487  0.25101530  1
  S  S50  1  0.14791113  0.30020392  0.75052464  1
  S  S51  1  0.65084982  0.30275203  0.74994117  1
  S  S52  1  0.00025694  0.69935572  0.74974478  1
  S  S53  1  0.50230931  0.70380515  0.75127335  1
  S  S54  1  0.48803790  0.34559032  0.58006991  1
  S  S55  1  0.98171127  0.34412256  0.58144664  1
  S  S56  1  0.18296071  0.02471630  0.58057539  1
  S  S57  1  0.68874111  0.03622920  0.58191115  1
  S  S58  1  0.32872846  0.62933277  0.58239149  1
  S  S59  1  0.82880914  0.61468469  0.58232964  1
  S  S60  1  0.47441019  0.61612086  0.08307814  1
  S  S61  1  0.97583587  0.61759138  0.08263816  1
  S  S62  1  0.33370712  0.05174207  0.08312701  1
  S  S63  1  0.83396712  0.05268272  0.08388846  1
  S  S64  1  0.19267360  0.33354998  0.08283227  1
  S  S65  1  0.68978542  0.33039291  0.08185758  1
  S  S66  1  0.31294952  0.65504972  0.91614241  1
  S  S67  1  0.81256348  0.65512990  0.91634341  1
  S  S68  1  0.01763882  0.37773563  0.91532224  1
  S  S69  1  0.51864777  0.38093220  0.91627733  1
  S  S70  1  0.17050511  0.96860152  0.91715397  1
  S  S71  1  0.67102615  0.96907954  0.91604470  1
  S  S72  1  0.31330107  0.95106356  0.41560244  1
  S  S73  1  0.81245260  0.96719400  0.42016061  1
  S  S74  1  0.16581452  0.38195990  0.41711162  1
  S  S75  1  0.66624098  0.36436477  0.42066326  1
  S  S76  1  0.02079267  0.65833462  0.41800455  1
  S  S77  1  0.52152362  0.67730546  0.41802304  1
  O  O78  1  0.11332176  0.02980481  0.30100742  1
  O  O79  1  0.60588931  0.02716372  0.30204030  1
  O  O80  1  0.40492400  0.78417587  0.30261243  1
  O  O81  1  0.91061817  0.78277660  0.30333407  1
  O  O82  1  0.48527701  0.18613482  0.30208591  1
  O  O83  1  0.98930028  0.19417083  0.30060271  1
  O  O84  1  0.11141051  0.19126445  0.80140621  1
  O  O85  1  0.61248104  0.18920404  0.80034041  1
  O  O86  1  0.48871038  0.78509414  0.80168907  1
  O  O87  1  0.98697755  0.78156821  0.80051704  1
  O  O88  1  0.40507799  0.01935033  0.80657878  1
  O  O89  1  0.91098214  0.04414647  0.80421818  1
  O  O90  1  0.38988415  0.95816280  0.69625404  1
  O  O91  1  0.88887274  0.95504106  0.69684606  1
  O  O92  1  0.09601747  0.21544456  0.69951995  1
  O  O93  1  0.59803013  0.22056759  0.69906668  1
  O  O94  1  0.01632252  0.80902904  0.69891445  1
  O  O95  1  0.51859324  0.81319051  0.70001449  1
  O  O96  1  0.38933564  0.80471672  0.20010920  1
  O  O97  1  0.89450413  0.82297095  0.19412331  1
  O  O98  1  0.01813918  0.22802386  0.19890953  1
  O  O99  1  0.50820420  0.21104601  0.19905733  1
  O  O100  1  0.09771425  0.97175562  0.19944205  1
  O  O101  1  0.59676234  0.98077843  0.19934920  1
  O  O102  1  0.44793545  0.36546225  0.63286425  1
  O  O103  1  0.94515753  0.36393269  0.63609697  1
  O  O104  1  0.23369763  0.10626104  0.63289066  1
  O  O105  1  0.73545471  0.11027043  0.63649324  1
  O  O106  1  0.32006002  0.53361899  0.63646110  1
  O  O107  1  0.82056626  0.52125725  0.63680528  1
  O  O108  1  0.43562974  0.51764277  0.13558878  1
  O  O109  1  0.93852700  0.52172353  0.13590567  1
  O  O110  1  0.32343994  0.12989296  0.13521351  1
  O  O111  1  0.82440359  0.12826771  0.13736640  1
  O  O112  1  0.24142539  0.35310409  0.13532116  1
  O  O113  1  0.73834819  0.35084810  0.13426260  1
  O  O114  1  0.23222076  0.31535580  0.03091945  1
  O  O115  1  0.72922683  0.31147790  0.03033496  1
  O  O116  1  0.42572526  0.53869517  0.03128081  1
  O  O117  1  0.92528995  0.53632868  0.03168586  1
  O  O118  1  0.34407409  0.14926916  0.03092831  1
  O  O119  1  0.84203814  0.15176445  0.03240603  1
  O  O120  1  0.22603487  0.13609755  0.53092763  1
  O  O121  1  0.73146268  0.14681836  0.53242490  1
  O  O122  1  0.33952428  0.53780794  0.53376095  1
  O  O123  1  0.84101075  0.53179137  0.53224944  1
  O  O124  1  0.43178589  0.31858266  0.53102938  1
  O  O125  1  0.92633451  0.31707166  0.53219951  1
  O  O126  1  0.27123129  0.68185831  0.96649145  1
  O  O127  1  0.77069228  0.68135073  0.96650845  1
  O  O128  1  0.07078082  0.46198377  0.96617824  1
  O  O129  1  0.57026831  0.46194551  0.96791309  1
  O  O130  1  0.15785301  0.86176255  0.96837219  1
  O  O131  1  0.65908426  0.85998538  0.96647308  1
  O  O132  1  0.27354018  0.85160225  0.46768467  1
  O  O133  1  0.76943583  0.85400475  0.46883897  1
  O  O134  1  0.15690936  0.46120429  0.46884604  1
  O  O135  1  0.65321850  0.44962387  0.47001012  1
  O  O136  1  0.07457780  0.68273737  0.46778282  1
  O  O137  1  0.57240551  0.69479280  0.46869561  1
  O  O138  1  0.05918616  0.64136228  0.36355508  1
  O  O139  1  0.55923475  0.64938604  0.36581946  1
  O  O140  1  0.26080787  0.87619250  0.36405682  1
  O  O141  1  0.76513779  0.89142074  0.36566063  1
  O  O142  1  0.17649274  0.48079843  0.36447125  1
  O  O143  1  0.68004099  0.46862413  0.36773844  1
  O  O144  1  0.05854804  0.47577693  0.86260828  1
  O  O145  1  0.56124183  0.48181756  0.86456921  1
  O  O146  1  0.17977262  0.88636981  0.86545988  1
  O  O147  1  0.67972502  0.88893345  0.86311176  1
  O  O148  1  0.26376356  0.63615421  0.86363939  1
  O  O149  1  0.76404119  0.63683627  0.86339504  1
  O  O150  1  0.01333664  0.81800574  0.41487920  1
  O  O151  1  0.51176319  0.83041020  0.41178024  1
  O  O152  1  0.40015278  0.97207816  0.40962662  1
  O  O153  1  0.89942455  0.98428721  0.41537457  1
  O  O154  1  0.08947840  0.20705414  0.41299860  1
  O  O155  1  0.58786761  0.19338617  0.41310762  1
  O  O156  1  0.01037587  0.20462006  0.91358041  1
  O  O157  1  0.51151506  0.20808816  0.91416935  1
  O  O158  1  0.09272961  0.98557059  0.91280127  1
  O  O159  1  0.59315893  0.98571978  0.91301667  1
  O  O160  1  0.40012261  0.81092621  0.91334341  1
  O  O161  1  0.89943647  0.81134998  0.91306660  1
  O  O162  1  0.49525375  0.18897017  0.58497743  1
  O  O163  1  0.99110452  0.18688189  0.58601801  1
  O  O164  1  0.09806165  0.01100728  0.58589951  1
  O  O165  1  0.60175453  0.01836348  0.58697456  1
  O  O166  1  0.40842636  0.79983216  0.58465119  1
  O  O167  1  0.90802680  0.79023021  0.58526187  1
  O  O168  1  0.48551380  0.79264841  0.08727314  1
  O  O169  1  0.98771619  0.79453701  0.08552734  1
  O  O170  1  0.41061377  0.02892952  0.08717585  1
  O  O171  1  0.91179768  0.03355276  0.08582634  1
  O  O172  1  0.10492845  0.18038121  0.08627685  1
  O  O173  1  0.60177566  0.17616838  0.08665780  1
  O  O174  1  0.33608770  0.16238872  0.74781782  1
  O  O175  1  0.83842429  0.17360271  0.74177922  1
  O  O176  1  0.23736448  0.33466429  0.74393070  1
  O  O177  1  0.73775757  0.32410287  0.74312759  1
  O  O178  1  0.42125815  0.53767663  0.74402374  1
  O  O179  1  0.91969385  0.53127402  0.74320516  1
  O  O180  1  0.34208027  0.52787488  0.24567847  1
  O  O181  1  0.84684667  0.51053964  0.24295340  1
  O  O182  1  0.41717412  0.30569341  0.24461767  1
  O  O183  1  0.92232111  0.31111486  0.24358570  1
  O  O184  1  0.23879311  0.15336985  0.24243765  1
  O  O185  1  0.73566538  0.15260615  0.24561432  1
  O  O186  1  0.32111454  0.50067390  0.92283309  1
  O  O187  1  0.82094734  0.50100303  0.92281340  1
  O  O188  1  0.43232054  0.36044725  0.92141131  1
  O  O189  1  0.93152963  0.35833791  0.92133410  1
  O  O190  1  0.24823808  0.13951689  0.92267907  1
  O  O191  1  0.74870507  0.13962727  0.92196936  1
  O  O192  1  0.32287386  0.12713479  0.42048948  1
  O  O193  1  0.82152941  0.13861311  0.42563364  1
  O  O194  1  0.24350362  0.36154816  0.42050240  1
  O  O195  1  0.74402892  0.34833592  0.42607147  1
  O  O196  1  0.43418154  0.52032447  0.42256686  1
  O  O197  1  0.93390692  0.50627599  0.42333575  1
  O  O198  1  0.18222072  0.48900342  0.07931579  1
  O  O199  1  0.67944272  0.48563236  0.07839434  1
  O  O200  1  0.06349781  0.63806650  0.07836394  1
  O  O201  1  0.56249223  0.63852439  0.07928641  1
  O  O202  1  0.25663712  0.87506228  0.07949136  1
  O  O203  1  0.75697685  0.87601195  0.07977941  1
  O  O204  1  0.17598053  0.85556053  0.57513725  1
  O  O205  1  0.67956757  0.86317011  0.57639954  1
  O  O206  1  0.25246028  0.64706558  0.57633400  1
  O  O207  1  0.75267915  0.63637165  0.57728669  1
  O  O208  1  0.06826981  0.49718449  0.57573448  1
  O  O209  1  0.57278198  0.49965480  0.57441654  1
  O  O210  1  0.15614906  0.83918066  0.25690417  1
  O  O211  1  0.65665501  0.84793595  0.25650195  1
  O  O212  1  0.26388414  0.68316635  0.25831456  1
  O  O213  1  0.75783156  0.68969887  0.25314205  1
  O  O214  1  0.07625949  0.48068833  0.25696813  1
  O  O215  1  0.57170909  0.46301269  0.25505000  1
  O  O216  1  0.15044769  0.46586199  0.75699560  1
  O  O217  1  0.65863195  0.47287816  0.75745749  1
  O  O218  1  0.07295491  0.66920847  0.75700325  1
  O  O219  1  0.57720420  0.68199458  0.75797971  1
  O  O220  1  0.25271713  0.81203959  0.75639241  1
  O  O221  1  0.75146450  0.82708335  0.75874368  1
