# generated using pymatgen
data_PAuCl8
_symmetry_space_group_name_H-M   'P 1'
_cell_length_a   11.67238129
_cell_length_b   11.67263751
_cell_length_c   11.67220962
_cell_angle_alpha   120.17674627
_cell_angle_beta   114.40999785
_cell_angle_gamma   94.82294554
_symmetry_Int_Tables_number   1
_chemical_formula_structural   PAuCl8
_chemical_formula_sum   'P4 Au4 Cl32'
_cell_volume   1162.70721176
_cell_formula_units_Z   4
loop_
 _symmetry_equiv_pos_site_id
 _symmetry_equiv_pos_as_xyz
  1  'x, y, z'
loop_
 _atom_site_type_symbol
 _atom_site_label
 _atom_site_symmetry_multiplicity
 _atom_site_fract_x
 _atom_site_fract_y
 _atom_site_fract_z
 _atom_site_occupancy
  P  P0  1  0.25322660  0.25323400  0.49998903  1
  P  P1  1  0.24677063  0.74676818  -0.00000628  1
  P  P2  1  0.74676095  0.74675074  0.49998370  1
  P  P3  1  0.75323052  0.25322189  -0.00000270  1
  Au  Au4  1  0.75000925  0.82837473  0.07837153  1
  Au  Au5  1  0.24998478  0.17161349  0.92160783  1
  Au  Au6  1  0.74999130  0.31196649  0.56194370  1
  Au  Au7  1  0.25001393  0.68808271  0.43811803  1
  Cl  Cl8  1  0.92292057  0.24140303  0.01394766  1
  Cl  Cl9  1  0.57707264  0.59102762  0.31846988  1
  Cl  Cl10  1  0.77253934  0.75857086  0.68148930  1
  Cl  Cl11  1  0.72746294  0.40896602  0.98603804  1
  Cl  Cl12  1  0.07707635  0.75857448  0.98603434  1
  Cl  Cl13  1  0.42292162  0.40894909  0.68149533  1
  Cl  Cl14  1  0.22745061  0.24141129  0.31848274  1
  Cl  Cl15  1  0.27254308  0.59102475  0.01395523  1
  Cl  Cl16  1  0.60522863  0.07408070  0.81580000  1
  Cl  Cl17  1  0.89476525  0.71057511  0.46883658  1
  Cl  Cl18  1  0.74172197  0.92591337  0.53113412  1
  Cl  Cl19  1  0.75826808  0.28941926  0.18418180  1
  Cl  Cl20  1  0.39476868  0.92591348  0.18419234  1
  Cl  Cl21  1  0.10522727  0.28942237  0.53114565  1
  Cl  Cl22  1  0.25826048  0.07407111  0.46883860  1
  Cl  Cl23  1  0.24172692  0.71057112  0.81580938  1
  Cl  Cl24  1  0.39542606  0.83245509  0.43703794  1
  Cl  Cl25  1  0.10457864  0.54160555  0.43703680  1
  Cl  Cl26  1  0.60457733  0.16757087  0.56300104  1
  Cl  Cl27  1  0.89542365  0.45840896  0.56299248  1
  Cl  Cl28  1  0.06808215  0.68972742  0.25781995  1
  Cl  Cl29  1  0.43192502  0.68970772  0.62163994  1
  Cl  Cl30  1  0.56808561  0.31034217  0.37842685  1
  Cl  Cl31  1  0.93192585  0.31032099  0.74224701  1
  Cl  Cl32  1  0.39538245  0.31706314  0.92167908  1
  Cl  Cl33  1  0.10462047  0.02630037  0.92168437  1
  Cl  Cl34  1  0.60462691  0.68292978  0.07830714  1
  Cl  Cl35  1  0.89539515  0.97367843  0.07829650  1
  Cl  Cl36  1  0.24996700  0.37006497  0.12003400  1
  Cl  Cl37  1  0.75003424  0.62992448  0.87995089  1
  Cl  Cl38  1  0.25001459  0.97467402  0.72468665  1
  Cl  Cl39  1  0.74999347  0.02531615  0.27530152  1
