# generated using pymatgen
data_NaCaZr3P3(SO8)3
_symmetry_space_group_name_H-M   'P 1'
_cell_length_a   9.01551206
_cell_length_b   9.01888330
_cell_length_c   23.57276096
_cell_angle_alpha   89.96906933
_cell_angle_beta   90.15393207
_cell_angle_gamma   120.10739273
_symmetry_Int_Tables_number   1
_chemical_formula_structural   NaCaZr3P3(SO8)3
_chemical_formula_sum   'Na3 Ca3 Zr9 P9 S9 O72'
_cell_volume   1658.10297776
_cell_formula_units_Z   3
loop_
 _symmetry_equiv_pos_site_id
 _symmetry_equiv_pos_as_xyz
  1  'x, y, z'
loop_
 _atom_site_type_symbol
 _atom_site_label
 _atom_site_symmetry_multiplicity
 _atom_site_fract_x
 _atom_site_fract_y
 _atom_site_fract_z
 _atom_site_occupancy
  Na  Na0  1  0.65729324  0.33220037  0.83158279  1
  Na  Na1  1  0.67166476  0.32972456  0.33045181  1
  Na  Na2  1  0.33058986  0.67191026  0.16719525  1
  Ca  Ca3  1  0.66041878  0.33735955  0.68666091  1
  Ca  Ca4  1  0.67051849  0.33072987  0.18450415  1
  Ca  Ca5  1  0.33100279  0.67124900  0.31506716  1
  Zr  Zr6  1  0.99373853  0.99340659  0.35879135  1
  Zr  Zr7  1  0.00671537  0.00495898  0.86002599  1
  Zr  Zr8  1  0.99965730  0.00117523  0.64578825  1
  Zr  Zr9  1  0.99504393  0.99532736  0.13991503  1
  Zr  Zr10  1  0.67637515  0.33571837  0.98063440  1
  Zr  Zr11  1  0.67515258  0.34365528  0.48280042  1
  Zr  Zr12  1  0.33475473  0.67314953  0.01606951  1
  Zr  Zr13  1  0.34222241  0.67670864  0.51765919  1
  Zr  Zr14  1  0.33385809  0.65939065  0.81267960  1
  P  P15  1  0.28294115  0.28387316  0.75246778  1
  P  P16  1  0.66602158  0.62817262  0.58377334  1
  P  P17  1  0.96369331  0.62431455  0.08358165  1
  P  P18  1  0.66152176  0.03756150  0.08341079  1
  P  P19  1  0.62086996  0.66288480  0.91595146  1
  P  P20  1  0.04477081  0.38156637  0.91592132  1
  P  P21  1  0.33995911  0.95769758  0.91483018  1
  P  P22  1  0.62610007  0.96618420  0.41651445  1
  P  P23  1  0.04059802  0.66398816  0.41659109  1
  S  S24  1  0.28223408  0.00175506  0.24992535  1
  S  S25  1  0.71529130  0.71523612  0.24970814  1
  S  S26  1  0.00123964  0.28188176  0.25017913  1
  S  S27  1  0.00458012  0.71733135  0.75238096  1
  S  S28  1  0.71370076  0.99712073  0.75214525  1
  S  S29  1  0.96358319  0.33565360  0.58318749  1
  S  S30  1  0.37246879  0.03969258  0.58287484  1
  S  S31  1  0.37411261  0.33697357  0.08289201  1
  S  S32  1  0.33559299  0.37289819  0.41699153  1
  O  O33  1  0.19026797  0.01008447  0.30169578  1
  O  O34  1  0.81802034  0.80699372  0.30164523  1
  O  O35  1  0.99182505  0.18038520  0.30198643  1
  O  O36  1  0.18286524  0.17050422  0.80364900  1
  O  O37  1  0.98258219  0.80410596  0.80203415  1
  O  O38  1  0.82024248  0.01436630  0.80199995  1
  O  O39  1  0.79469049  0.97495494  0.69942361  1
  O  O40  1  0.17345279  0.19482256  0.69783351  1
  O  O41  1  0.02307437  0.81920443  0.69970511  1
  O  O42  1  0.80680488  0.81798424  0.19854684  1
  O  O43  1  0.00971768  0.19027329  0.19869913  1
  O  O44  1  0.18072765  0.99184338  0.19838445  1
  O  O45  1  0.89328728  0.36729806  0.63357617  1
  O  O46  1  0.47591230  0.10626004  0.63344641  1
  O  O47  1  0.62849002  0.52007020  0.63568908  1
  O  O48  1  0.89356904  0.52155042  0.13682948  1
  O  O49  1  0.62350069  0.10365204  0.13654975  1
  O  O50  1  0.47471575  0.36921025  0.13416980  1
  O  O51  1  0.45552921  0.30926299  0.03221989  1
  O  O52  1  0.84660980  0.53717655  0.03057183  1
  O  O53  1  0.68878513  0.15371285  0.03059194  1
  O  O54  1  0.45454216  0.14983106  0.53241640  1
  O  O55  1  0.69566587  0.53905279  0.53129552  1
  O  O56  1  0.84926422  0.30405300  0.53270432  1
  O  O57  1  0.53675944  0.69036478  0.96836376  1
  O  O58  1  0.15434189  0.46372638  0.96883040  1
  O  O59  1  0.31097919  0.84719356  0.96812513  1
  O  O60  1  0.53850623  0.84848845  0.46903527  1
  O  O61  1  0.30879635  0.45509260  0.46767988  1
  O  O62  1  0.15378866  0.68896411  0.46948621  1
  O  O63  1  0.10371845  0.62250842  0.36355870  1
  O  O64  1  0.52131232  0.89653543  0.36347598  1
  O  O65  1  0.37131294  0.47495606  0.36619548  1
  O  O66  1  0.12989560  0.49485829  0.86319480  1
  O  O67  1  0.36495366  0.86955881  0.86264661  1
  O  O68  1  0.50541448  0.63532468  0.86318591  1
  O  O69  1  0.02115012  0.82514983  0.40854834  1
  O  O70  1  0.80653866  0.98445750  0.40864443  1
  O  O71  1  0.18133503  0.20056893  0.40986479  1
  O  O72  1  0.02246610  0.20259366  0.90646963  1
  O  O73  1  0.17869325  0.97390790  0.90619705  1
  O  O74  1  0.79747441  0.82085623  0.90452303  1
  O  O75  1  0.97928465  0.17899090  0.59033722  1
  O  O76  1  0.19925003  0.02067106  0.59065561  1
  O  O77  1  0.82708509  0.80904893  0.59326329  1
  O  O78  1  0.98270163  0.80572122  0.09146443  1
  O  O79  1  0.82558204  0.02176046  0.09151816  1
  O  O80  1  0.20092081  0.18116207  0.09026940  1
  O  O81  1  0.69641345  0.14948709  0.74729685  1
  O  O82  1  0.46015991  0.30361347  0.75071307  1
  O  O83  1  0.85467082  0.54483893  0.74817376  1
  O  O84  1  0.70248580  0.54657048  0.24895999  1
  O  O85  1  0.84511035  0.29538867  0.25006804  1
  O  O86  1  0.45162249  0.15845673  0.24948930  1
  O  O87  1  0.63980102  0.50270379  0.92456955  1
  O  O88  1  0.86367786  0.36042729  0.92335996  1
  O  O89  1  0.49680441  0.13870592  0.92418524  1
  O  O90  1  0.65285474  0.14637240  0.43102083  1
  O  O91  1  0.48455658  0.34585436  0.42805840  1
  O  O92  1  0.85571956  0.51053121  0.42912727  1
  O  O93  1  0.34707428  0.48517778  0.07299043  1
  O  O94  1  0.14540014  0.65252883  0.07146946  1
  O  O95  1  0.51098733  0.85340864  0.07142688  1
  O  O96  1  0.34592394  0.86529978  0.57085854  1
  O  O97  1  0.51301005  0.65302973  0.56690974  1
  O  O98  1  0.13540543  0.48227155  0.56956422  1
  O  O99  1  0.29588545  0.84570346  0.25050972  1
  O  O100  1  0.54635855  0.70229158  0.25141064  1
  O  O101  1  0.15796471  0.45133862  0.25128499  1
  O  O102  1  0.29398077  0.46069443  0.76027405  1
  O  O103  1  0.16312077  0.70759291  0.75884564  1
  O  O104  1  0.54298969  0.84048199  0.75841656  1
