# generated using pymatgen
data_NaMgSc(SO4)3
_symmetry_space_group_name_H-M   'P 1'
_cell_length_a   8.72968013
_cell_length_b   8.72967985
_cell_length_c   22.99302565
_cell_angle_alpha   90.00000000
_cell_angle_beta   90.00000000
_cell_angle_gamma   120.00000102
_symmetry_Int_Tables_number   1
_chemical_formula_structural   NaMgSc(SO4)3
_chemical_formula_sum   'Na6 Mg6 Sc6 S18 O72'
_cell_volume   1517.48147695
_cell_formula_units_Z   6
loop_
 _symmetry_equiv_pos_site_id
 _symmetry_equiv_pos_as_xyz
  1  'x, y, z'
loop_
 _atom_site_type_symbol
 _atom_site_label
 _atom_site_symmetry_multiplicity
 _atom_site_fract_x
 _atom_site_fract_y
 _atom_site_fract_z
 _atom_site_occupancy
  Na  Na0  1  -0.00000000  0.00000000  0.49789828  1
  Na  Na1  1  -0.00000000  0.00000000  0.99789828  1
  Na  Na2  1  0.66666700  0.33333300  0.83123128  1
  Na  Na3  1  0.66666700  0.33333300  0.33123128  1
  Na  Na4  1  0.33333300  0.66666700  0.16456528  1
  Na  Na5  1  0.33333300  0.66666700  0.66456528  1
  Mg  Mg6  1  -0.00000000  0.00000000  0.35109583  1
  Mg  Mg7  1  -0.00000000  0.00000000  0.85109583  1
  Mg  Mg8  1  0.66666700  0.33333300  0.68442883  1
  Mg  Mg9  1  0.66666700  0.33333300  0.18442883  1
  Mg  Mg10  1  0.33333300  0.66666700  0.01776283  1
  Mg  Mg11  1  0.33333300  0.66666700  0.51776283  1
  Sc  Sc12  1  -0.00000000  0.00000000  0.64829680  1
  Sc  Sc13  1  -0.00000000  0.00000000  0.14829680  1
  Sc  Sc14  1  0.66666700  0.33333300  0.98162980  1
  Sc  Sc15  1  0.66666700  0.33333300  0.48162980  1
  Sc  Sc16  1  0.33333300  0.66666700  0.31496380  1
  Sc  Sc17  1  0.33333300  0.66666700  0.81496380  1
  S  S18  1  0.29375519  0.00368324  0.25084543  1
  S  S19  1  0.70992805  0.70624481  0.25084543  1
  S  S20  1  0.99631676  0.29007195  0.25084543  1
  S  S21  1  0.29375519  0.29007195  0.75084543  1
  S  S22  1  0.99631676  0.70624481  0.75084543  1
  S  S23  1  0.70992805  0.00368324  0.75084543  1
  S  S24  1  0.96042219  0.33701624  0.58417843  1
  S  S25  1  0.37659505  0.03957781  0.58417843  1
  S  S26  1  0.66298376  0.62340495  0.58417843  1
  S  S27  1  0.96042219  0.62340495  0.08417843  1
  S  S28  1  0.66298376  0.03957781  0.08417843  1
  S  S29  1  0.37659505  0.33701624  0.08417843  1
  S  S30  1  0.62708819  0.67035024  0.91751243  1
  S  S31  1  0.04326105  0.37291181  0.91751243  1
  S  S32  1  0.32964976  0.95673895  0.91751243  1
  S  S33  1  0.62708819  0.95673895  0.41751243  1
  S  S34  1  0.32964976  0.37291181  0.41751243  1
  S  S35  1  0.04326105  0.67035024  0.41751243  1
  O  O36  1  0.21043466  0.02684249  0.30275795  1
  O  O37  1  0.81640783  0.78956534  0.30275795  1
  O  O38  1  0.97315751  0.18359217  0.30275795  1
  O  O39  1  0.21043466  0.18359217  0.80275795  1
  O  O40  1  0.97315751  0.78956534  0.80275795  1
  O  O41  1  0.81640783  0.02684249  0.80275795  1
  O  O42  1  0.78994619  0.97366661  0.69774753  1
  O  O43  1  0.18372042  0.21005381  0.69774753  1
  O  O44  1  0.02633339  0.81627958  0.69774753  1
  O  O45  1  0.78994619  0.81627958  0.19774753  1
  O  O46  1  0.02633339  0.21005381  0.19774753  1
  O  O47  1  0.18372042  0.97366661  0.19774753  1
  O  O48  1  0.87710166  0.36017549  0.63609095  1
  O  O49  1  0.48307483  0.12289834  0.63609095  1
  O  O50  1  0.63982451  0.51692517  0.63609095  1
  O  O51  1  0.87710166  0.51692517  0.13609095  1
  O  O52  1  0.63982451  0.12289834  0.13609095  1
  O  O53  1  0.48307483  0.36017549  0.13609095  1
  O  O54  1  0.45661319  0.30699961  0.03108053  1
  O  O55  1  0.85038742  0.54338681  0.03108053  1
  O  O56  1  0.69300039  0.14961258  0.03108053  1
  O  O57  1  0.45661319  0.14961258  0.53108053  1
  O  O58  1  0.69300039  0.54338681  0.53108053  1
  O  O59  1  0.85038742  0.30699961  0.53108053  1
  O  O60  1  0.54376766  0.69350949  0.96942495  1
  O  O61  1  0.14974083  0.45623234  0.96942495  1
  O  O62  1  0.30649051  0.85025917  0.96942495  1
  O  O63  1  0.54376766  0.85025917  0.46942495  1
  O  O64  1  0.30649051  0.45623234  0.46942495  1
  O  O65  1  0.14974083  0.69350949  0.46942495  1
  O  O66  1  0.12327919  0.64033361  0.36441453  1
  O  O67  1  0.51705342  0.87672081  0.36441453  1
  O  O68  1  0.35966639  0.48294658  0.36441453  1
  O  O69  1  0.12327919  0.48294658  0.86441453  1
  O  O70  1  0.35966639  0.87672081  0.86441453  1
  O  O71  1  0.51705342  0.64033361  0.86441453  1
  O  O72  1  0.02283357  0.82676252  0.40984134  1
  O  O73  1  0.80392895  0.97716643  0.40984134  1
  O  O74  1  0.17323748  0.19607105  0.40984134  1
  O  O75  1  0.02283357  0.19607105  0.90984134  1
  O  O76  1  0.17323748  0.97716643  0.90984134  1
  O  O77  1  0.80392895  0.82676252  0.90984134  1
  O  O78  1  0.97678320  0.17439686  0.58971078  1
  O  O79  1  0.19761366  0.02321680  0.58971078  1
  O  O80  1  0.82560314  0.80238634  0.58971078  1
  O  O81  1  0.97678320  0.80238634  0.08971078  1
  O  O82  1  0.82560314  0.02321680  0.08971078  1
  O  O83  1  0.19761366  0.17439686  0.08971078  1
  O  O84  1  0.68950057  0.16009552  0.74317434  1
  O  O85  1  0.47059595  0.31049943  0.74317434  1
  O  O86  1  0.83990448  0.52940405  0.74317434  1
  O  O87  1  0.68950057  0.52940405  0.24317434  1
  O  O88  1  0.83990448  0.31049943  0.24317434  1
  O  O89  1  0.47059595  0.16009552  0.24317434  1
  O  O90  1  0.64345020  0.50772986  0.92304378  1
  O  O91  1  0.86428066  0.35654980  0.92304378  1
  O  O92  1  0.49227014  0.13571934  0.92304378  1
  O  O93  1  0.64345020  0.13571934  0.42304378  1
  O  O94  1  0.49227014  0.35654980  0.42304378  1
  O  O95  1  0.86428066  0.50772986  0.42304378  1
  O  O96  1  0.35616657  0.49342952  0.07650834  1
  O  O97  1  0.13726195  0.64383343  0.07650834  1
  O  O98  1  0.50657048  0.86273805  0.07650834  1
  O  O99  1  0.35616657  0.86273805  0.57650834  1
  O  O100  1  0.50657048  0.64383343  0.57650834  1
  O  O101  1  0.13726195  0.49342952  0.57650834  1
  O  O102  1  0.31011620  0.84106386  0.25637778  1
  O  O103  1  0.53094666  0.68988380  0.25637778  1
  O  O104  1  0.15893614  0.46905334  0.25637778  1
  O  O105  1  0.31011620  0.46905334  0.75637778  1
  O  O106  1  0.15893614  0.68988380  0.75637778  1
  O  O107  1  0.53094666  0.84106386  0.75637778  1
