# generated using pymatgen
data_Na2MgV2Cd2O8
_symmetry_space_group_name_H-M   'P 1'
_cell_length_a   5.86273512
_cell_length_b   5.86273464
_cell_length_c   7.58967646
_cell_angle_alpha   88.45215251
_cell_angle_beta   91.54784783
_cell_angle_gamma   116.17796806
_symmetry_Int_Tables_number   1
_chemical_formula_structural   Na2MgV2Cd2O8
_chemical_formula_sum   'Na2 Mg1 V2 Cd2 O8'
_cell_volume   233.99330884
_cell_formula_units_Z   1
loop_
 _symmetry_equiv_pos_site_id
 _symmetry_equiv_pos_as_xyz
  1  'x, y, z'
loop_
 _atom_site_type_symbol
 _atom_site_label
 _atom_site_symmetry_multiplicity
 _atom_site_fract_x
 _atom_site_fract_y
 _atom_site_fract_z
 _atom_site_occupancy
  Na  Na0  1  0.27951000  0.72049000  0.26215700  1
  Na  Na1  1  0.72049000  0.27951000  0.73784300  1
  Mg  Mg2  1  0.50000000  0.50000000  0.00000000  1
  V  V3  1  0.35514400  0.64485600  0.71070200  1
  V  V4  1  0.64485600  0.35514400  0.28929800  1
  Cd  Cd5  1  0.00000000  0.00000000  0.50000000  1
  Cd  Cd6  1  0.00000000  0.00000000  0.00000000  1
  O  O7  1  0.75602000  0.68684700  0.29068200  1
  O  O8  1  0.24398000  0.31315300  0.70931800  1
  O  O9  1  0.68684700  0.75602000  0.70931800  1
  O  O10  1  0.31315300  0.24398000  0.29068200  1
  O  O11  1  0.22546900  0.77453100  0.55479600  1
  O  O12  1  0.69207600  0.30792400  0.06465300  1
  O  O13  1  0.30792400  0.69207600  0.93534700  1
  O  O14  1  0.77453100  0.22546900  0.44520400  1
