# generated using pymatgen
data_Na3ZrAlSi2SO12
_symmetry_space_group_name_H-M   'P 1'
_cell_length_a   9.00468415
_cell_length_b   9.00468384
_cell_length_c   22.31597316
_cell_angle_alpha   91.31423894
_cell_angle_beta   88.68576100
_cell_angle_gamma   120.32197053
_symmetry_Int_Tables_number   1
_chemical_formula_structural   Na3ZrAlSi2SO12
_chemical_formula_sum   'Na18 Zr6 Al6 Si12 S6 O72'
_cell_volume   1561.39708413
_cell_formula_units_Z   6
loop_
 _symmetry_equiv_pos_site_id
 _symmetry_equiv_pos_as_xyz
  1  'x, y, z'
loop_
 _atom_site_type_symbol
 _atom_site_label
 _atom_site_symmetry_multiplicity
 _atom_site_fract_x
 _atom_site_fract_y
 _atom_site_fract_z
 _atom_site_occupancy
  Na  Na0  1  0.62549670  0.00010401  0.24244823  1
  Na  Na1  1  0.00294207  0.64759383  0.24518113  1
  Na  Na2  1  -0.00010401  0.37450330  0.74244823  1
  Na  Na3  1  0.35240617  0.99705793  0.74518113  1
  Na  Na4  1  0.29216370  0.33343701  0.57578123  1
  Na  Na5  1  0.66960907  0.98092683  0.57851413  1
  Na  Na6  1  0.66656299  0.70783630  0.07578123  1
  Na  Na7  1  0.01907317  0.33039093  0.07851413  1
  Na  Na8  1  0.95882970  0.66677101  0.90911523  1
  Na  Na9  1  0.33627507  0.31426083  0.91184813  1
  Na  Na10  1  0.33322899  0.04117030  0.40911523  1
  Na  Na11  1  0.68573917  0.66372493  0.41184813  1
  Na  Na12  1  0.00504241  0.02495280  0.49423102  1
  Na  Na13  1  0.97504720  0.99495759  0.99423102  1
  Na  Na14  1  0.67170941  0.35828580  0.82756402  1
  Na  Na15  1  0.64171420  0.32829059  0.32756402  1
  Na  Na16  1  0.33837541  0.69161980  0.16089802  1
  Na  Na17  1  0.30838020  0.66162459  0.66089802  1
  Zr  Zr18  1  0.01500376  0.00138102  0.64670976  1
  Zr  Zr19  1  0.99861898  0.98499624  0.14670976  1
  Zr  Zr20  1  0.68167076  0.33471402  0.98004276  1
  Zr  Zr21  1  0.66528598  0.31832924  0.48004276  1
  Zr  Zr22  1  0.34833676  0.66804802  0.31337676  1
  Zr  Zr23  1  0.33195198  0.65166324  0.81337676  1
  Al  Al24  1  0.00388205  0.00874768  0.35203680  1
  Al  Al25  1  0.99125232  0.99611795  0.85203680  1
  Al  Al26  1  0.67054905  0.34208068  0.68536980  1
  Al  Al27  1  0.65791932  0.32945095  0.18536980  1
  Al  Al28  1  0.33721505  0.67541468  0.01870380  1
  Al  Al29  1  0.32458532  0.66278495  0.51870380  1
  Si  Si30  1  0.29732741  0.01277088  0.25399923  1
  Si  Si31  1  0.71439143  0.69827532  0.25180730  1
  Si  Si32  1  0.30172468  0.28560857  0.75180730  1
  Si  Si33  1  0.98722912  0.70267259  0.75399923  1
  Si  Si34  1  0.96399441  0.34610388  0.58733223  1
  Si  Si35  1  0.38105843  0.03160832  0.58514030  1
  Si  Si36  1  0.96839168  0.61894157  0.08514030  1
  Si  Si37  1  0.65389612  0.03600559  0.08733223  1
  Si  Si38  1  0.63066041  0.67943788  0.92066623  1
  Si  Si39  1  0.04772443  0.36494232  0.91847430  1
  Si  Si40  1  0.63505768  0.95227557  0.41847430  1
  Si  Si41  1  0.32056212  0.36933959  0.42066623  1
  S  S42  1  0.99591035  0.28723799  0.25190501  1
  S  S43  1  0.71276201  0.00408965  0.75190501  1
  S  S44  1  0.66257735  0.62057099  0.58523801  1
  S  S45  1  0.37942901  0.33742265  0.08523801  1
  S  S46  1  0.32924335  0.95390499  0.91857201  1
  S  S47  1  0.04609501  0.67075665  0.41857201  1
  O  O48  1  0.19771940  0.02779257  0.31391528  1
  O  O49  1  0.83831270  0.79903967  0.30921828  1
  O  O50  1  0.97733544  0.17662256  0.30288221  1
  O  O51  1  0.20096033  0.16168730  0.80921828  1
  O  O52  1  0.97220743  0.80228060  0.81391528  1
  O  O53  1  0.82337744  0.02266456  0.80288221  1
  O  O54  1  0.78071859  0.97571118  0.69473379  1
  O  O55  1  0.17910494  0.20884836  0.69222282  1
  O  O56  1  0.02110996  0.82507704  0.69613727  1
  O  O57  1  0.79115164  0.82089506  0.19222282  1
  O  O58  1  0.02428882  0.21928141  0.19473379  1
  O  O59  1  0.17492296  0.97889004  0.19613727  1
  O  O60  1  0.86438640  0.36112557  0.64724828  1
  O  O61  1  0.50497970  0.13237267  0.64255128  1
  O  O62  1  0.64400244  0.50995556  0.63621521  1
  O  O63  1  0.86762733  0.49502030  0.14255128  1
  O  O64  1  0.63887443  0.13561360  0.14724828  1
  O  O65  1  0.49004444  0.35599756  0.13621521  1
  O  O66  1  0.44738559  0.30904418  0.02806679  1
  O  O67  1  0.84577194  0.54218136  0.02555582  1
  O  O68  1  0.68777696  0.15841004  0.02947027  1
  O  O69  1  0.45781864  0.15422806  0.52555582  1
  O  O70  1  0.69095582  0.55261441  0.52806679  1
  O  O71  1  0.84158996  0.31222304  0.52947027  1
  O  O72  1  0.53105240  0.69445957  0.98058228  1
  O  O73  1  0.17164570  0.46570667  0.97588528  1
  O  O74  1  0.31066844  0.84328956  0.96954921  1
  O  O75  1  0.53429333  0.82835430  0.47588528  1
  O  O76  1  0.30554043  0.46894760  0.48058228  1
  O  O77  1  0.15671044  0.68933156  0.46954921  1
  O  O78  1  0.11405159  0.64237818  0.36140079  1
  O  O79  1  0.51243794  0.87551536  0.35888982  1
  O  O80  1  0.35444296  0.49174404  0.36280427  1
  O  O81  1  0.12448464  0.48756206  0.85888982  1
  O  O82  1  0.35762182  0.88594841  0.86140079  1
  O  O83  1  0.50825596  0.64555704  0.86280427  1
  O  O84  1  0.03496950  0.82989905  0.41706288  1
  O  O85  1  0.82076278  0.96342071  0.40760618  1
  O  O86  1  0.15761358  0.17431193  0.41135231  1
  O  O87  1  0.03657929  0.17923722  0.90760618  1
  O  O88  1  0.17010095  0.96503050  0.91706288  1
  O  O89  1  0.82568807  0.84238642  0.91135231  1
  O  O90  1  0.97386574  0.16526334  0.58889223  1
  O  O91  1  0.18984863  0.01437315  0.58688813  1
  O  O92  1  0.80899947  0.79893380  0.59077015  1
  O  O93  1  0.98562685  0.81015137  0.08688813  1
  O  O94  1  0.83473666  0.02613426  0.08889223  1
  O  O95  1  0.20106620  0.19100053  0.09077015  1
  O  O96  1  0.70163650  0.16323205  0.75039588  1
  O  O97  1  0.48742978  0.29675371  0.74093918  1
  O  O98  1  0.82428058  0.50764493  0.74468531  1
  O  O99  1  0.70324629  0.51257022  0.24093918  1
  O  O100  1  0.83676795  0.29836350  0.25039588  1
  O  O101  1  0.49235507  0.17571942  0.24468531  1
  O  O102  1  0.64053274  0.49859634  0.92222523  1
  O  O103  1  0.85651563  0.34770615  0.92022113  1
  O  O104  1  0.47566647  0.13226680  0.92410315  1
  O  O105  1  0.65229385  0.14348437  0.42022113  1
  O  O106  1  0.50140366  0.35946726  0.42222523  1
  O  O107  1  0.86773320  0.52433353  0.42410315  1
  O  O108  1  0.36830250  0.49656605  0.08372988  1
  O  O109  1  0.15409578  0.63008771  0.07427318  1
  O  O110  1  0.49094658  0.84097893  0.07801931  1
  O  O111  1  0.36991229  0.84590422  0.57427318  1
  O  O112  1  0.50343395  0.63169750  0.58372988  1
  O  O113  1  0.15902107  0.50905342  0.57801931  1
  O  O114  1  0.30719874  0.83193034  0.25555923  1
  O  O115  1  0.52318163  0.68104015  0.25355513  1
  O  O116  1  0.14233247  0.46560080  0.25743715  1
  O  O117  1  0.31895985  0.47681837  0.75355513  1
  O  O118  1  0.16806966  0.69280126  0.75555923  1
  O  O119  1  0.53439920  0.85766753  0.75743715  1
