# generated using pymatgen
data_Na14Mg4Ti4Si7S5O48
_symmetry_space_group_name_H-M   'P 1'
_cell_length_a   18.05574017
_cell_length_b   9.03507429
_cell_length_c   21.99449832
_cell_angle_alpha   90.07858871
_cell_angle_beta   89.59133211
_cell_angle_gamma   119.98793817
_symmetry_Int_Tables_number   1
_chemical_formula_structural   Na14Mg4Ti4Si7S5O48
_chemical_formula_sum   'Na42 Mg12 Ti12 Si21 S15 O144'
_cell_volume   3107.64963403
_cell_formula_units_Z   3
loop_
 _symmetry_equiv_pos_site_id
 _symmetry_equiv_pos_as_xyz
  1  'x, y, z'
loop_
 _atom_site_type_symbol
 _atom_site_label
 _atom_site_symmetry_multiplicity
 _atom_site_fract_x
 _atom_site_fract_y
 _atom_site_fract_z
 _atom_site_occupancy
  Na  Na0  1  0.80620656  0.98637875  0.25741120  1
  Na  Na1  1  0.18184573  0.35322975  0.25575793  1
  Na  Na2  1  0.69015859  0.36572027  0.25512328  1
  Na  Na3  1  0.99249375  0.63673558  0.24706081  1
  Na  Na4  1  0.49769404  0.63620793  0.25228510  1
  Na  Na5  1  0.30826299  0.62733357  0.74358813  1
  Na  Na6  1  0.99762711  0.35714919  0.74661203  1
  Na  Na7  1  0.49492356  0.35244743  0.74070667  1
  Na  Na8  1  0.18944000  0.01352056  0.75006668  1
  Na  Na9  1  0.68404321  0.01168409  0.75155276  1
  Na  Na10  1  0.14953970  0.32989068  0.58773770  1
  Na  Na11  1  0.65856232  0.33650230  0.57747224  1
  Na  Na12  1  0.33808800  0.98979701  0.58137480  1
  Na  Na13  1  0.83837169  0.98729257  0.57805698  1
  Na  Na14  1  0.15780000  0.98458039  0.08329836  1
  Na  Na15  1  0.64983462  0.96920493  0.09115232  1
  Na  Na16  1  0.33822720  0.68987041  0.08489063  1
  Na  Na17  1  0.83592449  0.69101490  0.08444851  1
  Na  Na18  1  0.48141760  0.67250351  0.92362464  1
  Na  Na19  1  0.97329591  0.66548077  0.92155430  1
  Na  Na20  1  0.35485801  0.04229275  0.91459581  1
  Na  Na21  1  0.85160520  0.03617348  0.90923932  1
  Na  Na22  1  0.16734975  0.28722623  0.91352176  1
  Na  Na23  1  0.67028879  0.28698054  0.90897979  1
  Na  Na24  1  0.47664231  0.28710597  0.42349378  1
  Na  Na25  1  0.97321719  0.27288248  0.42494143  1
  Na  Na26  1  0.16934575  0.05682739  0.40935719  1
  Na  Na27  1  0.67436146  0.03936007  0.41154001  1
  Na  Na28  1  0.35427539  0.66981340  0.41031779  1
  Na  Na29  1  0.85158322  0.67534519  0.41700387  1
  Na  Na30  1  0.99293029  0.99136369  0.49737900  1
  Na  Na31  1  0.50353847  0.99646761  0.50045949  1
  Na  Na32  1  0.99966157  0.00579743  0.00274736  1
  Na  Na33  1  0.50071210  0.00783125  0.00339038  1
  Na  Na34  1  0.32580613  0.31967594  0.82283492  1
  Na  Na35  1  0.82470670  0.33730633  0.82938810  1
  Na  Na36  1  0.32698373  0.31523684  0.33253319  1
  Na  Na37  1  0.82363400  0.31585663  0.33035654  1
  Na  Na38  1  0.16537942  0.67059427  0.17211553  1
  Na  Na39  1  0.66151738  0.65772071  0.17326915  1
  Na  Na40  1  0.16132939  0.66341963  0.67077074  1
  Na  Na41  1  0.66294035  0.65632876  0.66502241  1
  Mg  Mg42  1  0.00011441  0.00117684  0.35320087  1
  Mg  Mg43  1  0.49760033  0.99264393  0.34827259  1
  Mg  Mg44  1  0.99621485  0.99957647  0.84682250  1
  Mg  Mg45  1  0.50710706  0.00849913  0.84756903  1
  Mg  Mg46  1  0.33743660  0.33079814  0.68394971  1
  Mg  Mg47  1  0.83699118  0.33981316  0.18568309  1
  Mg  Mg48  1  0.33388769  0.33219921  0.99432635  1
  Mg  Mg49  1  0.83156513  0.33880609  0.97924677  1
  Mg  Mg50  1  0.33314072  0.32671162  0.47945382  1
  Mg  Mg51  1  0.83119214  0.32337723  0.48844688  1
  Mg  Mg52  1  0.67069867  0.68241805  0.31106189  1
  Mg  Mg53  1  0.16728031  0.66188108  0.80874836  1
  Ti  Ti54  1  0.99198768  0.00797746  0.64953366  1
  Ti  Ti55  1  0.50578489  0.03295587  0.64996021  1
  Ti  Ti56  1  0.00500732  0.98117119  0.15106659  1
  Ti  Ti57  1  0.49202309  0.97797973  0.15093124  1
  Ti  Ti58  1  0.82803960  0.32724599  0.67879259  1
  Ti  Ti59  1  0.32707097  0.32781405  0.17930912  1
  Ti  Ti60  1  0.16744712  0.66805289  0.03061030  1
  Ti  Ti61  1  0.66431716  0.67523231  0.01694715  1
  Ti  Ti62  1  0.16427588  0.65503958  0.51675350  1
  Ti  Ti63  1  0.67653761  0.68172709  0.52741280  1
  Ti  Ti64  1  0.18180446  0.68560237  0.31266809  1
  Ti  Ti65  1  0.68215842  0.67959493  0.81124994  1
  Si  Si66  1  0.15102739  -0.00007108  0.25406476  1
  Si  Si67  1  0.64709886  0.00321615  0.25114285  1
  Si  Si68  1  0.35183464  0.69418022  0.25289614  1
  Si  Si69  1  0.85238516  0.70236641  0.25317178  1
  Si  Si70  1  0.14728936  0.28930526  0.75237410  1
  Si  Si71  1  0.65277680  0.30635440  0.75335008  1
  Si  Si72  1  0.35295032  0.99901146  0.75429057  1
  Si  Si73  1  0.85253697  0.01052418  0.75324187  1
  Si  Si74  1  0.48165725  0.34164696  0.58149528  1
  Si  Si75  1  0.98361908  0.34438814  0.58397299  1
  Si  Si76  1  0.67956947  0.03379581  0.58227513  1
  Si  Si77  1  0.84198209  0.63229201  0.57822176  1
  Si  Si78  1  0.48304777  0.62484573  0.08255878  1
  Si  Si79  1  0.97765199  0.62216185  0.08231301  1
  Si  Si80  1  0.34063268  0.04718465  0.07797114  1
  Si  Si81  1  0.18043649  0.32601558  0.08057295  1
  Si  Si82  1  0.81541486  0.66995086  0.91901874  1
  Si  Si83  1  0.66467958  0.95863742  0.91403561  1
  Si  Si84  1  0.31568614  0.96206794  0.41961920  1
  Si  Si85  1  0.81287693  0.96657671  0.41491195  1
  Si  Si86  1  0.16700205  0.37480106  0.41420979  1
  S  S87  1  0.00009935  0.28768058  0.25063133  1
  S  S88  1  0.49571026  0.28481528  0.25085282  1
  S  S89  1  0.99697750  0.70692653  0.75192346  1
  S  S90  1  0.50003770  0.71030433  0.75218056  1
  S  S91  1  0.18351349  0.03404723  0.58282464  1
  S  S92  1  0.33335939  0.62975701  0.58180243  1
  S  S93  1  0.83299181  0.03852416  0.08100270  1
  S  S94  1  0.68370657  0.33402523  0.08222920  1
  S  S95  1  0.31077285  0.66197031  0.91676544  1
  S  S96  1  0.02610472  0.38466098  0.91887076  1
  S  S97  1  0.52164927  0.38194698  0.91603479  1
  S  S98  1  0.16760778  0.95474807  0.91638834  1
  S  S99  1  0.66560127  0.37722760  0.41526646  1
  S  S100  1  0.02435138  0.66366705  0.41519175  1
  S  S101  1  0.52419182  0.66638232  0.41802164  1
  O  O102  1  0.11381206  0.04741580  0.31269867  1
  O  O103  1  0.60865179  0.04472667  0.31143338  1
  O  O104  1  0.40792577  0.77439117  0.31243140  1
  O  O105  1  0.91209898  0.79395245  0.31125883  1
  O  O106  1  0.48445826  0.19064643  0.30813491  1
  O  O107  1  0.99202781  0.19672882  0.30786934  1
  O  O108  1  0.11040864  0.17445651  0.81390104  1
  O  O109  1  0.61696819  0.18697852  0.81289611  1
  O  O110  1  0.49027728  0.78313838  0.81029461  1
  O  O111  1  0.98712507  0.77932612  0.80983926  1
  O  O112  1  0.40883172  0.02244700  0.81482591  1
  O  O113  1  0.90804539  0.04149773  0.81328725  1
  O  O114  1  0.40694072  0.97819173  0.69464364  1
  O  O115  1  0.90060299  0.98719222  0.69253565  1
  O  O116  1  0.08265129  0.17340906  0.69499853  1
  O  O117  1  0.58690463  0.21061851  0.69483788  1
  O  O118  1  0.00727903  0.81759929  0.69934503  1
  O  O119  1  0.51354513  0.82507138  0.70067904  1
  O  O120  1  0.39917415  0.81302799  0.19167631  1
  O  O121  1  0.90703090  0.83179089  0.19211922  1
  O  O122  1  0.01427225  0.20026487  0.19790786  1
  O  O123  1  0.50447762  0.19254364  0.19761952  1
  O  O124  1  0.08729636  0.96637675  0.19375852  1
  O  O125  1  0.58232914  0.99289007  0.19308362  1
  O  O126  1  0.44374536  0.37070477  0.64384154  1
  O  O127  1  0.93439878  0.35998716  0.64460164  1
  O  O128  1  0.23699753  0.11543140  0.63728170  1
  O  O129  1  0.74665873  0.13005355  0.63993385  1
  O  O130  1  0.32125566  0.52700750  0.63734969  1
  O  O131  1  0.82208755  0.49199822  0.63323008  1
  O  O132  1  0.43067108  0.50372872  0.14091209  1
  O  O133  1  0.94241810  0.51565458  0.14367528  1
  O  O134  1  0.31755319  0.14490609  0.13176852  1
  O  O135  1  0.82110744  0.11684035  0.13532881  1
  O  O136  1  0.24744071  0.36570693  0.13780706  1
  O  O137  1  0.73725233  0.35914965  0.13578083  1
  O  O138  1  0.21756648  0.28491277  0.01988243  1
  O  O139  1  0.72176706  0.30378107  0.02649916  1
  O  O140  1  0.42649880  0.55892696  0.02150167  1
  O  O141  1  0.91966381  0.54946664  0.02240938  1
  O  O142  1  0.35204670  0.14032512  0.01394781  1
  O  O143  1  0.83896243  0.13365874  0.02492408  1
  O  O144  1  0.22253580  0.14145479  0.52798320  1
  O  O145  1  0.71333311  0.15218032  0.52261046  1
  O  O146  1  0.33846734  0.54343817  0.52685727  1
  O  O147  1  0.85217430  0.55664969  0.51521493  1
  O  O148  1  0.41942392  0.28890739  0.52333277  1
  O  O149  1  0.92634055  0.29642448  0.52431142  1
  O  O150  1  0.26715675  0.67674528  0.97264699  1
  O  O151  1  0.75882851  0.68197317  0.97738944  1
  O  O152  1  0.08133535  0.48306271  0.97098987  1
  O  O153  1  0.57423688  0.47421442  0.97047642  1
  O  O154  1  0.16504301  0.85783204  0.97209025  1
  O  O155  1  0.65398799  0.83358744  0.97478322  1
  O  O156  1  0.25962706  0.83736210  0.47806955  1
  O  O157  1  0.75813083  0.84090610  0.47592984  1
  O  O158  1  0.15625979  0.47755406  0.47526253  1
  O  O159  1  0.65947569  0.46463790  0.47119735  1
  O  O160  1  0.07714325  0.67555517  0.47000392  1
  O  O161  1  0.57775388  0.67794335  0.47018017  1
  O  O162  1  0.06738336  0.64916560  0.35930202  1
  O  O163  1  0.55837256  0.63948513  0.36009256  1
  O  O164  1  0.25509477  0.85564495  0.35952344  1
  O  O165  1  0.75437287  0.88038863  0.35579071  1
  O  O166  1  0.17429373  0.49731171  0.35584521  1
  O  O167  1  0.66820981  0.47316133  0.35996897  1
  O  O168  1  0.06344049  0.48161909  0.86163194  1
  O  O169  1  0.56411091  0.47840195  0.85986362  1
  O  O170  1  0.17278638  0.86511617  0.86123343  1
  O  O171  1  0.67154811  0.84942496  0.85606469  1
  O  O172  1  0.25945842  0.64578882  0.86213839  1
  O  O173  1  0.75487654  0.65568433  0.85923817  1
  O  O174  1  0.02134050  0.82462995  0.41598188  1
  O  O175  1  0.51932580  0.82691065  0.41697689  1
  O  O176  1  0.40834736  0.97398532  0.41848855  1
  O  O177  1  0.90455870  0.97139980  0.41838335  1
  O  O178  1  0.08170880  0.18968926  0.41670882  1
  O  O179  1  0.58746496  0.20311807  0.41619134  1
  O  O180  1  0.02133913  0.21561884  0.91877045  1
  O  O181  1  0.51442034  0.21066830  0.91719671  1
  O  O182  1  0.08849114  0.96689422  0.91775397  1
  O  O183  1  0.57780884  0.97090384  0.91638808  1
  O  O184  1  0.39682424  0.81770993  0.91522074  1
  O  O185  1  0.90833347  0.84347707  0.91831568  1
  O  O186  1  0.49298200  0.16396715  0.58995640  1
  O  O187  1  0.99882663  0.17519566  0.59366031  1
  O  O188  1  0.09678537  0.01271017  0.58936368  1
  O  O189  1  0.58508177  0.00693879  0.59862867  1
  O  O190  1  0.40781317  0.80516616  0.58517966  1
  O  O191  1  0.92053373  0.82700372  0.59250932  1
  O  O192  1  0.49844940  0.82306922  0.09233824  1
  O  O193  1  0.99297505  0.82249705  0.08918615  1
  O  O194  1  0.41808434  0.00808313  0.09119710  1
  O  O195  1  0.90740370  0.01012715  0.08399740  1
  O  O196  1  0.08672959  0.16239501  0.09501685  1
  O  O197  1  0.59653524  0.18184816  0.08834632  1
  O  O198  1  0.34376723  0.16894607  0.74647577  1
  O  O199  1  0.84020741  0.17692903  0.74469422  1
  O  O200  1  0.24462524  0.32643686  0.74064630  1
  O  O201  1  0.74605904  0.32621429  0.73909965  1
  O  O202  1  0.42115736  0.54016856  0.74602188  1
  O  O203  1  0.92285193  0.53149120  0.74616197  1
  O  O204  1  0.34006279  0.50318330  0.24290047  1
  O  O205  1  0.84279161  0.51364402  0.24609084  1
  O  O206  1  0.42120932  0.31208684  0.24418331  1
  O  O207  1  0.92169384  0.29924213  0.24404913  1
  O  O208  1  0.24446596  0.16658213  0.23848682  1
  O  O209  1  0.74393159  0.15953219  0.23941227  1
  O  O210  1  0.31962570  0.50650924  0.91884603  1
  O  O211  1  0.81911724  0.49470195  0.91681819  1
  O  O212  1  0.43606606  0.36720591  0.91908754  1
  O  O213  1  0.93875191  0.35969011  0.92494752  1
  O  O214  1  0.24502207  0.12900055  0.91590783  1
  O  O215  1  0.75303073  0.13980604  0.91805199  1
  O  O216  1  0.31855156  0.14361015  0.41736905  1
  O  O217  1  0.82419426  0.15763626  0.42067044  1
  O  O218  1  0.25595407  0.37233783  0.41796615  1
  O  O219  1  0.74417052  0.36340918  0.41546172  1
  O  O220  1  0.43552255  0.51770730  0.42448493  1
  O  O221  1  0.93936833  0.51269128  0.41823108  1
  O  O222  1  0.17738179  0.50708733  0.07671008  1
  O  O223  1  0.67724796  0.49231038  0.07657238  1
  O  O224  1  0.07988176  0.66622036  0.07255661  1
  O  O225  1  0.58128067  0.65159579  0.07886377  1
  O  O226  1  0.25142102  0.84917691  0.07580199  1
  O  O227  1  0.75249497  0.85956507  0.07848310  1
  O  O228  1  0.17747770  0.86347845  0.57744285  1
  O  O229  1  0.67705952  0.84841837  0.57978937  1
  O  O230  1  0.25305105  0.64755515  0.58003284  1
  O  O231  1  0.75317667  0.65107628  0.57852996  1
  O  O232  1  0.08252152  0.51209675  0.58020691  1
  O  O233  1  0.58173998  0.49529699  0.57145409  1
  O  O234  1  0.15051241  0.81664488  0.25740163  1
  O  O235  1  0.64294855  0.81837140  0.24754541  1
  O  O236  1  0.25474851  0.67285245  0.25279809  1
  O  O237  1  0.75780742  0.68443620  0.24929105  1
  O  O238  1  0.07645632  0.46513280  0.25153817  1
  O  O239  1  0.57531570  0.45558411  0.25238501  1
  O  O240  1  0.14615350  0.46997568  0.75081007  1
  O  O241  1  0.65107849  0.48729477  0.75721061  1
  O  O242  1  0.07702786  0.69405977  0.75372683  1
  O  O243  1  0.57584147  0.68444740  0.75385810  1
  O  O244  1  0.25760085  0.82781687  0.75108707  1
  O  O245  1  0.75541383  0.83718027  0.75323191  1
