# generated using pymatgen
data_MgFe6(OF)6
_symmetry_space_group_name_H-M   'P 1'
_cell_length_a   5.04393797
_cell_length_b   14.36975010
_cell_length_c   3.08821800
_cell_angle_alpha   90.00000000
_cell_angle_beta   90.00000000
_cell_angle_gamma   88.21357987
_symmetry_Int_Tables_number   1
_chemical_formula_structural   MgFe6(OF)6
_chemical_formula_sum   'Mg1 Fe6 O6 F6'
_cell_volume   223.72564772
_cell_formula_units_Z   1
loop_
 _symmetry_equiv_pos_site_id
 _symmetry_equiv_pos_as_xyz
  1  'x, y, z'
loop_
 _atom_site_type_symbol
 _atom_site_label
 _atom_site_symmetry_multiplicity
 _atom_site_fract_x
 _atom_site_fract_y
 _atom_site_fract_z
 _atom_site_occupancy
  Mg  Mg0  1  0.52939600  0.99874400  0.00000000  1
  Fe  Fe1  1  0.02635300  0.00480700  0.00000000  1
  Fe  Fe2  1  0.01436000  0.33995200  0.00000000  1
  Fe  Fe3  1  0.00035800  0.65696400  0.00000000  1
  Fe  Fe4  1  0.58835100  0.18794500  0.50000000  1
  Fe  Fe5  1  0.44280700  0.49706900  0.50000000  1
  Fe  Fe6  1  0.41891800  0.81442400  0.50000000  1
  O  O7  1  0.16255300  0.59818700  0.50000000  1
  O  O8  1  0.28059000  0.94547700  0.50000000  1
  O  O9  1  0.24542200  0.76396400  0.00000000  1
  O  O10  1  0.30648700  0.43418200  0.00000000  1
  O  O11  1  0.76097700  0.24820200  0.00000000  1
  O  O12  1  0.76977500  0.04418900  0.50000000  1
  F  F13  1  0.22124100  0.27911900  0.50000000  1
  F  F14  1  0.32683100  0.11769100  0.00000000  1
  F  F15  1  0.66349300  0.56667000  0.00000000  1
  F  F16  1  0.67830200  0.86919000  0.00000000  1
  F  F17  1  0.81895700  0.41325200  0.50000000  1
  F  F18  1  0.75871400  0.71997700  0.50000000  1
