# generated using pymatgen
data_Na14Nb5Al3(SiO4)12
_symmetry_space_group_name_H-M   'P 1'
_cell_length_a   18.01692246
_cell_length_b   9.00976643
_cell_length_c   22.10100232
_cell_angle_alpha   90.03787364
_cell_angle_beta   89.86476973
_cell_angle_gamma   120.07947070
_symmetry_Int_Tables_number   1
_chemical_formula_structural   Na14Nb5Al3(SiO4)12
_chemical_formula_sum   'Na42 Nb15 Al9 Si36 O144'
_cell_volume   3104.46748215
_cell_formula_units_Z   3
loop_
 _symmetry_equiv_pos_site_id
 _symmetry_equiv_pos_as_xyz
  1  'x, y, z'
loop_
 _atom_site_type_symbol
 _atom_site_label
 _atom_site_symmetry_multiplicity
 _atom_site_fract_x
 _atom_site_fract_y
 _atom_site_fract_z
 _atom_site_occupancy
  Na  Na0  1  0.31977727  0.01033693  0.24643664  1
  Na  Na1  1  0.81475858  0.00884005  0.24488980  1
  Na  Na2  1  0.19017999  0.37097481  0.24449524  1
  Na  Na3  1  0.68556041  0.36085343  0.24697044  1
  Na  Na4  1  0.99532363  0.62328806  0.24552173  1
  Na  Na5  1  0.49433859  0.62554632  0.24631534  1
  Na  Na6  1  0.31730401  0.62546488  0.74599132  1
  Na  Na7  1  0.81707034  0.62505165  0.74630050  1
  Na  Na8  1  0.99488426  0.36582801  0.74655385  1
  Na  Na9  1  0.49477557  0.36541164  0.74630723  1
  Na  Na10  1  0.18842657  0.00967953  0.74613976  1
  Na  Na11  1  0.68798307  0.00938678  0.74598704  1
  Na  Na12  1  0.15183188  0.34558389  0.57911978  1
  Na  Na13  1  0.65118936  0.34349457  0.57895935  1
  Na  Na14  1  0.02091901  0.69690772  0.57872817  1
  Na  Na15  1  0.52022503  0.69691880  0.57901182  1
  Na  Na16  1  0.32808306  0.95803038  0.57890610  1
  Na  Na17  1  0.82764880  0.95821435  0.57971793  1
  Na  Na18  1  0.15277036  0.95996970  0.07922097  1
  Na  Na19  1  0.65134611  0.95907318  0.07993472  1
  Na  Na20  1  0.32866271  0.69895442  0.08049707  1
  Na  Na21  1  0.82755451  0.69636865  0.07969779  1
  Na  Na22  1  0.02034482  0.34446443  0.07867871  1
  Na  Na23  1  0.51995524  0.34302943  0.07965313  1
  Na  Na24  1  0.34907945  0.03176048  0.92045541  1
  Na  Na25  1  0.84894728  0.03179628  0.92034741  1
  Na  Na26  1  0.48355432  0.29153758  0.41421774  1
  Na  Na27  1  0.66074623  0.03425153  0.41392149  1
  Na  Na28  1  0.35542248  0.67855892  0.41456015  1
  Na  Na29  1  0.84718370  0.66402965  0.41819145  1
  Na  Na30  1  0.00473758  0.00919914  0.49704075  1
  Na  Na31  1  0.49946216  0.00000661  0.49269449  1
  Na  Na32  1  0.00462236  0.99961546  0.99765401  1
  Na  Na33  1  0.50445481  0.99972913  0.99891367  1
  Na  Na34  1  0.33308967  0.34065841  0.83247268  1
  Na  Na35  1  0.83303796  0.34062148  0.83240026  1
  Na  Na36  1  0.33052518  0.32781358  0.32892318  1
  Na  Na37  1  0.83581988  0.33084450  0.32905316  1
  Na  Na38  1  0.16775631  0.66731857  0.16039024  1
  Na  Na39  1  0.66596524  0.66648653  0.16018751  1
  Na  Na40  1  0.16716113  0.66701951  0.66077296  1
  Na  Na41  1  0.66655524  0.66688152  0.66073146  1
  Nb  Nb42  1  0.00306418  0.00481186  0.35610027  1
  Nb  Nb43  1  0.00221946  0.00007545  0.85684392  1
  Nb  Nb44  1  0.50217135  -0.00002541  0.85689073  1
  Nb  Nb45  1  0.99960823  0.99916864  0.64446061  1
  Nb  Nb46  1  0.49986290  0.99976700  0.64358734  1
  Nb  Nb47  1  0.99962539  0.00012694  0.14386814  1
  Nb  Nb48  1  0.49980839  0.00012982  0.14608934  1
  Nb  Nb49  1  0.33342132  0.33809206  0.97818537  1
  Nb  Nb50  1  0.83318233  0.33832054  0.97806500  1
  Nb  Nb51  1  0.33035466  0.32835222  0.47804875  1
  Nb  Nb52  1  0.83625870  0.33317502  0.47848608  1
  Nb  Nb53  1  0.16806496  0.66952013  0.31385444  1
  Nb  Nb54  1  0.66500321  0.66477012  0.31292898  1
  Nb  Nb55  1  0.16627181  0.66540347  0.81426094  1
  Nb  Nb56  1  0.66602760  0.66510924  0.81423989  1
  Al  Al57  1  0.49942407  0.00004116  0.35287709  1
  Al  Al58  1  0.33355707  0.33332377  0.68546314  1
  Al  Al59  1  0.83311772  0.33279327  0.68542866  1
  Al  Al60  1  0.33453928  0.33482312  0.18557301  1
  Al  Al61  1  0.83182516  0.33184107  0.18540571  1
  Al  Al62  1  0.16658479  0.66694708  0.02153040  1
  Al  Al63  1  0.66619887  0.66628360  0.02151208  1
  Al  Al64  1  0.16741695  0.66798447  0.52073557  1
  Al  Al65  1  0.66537857  0.66503857  0.52007206  1
  Si  Si66  1  0.14947360  0.00621892  0.24784355  1
  Si  Si67  1  0.64564463  0.00681221  0.25296506  1
  Si  Si68  1  0.35747766  0.70769539  0.25314685  1
  Si  Si69  1  0.85412575  0.70172527  0.24981574  1
  Si  Si70  1  0.99704249  0.29156869  0.24899089  1
  Si  Si71  1  0.49620458  0.28486412  0.25300345  1
  Si  Si72  1  0.14902791  0.29216348  0.74835172  1
  Si  Si73  1  0.64889440  0.29181004  0.74823928  1
  Si  Si74  1  0.99684596  0.70204236  0.74892657  1
  Si  Si75  1  0.49688738  0.70255078  0.74875076  1
  Si  Si76  1  0.35426614  0.00638932  0.74967821  1
  Si  Si77  1  0.85397923  0.00630656  0.74985739  1
  Si  Si78  1  0.47871087  0.34117100  0.58531689  1
  Si  Si79  1  0.97983731  0.34110935  0.58696901  1
  Si  Si80  1  0.19102443  0.04096827  0.58689028  1
  Si  Si81  1  0.69174069  0.04247417  0.58533856  1
  Si  Si82  1  0.32966421  0.61636943  0.58554018  1
  Si  Si83  1  0.82933135  0.61676518  0.58576257  1
  Si  Si84  1  0.47935156  0.61823023  0.08643490  1
  Si  Si85  1  0.97895066  0.61658332  0.08669429  1
  Si  Si86  1  0.33008780  0.04312648  0.08557998  1
  Si  Si87  1  0.82965964  0.04332738  0.08516133  1
  Si  Si88  1  0.19195194  0.34091838  0.08625971  1
  Si  Si89  1  0.69110039  0.34019997  0.08630828  1
  Si  Si90  1  0.30828425  0.66423420  0.92061817  1
  Si  Si91  1  0.80822380  0.66447893  0.92057535  1
  Si  Si92  1  0.02467987  0.38259731  0.92160304  1
  Si  Si93  1  0.52463924  0.38231701  0.92159730  1
  Si  Si94  1  0.16542945  0.94989919  0.92170260  1
  Si  Si95  1  0.66535885  0.94969506  0.92171948  1
  Si  Si96  1  0.31278336  0.95282658  0.42016063  1
  Si  Si97  1  0.80899397  0.95039971  0.42029990  1
  Si  Si98  1  0.16512915  0.38245475  0.42149545  1
  Si  Si99  1  0.66301826  0.37364860  0.41980108  1
  Si  Si100  1  0.02607921  0.66856185  0.42089433  1
  Si  Si101  1  0.52336858  0.67380257  0.42033002  1
  O  O102  1  0.09837944  0.03254592  0.30548579  1
  O  O103  1  0.59893109  0.03453519  0.31093181  1
  O  O104  1  0.41774089  0.80166939  0.31104726  1
  O  O105  1  0.91547380  0.79667849  0.30887027  1
  O  O106  1  0.48285516  0.16425069  0.31090263  1
  O  O107  1  0.98317170  0.16162149  0.30606545  1
  O  O108  1  0.09799829  0.16272005  0.80532582  1
  O  O109  1  0.59811317  0.16281457  0.80536341  1
  O  O110  1  0.48266159  0.80358690  0.80573393  1
  O  O111  1  0.98258239  0.80367525  0.80568265  1
  O  O112  1  0.41549839  0.03451697  0.80850664  1
  O  O113  1  0.91554448  0.03459330  0.80845363  1
  O  O114  1  0.39985981  0.96700280  0.69112076  1
  O  O115  1  0.89961622  0.96697479  0.69119990  1
  O  O116  1  0.08451725  0.20260874  0.68967720  1
  O  O117  1  0.58468015  0.20288809  0.68954946  1
  O  O118  1  0.01687901  0.83118897  0.69002249  1
  O  O119  1  0.51705347  0.83160978  0.68993362  1
  O  O120  1  0.39974301  0.83320293  0.19227132  1
  O  O121  1  0.89990473  0.83212656  0.19143861  1
  O  O122  1  0.01674779  0.20202162  0.19024650  1
  O  O123  1  0.51676473  0.20045680  0.19219797  1
  O  O124  1  0.08453812  0.96650977  0.18979503  1
  O  O125  1  0.58331990  0.96663095  0.19213906  1
  O  O126  1  0.43310758  0.36851748  0.64415854  1
  O  O127  1  0.93345612  0.36824290  0.64525330  1
  O  O128  1  0.25039624  0.13223903  0.64541193  1
  O  O129  1  0.75130128  0.13409402  0.64393725  1
  O  O130  1  0.31601389  0.49709871  0.64414341  1
  O  O131  1  0.81616542  0.49795980  0.64430057  1
  O  O132  1  0.43375085  0.49960400  0.14530670  1
  O  O133  1  0.93314619  0.49816432  0.14558937  1
  O  O134  1  0.31609730  0.13498972  0.14429504  1
  O  O135  1  0.81655243  0.13515701  0.14418487  1
  O  O136  1  0.25073680  0.36818894  0.14528994  1
  O  O137  1  0.75056523  0.36925812  0.14517434  1
  O  O138  1  0.23507805  0.29737609  0.02735606  1
  O  O139  1  0.73559145  0.29823844  0.02760250  1
  O  O140  1  0.41444364  0.52844263  0.02761190  1
  O  O141  1  0.91430538  0.52867649  0.02775766  1
  O  O142  1  0.35053649  0.16559490  0.02476301  1
  O  O143  1  0.85127078  0.16595238  0.02448792  1
  O  O144  1  0.23502746  0.17136775  0.52787680  1
  O  O145  1  0.73330036  0.16794878  0.52504724  1
  O  O146  1  0.35087595  0.53419470  0.52512208  1
  O  O147  1  0.85026100  0.53443114  0.52502963  1
  O  O148  1  0.41630950  0.29956566  0.52515931  1
  O  O149  1  0.91457923  0.29979862  0.52791515  1
  O  O150  1  0.26485582  0.70027210  0.97818276  1
  O  O151  1  0.76498842  0.70046525  0.97825888  1
  O  O152  1  0.08253122  0.47264276  0.97977750  1
  O  O153  1  0.58260459  0.47248770  0.97964958  1
  O  O154  1  0.15385841  0.83570638  0.98017727  1
  O  O155  1  0.65416459  0.83577438  0.98015486  1
  O  O156  1  0.26613516  0.83111134  0.47793436  1
  O  O157  1  0.76478362  0.82944539  0.47840193  1
  O  O158  1  0.15384672  0.47193693  0.48057605  1
  O  O159  1  0.64964393  0.46826592  0.47772355  1
  O  O160  1  0.08224296  0.69185825  0.47991334  1
  O  O161  1  0.58472933  0.70216792  0.47773614  1
  O  O162  1  0.06796740  0.64092372  0.35789067  1
  O  O163  1  0.56723898  0.63545418  0.35934284  1
  O  O164  1  0.25248636  0.86453146  0.35835754  1
  O  O165  1  0.75078509  0.86608307  0.35820136  1
  O  O166  1  0.18094128  0.49786771  0.35890984  1
  O  O167  1  0.68285286  0.50007046  0.35902641  1
  O  O168  1  0.06818537  0.49444663  0.85823365  1
  O  O169  1  0.56818659  0.49449620  0.85825033  1
  O  O170  1  0.18036738  0.86323103  0.85881367  1
  O  O171  1  0.68059214  0.86346912  0.85878378  1
  O  O172  1  0.25252206  0.64084327  0.85741598  1
  O  O173  1  0.75256552  0.64094983  0.85737240  1
  O  O174  1  0.01021767  0.83375503  0.41267649  1
  O  O175  1  0.51251142  0.84132961  0.41161527  1
  O  O176  1  0.40774778  0.97408001  0.41150409  1
  O  O177  1  0.90341646  0.96568787  0.41232324  1
  O  O178  1  0.08159101  0.18929177  0.41263081  1
  O  O179  1  0.57891453  0.18430864  0.41138560  1
  O  O180  1  0.01060797  0.18681774  0.91253672  1
  O  O181  1  0.51061025  0.18674392  0.91247445  1
  O  O182  1  0.08098405  0.97243972  0.91231358  1
  O  O183  1  0.58101993  0.97237618  0.91234926  1
  O  O184  1  0.40269376  0.84048931  0.91151755  1
  O  O185  1  0.90275233  0.84065616  0.91155873  1
  O  O186  1  0.48663978  0.16373098  0.58815911  1
  O  O187  1  0.98657795  0.16273767  0.58808458  1
  O  O188  1  0.09478845  0.02623771  0.58827555  1
  O  O189  1  0.59526395  0.02692580  0.58818231  1
  O  O190  1  0.41848065  0.81003313  0.58831641  1
  O  O191  1  0.91823400  0.81025407  0.58826267  1
  O  O192  1  0.48701053  0.81081090  0.08813316  1
  O  O193  1  0.98650145  0.80969523  0.08825402  1
  O  O194  1  0.41852469  0.02625469  0.08868243  1
  O  O195  1  0.91830152  0.02603084  0.08842480  1
  O  O196  1  0.09503252  0.16340405  0.08832611  1
  O  O197  1  0.59480563  0.16307922  0.08839703  1
  O  O198  1  0.34528644  0.17557803  0.74357350  1
  O  O199  1  0.84506843  0.17537610  0.74352154  1
  O  O200  1  0.24239439  0.30959548  0.74365286  1
  O  O201  1  0.74235265  0.30923885  0.74353704  1
  O  O202  1  0.41215251  0.51550633  0.74365037  1
  O  O203  1  0.91197382  0.51546556  0.74372676  1
  O  O204  1  0.34572639  0.51759604  0.24480290  1
  O  O205  1  0.84532165  0.51476943  0.24422760  1
  O  O206  1  0.41306951  0.30857630  0.24482128  1
  O  O207  1  0.91193639  0.30754672  0.24432615  1
  O  O208  1  0.24272680  0.17604221  0.24395002  1
  O  O209  1  0.74093277  0.17354742  0.24447467  1
  O  O210  1  0.31956215  0.49518514  0.92105610  1
  O  O211  1  0.81968107  0.49555182  0.92102525  1
  O  O212  1  0.42655822  0.35240872  0.92139689  1
  O  O213  1  0.92658013  0.35262909  0.92145908  1
  O  O214  1  0.25390314  0.13837370  0.92155720  1
  O  O215  1  0.75387505  0.13842012  0.92172008  1
  O  O216  1  0.32389894  0.14712295  0.42157890  1
  O  O217  1  0.81549225  0.13932649  0.42164854  1
  O  O218  1  0.25391631  0.37019116  0.42208231  1
  O  O219  1  0.75145754  0.35938818  0.42175325  1
  O  O220  1  0.42820048  0.49679931  0.42173794  1
  O  O221  1  0.92706880  0.50018303  0.42171805  1
  O  O222  1  0.17950001  0.50688927  0.07837498  1
  O  O223  1  0.67937279  0.50704553  0.07822711  1
  O  O224  1  0.07465666  0.64256123  0.07938012  1
  O  O225  1  0.57479406  0.64255586  0.07908062  1
  O  O226  1  0.24688393  0.85053950  0.07917858  1
  O  O227  1  0.74686657  0.85059690  0.07922557  1
  O  O228  1  0.17916186  0.85105667  0.57849574  1
  O  O229  1  0.67902144  0.85109920  0.57795300  1
  O  O230  1  0.24721754  0.64371314  0.57906527  1
  O  O231  1  0.74625842  0.64157469  0.57839400  1
  O  O232  1  0.07507643  0.50687225  0.57939762  1
  O  O233  1  0.57449684  0.50752555  0.57778811  1
  O  O234  1  0.15497626  0.82992219  0.25310334  1
  O  O235  1  0.65354608  0.83010535  0.25527902  1
  O  O236  1  0.26112074  0.69160817  0.25503753  1
  O  O237  1  0.76012188  0.69084965  0.25361786  1
  O  O238  1  0.08526165  0.47921860  0.25397689  1
  O  O239  1  0.58486399  0.47716826  0.25522922  1
  O  O240  1  0.15476139  0.47990681  0.75304822  1
  O  O241  1  0.65497816  0.48001476  0.75308569  1
  O  O242  1  0.08491453  0.69039976  0.75372238  1
  O  O243  1  0.58485795  0.69022339  0.75377079  1
  O  O244  1  0.25956132  0.82989630  0.75319890  1
  O  O245  1  0.75950468  0.82965411  0.75307198  1
