# generated using pymatgen
data_Rb2SnO2
_symmetry_space_group_name_H-M   'P 1'
_cell_length_a   5.77708581
_cell_length_b   7.51246858
_cell_length_c   11.25318729
_cell_angle_alpha   90.00000000
_cell_angle_beta   90.00000000
_cell_angle_gamma   90.00000000
_symmetry_Int_Tables_number   1
_chemical_formula_structural   Rb2SnO2
_chemical_formula_sum   'Rb8 Sn4 O8'
_cell_volume   488.39030480
_cell_formula_units_Z   4
loop_
 _symmetry_equiv_pos_site_id
 _symmetry_equiv_pos_as_xyz
  1  'x, y, z'
loop_
 _atom_site_type_symbol
 _atom_site_label
 _atom_site_symmetry_multiplicity
 _atom_site_fract_x
 _atom_site_fract_y
 _atom_site_fract_z
 _atom_site_occupancy
  Rb  Rb0  1  0.00812908  0.64564489  0.73888559  1
  Rb  Rb1  1  0.49187092  0.35435511  0.23888559  1
  Rb  Rb2  1  -0.00597014  0.60649373  0.41660441  1
  Rb  Rb3  1  0.50597014  0.39350627  0.91660441  1
  Rb  Rb4  1  0.00597014  0.10649373  0.08339559  1
  Rb  Rb5  1  0.49402986  0.89350627  0.58339559  1
  Rb  Rb6  1  0.50812908  0.85435511  0.26111441  1
  Rb  Rb7  1  0.99187092  0.14564489  0.76111441  1
  Sn  Sn8  1  0.50205814  0.88947851  0.94108593  1
  Sn  Sn9  1  0.49794186  0.38947851  0.55891407  1
  Sn  Sn10  1  -0.00205814  0.11052149  0.44108593  1
  Sn  Sn11  1  0.00205814  0.61052149  0.05891407  1
  O  O12  1  0.34389543  0.69720251  0.04727949  1
  O  O13  1  0.48725743  0.58386694  0.43666137  1
  O  O14  1  0.98725743  0.91613306  0.56333863  1
  O  O15  1  0.15610457  0.30279749  0.54727949  1
  O  O16  1  0.51274257  0.08386694  0.06333863  1
  O  O17  1  0.65610457  0.19720251  0.45272051  1
  O  O18  1  0.84389543  0.80279749  0.95272051  1
  O  O19  1  0.01274257  0.41613306  0.93666137  1
