# generated using pymatgen
data_Na8La3NbSi4(PO12)2
_symmetry_space_group_name_H-M   'P 1'
_cell_length_a   9.66504166
_cell_length_b   9.67693515
_cell_length_c   23.07629547
_cell_angle_alpha   90.18252408
_cell_angle_beta   89.96284988
_cell_angle_gamma   119.95444050
_symmetry_Int_Tables_number   1
_chemical_formula_structural   Na8La3NbSi4(PO12)2
_chemical_formula_sum   'Na24 La9 Nb3 Si12 P6 O72'
_cell_volume   1869.97163561
_cell_formula_units_Z   3
loop_
 _symmetry_equiv_pos_site_id
 _symmetry_equiv_pos_as_xyz
  1  'x, y, z'
loop_
 _atom_site_type_symbol
 _atom_site_label
 _atom_site_symmetry_multiplicity
 _atom_site_fract_x
 _atom_site_fract_y
 _atom_site_fract_z
 _atom_site_occupancy
  Na  Na0  1  0.62946051  0.99704056  0.25713212  1
  Na  Na1  1  0.36888407  0.37123925  0.25263390  1
  Na  Na2  1  0.00248964  0.63018632  0.25232729  1
  Na  Na3  1  0.63761757  0.64626009  0.73984333  1
  Na  Na4  1  0.00494665  0.35806487  0.74322720  1
  Na  Na5  1  0.35645142  -0.00094127  0.75042438  1
  Na  Na6  1  0.29769503  0.34210180  0.57916777  1
  Na  Na7  1  0.03732339  0.69901448  0.57522532  1
  Na  Na8  1  0.66427407  0.95586509  0.57464948  1
  Na  Na9  1  0.29506477  0.95687626  0.07345422  1
  Na  Na10  1  0.65595483  0.69439569  0.07623262  1
  Na  Na11  1  0.04609628  0.34738988  0.07630431  1
  Na  Na12  1  0.97932259  0.67826283  0.91190537  1
  Na  Na13  1  0.70405508  0.03398231  0.91032155  1
  Na  Na14  1  0.31988995  0.29296746  0.90972450  1
  Na  Na15  1  0.97765982  0.31001091  0.42019554  1
  Na  Na16  1  0.34063044  0.02867468  0.42172089  1
  Na  Na17  1  0.68732767  0.66656350  0.41966730  1
  Na  Na18  1  0.99606076  0.99874488  0.49866435  1
  Na  Na19  1  0.00466432  0.99978720  0.99598783  1
  Na  Na20  1  0.65825950  0.32367101  0.82933276  1
  Na  Na21  1  0.66396911  0.33089479  0.33863557  1
  Na  Na22  1  0.32465968  0.65721543  0.16605713  1
  Na  Na23  1  0.33289390  0.65658165  0.66125147  1
  La  La24  1  0.00084356  0.99979883  0.34878418  1
  La  La25  1  0.99931432  0.00229794  0.84463810  1
  La  La26  1  0.99278476  0.00404358  0.65111877  1
  La  La27  1  0.00316182  0.99887121  0.14416741  1
  La  La28  1  0.66653626  0.33426658  0.68116797  1
  La  La29  1  0.66676499  0.33620736  0.17857990  1
  La  La30  1  0.33161647  0.66456643  0.00830030  1
  La  La31  1  0.33338742  0.66365394  0.51125749  1
  La  La32  1  0.33344523  0.66573741  0.32643514  1
  Nb  Nb33  1  0.66485309  0.33836194  0.97837922  1
  Nb  Nb34  1  0.67274284  0.33955660  0.48505812  1
  Nb  Nb35  1  0.33755838  0.66527852  0.82296378  1
  Si  Si36  1  0.31185328  0.32372806  0.75478788  1
  Si  Si37  1  0.67320700  0.98671143  0.75511151  1
  Si  Si38  1  0.96403945  0.32909496  0.58455638  1
  Si  Si39  1  0.67274465  0.63654132  0.58435689  1
  Si  Si40  1  0.96023207  0.63206143  0.07961093  1
  Si  Si41  1  0.36708322  0.32871553  0.08000560  1
  Si  Si42  1  0.63337056  0.65535626  0.92019777  1
  Si  Si43  1  0.02158753  0.36874311  0.91920271  1
  Si  Si44  1  0.34484711  0.97622247  0.92011062  1
  Si  Si45  1  0.64828053  0.99186504  0.41900464  1
  Si  Si46  1  0.34413938  0.35087690  0.41853344  1
  Si  Si47  1  0.00984554  0.65836757  0.41905777  1
  P  P48  1  0.30944207  0.99166590  0.24891025  1
  P  P49  1  0.68420342  0.69195929  0.24878114  1
  P  P50  1  0.00591996  0.31395702  0.24879980  1
  P  P51  1  0.01885091  0.69106166  0.75459979  1
  P  P52  1  0.36728722  0.04114786  0.58112733  1
  P  P53  1  0.67373756  0.04618330  0.07706891  1
  O  O54  1  0.22112087  -0.00291017  0.30367781  1
  O  O55  1  0.77575116  0.78177427  0.30374405  1
  O  O56  1  0.00526854  0.22292256  0.30358474  1
  O  O57  1  0.23450757  0.21113980  0.81097185  1
  O  O58  1  0.99166221  0.76609547  0.80877703  1
  O  O59  1  0.78368778  0.01798525  0.81166467  1
  O  O60  1  0.75328424  0.94921190  0.69817008  1
  O  O61  1  0.19616451  0.24261124  0.69750235  1
  O  O62  1  0.04265813  0.79694575  0.70063602  1
  O  O63  1  0.77635229  0.78714162  0.19403407  1
  O  O64  1  0.00882498  0.22181464  0.19376750  1
  O  O65  1  0.21330557  0.98797685  0.19414242  1
  O  O66  1  0.88931145  0.33364183  0.64682804  1
  O  O67  1  0.44479550  0.11019362  0.64005070  1
  O  O68  1  0.66184545  0.55349979  0.64621635  1
  O  O69  1  0.88618182  0.54463249  0.14090327  1
  O  O70  1  0.66435900  0.11680426  0.13561081  1
  O  O71  1  0.45130984  0.33530175  0.14144966  1
  O  O72  1  0.49170188  0.32649372  0.02618303  1
  O  O73  1  0.83462473  0.50608560  0.02558135  1
  O  O74  1  0.67310825  0.15696490  0.02635327  1
  O  O75  1  0.48109012  0.15014555  0.53116677  1
  O  O76  1  0.66508889  0.50668475  0.53203950  1
  O  O77  1  0.84020865  0.33287541  0.53227197  1
  O  O78  1  0.57485731  0.69068456  0.98057480  1
  O  O79  1  0.11474643  0.42946542  0.97997781  1
  O  O80  1  0.31315339  0.88340878  0.98063708  1
  O  O81  1  0.56728428  0.87060403  0.47318532  1
  O  O82  1  0.30360564  0.43181215  0.47293898  1
  O  O83  1  0.12778632  0.69588223  0.47403807  1
  O  O84  1  0.08354754  0.61934018  0.36110770  1
  O  O85  1  0.53667256  0.91630738  0.36062451  1
  O  O86  1  0.38207023  0.46361130  0.36061649  1
  O  O87  1  0.14189254  0.50414001  0.86831553  1
  O  O88  1  0.35879807  0.85595187  0.86867312  1
  O  O89  1  0.49630969  0.63934568  0.86927433  1
  O  O90  1  0.96669620  0.80022495  0.41440155  1
  O  O91  1  0.83298652  0.03208693  0.41421859  1
  O  O92  1  0.19899041  0.16689837  0.41397298  1
  O  O93  1  0.98904331  0.18869211  0.90931349  1
  O  O94  1  0.19773441  0.00923155  0.90996669  1
  O  O95  1  0.81450048  0.79416111  0.90786652  1
  O  O96  1  0.96554731  0.16103467  0.57573334  1
  O  O97  1  0.20610005  0.03906002  0.57550826  1
  O  O98  1  0.84436615  0.80210587  0.57635231  1
  O  O99  1  0.95338546  0.79769786  0.07241332  1
  O  O100  1  0.83422805  0.04545828  0.07195969  1
  O  O101  1  0.19748620  0.16043703  0.07203750  1
  O  O102  1  0.63588644  0.13352259  0.75050715  1
  O  O103  1  0.49732538  0.36472124  0.75096762  1
  O  O104  1  0.87828608  0.51798300  0.74961046  1
  O  O105  1  0.66580671  0.52258883  0.25132082  1
  O  O106  1  0.85442880  0.33154368  0.25156613  1
  O  O107  1  0.48023204  0.14046787  0.25078222  1
  O  O108  1  0.62605855  0.47714476  0.92153828  1
  O  O109  1  0.84802748  0.36941846  0.92020364  1
  O  O110  1  0.52036832  0.14900741  0.92150519  1
  O  O111  1  0.65438395  0.16598397  0.43039992  1
  O  O112  1  0.51086492  0.34232943  0.42966326  1
  O  O113  1  0.83372484  0.48959501  0.42988231  1
  O  O114  1  0.34855022  0.48718223  0.07809720  1
  O  O115  1  0.14085257  0.65972265  0.07717555  1
  O  O116  1  0.52917310  0.87627711  0.07431380  1
  O  O117  1  0.34355994  0.87099758  0.57727275  1
  O  O118  1  0.51770548  0.66216716  0.58046958  1
  O  O119  1  0.14166805  0.48815008  0.58098431  1
  O  O120  1  0.32120324  0.83648672  0.24775048  1
  O  O121  1  0.51573027  0.67718859  0.24737005  1
  O  O122  1  0.15960737  0.48221651  0.24740054  1
  O  O123  1  0.31236872  0.49732580  0.76591404  1
  O  O124  1  0.17903885  0.68636733  0.76161623  1
  O  O125  1  0.49781501  0.81618767  0.76589324  1
