# generated using pymatgen
data_Ba2ErMgSbO6
_symmetry_space_group_name_H-M   'P 1'
_cell_length_a   7.40434463
_cell_length_b   7.40653285
_cell_length_c   7.40434424
_cell_angle_alpha   49.62141810
_cell_angle_beta   49.62738296
_cell_angle_gamma   49.62141915
_symmetry_Int_Tables_number   1
_chemical_formula_structural   Ba2ErMgSbO6
_chemical_formula_sum   'Ba2 Er1 Mg1 Sb1 O6'
_cell_volume   216.67884474
_cell_formula_units_Z   1
loop_
 _symmetry_equiv_pos_site_id
 _symmetry_equiv_pos_as_xyz
  1  'x, y, z'
loop_
 _atom_site_type_symbol
 _atom_site_label
 _atom_site_symmetry_multiplicity
 _atom_site_fract_x
 _atom_site_fract_y
 _atom_site_fract_z
 _atom_site_occupancy
  Ba  Ba0  1  0.72321390  0.72220458  0.72321390  1
  Ba  Ba1  1  0.17481883  0.17392518  0.17481883  1
  Er  Er2  1  0.99673760  0.99629952  0.99673760  1
  Mg  Mg3  1  0.40130131  0.40039399  0.40130131  1
  Sb  Sb4  1  0.55033411  0.55025709  0.55033411  1
  O  O5  1  0.28833340  0.75856559  0.75748472  1
  O  O6  1  0.22978352  0.75886392  0.22978352  1
  O  O7  1  0.75808104  0.28985960  0.75808104  1
  O  O8  1  0.22989693  0.22912647  0.75980665  1
  O  O9  1  0.75980665  0.22912647  0.22989693  1
  O  O10  1  0.75748472  0.75856559  0.28833340  1
