# generated using pymatgen
data_Na9NbZn5Si3(SO6)6
_symmetry_space_group_name_H-M   'P 1'
_cell_length_a   9.11286594
_cell_length_b   9.03924046
_cell_length_c   22.32279419
_cell_angle_alpha   89.91913035
_cell_angle_beta   90.00000000
_cell_angle_gamma   120.26980537
_symmetry_Int_Tables_number   1
_chemical_formula_structural   Na9NbZn5Si3(SO6)6
_chemical_formula_sum   'Na18 Nb2 Zn10 Si6 S12 O72'
_cell_volume   1588.10189114
_cell_formula_units_Z   2
loop_
 _symmetry_equiv_pos_site_id
 _symmetry_equiv_pos_as_xyz
  1  'x, y, z'
loop_
 _atom_site_type_symbol
 _atom_site_label
 _atom_site_symmetry_multiplicity
 _atom_site_fract_x
 _atom_site_fract_y
 _atom_site_fract_z
 _atom_site_occupancy
  Na  Na0  1  0.64565507  0.00878608  0.23906808  1
  Na  Na1  1  0.37799551  0.34868026  0.24859456  1
  Na  Na2  1  0.99380528  0.64888428  0.24433547  1
  Na  Na3  1  0.65507900  0.64888428  0.74433547  1
  Na  Na4  1  0.97068476  0.34868026  0.74859456  1
  Na  Na5  1  0.36313101  0.00878608  0.73906808  1
  Na  Na6  1  0.29734562  0.33259273  0.57730470  1
  Na  Na7  1  0.03524811  0.33259273  0.07730470  1
  Na  Na8  1  0.95838510  0.66043135  0.91328568  1
  Na  Na9  1  0.71791428  0.04586938  0.91232173  1
  Na  Na10  1  0.32795410  0.04586938  0.41232173  1
  Na  Na11  1  0.70204525  0.66043135  0.41328568  1
  Na  Na12  1  0.99890242  0.01436302  0.50079996  1
  Na  Na13  1  0.01546060  0.01436302  0.00079996  1
  Na  Na14  1  0.67678923  0.33383925  0.83180210  1
  Na  Na15  1  0.65705102  0.33383925  0.33180210  1
  Na  Na16  1  0.35214123  0.69116428  0.15556004  1
  Na  Na17  1  0.33902205  0.69116428  0.65556004  1
  Nb  Nb18  1  0.34230871  0.66345099  0.31488709  1
  Nb  Nb19  1  0.32114129  0.66345099  0.81488709  1
  Zn  Zn20  1  0.02069930  0.00752438  0.34503122  1
  Zn  Zn21  1  0.98682509  0.00752438  0.84503122  1
  Zn  Zn22  1  0.96843964  0.95923550  0.65633137  1
  Zn  Zn23  1  0.99079586  0.95923550  0.15633137  1
  Zn  Zn24  1  0.68574309  0.33504934  0.68188701  1
  Zn  Zn25  1  0.64930726  0.33504934  0.18188701  1
  Zn  Zn26  1  0.67621788  0.33588005  0.98520639  1
  Zn  Zn27  1  0.65966317  0.33588005  0.48520639  1
  Zn  Zn28  1  0.33052251  0.65330623  0.01474015  1
  Zn  Zn29  1  0.32278272  0.65330623  0.51474015  1
  Si  Si30  1  0.30079466  0.00134500  0.25087996  1
  Si  Si31  1  0.71481946  0.71253432  0.25328242  1
  Si  Si32  1  0.99771485  0.71253432  0.75328242  1
  Si  Si33  1  0.70055034  0.00134500  0.75087996  1
  Si  Si34  1  0.03303530  0.35913875  0.92263498  1
  Si  Si35  1  0.32610245  0.35913875  0.42263498  1
  S  S36  1  0.00300925  0.29776084  0.24946853  1
  S  S37  1  0.29475159  0.29776084  0.74946853  1
  S  S38  1  0.96496942  0.33413180  0.58266273  1
  S  S39  1  0.36775282  0.03503174  0.58203622  1
  S  S40  1  0.66718037  0.63020763  0.58327604  1
  S  S41  1  0.96302826  0.63020763  0.08327604  1
  S  S42  1  0.66727992  0.03503174  0.08203622  1
  S  S43  1  0.36916337  0.33413180  0.08266273  1
  S  S44  1  0.62090941  0.66167866  0.91853379  1
  S  S45  1  0.33376125  0.95907846  0.91895954  1
  S  S46  1  0.62531621  0.95907846  0.41895954  1
  S  S47  1  0.04076824  0.66167866  0.41853379  1
  O  O48  1  0.23745369  0.05115886  0.31135544  1
  O  O49  1  0.81983764  0.79129105  0.31478827  1
  O  O50  1  0.97345288  0.19083941  0.30242176  1
  O  O51  1  0.21738653  0.19083941  0.80242176  1
  O  O52  1  0.97145340  0.79129105  0.81478827  1
  O  O53  1  0.81370517  0.05115886  0.81135544  1
  O  O54  1  0.77393261  0.94395709  0.69544870  1
  O  O55  1  0.19195742  0.23482366  0.69468385  1
  O  O56  1  0.06917834  0.84403856  0.69738760  1
  O  O57  1  0.77486022  0.84403856  0.19738760  1
  O  O58  1  0.04286624  0.23482366  0.19468385  1
  O  O59  1  0.17002448  0.94395709  0.19544870  1
  O  O60  1  0.88968361  0.34910430  0.64018576  1
  O  O61  1  0.46859575  0.11765338  0.63724732  1
  O  O62  1  0.64665184  0.52293568  0.63730754  1
  O  O63  1  0.87628484  0.52293568  0.13730754  1
  O  O64  1  0.64905863  0.11765338  0.13724732  1
  O  O65  1  0.45942169  0.34910430  0.14018576  1
  O  O66  1  0.46104707  0.31963980  0.03048573  1
  O  O67  1  0.86651298  0.54784446  0.02739669  1
  O  O68  1  0.68468908  0.13970039  0.02732609  1
  O  O69  1  0.45501231  0.13970039  0.52732609  1
  O  O70  1  0.68133248  0.54784446  0.52739669  1
  O  O71  1  0.85859374  0.31963980  0.53048573  1
  O  O72  1  0.53929311  0.69020975  0.97025189  1
  O  O73  1  0.13859127  0.45304800  0.98175973  1
  O  O74  1  0.31438257  0.85106889  0.97060728  1
  O  O75  1  0.53668532  0.85106889  0.47060728  1
  O  O76  1  0.31445573  0.45304800  0.48175973  1
  O  O77  1  0.15091564  0.69020975  0.47025189  1
  O  O78  1  0.12871691  0.65102113  0.36211576  1
  O  O79  1  0.51488933  0.87057200  0.36212994  1
  O  O80  1  0.34667891  0.49387943  0.36397608  1
  O  O81  1  0.14719951  0.49387943  0.86397608  1
  O  O82  1  0.35568167  0.87057200  0.86212994  1
  O  O83  1  0.52230321  0.65102113  0.86211576  1
  O  O84  1  0.01841621  0.81305388  0.41480364  1
  O  O85  1  0.79024009  0.97094609  0.41191879  1
  O  O86  1  0.16013057  0.17086467  0.41463994  1
  O  O87  1  0.01073410  0.17086467  0.91463994  1
  O  O88  1  0.18070599  0.97094609  0.91191879  1
  O  O89  1  0.79463767  0.81305388  0.91480364  1
  O  O90  1  0.98957229  0.18305034  0.58433063  1
  O  O91  1  0.20137592  0.02953642  0.58475117  1
  O  O92  1  0.82264528  0.80162447  0.58548241  1
  O  O93  1  0.97897919  0.80162447  0.08548241  1
  O  O94  1  0.82816050  0.02953642  0.08475117  1
  O  O95  1  0.19347805  0.18305034  0.08433063  1
  O  O96  1  0.65965492  0.15739001  0.74249467  1
  O  O97  1  0.46939762  0.32774716  0.74325611  1
  O  O98  1  0.83337589  0.52102009  0.74487865  1
  O  O99  1  0.68764520  0.52102009  0.24487865  1
  O  O100  1  0.85835054  0.32774716  0.24325611  1
  O  O101  1  0.49773609  0.15739001  0.24249467  1
  O  O102  1  0.63090849  0.50307368  0.92059192  1
  O  O103  1  0.84958567  0.35747814  0.91844740  1
  O  O104  1  0.49281486  0.12659958  0.91912054  1
  O  O105  1  0.63378572  0.12659958  0.41912054  1
  O  O106  1  0.50789347  0.35747814  0.41844740  1
  O  O107  1  0.87216619  0.50307368  0.42059192  1
  O  O108  1  0.35407758  0.49281066  0.08054078  1
  O  O109  1  0.13380197  0.64391533  0.08192698  1
  O  O110  1  0.51466308  0.86166611  0.07715742  1
  O  O111  1  0.34700203  0.86166611  0.57715742  1
  O  O112  1  0.51011236  0.64391533  0.58192698  1
  O  O113  1  0.13873208  0.49281066  0.58054078  1
  O  O114  1  0.31378870  0.82257294  0.26205813  1
  O  O115  1  0.51227715  0.67884247  0.26175496  1
  O  O116  1  0.16088580  0.47702479  0.25874766  1
  O  O117  1  0.31613799  0.47702479  0.75874766  1
  O  O118  1  0.16656432  0.67884247  0.76175496  1
  O  O119  1  0.50878324  0.82257294  0.76205813  1
