# generated using pymatgen
data_Na42Ca20Ta4Si15(S7O48)3
_symmetry_space_group_name_H-M   'P 1'
_cell_length_a   18.93334703
_cell_length_b   9.48615344
_cell_length_c   22.84947694
_cell_angle_alpha   90.03569622
_cell_angle_beta   90.07379403
_cell_angle_gamma   120.00796477
_symmetry_Int_Tables_number   1
_chemical_formula_structural   Na42Ca20Ta4Si15(S7O48)3
_chemical_formula_sum   'Na42 Ca20 Ta4 Si15 S21 O144'
_cell_volume   3553.76534957
_cell_formula_units_Z   1
loop_
 _symmetry_equiv_pos_site_id
 _symmetry_equiv_pos_as_xyz
  1  'x, y, z'
loop_
 _atom_site_type_symbol
 _atom_site_label
 _atom_site_symmetry_multiplicity
 _atom_site_fract_x
 _atom_site_fract_y
 _atom_site_fract_z
 _atom_site_occupancy
  Na  Na0  1  0.30520862  0.99238802  0.22824578  1
  Na  Na1  1  0.80058273  0.98529159  0.22884488  1
  Na  Na2  1  0.19634904  0.37371480  0.24390133  1
  Na  Na3  1  0.69505737  0.36861078  0.23149588  1
  Na  Na4  1  0.99819772  0.64702013  0.24731379  1
  Na  Na5  1  0.49742537  0.65415828  0.24420463  1
  Na  Na6  1  0.29931517  0.61440815  0.73297550  1
  Na  Na7  1  0.80860837  0.61902749  0.73105491  1
  Na  Na8  1  0.99981602  0.34087432  0.75278850  1
  Na  Na9  1  0.49521630  0.34414488  0.75421100  1
  Na  Na10  1  0.19257438  0.01811352  0.74909591  1
  Na  Na11  1  0.69703477  0.02119848  0.74886825  1
  Na  Na12  1  0.17251142  0.34267323  0.59464010  1
  Na  Na13  1  0.67365920  0.36706913  0.59799651  1
  Na  Na14  1  0.30817339  0.96101904  0.59568989  1
  Na  Na15  1  0.17103424  0.97209555  0.07050358  1
  Na  Na16  1  0.67361006  0.00326877  0.08819326  1
  Na  Na17  1  0.81202656  0.66197102  0.08903600  1
  Na  Na18  1  0.48069355  0.66360936  0.92220316  1
  Na  Na19  1  0.00355243  0.69436247  0.92269446  1
  Na  Na20  1  0.33331736  0.02325411  0.91694150  1
  Na  Na21  1  0.85423485  0.03783222  0.91746126  1
  Na  Na22  1  0.16510777  0.28139532  0.90337629  1
  Na  Na23  1  0.66803654  0.29445085  0.92245652  1
  Na  Na24  1  0.48132527  0.29956128  0.41722933  1
  Na  Na25  1  0.98357991  0.29872529  0.42150823  1
  Na  Na26  1  0.16760336  0.04458892  0.42166523  1
  Na  Na27  1  0.66755964  0.03706516  0.40304068  1
  Na  Na28  1  0.35218221  0.66417994  0.41739807  1
  Na  Na29  1  0.85224441  0.67145201  0.41943924  1
  Na  Na30  1  0.99619497  0.95332803  0.51450568  1
  Na  Na31  1  0.49136711  0.94777733  0.50647659  1
  Na  Na32  1  0.00955097  0.02670833  0.99610846  1
  Na  Na33  1  0.48811806  0.03636645  0.01188372  1
  Na  Na34  1  0.30815504  0.28616717  0.82915847  1
  Na  Na35  1  0.82827972  0.31946360  0.82255352  1
  Na  Na36  1  0.32379490  0.33383734  0.31959007  1
  Na  Na37  1  0.82250579  0.33187660  0.31961189  1
  Na  Na38  1  0.18577736  0.68565258  0.16299900  1
  Na  Na39  1  0.67224031  0.66230335  0.16062373  1
  Na  Na40  1  0.17008119  0.67885757  0.66480959  1
  Na  Na41  1  0.68668950  0.68520252  0.66584288  1
  Ca  Ca42  1  0.00048114  0.99223979  0.34684122  1
  Ca  Ca43  1  0.49728965  0.98845507  0.34424592  1
  Ca  Ca44  1  0.00024533  0.00436730  0.84728967  1
  Ca  Ca45  1  0.49954737  0.00826582  0.84842550  1
  Ca  Ca46  1  0.33046145  0.33299831  0.68038257  1
  Ca  Ca47  1  0.83381295  0.33158290  0.67878443  1
  Ca  Ca48  1  0.33205605  0.33205142  0.17702068  1
  Ca  Ca49  1  0.83136060  0.32734081  0.17842150  1
  Ca  Ca50  1  0.33131638  0.31057937  0.99010951  1
  Ca  Ca51  1  0.82966000  0.31581503  0.99438389  1
  Ca  Ca52  1  0.32722906  0.34276684  0.49687649  1
  Ca  Ca53  1  0.83652850  0.35570330  0.49484739  1
  Ca  Ca54  1  0.17153256  0.67192391  0.01596712  1
  Ca  Ca55  1  0.66672966  0.66256807  0.01993223  1
  Ca  Ca56  1  0.16718177  0.67104964  0.52055823  1
  Ca  Ca57  1  0.67149016  0.67804767  0.51959409  1
  Ca  Ca58  1  0.17289668  0.68131238  0.30948180  1
  Ca  Ca59  1  0.67198872  0.67525223  0.30913565  1
  Ca  Ca60  1  0.17227000  0.67765031  0.81364762  1
  Ca  Ca61  1  0.67246555  0.66403448  0.81010040  1
  Ta  Ta62  1  0.99755270  0.99913413  0.65228301  1
  Ta  Ta63  1  0.49596969  0.00213710  0.65395336  1
  Ta  Ta64  1  0.99623796  0.98976603  0.15406503  1
  Ta  Ta65  1  0.49786827  0.99427828  0.15209664  1
  Si  Si66  1  0.15072407  0.00258835  0.25226618  1
  Si  Si67  1  0.64919671  0.99821127  0.25250338  1
  Si  Si68  1  0.35062117  0.69751197  0.25441056  1
  Si  Si69  1  0.84960887  0.69428936  0.25517299  1
  Si  Si70  1  0.14853479  0.30317159  0.75078111  1
  Si  Si71  1  0.65075295  0.29937823  0.75074223  1
  Si  Si72  1  0.34870672  0.00361463  0.75437426  1
  Si  Si73  1  0.85096453  0.00189988  0.75463933  1
  Si  Si74  1  0.17262461  0.02446716  0.58250307  1
  Si  Si75  1  0.33912931  0.65575532  0.58247637  1
  Si  Si76  1  0.83413143  0.65119247  0.58318350  1
  Si  Si77  1  0.33446898  0.01676032  0.08535742  1
  Si  Si78  1  0.83832498  0.02158268  0.08351273  1
  Si  Si79  1  0.67310631  0.32170592  0.08420709  1
  Si  Si80  1  0.16470078  0.97475554  0.91753802  1
  S  S81  1  0.00199816  0.29142142  0.24941816  1
  S  S82  1  0.50109271  0.29274500  0.25005695  1
  S  S83  1  0.00012515  0.70812766  0.74802295  1
  S  S84  1  0.50327155  0.71495213  0.74829917  1
  S  S85  1  0.48844482  0.32025616  0.58533711  1
  S  S86  1  0.98805642  0.31699886  0.58439353  1
  S  S87  1  0.67167602  0.02810355  0.58426315  1
  S  S88  1  0.48886997  0.65839376  0.08552859  1
  S  S89  1  0.98846501  0.65413628  0.08831236  1
  S  S90  1  0.16998188  0.31719471  0.08755876  1
  S  S91  1  0.32173959  0.66274176  0.91576360  1
  S  S92  1  0.81787244  0.65583643  0.91756672  1
  S  S93  1  0.01264296  0.36966825  0.91509531  1
  S  S94  1  0.51529821  0.37005048  0.91329113  1
  S  S95  1  0.66627562  0.96685713  0.91536909  1
  S  S96  1  0.32069962  0.98033336  0.41775129  1
  S  S97  1  0.81890517  0.98040717  0.41577587  1
  S  S98  1  0.16611888  0.36619336  0.41532040  1
  S  S99  1  0.66480291  0.36221408  0.41792942  1
  S  S100  1  0.01313560  0.65656691  0.41341652  1
  S  S101  1  0.51503349  0.65923584  0.41595341  1
  O  O102  1  0.11391134  0.02031564  0.31395843  1
  O  O103  1  0.61166306  0.01359082  0.31434926  1
  O  O104  1  0.38879622  0.76368457  0.31892073  1
  O  O105  1  0.89040168  0.77490900  0.31715006  1
  O  O106  1  0.49071759  0.21059252  0.30695060  1
  O  O107  1  0.99147750  0.20667224  0.30538403  1
  O  O108  1  0.10908098  0.21047947  0.81132938  1
  O  O109  1  0.61144923  0.20112557  0.81044085  1
  O  O110  1  0.49218646  0.77868798  0.80423943  1
  O  O111  1  0.98928595  0.77244264  0.80374083  1
  O  O112  1  0.39375849  0.00905296  0.81436056  1
  O  O113  1  0.89005734  0.01144568  0.81820417  1
  O  O114  1  0.41519575  0.00418130  0.69862596  1
  O  O115  1  0.91666411  0.99946072  0.70349379  1
  O  O116  1  0.08622644  0.17586947  0.69603262  1
  O  O117  1  0.58933182  0.17440776  0.69391583  1
  O  O118  1  0.00105340  0.81563109  0.69869770  1
  O  O119  1  0.50299412  0.82474188  0.69905138  1
  O  O120  1  0.41788359  0.83251808  0.20490826  1
  O  O121  1  0.91538767  0.82759356  0.20108146  1
  O  O122  1  0.00153881  0.18249816  0.20018191  1
  O  O123  1  0.50187606  0.18573348  0.20201410  1
  O  O124  1  0.08656391  0.00479604  0.19843136  1
  O  O125  1  0.58644788  0.99962746  0.19942257  1
  O  O126  1  0.44960928  0.33768788  0.63787591  1
  O  O127  1  0.94763908  0.33764995  0.63466044  1
  O  O128  1  0.23763146  0.11967378  0.63468544  1
  O  O129  1  0.72002837  0.10554318  0.63723740  1
  O  O130  1  0.32727516  0.53658342  0.63633796  1
  O  O131  1  0.81962845  0.51945708  0.63404221  1
  O  O132  1  0.44961195  0.55901263  0.13722576  1
  O  O133  1  0.94818635  0.56322109  0.14170394  1
  O  O134  1  0.32398613  0.11660187  0.13901667  1
  O  O135  1  0.82543887  0.11231475  0.13882489  1
  O  O136  1  0.21762626  0.34020814  0.14157350  1
  O  O137  1  0.73501305  0.35587250  0.13865828  1
  O  O138  1  0.21136726  0.29318600  0.03648807  1
  O  O139  1  0.70679446  0.27388554  0.02537961  1
  O  O140  1  0.44304228  0.58158517  0.03114910  1
  O  O141  1  0.93679047  0.58003804  0.03593071  1
  O  O142  1  0.35232690  0.11264961  0.02294571  1
  O  O143  1  0.85217731  0.11770344  0.02199726  1
  O  O144  1  0.20336730  0.13421346  0.52195330  1
  O  O145  1  0.71260159  0.12775154  0.53162888  1
  O  O146  1  0.35536565  0.59588953  0.51937163  1
  O  O147  1  0.85040966  0.59344529  0.51912337  1
  O  O148  1  0.43845085  0.29330741  0.53218014  1
  O  O149  1  0.94366246  0.30380454  0.52896491  1
  O  O150  1  0.27557862  0.67434594  0.96526336  1
  O  O151  1  0.77461961  0.66613395  0.96990473  1
  O  O152  1  0.06399166  0.46319266  0.96498406  1
  O  O153  1  0.56885184  0.46939062  0.96142313  1
  O  O154  1  0.15802527  0.86769337  0.97559441  1
  O  O155  1  0.66490670  0.87585680  0.96818291  1
  O  O156  1  0.27767924  0.88299224  0.46965064  1
  O  O157  1  0.77457700  0.87552320  0.46557644  1
  O  O158  1  0.16464138  0.45436877  0.46811700  1
  O  O159  1  0.66237293  0.45025129  0.47039292  1
  O  O160  1  0.06412401  0.65902935  0.46244594  1
  O  O161  1  0.56547778  0.66517530  0.46588922  1
  O  O162  1  0.04990044  0.65008088  0.35696315  1
  O  O163  1  0.55415547  0.65398559  0.36027257  1
  O  O164  1  0.27457964  0.89934919  0.36382238  1
  O  O165  1  0.77441106  0.90542284  0.36064216  1
  O  O166  1  0.16737753  0.45607857  0.36181451  1
  O  O167  1  0.67100545  0.45605412  0.36437937  1
  O  O168  1  0.05117465  0.45100762  0.85907293  1
  O  O169  1  0.55159222  0.44790262  0.85626250  1
  O  O170  1  0.17252023  0.88529581  0.85808306  1
  O  O171  1  0.66745744  0.87938529  0.86177969  1
  O  O172  1  0.27844491  0.64806954  0.86008168  1
  O  O173  1  0.76990197  0.64097214  0.86412768  1
  O  O174  1  0.00448845  0.80462355  0.41805572  1
  O  O175  1  0.50632659  0.80791208  0.41901726  1
  O  O176  1  0.40450749  0.00050504  0.41723046  1
  O  O177  1  0.90321205  0.00446837  0.41579043  1
  O  O178  1  0.09096355  0.20147790  0.41655390  1
  O  O179  1  0.58886694  0.19895463  0.41733292  1
  O  O180  1  0.00129209  0.20231334  0.91801523  1
  O  O181  1  0.50598451  0.20429235  0.91795255  1
  O  O182  1  0.08143785  0.99170713  0.91930227  1
  O  O183  1  0.59134268  0.98191673  0.91676425  1
  O  O184  1  0.40537885  0.81141269  0.91700506  1
  O  O185  1  0.90003396  0.80427097  0.91646262  1
  O  O186  1  0.49533245  0.16549229  0.59148471  1
  O  O187  1  0.99093747  0.15973076  0.58979412  1
  O  O188  1  0.08171773  0.01187973  0.59754971  1
  O  O189  1  0.59058904  0.02571395  0.58838843  1
  O  O190  1  0.42389441  0.84340163  0.59651495  1
  O  O191  1  0.91589715  0.83255271  0.59992852  1
  O  O192  1  0.49266031  0.82212219  0.09153766  1
  O  O193  1  0.99735750  0.82521593  0.09345348  1
  O  O194  1  0.41688589  0.99747591  0.10181954  1
  O  O195  1  0.92203647  0.00072515  0.09809162  1
  O  O196  1  0.08868889  0.15736563  0.09241396  1
  O  O197  1  0.58212153  0.15199188  0.09874747  1
  O  O198  1  0.34684350  0.17135587  0.74758885  1
  O  O199  1  0.84473861  0.16617259  0.74529181  1
  O  O200  1  0.23998542  0.32751299  0.74630831  1
  O  O201  1  0.74228842  0.32611178  0.74457990  1
  O  O202  1  0.43625680  0.54912181  0.73956896  1
  O  O203  1  0.93019924  0.54225735  0.74015582  1
  O  O204  1  0.34499970  0.52162922  0.24491461  1
  O  O205  1  0.84872818  0.52372841  0.24767778  1
  O  O206  1  0.43274547  0.32350640  0.24208027  1
  O  O207  1  0.93412827  0.32233937  0.24152078  1
  O  O208  1  0.24161647  0.15960283  0.24508016  1
  O  O209  1  0.74111941  0.15426828  0.24702416  1
  O  O210  1  0.33220022  0.51735313  0.92144550  1
  O  O211  1  0.82691546  0.50820842  0.92057872  1
  O  O212  1  0.43432238  0.35965199  0.91766755  1
  O  O213  1  0.93113924  0.36007381  0.91810492  1
  O  O214  1  0.24751179  0.15896727  0.91875328  1
  O  O215  1  0.74074743  0.13242805  0.91450051  1
  O  O216  1  0.32959593  0.14638618  0.42060724  1
  O  O217  1  0.82537289  0.14446662  0.42122478  1
  O  O218  1  0.24081708  0.34978089  0.41461837  1
  O  O219  1  0.73770379  0.33860661  0.41967530  1
  O  O220  1  0.43282621  0.50863931  0.41854033  1
  O  O221  1  0.93025544  0.50628491  0.41676918  1
  O  O222  1  0.15353246  0.45035365  0.08032180  1
  O  O223  1  0.66156859  0.47922006  0.08035522  1
  O  O224  1  0.07029380  0.67779698  0.08307012  1
  O  O225  1  0.57471498  0.69682461  0.08178873  1
  O  O226  1  0.25273369  0.83794500  0.08476405  1
  O  O227  1  0.76070620  0.83585879  0.08329702  1
  O  O228  1  0.16094468  0.84360816  0.57941239  1
  O  O229  1  0.65505042  0.86081556  0.57925657  1
  O  O230  1  0.26177979  0.68690493  0.58298575  1
  O  O231  1  0.75125516  0.66436881  0.58441222  1
  O  O232  1  0.07421283  0.44984047  0.58108622  1
  O  O233  1  0.57237014  0.45603687  0.57896082  1
  O  O234  1  0.14740346  0.82769941  0.24305570  1
  O  O235  1  0.64706053  0.82371786  0.24391765  1
  O  O236  1  0.26302485  0.68929022  0.24372858  1
  O  O237  1  0.76265303  0.68449579  0.24168444  1
  O  O238  1  0.08124314  0.44375213  0.24597518  1
  O  O239  1  0.58007605  0.44726132  0.24728001  1
  O  O240  1  0.14706686  0.47315186  0.74169489  1
  O  O241  1  0.64715992  0.46727755  0.74162071  1
  O  O242  1  0.07751464  0.70752393  0.74479487  1
  O  O243  1  0.58305286  0.72339206  0.74497615  1
  O  O244  1  0.26366683  0.83797576  0.74051384  1
  O  O245  1  0.76309124  0.83570780  0.74382538  1
