# generated using pymatgen
data_Na6MgZr3Si4(SO12)2
_symmetry_space_group_name_H-M   'P 1'
_cell_length_a   9.17235190
_cell_length_b   9.16350675
_cell_length_c   23.02389743
_cell_angle_alpha   90.06814763
_cell_angle_beta   90.07797656
_cell_angle_gamma   119.96222130
_symmetry_Int_Tables_number   1
_chemical_formula_structural   Na6MgZr3Si4(SO12)2
_chemical_formula_sum   'Na18 Mg3 Zr9 Si12 S6 O72'
_cell_volume   1676.54678003
_cell_formula_units_Z   3
loop_
 _symmetry_equiv_pos_site_id
 _symmetry_equiv_pos_as_xyz
  1  'x, y, z'
loop_
 _atom_site_type_symbol
 _atom_site_label
 _atom_site_symmetry_multiplicity
 _atom_site_fract_x
 _atom_site_fract_y
 _atom_site_fract_z
 _atom_site_occupancy
  Na  Na0  1  0.99191174  0.35316591  0.75295189  1
  Na  Na1  1  0.38736943  0.01914067  0.74896716  1
  Na  Na2  1  0.31897049  0.33520286  0.58500974  1
  Na  Na3  1  0.03103539  0.70538867  0.57833083  1
  Na  Na4  1  0.65561310  0.96140356  0.58728601  1
  Na  Na5  1  0.31373741  0.97674112  0.08374361  1
  Na  Na6  1  0.65985696  0.68548155  0.08586412  1
  Na  Na7  1  0.02556171  0.33661883  0.08430998  1
  Na  Na8  1  0.33181538  0.29504722  0.92125708  1
  Na  Na9  1  0.96772855  0.29368233  0.41193810  1
  Na  Na10  1  0.32292279  0.02956093  0.41424303  1
  Na  Na11  1  0.70926585  0.67816734  0.41415228  1
  Na  Na12  1  0.00117315  0.99292938  0.49160960  1
  Na  Na13  1  0.00095828  0.99768828  0.99888020  1
  Na  Na14  1  0.66454633  0.32247098  0.83228209  1
  Na  Na15  1  0.66791580  0.33366764  0.32735023  1
  Na  Na16  1  0.33454604  0.66620613  0.16558108  1
  Na  Na17  1  0.35925929  0.67276915  0.66897395  1
  Mg  Mg18  1  0.00029652  0.99874786  0.35354178  1
  Mg  Mg19  1  0.64023161  0.32385640  0.68627477  1
  Mg  Mg20  1  0.66616681  0.33310752  0.17711916  1
  Zr  Zr21  1  0.00524535  0.01620408  0.85318810  1
  Zr  Zr22  1  0.99592387  0.99846490  0.65065220  1
  Zr  Zr23  1  0.00257290  0.00104422  0.14625035  1
  Zr  Zr24  1  0.67318251  0.32246699  0.98378140  1
  Zr  Zr25  1  0.65509450  0.33693954  0.47917325  1
  Zr  Zr26  1  0.32087852  0.66701442  0.01988833  1
  Zr  Zr27  1  0.34443016  0.67541390  0.51426866  1
  Zr  Zr28  1  0.33289700  0.66749538  0.31661139  1
  Zr  Zr29  1  0.33952543  0.67110194  0.81585424  1
  Si  Si30  1  0.30017759  0.29989683  0.74946010  1
  Si  Si31  1  0.70357350  0.00377607  0.74888716  1
  Si  Si32  1  0.37296905  0.03757406  0.58559328  1
  Si  Si33  1  0.66669927  0.62396746  0.58572545  1
  Si  Si34  1  0.95084913  0.61844873  0.08604155  1
  Si  Si35  1  0.66444031  0.04018985  0.08748692  1
  Si  Si36  1  0.38136203  0.33707683  0.08433403  1
  Si  Si37  1  0.03623133  0.37758494  0.91559477  1
  Si  Si38  1  0.33301002  0.96366830  0.91597266  1
  Si  Si39  1  0.63322292  0.96392803  0.41492256  1
  Si  Si40  1  0.32665437  0.37074519  0.41605846  1
  Si  Si41  1  0.03905520  0.66702380  0.41656732  1
  S  S42  1  0.29544474  0.00337420  0.25172390  1
  S  S43  1  0.70831548  0.70511332  0.25145967  1
  S  S44  1  0.99663856  0.29197118  0.25167756  1
  S  S45  1  0.99596840  0.70333079  0.75001290  1
  S  S46  1  0.95688280  0.33429681  0.58511809  1
  S  S47  1  0.62777566  0.66738421  0.91738877  1
  O  O48  1  0.20878274  0.01825626  0.30361995  1
  O  O49  1  0.80972138  0.79167242  0.30357885  1
  O  O50  1  0.98202578  0.19071150  0.30365575  1
  O  O51  1  0.20057269  0.17516107  0.80539074  1
  O  O52  1  0.97475081  0.78751380  0.80127143  1
  O  O53  1  0.82725330  0.02090865  0.80318833  1
  O  O54  1  0.79050758  0.97166218  0.69048527  1
  O  O55  1  0.17425029  0.20608783  0.69250055  1
  O  O56  1  0.02742970  0.81251225  0.69673483  1
  O  O57  1  0.79107837  0.81162462  0.19818950  1
  O  O58  1  0.02035415  0.20882337  0.19833980  1
  O  O59  1  0.18873574  0.97936214  0.19831862  1
  O  O60  1  0.88127260  0.35949974  0.63669377  1
  O  O61  1  0.49228118  0.11483161  0.64108234  1
  O  O62  1  0.63858810  0.50241688  0.63866992  1
  O  O63  1  0.87733326  0.50000179  0.14088228  1
  O  O64  1  0.62061896  0.11907258  0.14111568  1
  O  O65  1  0.49979585  0.37574698  0.13917411  1
  O  O66  1  0.45286357  0.29599765  0.02436754  1
  O  O67  1  0.83309954  0.54208901  0.02764729  1
  O  O68  1  0.70960864  0.16029578  0.02900908  1
  O  O69  1  0.45841585  0.15528267  0.52704046  1
  O  O70  1  0.70279807  0.54670767  0.52544988  1
  O  O71  1  0.85415890  0.30655139  0.53143268  1
  O  O72  1  0.55174903  0.69344139  0.97001905  1
  O  O73  1  0.15968759  0.45971190  0.97219523  1
  O  O74  1  0.31266240  0.85016861  0.97325105  1
  O  O75  1  0.54742591  0.84678880  0.47368561  1
  O  O76  1  0.29836695  0.45515033  0.47519526  1
  O  O77  1  0.15458867  0.69607708  0.47521801  1
  O  O78  1  0.13311473  0.63087836  0.36228138  1
  O  O79  1  0.49865300  0.87020331  0.36190737  1
  O  O80  1  0.36831823  0.50305633  0.36237079  1
  O  O81  1  0.13378850  0.48843846  0.85775531  1
  O  O82  1  0.35767193  0.87109495  0.85849142  1
  O  O83  1  0.51785686  0.64252134  0.86556976  1
  O  O84  1  0.02063872  0.83210953  0.40935973  1
  O  O85  1  0.81505160  0.97967535  0.40850023  1
  O  O86  1  0.16489887  0.18609628  0.40888702  1
  O  O87  1  0.02602010  0.19163963  0.91088778  1
  O  O88  1  0.16236822  0.97917658  0.91020178  1
  O  O89  1  0.79590198  0.81599356  0.90953300  1
  O  O90  1  0.97598008  0.17941645  0.58879061  1
  O  O91  1  0.18425077  0.02054172  0.59002336  1
  O  O92  1  0.83406195  0.81660214  0.58903601  1
  O  O93  1  0.97913833  0.81268988  0.09304782  1
  O  O94  1  0.83438993  0.01960067  0.09370758  1
  O  O95  1  0.18805885  0.16749981  0.09260959  1
  O  O96  1  0.70025255  0.17816521  0.74461393  1
  O  O97  1  0.47705866  0.30585059  0.74718197  1
  O  O98  1  0.85453488  0.53473135  0.74239628  1
  O  O99  1  0.69000151  0.53754486  0.24587248  1
  O  O100  1  0.84749231  0.31007758  0.24607541  1
  O  O101  1  0.46239035  0.15246447  0.24623537  1
  O  O102  1  0.63579194  0.51108182  0.92101043  1
  O  O103  1  0.85234293  0.36009497  0.92039605  1
  O  O104  1  0.49331801  0.15551877  0.92022822  1
  O  O105  1  0.64761896  0.14812084  0.42360842  1
  O  O106  1  0.50066104  0.35916708  0.42112300  1
  O  O107  1  0.85639179  0.49344465  0.42303405  1
  O  O108  1  0.35161878  0.49917576  0.07523488  1
  O  O109  1  0.14487450  0.65025643  0.07688137  1
  O  O110  1  0.50635205  0.84893272  0.07545190  1
  O  O111  1  0.34268210  0.84446197  0.57771130  1
  O  O112  1  0.49697425  0.64394067  0.57847836  1
  O  O113  1  0.12951147  0.48390954  0.57856617  1
  O  O114  1  0.30713282  0.84459276  0.25482112  1
  O  O115  1  0.53764146  0.69287703  0.25487012  1
  O  O116  1  0.15524379  0.46246958  0.25498301  1
  O  O117  1  0.29888540  0.47824635  0.75511701  1
  O  O118  1  0.15579714  0.69472389  0.75456851  1
  O  O119  1  0.51322183  0.83891453  0.75448349  1
