# generated using pymatgen
data_Na3H6Rh
_symmetry_space_group_name_H-M   'P 1'
_cell_length_a   5.18698408
_cell_length_b   9.25611898
_cell_length_c   9.49469127
_cell_angle_alpha   90.00000000
_cell_angle_beta   90.00000000
_cell_angle_gamma   90.00000000
_symmetry_Int_Tables_number   1
_chemical_formula_structural   Na3H6Rh
_chemical_formula_sum   'Na12 H24 Rh4'
_cell_volume   455.85286777
_cell_formula_units_Z   4
loop_
 _symmetry_equiv_pos_site_id
 _symmetry_equiv_pos_as_xyz
  1  'x, y, z'
loop_
 _atom_site_type_symbol
 _atom_site_label
 _atom_site_symmetry_multiplicity
 _atom_site_fract_x
 _atom_site_fract_y
 _atom_site_fract_z
 _atom_site_occupancy
  Na  Na0  1  0.25000000  0.71979051  0.75043038  1
  Na  Na1  1  0.75000000  0.28020949  0.24956962  1
  Na  Na2  1  0.25000000  0.21979051  0.74956962  1
  Na  Na3  1  0.75000000  0.78020949  0.25043038  1
  Na  Na4  1  0.25000000  0.89738023  0.03392400  1
  Na  Na5  1  0.75000000  0.10261977  0.96607600  1
  Na  Na6  1  0.25000000  0.39738023  0.46607600  1
  Na  Na7  1  0.75000000  0.60261977  0.53392400  1
  Na  Na8  1  0.25000000  0.54432744  0.12718785  1
  Na  Na9  1  0.75000000  0.45567256  0.87281215  1
  Na  Na10  1  0.25000000  0.04432744  0.37281215  1
  Na  Na11  1  0.75000000  0.95567256  0.62718785  1
  H  H12  1  0.25000000  0.81303212  0.25087001  1
  H  H13  1  0.75000000  0.18696788  0.74912999  1
  H  H14  1  0.25000000  0.31303212  0.24912999  1
  H  H15  1  0.75000000  0.68696788  0.75087001  1
  H  H16  1  0.25000000  0.62562003  0.54597217  1
  H  H17  1  0.75000000  0.37437997  0.45402783  1
  H  H18  1  0.25000000  0.12562003  0.95402783  1
  H  H19  1  0.75000000  0.87437997  0.04597217  1
  H  H20  1  0.53035518  0.39035397  0.66251824  1
  H  H21  1  0.03035518  0.60964603  0.33748176  1
  H  H22  1  0.96964482  0.89035397  0.83748176  1
  H  H23  1  0.46964482  0.10964603  0.16251824  1
  H  H24  1  0.46964482  0.60964603  0.33748176  1
  H  H25  1  0.96964482  0.39035397  0.66251824  1
  H  H26  1  0.03035518  0.10964603  0.16251824  1
  H  H27  1  0.53035518  0.89035397  0.83748176  1
  H  H28  1  0.52182920  0.66948688  0.96502229  1
  H  H29  1  0.02182920  0.33051312  0.03497771  1
  H  H30  1  0.97817080  0.16948688  0.53497771  1
  H  H31  1  0.47817080  0.83051312  0.46502229  1
  H  H32  1  0.47817080  0.33051312  0.03497771  1
  H  H33  1  0.97817080  0.66948688  0.96502229  1
  H  H34  1  0.02182920  0.83051312  0.46502229  1
  H  H35  1  0.52182920  0.16948688  0.53497771  1
  Rh  Rh36  1  0.25000000  0.72182448  0.40053288  1
  Rh  Rh37  1  0.75000000  0.27817552  0.59946712  1
  Rh  Rh38  1  0.25000000  0.22182448  0.09946712  1
  Rh  Rh39  1  0.75000000  0.77817552  0.90053288  1
