# generated using pymatgen
data_K3Al2As3
_symmetry_space_group_name_H-M   'P 1'
_cell_length_a   6.00275243
_cell_length_b   7.57837094
_cell_length_c   10.51705566
_cell_angle_alpha   110.30393637
_cell_angle_beta   90.00000000
_cell_angle_gamma   90.00000000
_symmetry_Int_Tables_number   1
_chemical_formula_structural   K3Al2As3
_chemical_formula_sum   'K6 Al4 As6'
_cell_volume   448.70492569
_cell_formula_units_Z   2
loop_
 _symmetry_equiv_pos_site_id
 _symmetry_equiv_pos_as_xyz
  1  'x, y, z'
loop_
 _atom_site_type_symbol
 _atom_site_label
 _atom_site_symmetry_multiplicity
 _atom_site_fract_x
 _atom_site_fract_y
 _atom_site_fract_z
 _atom_site_occupancy
  K  K0  1  0.25000000  0.56401254  0.42679077  1
  K  K1  1  0.75000000  0.87058097  0.92180415  1
  K  K2  1  0.75000000  0.52274394  0.14859949  1
  K  K3  1  0.25000000  0.47725606  0.85140051  1
  K  K4  1  0.75000000  0.43598746  0.57320923  1
  K  K5  1  0.25000000  0.12941903  0.07819585  1
  Al  Al6  1  0.99957058  0.97192320  0.34271665  1
  Al  Al7  1  0.49957058  0.02807680  0.65728335  1
  Al  Al8  1  0.50042942  0.97192320  0.34271665  1
  Al  Al9  1  0.00042942  0.02807680  0.65728335  1
  As  As10  1  0.25000000  0.18788797  0.53002926  1
  As  As11  1  0.75000000  0.81211203  0.46997074  1
  As  As12  1  0.25000000  0.74576737  0.18235790  1
  As  As13  1  0.75000000  0.25423263  0.81764210  1
  As  As14  1  0.25000000  0.84663451  0.74812050  1
  As  As15  1  0.75000000  0.15336549  0.25187950  1
