# generated using pymatgen
data_Na2Ca3Zr(SO4)6
_symmetry_space_group_name_H-M   'P 1'
_cell_length_a   9.14248034
_cell_length_b   9.14248002
_cell_length_c   24.12755585
_cell_angle_alpha   90.00000000
_cell_angle_beta   90.00000000
_cell_angle_gamma   120.00000115
_symmetry_Int_Tables_number   1
_chemical_formula_structural   Na2Ca3Zr(SO4)6
_chemical_formula_sum   'Na6 Ca9 Zr3 S18 O72'
_cell_volume   1746.51375883
_cell_formula_units_Z   3
loop_
 _symmetry_equiv_pos_site_id
 _symmetry_equiv_pos_as_xyz
  1  'x, y, z'
loop_
 _atom_site_type_symbol
 _atom_site_label
 _atom_site_symmetry_multiplicity
 _atom_site_fract_x
 _atom_site_fract_y
 _atom_site_fract_z
 _atom_site_occupancy
  Na  Na0  1  0.00000000  -0.00000000  0.50681230  1
  Na  Na1  1  0.00000000  -0.00000000  0.00356664  1
  Na  Na2  1  0.66666700  0.33333300  0.82814532  1
  Na  Na3  1  0.66666700  0.33333300  0.33665341  1
  Na  Na4  1  0.33333300  0.66666700  0.17501974  1
  Na  Na5  1  0.33333300  0.66666700  0.65734329  1
  Ca  Ca6  1  0.00000000  -0.00000000  0.64492078  1
  Ca  Ca7  1  0.00000000  -0.00000000  0.15036140  1
  Ca  Ca8  1  0.66666700  0.33333300  0.68070522  1
  Ca  Ca9  1  0.66666700  0.33333300  0.18692851  1
  Ca  Ca10  1  0.66666700  0.33333300  0.98269371  1
  Ca  Ca11  1  0.66666700  0.33333300  0.48469348  1
  Ca  Ca12  1  0.33333300  0.66666700  0.51668884  1
  Ca  Ca13  1  0.33333300  0.66666700  0.31766062  1
  Ca  Ca14  1  0.33333300  0.66666700  0.81370925  1
  Zr  Zr15  1  0.00000000  -0.00000000  0.35274487  1
  Zr  Zr16  1  0.00000000  -0.00000000  0.84779921  1
  Zr  Zr17  1  0.33333300  0.66666700  0.01858418  1
  S  S18  1  0.29063752  0.99920656  0.25095838  1
  S  S19  1  0.70856904  0.70936248  0.25095838  1
  S  S20  1  0.00079344  0.29143096  0.25095838  1
  S  S21  1  0.29229551  0.29045465  0.75093206  1
  S  S22  1  0.99815914  0.70770449  0.75093206  1
  S  S23  1  0.70954535  0.00184086  0.75093206  1
  S  S24  1  0.96547685  0.33516038  0.58345176  1
  S  S25  1  0.36968453  0.03452315  0.58345176  1
  S  S26  1  0.66483962  0.63031547  0.58345176  1
  S  S27  1  0.96683036  0.63048282  0.08099413  1
  S  S28  1  0.66365346  0.03316964  0.08099413  1
  S  S29  1  0.36951718  0.33634654  0.08099413  1
  S  S30  1  0.62825817  0.67153241  0.91639876  1
  S  S31  1  0.04327324  0.37174183  0.91639876  1
  S  S32  1  0.32846759  0.95672676  0.91639876  1
  S  S33  1  0.63402884  0.96513454  0.41437083  1
  S  S34  1  0.33110470  0.36597116  0.41437083  1
  S  S35  1  0.03486546  0.66889530  0.41437083  1
  O  O36  1  0.19745755  0.01460406  0.30063377  1
  O  O37  1  0.81714652  0.80254245  0.30063377  1
  O  O38  1  0.98539594  0.18285348  0.30063377  1
  O  O39  1  0.19468374  0.17899554  0.80285222  1
  O  O40  1  0.98431180  0.80531626  0.80285222  1
  O  O41  1  0.82100446  0.01568820  0.80285222  1
  O  O42  1  0.79002627  0.98214134  0.70207834  1
  O  O43  1  0.19211507  0.20997373  0.70207834  1
  O  O44  1  0.01785866  0.80788493  0.70207834  1
  O  O45  1  0.78619917  0.80582312  0.20013848  1
  O  O46  1  0.01962395  0.21380083  0.20013848  1
  O  O47  1  0.19417688  0.98037605  0.20013848  1
  O  O48  1  0.88510335  0.35342636  0.63433060  1
  O  O49  1  0.46832401  0.11489665  0.63433060  1
  O  O50  1  0.64657364  0.53167599  0.63433060  1
  O  O51  1  0.89921415  0.52961385  0.13141079  1
  O  O52  1  0.63040070  0.10078585  0.13141079  1
  O  O53  1  0.47038615  0.36959930  0.13141079  1
  O  O54  1  0.44966037  0.31519461  0.03160823  1
  O  O55  1  0.86553524  0.55033963  0.03160823  1
  O  O56  1  0.68480539  0.13446476  0.03160823  1
  O  O57  1  0.45098418  0.13516612  0.53346024  1
  O  O58  1  0.68418294  0.54901582  0.53346024  1
  O  O59  1  0.86483388  0.31581706  0.53346024  1
  O  O60  1  0.54219130  0.69418860  0.96707875  1
  O  O61  1  0.15199630  0.45780870  0.96707875  1
  O  O62  1  0.30581140  0.84800370  0.96707875  1
  O  O63  1  0.56631667  0.86366278  0.46459074  1
  O  O64  1  0.29734511  0.43368333  0.46459074  1
  O  O65  1  0.13633722  0.70265489  0.46459074  1
  O  O66  1  0.11533270  0.64809024  0.36490933  1
  O  O67  1  0.53275654  0.88466730  0.36490933  1
  O  O68  1  0.35190976  0.46724346  0.36490933  1
  O  O69  1  0.12132713  0.47208775  0.86717849  1
  O  O70  1  0.35075962  0.87867287  0.86717849  1
  O  O71  1  0.52791225  0.64924038  0.86717849  1
  O  O72  1  0.01763247  0.82756989  0.40489697  1
  O  O73  1  0.80993741  0.98236753  0.40489697  1
  O  O74  1  0.17243011  0.19006259  0.40489697  1
  O  O75  1  0.03014480  0.20016876  0.91153572  1
  O  O76  1  0.17002396  0.96985520  0.91153572  1
  O  O77  1  0.79983124  0.82997604  0.91153572  1
  O  O78  1  0.98245547  0.18182926  0.58722368  1
  O  O79  1  0.19937378  0.01754453  0.58722368  1
  O  O80  1  0.81817074  0.80062622  0.58722368  1
  O  O81  1  0.99383789  0.80291001  0.08611984  1
  O  O82  1  0.80907213  0.00616211  0.08611984  1
  O  O83  1  0.19708999  0.19092787  0.08611984  1
  O  O84  1  0.69977044  0.15727599  0.75201192  1
  O  O85  1  0.45750655  0.30022956  0.75201192  1
  O  O86  1  0.84272401  0.54249346  0.75201192  1
  O  O87  1  0.69703627  0.54189424  0.24931058  1
  O  O88  1  0.84485897  0.30296373  0.24931058  1
  O  O89  1  0.45810576  0.15514103  0.24931058  1
  O  O90  1  0.65092684  0.52479276  0.92404053  1
  O  O91  1  0.87386692  0.34907316  0.92404053  1
  O  O92  1  0.47520724  0.12613308  0.92404053  1
  O  O93  1  0.66031821  0.13696411  0.41951514  1
  O  O94  1  0.47664691  0.33968179  0.41951514  1
  O  O95  1  0.86303589  0.52335309  0.41951514  1
  O  O96  1  0.35200166  0.49530993  0.07119404  1
  O  O97  1  0.14330727  0.64799834  0.07119404  1
  O  O98  1  0.50469007  0.85669273  0.07119404  1
  O  O99  1  0.35221720  0.86401667  0.57963237  1
  O  O100  1  0.51179847  0.64778280  0.57963237  1
  O  O101  1  0.13598333  0.48820153  0.57963237  1
  O  O102  1  0.30861400  0.84832396  0.25651855  1
  O  O103  1  0.53970895  0.69138600  0.25651855  1
  O  O104  1  0.15167604  0.46029104  0.25651855  1
  O  O105  1  0.30747026  0.45648161  0.75894783  1
  O  O106  1  0.14901035  0.69252974  0.75894783  1
  O  O107  1  0.54351839  0.85098965  0.75894783  1
