# generated using pymatgen
data_MgMn2Te2(MoO6)2
_symmetry_space_group_name_H-M   'P 1'
_cell_length_a   5.17603124
_cell_length_b   5.39045727
_cell_length_c   10.28384263
_cell_angle_alpha   90.02617847
_cell_angle_beta   89.82030454
_cell_angle_gamma   90.35498363
_symmetry_Int_Tables_number   1
_chemical_formula_structural   MgMn2Te2(MoO6)2
_chemical_formula_sum   'Mg1 Mn2 Te2 Mo2 O12'
_cell_volume   286.92434997
_cell_formula_units_Z   1
loop_
 _symmetry_equiv_pos_site_id
 _symmetry_equiv_pos_as_xyz
  1  'x, y, z'
loop_
 _atom_site_type_symbol
 _atom_site_label
 _atom_site_symmetry_multiplicity
 _atom_site_fract_x
 _atom_site_fract_y
 _atom_site_fract_z
 _atom_site_occupancy
  Mg  Mg0  1  0.99858300  0.99987800  0.00266000  1
  Mn  Mn1  1  0.00083400  0.99976700  0.48124700  1
  Mn  Mn2  1  0.50014200  0.49939100  0.52484900  1
  Te  Te3  1  0.00086300  0.50029000  0.28256800  1
  Te  Te4  1  0.49942800  0.99986400  0.72511500  1
  Mo  Mo5  1  0.49816400  0.00361500  0.22737200  1
  Mo  Mo6  1  0.99975800  0.50022300  0.77677900  1
  O  O7  1  0.71882800  0.17460300  0.60418700  1
  O  O8  1  0.21608300  0.31640500  0.39979100  1
  O  O9  1  0.78941700  0.68017600  0.40326300  1
  O  O10  1  0.28099300  0.82414700  0.60467700  1
  O  O11  1  0.74361200  0.20277900  0.32045800  1
  O  O12  1  0.26549600  0.31549100  0.69090200  1
  O  O13  1  0.13241000  0.74399600  0.88419800  1
  O  O14  1  0.72892200  0.85214300  0.11645100  1
  O  O15  1  0.26777900  0.14971600  0.11542300  1
  O  O16  1  0.86692900  0.25571400  0.88400400  1
  O  O17  1  0.25872900  0.79772900  0.32092400  1
  O  O18  1  0.73302800  0.68407300  0.69227400  1
