# generated using pymatgen
data_Na8Y3TaSi4(PO12)2
_symmetry_space_group_name_H-M   'P 1'
_cell_length_a   9.40335013
_cell_length_b   9.41235519
_cell_length_c   22.83957067
_cell_angle_alpha   90.12489012
_cell_angle_beta   90.01376371
_cell_angle_gamma   119.96143881
_symmetry_Int_Tables_number   1
_chemical_formula_structural   Na8Y3TaSi4(PO12)2
_chemical_formula_sum   'Na24 Y9 Ta3 Si12 P6 O72'
_cell_volume   1751.32425207
_cell_formula_units_Z   3
loop_
 _symmetry_equiv_pos_site_id
 _symmetry_equiv_pos_as_xyz
  1  'x, y, z'
loop_
 _atom_site_type_symbol
 _atom_site_label
 _atom_site_symmetry_multiplicity
 _atom_site_fract_x
 _atom_site_fract_y
 _atom_site_fract_z
 _atom_site_occupancy
  Na  Na0  1  0.63183084  0.99764725  0.25733459  1
  Na  Na1  1  0.36737610  0.36832363  0.25277826  1
  Na  Na2  1  0.00168590  0.63161337  0.25279977  1
  Na  Na3  1  0.64120207  0.64280413  0.73927714  1
  Na  Na4  1  0.99566955  0.34994514  0.74204308  1
  Na  Na5  1  0.36137619  0.00867632  0.74957860  1
  Na  Na6  1  0.29649473  0.34164689  0.58184024  1
  Na  Na7  1  0.03692361  0.69852785  0.57752219  1
  Na  Na8  1  0.66599773  0.95656404  0.57761449  1
  Na  Na9  1  0.29262233  0.95657702  0.07587862  1
  Na  Na10  1  0.65822516  0.69550918  0.07908989  1
  Na  Na11  1  0.04669672  0.34590512  0.07945151  1
  Na  Na12  1  0.98218133  0.68192816  0.91428002  1
  Na  Na13  1  0.70439344  0.02712566  0.91056089  1
  Na  Na14  1  0.31678801  0.29278618  0.91094387  1
  Na  Na15  1  0.98386153  0.30689592  0.41958393  1
  Na  Na16  1  0.32882110  0.02077760  0.41953263  1
  Na  Na17  1  0.69052372  0.67558293  0.41921895  1
  Na  Na18  1  0.99552036  0.99880340  0.49874208  1
  Na  Na19  1  0.00514151  0.99988144  0.99605441  1
  Na  Na20  1  0.65973612  0.32480248  0.82839010  1
  Na  Na21  1  0.66427353  0.33095146  0.33760275  1
  Na  Na22  1  0.32442727  0.65747296  0.16533608  1
  Na  Na23  1  0.33467867  0.65720889  0.66022033  1
  Y  Y24  1  0.00050227  0.99974641  0.35074025  1
  Y  Y25  1  0.99980734  0.00247621  0.84843783  1
  Y  Y26  1  0.99482111  0.00263714  0.64962957  1
  Y  Y27  1  0.00224230  0.99924647  0.14445453  1
  Y  Y28  1  0.66691991  0.33477192  0.68363611  1
  Y  Y29  1  0.66741383  0.33649787  0.18250166  1
  Y  Y30  1  0.33231875  0.66501752  0.01512252  1
  Y  Y31  1  0.33375656  0.66439663  0.51421230  1
  Y  Y32  1  0.33305513  0.66527250  0.32192580  1
  Ta  Ta33  1  0.66494579  0.33732695  0.97853399  1
  Ta  Ta34  1  0.67201985  0.33845407  0.48309748  1
  Ta  Ta35  1  0.33575590  0.66516715  0.81922231  1
  Si  Si36  1  0.30373821  0.31118579  0.75280028  1
  Si  Si37  1  0.68605199  0.99102502  0.75287431  1
  Si  Si38  1  0.96404425  0.33223774  0.58516178  1
  Si  Si39  1  0.66965398  0.63314161  0.58485501  1
  Si  Si40  1  0.96051827  0.62924720  0.08204262  1
  Si  Si41  1  0.37002252  0.33123446  0.08232571  1
  Si  Si42  1  0.63033886  0.66070174  0.91965507  1
  Si  Si43  1  0.02972757  0.37064734  0.91879771  1
  Si  Si44  1  0.33972271  0.96852859  0.91961091  1
  Si  Si45  1  0.63820540  0.97883502  0.41772629  1
  Si  Si46  1  0.34056536  0.36084124  0.41744219  1
  Si  Si47  1  0.02263298  0.66108770  0.41790943  1
  P  P48  1  0.30143972  0.99401415  0.24848971  1
  P  P49  1  0.69401942  0.69933362  0.24827780  1
  P  P50  1  0.00357824  0.30401297  0.24845419  1
  P  P51  1  0.01228883  0.69939563  0.75272752  1
  P  P52  1  0.37225276  0.04182880  0.58245913  1
  P  P53  1  0.67035410  0.04627779  0.08008870  1
  O  O54  1  0.21374488  0.00896457  0.30335835  1
  O  O55  1  0.79537342  0.78931715  0.30313459  1
  O  O56  1  0.99363231  0.20345684  0.30317279  1
  O  O57  1  0.22261439  0.19690721  0.80981260  1
  O  O58  1  0.98573326  0.77869991  0.80730717  1
  O  O59  1  0.79745172  0.01904218  0.81039096  1
  O  O60  1  0.76690595  0.95210839  0.69546570  1
  O  O61  1  0.18696123  0.22921851  0.69485073  1
  O  O62  1  0.04114895  0.80753877  0.69793054  1
  O  O63  1  0.78228601  0.79875870  0.19256057  1
  O  O64  1  0.01402642  0.21547646  0.19249304  1
  O  O65  1  0.20056668  0.98323194  0.19296810  1
  O  O66  1  0.88267515  0.34496548  0.64588509  1
  O  O67  1  0.46479435  0.11907257  0.63982457  1
  O  O68  1  0.65079289  0.53606487  0.64527233  1
  O  O69  1  0.88079916  0.52843814  0.14180131  1
  O  O70  1  0.65401278  0.12428561  0.13698288  1
  O  O71  1  0.46730747  0.34427912  0.14231609  1
  O  O72  1  0.48481857  0.32036788  0.02582872  1
  O  O73  1  0.83659528  0.51224832  0.02537134  1
  O  O74  1  0.67857524  0.15775551  0.02640273  1
  O  O75  1  0.47703887  0.15261294  0.52949101  1
  O  O76  1  0.67097480  0.51223377  0.52960183  1
  O  O77  1  0.83940637  0.32528767  0.52979077  1
  O  O78  1  0.56221114  0.69570171  0.97910030  1
  O  O79  1  0.13397589  0.44329279  0.97811300  1
  O  O80  1  0.30881163  0.86642148  0.97911200  1
  O  O81  1  0.55700847  0.85852029  0.47347691  1
  O  O82  1  0.30147081  0.44326759  0.47308787  1
  O  O83  1  0.14072364  0.69892262  0.47429063  1
  O  O84  1  0.09816438  0.61998087  0.35979042  1
  O  O85  1  0.52274533  0.90110766  0.35916242  1
  O  O86  1  0.38054614  0.47701362  0.35922265  1
  O  O87  1  0.13832630  0.50218582  0.86427420  1
  O  O88  1  0.35946841  0.85830202  0.86473841  1
  O  O89  1  0.49640934  0.63776895  0.86545304  1
  O  O90  1  0.98459237  0.81100598  0.41218460  1
  O  O91  1  0.82576675  0.01414270  0.41199452  1
  O  O92  1  0.18714694  0.17419682  0.41218409  1
  O  O93  1  0.99983793  0.18614058  0.91139103  1
  O  O94  1  0.18553450  0.99876245  0.91163337  1
  O  O95  1  0.81625198  0.80732363  0.90966956  1
  O  O96  1  0.97081659  0.16181024  0.58023836  1
  O  O97  1  0.20438790  0.03513589  0.58095392  1
  O  O98  1  0.84483884  0.80533636  0.58054167  1
  O  O99  1  0.95860940  0.80246370  0.07811261  1
  O  O100  1  0.83275693  0.04108325  0.07869441  1
  O  O101  1  0.19196706  0.16157573  0.07777470  1
  O  O102  1  0.65490945  0.14662583  0.74873379  1
  O  O103  1  0.49215795  0.34671861  0.74948711  1
  O  O104  1  0.86429628  0.52338976  0.74813953  1
  O  O105  1  0.67610915  0.52515382  0.24937251  1
  O  O106  1  0.84669389  0.32078191  0.24964619  1
  O  O107  1  0.47735715  0.14731123  0.24868929  1
  O  O108  1  0.62979866  0.48154600  0.92203822  1
  O  O109  1  0.84857892  0.36448475  0.92152170  1
  O  O110  1  0.51673154  0.14805642  0.92214321  1
  O  O111  1  0.65008481  0.16056803  0.42779430  1
  O  O112  1  0.50816214  0.34504529  0.42751353  1
  O  O113  1  0.83878516  0.49114378  0.42758012  1
  O  O114  1  0.35311996  0.49535628  0.08038438  1
  O  O115  1  0.14574127  0.65670890  0.07963742  1
  O  O116  1  0.52049350  0.87282768  0.07715753  1
  O  O117  1  0.35076134  0.86846688  0.57849613  1
  O  O118  1  0.51047045  0.65869409  0.58050105  1
  O  O119  1  0.14517826  0.49646726  0.58097217  1
  O  O120  1  0.31331319  0.83496456  0.24987727  1
  O  O121  1  0.52130316  0.68387934  0.24964758  1
  O  O122  1  0.16084185  0.47654435  0.24970321  1
  O  O123  1  0.30964283  0.49226967  0.76222502  1
  O  O124  1  0.17366104  0.68870366  0.76044223  1
  O  O125  1  0.50204183  0.81995232  0.76220090  1
