# generated using pymatgen
data_Na2Zr2Si3Sn2(SO8)3
_symmetry_space_group_name_H-M   'P 1'
_cell_length_a   8.93838285
_cell_length_b   8.92916824
_cell_length_c   23.31443392
_cell_angle_alpha   90.24088665
_cell_angle_beta   90.28860382
_cell_angle_gamma   119.98638426
_symmetry_Int_Tables_number   1
_chemical_formula_structural   Na2Zr2Si3Sn2(SO8)3
_chemical_formula_sum   'Na6 Zr6 Si9 Sn6 S9 O72'
_cell_volume   1611.63409458
_cell_formula_units_Z   3
loop_
 _symmetry_equiv_pos_site_id
 _symmetry_equiv_pos_as_xyz
  1  'x, y, z'
loop_
 _atom_site_type_symbol
 _atom_site_label
 _atom_site_symmetry_multiplicity
 _atom_site_fract_x
 _atom_site_fract_y
 _atom_site_fract_z
 _atom_site_occupancy
  Na  Na0  1  0.97274145  0.96845725  0.49288123  1
  Na  Na1  1  0.00730231  0.97456725  0.00054290  1
  Na  Na2  1  0.63993615  0.30074146  0.82728116  1
  Na  Na3  1  0.67980869  0.31338795  0.33456273  1
  Na  Na4  1  0.30031279  0.65680947  0.17598797  1
  Na  Na5  1  0.35999440  0.66047847  0.66501315  1
  Zr  Zr6  1  0.99049039  0.00403388  0.64784437  1
  Zr  Zr7  1  0.00612262  0.99428571  0.14862786  1
  Zr  Zr8  1  0.65382559  0.33225969  0.68897287  1
  Zr  Zr9  1  0.67882550  0.34680689  0.47551311  1
  Zr  Zr10  1  0.35078357  0.68205043  0.51591981  1
  Zr  Zr11  1  0.32215846  0.67625363  0.31205898  1
  Si  Si12  1  0.30054493  0.01207278  0.24967351  1
  Si  Si13  1  0.00612290  0.28702325  0.25041715  1
  Si  Si14  1  0.29089745  0.29999039  0.75293326  1
  Si  Si15  1  0.71460381  0.00559808  0.75446140  1
  Si  Si16  1  0.66436723  0.62690486  0.58399679  1
  Si  Si17  1  0.94786249  0.61601542  0.08106398  1
  Si  Si18  1  0.32916812  0.96064330  0.91643360  1
  Si  Si19  1  0.63691460  0.96224738  0.41352507  1
  Si  Si20  1  0.04592087  0.67880594  0.41650743  1
  Sn  Sn21  1  0.00820610  0.00515584  0.35275637  1
  Sn  Sn22  1  0.01585645  0.01179944  0.84959292  1
  Sn  Sn23  1  0.68480859  0.33347376  0.19090088  1
  Sn  Sn24  1  0.66005796  0.32943640  0.98026078  1
  Sn  Sn25  1  0.31472667  0.67158188  0.01956025  1
  Sn  Sn26  1  0.34831262  0.68303137  0.81157254  1
  S  S27  1  0.70850110  0.70571768  0.24902719  1
  S  S28  1  0.00221639  0.70992834  0.75165945  1
  S  S29  1  0.95917131  0.33732429  0.58399700  1
  S  S30  1  0.37299700  0.04061416  0.58351044  1
  S  S31  1  0.66189808  0.03555747  0.08043406  1
  S  S32  1  0.37519057  0.34062399  0.08005616  1
  S  S33  1  0.62175987  0.66649084  0.91936002  1
  S  S34  1  0.04162585  0.37502079  0.91699337  1
  S  S35  1  0.33150324  0.37557419  0.41610084  1
  O  O36  1  0.21370081  0.03704157  0.30681560  1
  O  O37  1  0.81353693  0.78227327  0.30127957  1
  O  O38  1  0.97036833  0.16945637  0.30686563  1
  O  O39  1  0.22532872  0.18476282  0.81166649  1
  O  O40  1  0.97099161  0.78115921  0.80571853  1
  O  O41  1  0.82061827  0.02125820  0.81449781  1
  O  O42  1  0.80408262  0.97367492  0.69861179  1
  O  O43  1  0.17581663  0.20284951  0.69657577  1
  O  O44  1  0.02525936  0.81716706  0.70137727  1
  O  O45  1  0.79286079  0.80825281  0.19659116  1
  O  O46  1  0.00701887  0.18673030  0.19117021  1
  O  O47  1  0.18103922  0.97619773  0.19145641  1
  O  O48  1  0.87135711  0.34829174  0.63604996  1
  O  O49  1  0.47793770  0.12176319  0.63679001  1
  O  O50  1  0.65167297  0.51237827  0.64090407  1
  O  O51  1  0.85358884  0.49658822  0.13659129  1
  O  O52  1  0.62812369  0.11243789  0.13155399  1
  O  O53  1  0.48069206  0.36494909  0.13137998  1
  O  O54  1  0.44718858  0.30494735  0.02684237  1
  O  O55  1  0.83869074  0.52959079  0.02120355  1
  O  O56  1  0.68076262  0.13592453  0.02707886  1
  O  O57  1  0.45794263  0.14120281  0.53243031  1
  O  O58  1  0.67816042  0.52475681  0.52806647  1
  O  O59  1  0.85384480  0.31279205  0.53186272  1
  O  O60  1  0.53599879  0.68491459  0.97168592  1
  O  O61  1  0.14783274  0.45079604  0.97064246  1
  O  O62  1  0.30080904  0.85127710  0.97548707  1
  O  O63  1  0.54849426  0.84460769  0.47166965  1
  O  O64  1  0.31626857  0.46214708  0.46848894  1
  O  O65  1  0.15811371  0.69316090  0.47397505  1
  O  O66  1  0.12731006  0.64345575  0.35909848  1
  O  O67  1  0.51813952  0.86111365  0.35820584  1
  O  O68  1  0.35270640  0.47564493  0.36421575  1
  O  O69  1  0.12519446  0.47988677  0.86634062  1
  O  O70  1  0.36154956  0.87183539  0.86043085  1
  O  O71  1  0.51544653  0.63653968  0.86691398  1
  O  O72  1  0.03615625  0.85507755  0.41142665  1
  O  O73  1  0.83002845  0.98809154  0.41025190  1
  O  O74  1  0.17373298  0.20373627  0.41490694  1
  O  O75  1  0.01836318  0.19799273  0.91414075  1
  O  O76  1  0.15217044  0.97534524  0.91153601  1
  O  O77  1  0.79502000  0.82237770  0.91541953  1
  O  O78  1  0.97844398  0.18008235  0.58706289  1
  O  O79  1  0.20152226  0.02530328  0.58948323  1
  O  O80  1  0.83987974  0.81777364  0.58901995  1
  O  O81  1  0.97120246  0.80892011  0.08442835  1
  O  O82  1  0.81705377  0.02094190  0.08520270  1
  O  O83  1  0.19761011  0.19132415  0.08440026  1
  O  O84  1  0.70077204  0.17917693  0.74739374  1
  O  O85  1  0.48750784  0.33171122  0.74654495  1
  O  O86  1  0.85171182  0.53477406  0.74530990  1
  O  O87  1  0.69061236  0.53116439  0.24297493  1
  O  O88  1  0.83726495  0.31682835  0.24831863  1
  O  O89  1  0.48473172  0.19219912  0.23982633  1
  O  O90  1  0.64039527  0.50890535  0.92306012  1
  O  O91  1  0.86834402  0.36106791  0.92223812  1
  O  O92  1  0.50489331  0.15647603  0.92251344  1
  O  O93  1  0.64211090  0.14633144  0.42295286  1
  O  O94  1  0.48398893  0.35197946  0.42160234  1
  O  O95  1  0.85041313  0.50985569  0.42105071  1
  O  O96  1  0.36830550  0.50423302  0.07214720  1
  O  O97  1  0.14008326  0.62806045  0.07913801  1
  O  O98  1  0.50761587  0.85627787  0.07511356  1
  O  O99  1  0.35295515  0.86515750  0.58100041  1
  O  O100  1  0.49056814  0.64412453  0.58111439  1
  O  O101  1  0.13034877  0.49301780  0.58020220  1
  O  O102  1  0.32811161  0.84489717  0.25230732  1
  O  O103  1  0.53735708  0.68811549  0.25227369  1
  O  O104  1  0.18363215  0.47288973  0.25295781  1
  O  O105  1  0.29230974  0.48411898  0.76018370  1
  O  O106  1  0.15994402  0.69574275  0.75694085  1
  O  O107  1  0.52085471  0.83333834  0.75502056  1
