# generated using pymatgen
data_MgMn2(FeO2)4
_symmetry_space_group_name_H-M   'P 1'
_cell_length_a   6.10630552
_cell_length_b   6.46334334
_cell_length_c   6.09642892
_cell_angle_alpha   60.75094969
_cell_angle_beta   59.27679904
_cell_angle_gamma   61.40851514
_symmetry_Int_Tables_number   1
_chemical_formula_structural   MgMn2(FeO2)4
_chemical_formula_sum   'Mg1 Mn2 Fe4 O8'
_cell_volume   171.85496112
_cell_formula_units_Z   1
loop_
 _symmetry_equiv_pos_site_id
 _symmetry_equiv_pos_as_xyz
  1  'x, y, z'
loop_
 _atom_site_type_symbol
 _atom_site_label
 _atom_site_symmetry_multiplicity
 _atom_site_fract_x
 _atom_site_fract_y
 _atom_site_fract_z
 _atom_site_occupancy
  Mg  Mg0  1  0.10576200  0.63668700  0.12753000  1
  Mn  Mn1  1  0.12332700  0.62340100  0.62798300  1
  Mn  Mn2  1  0.64055400  0.11985000  0.62244700  1
  Fe  Fe3  1  0.99184700  0.09650300  0.92859900  1
  Fe  Fe4  1  0.29006200  0.17558500  0.27556300  1
  Fe  Fe5  1  0.62119800  0.62676800  0.12890600  1
  Fe  Fe6  1  0.62128800  0.63652900  0.62825000  1
  O  O7  1  0.36431000  0.36634500  0.38046100  1
  O  O8  1  0.40155200  0.82463500  0.39143900  1
  O  O9  1  0.37238900  0.38155100  0.88984700  1
  O  O10  1  0.89213200  0.37588700  0.38137300  1
  O  O11  1  0.37007800  0.85271500  0.87234100  1
  O  O12  1  0.82957300  0.44182300  0.86341200  1
  O  O13  1  0.86958000  0.85265800  0.37666800  1
  O  O14  1  0.88134700  0.86406400  0.88018000  1
