# generated using pymatgen
data_Rb2CrF6
_symmetry_space_group_name_H-M   'P 1'
_cell_length_a   5.88705149
_cell_length_b   6.04156283
_cell_length_c   6.04582168
_cell_angle_alpha   58.29254281
_cell_angle_beta   60.81750721
_cell_angle_gamma   60.88994799
_symmetry_Int_Tables_number   1
_chemical_formula_structural   Rb2CrF6
_chemical_formula_sum   'Rb2 Cr1 F6'
_cell_volume   151.85108310
_cell_formula_units_Z   1
loop_
 _symmetry_equiv_pos_site_id
 _symmetry_equiv_pos_as_xyz
  1  'x, y, z'
loop_
 _atom_site_type_symbol
 _atom_site_label
 _atom_site_symmetry_multiplicity
 _atom_site_fract_x
 _atom_site_fract_y
 _atom_site_fract_z
 _atom_site_occupancy
  Rb  Rb0  1  0.75000000  0.75000000  0.75000000  1
  Rb  Rb1  1  0.25000000  0.25000000  0.25000000  1
  Cr  Cr2  1  -0.00000000  -0.00000000  0.00000000  1
  F  F3  1  0.21305623  0.78694377  0.78694377  1
  F  F4  1  0.21792473  0.78207527  0.21792473  1
  F  F5  1  0.78207527  0.21792473  0.78207527  1
  F  F6  1  0.78694377  0.21305623  0.21305623  1
  F  F7  1  0.78177813  0.78177813  0.21822187  1
  F  F8  1  0.21822187  0.21822187  0.78177813  1
