# generated using pymatgen
data_Na3Ca2Sc2PS5O24
_symmetry_space_group_name_H-M   'P 1'
_cell_length_a   9.07914974
_cell_length_b   9.04115202
_cell_length_c   23.44756549
_cell_angle_alpha   90.01205617
_cell_angle_beta   89.94636647
_cell_angle_gamma   119.87126464
_symmetry_Int_Tables_number   1
_chemical_formula_structural   Na3Ca2Sc2PS5O24
_chemical_formula_sum   'Na9 Ca6 Sc6 P3 S15 O72'
_cell_volume   1669.01041403
_cell_formula_units_Z   3
loop_
 _symmetry_equiv_pos_site_id
 _symmetry_equiv_pos_as_xyz
  1  'x, y, z'
loop_
 _atom_site_type_symbol
 _atom_site_label
 _atom_site_symmetry_multiplicity
 _atom_site_fract_x
 _atom_site_fract_y
 _atom_site_fract_z
 _atom_site_occupancy
  Na  Na0  1  0.36492875  0.99562926  0.75070506  1
  Na  Na1  1  0.66464458  0.96276053  0.58793362  1
  Na  Na2  1  0.66966572  0.70298200  0.08228217  1
  Na  Na3  1  0.02558227  0.00096711  0.50034324  1
  Na  Na4  1  0.01559745  0.00353614  0.99911274  1
  Na  Na5  1  0.68028461  0.33923142  0.83409353  1
  Na  Na6  1  0.66667369  0.33334673  0.33338730  1
  Na  Na7  1  0.30662766  0.66470869  0.16725870  1
  Na  Na8  1  0.33140257  0.65766951  0.66698402  1
  Ca  Ca9  1  0.00519222  0.00068610  0.64658928  1
  Ca  Ca10  1  0.00900180  0.00294014  0.14713004  1
  Ca  Ca11  1  0.31692300  0.66593273  0.01658033  1
  Ca  Ca12  1  0.32580217  0.66596612  0.51540812  1
  Ca  Ca13  1  0.33312626  0.66715980  0.31899296  1
  Ca  Ca14  1  0.33838971  0.66505651  0.82034385  1
  Sc  Sc15  1  0.00053267  0.99964458  0.34824510  1
  Sc  Sc16  1  0.98511770  0.00006777  0.84725401  1
  Sc  Sc17  1  0.66640006  0.32867451  0.68550430  1
  Sc  Sc18  1  0.67568977  0.33789633  0.18625018  1
  Sc  Sc19  1  0.67395421  0.33692769  0.98272592  1
  Sc  Sc20  1  0.65778341  0.32855034  0.48229022  1
  P  P21  1  0.70206872  0.00415243  0.74649190  1
  P  P22  1  0.38135331  0.04623746  0.58422027  1
  P  P23  1  0.95173735  0.61764894  0.08409932  1
  S  S24  1  0.30209055  0.00798105  0.25041451  1
  S  S25  1  0.70592099  0.70087134  0.24861679  1
  S  S26  1  0.99390125  0.29266297  0.25017782  1
  S  S27  1  0.29805732  0.29299164  0.75020947  1
  S  S28  1  0.99451520  0.70189218  0.75117948  1
  S  S29  1  0.95173900  0.33592697  0.58266791  1
  S  S30  1  0.66508664  0.61898963  0.58307323  1
  S  S31  1  0.66549909  0.04524582  0.08363558  1
  S  S32  1  0.38560145  0.33482627  0.08304058  1
  S  S33  1  0.64467225  0.66770985  0.91901817  1
  S  S34  1  0.02344809  0.35511789  0.91628874  1
  S  S35  1  0.33141183  0.98046883  0.91454458  1
  S  S36  1  0.64620815  0.97632827  0.41766407  1
  S  S37  1  0.33073011  0.35573050  0.41595654  1
  S  S38  1  0.02112085  0.66670385  0.41594947  1
  O  O39  1  0.21094123  0.02529614  0.30138843  1
  O  O40  1  0.81810496  0.79481203  0.29824674  1
  O  O41  1  0.97719340  0.18544067  0.30130824  1
  O  O42  1  0.21045810  0.18080834  0.80065574  1
  O  O43  1  0.97508248  0.78980105  0.80230280  1
  O  O44  1  0.81782825  0.01977570  0.79868774  1
  O  O45  1  0.77573405  0.98388006  0.69046228  1
  O  O46  1  0.20269411  0.21630490  0.69797581  1
  O  O47  1  0.02307359  0.80530768  0.69970369  1
  O  O48  1  0.77922890  0.79390878  0.19498380  1
  O  O49  1  0.01229894  0.21426978  0.19815550  1
  O  O50  1  0.20506013  0.98740145  0.19828323  1
  O  O51  1  0.86493482  0.34789543  0.63521803  1
  O  O52  1  0.48368814  0.13849810  0.64003746  1
  O  O53  1  0.65909120  0.52313679  0.63530872  1
  O  O54  1  0.85347380  0.51306263  0.13814576  1
  O  O55  1  0.65281813  0.13202560  0.13573502  1
  O  O56  1  0.48415312  0.34426674  0.13513932  1
  O  O57  1  0.47233041  0.32121612  0.03109066  1
  O  O58  1  0.84499390  0.51978129  0.03064577  1
  O  O59  1  0.67281166  0.14197771  0.03161194  1
  O  O60  1  0.48492307  0.15473940  0.53185752  1
  O  O61  1  0.67602297  0.53124584  0.53112895  1
  O  O62  1  0.85295917  0.32836301  0.53122289  1
  O  O63  1  0.57232205  0.69515813  0.97191349  1
  O  O64  1  0.12797816  0.42972360  0.96741856  1
  O  O65  1  0.30369273  0.86997271  0.96427359  1
  O  O66  1  0.57645041  0.87640903  0.47071678  1
  O  O67  1  0.30126657  0.43033439  0.46739070  1
  O  O68  1  0.12607064  0.69918395  0.46734842  1
  O  O69  1  0.09734462  0.63526226  0.36555503  1
  O  O70  1  0.53481750  0.89544878  0.36861531  1
  O  O71  1  0.36034787  0.46192755  0.36537148  1
  O  O72  1  0.09785619  0.46081252  0.86546746  1
  O  O73  1  0.36069600  0.90815465  0.86179673  1
  O  O74  1  0.53590666  0.63958231  0.86944265  1
  O  O75  1  0.00167062  0.82166884  0.40708152  1
  O  O76  1  0.81850105  0.99560925  0.40782137  1
  O  O77  1  0.17813500  0.18093717  0.40773743  1
  O  O78  1  0.00311608  0.18077984  0.90844167  1
  O  O79  1  0.17823436  0.00056124  0.90787980  1
  O  O80  1  0.81733557  0.82147003  0.91007899  1
  O  O81  1  0.95583753  0.17330802  0.58325477  1
  O  O82  1  0.20538806  0.02782721  0.58273905  1
  O  O83  1  0.81637579  0.79337813  0.58329892  1
  O  O84  1  0.95607962  0.79095771  0.08336145  1
  O  O85  1  0.82021955  0.02834770  0.08454949  1
  O  O86  1  0.21325103  0.18660235  0.08404511  1
  O  O87  1  0.68724153  0.17191611  0.74576782  1
  O  O88  1  0.46888782  0.30120313  0.74736898  1
  O  O89  1  0.83812457  0.53156860  0.74659988  1
  O  O90  1  0.69402842  0.52848009  0.24690778  1
  O  O91  1  0.83306105  0.30317535  0.24774072  1
  O  O92  1  0.47243774  0.16750391  0.24747023  1
  O  O93  1  0.66617055  0.51406770  0.92445929  1
  O  O94  1  0.84880089  0.33241005  0.92385676  1
  O  O95  1  0.48509668  0.15274617  0.92332604  1
  O  O96  1  0.66856472  0.15191028  0.42404570  1
  O  O97  1  0.48388038  0.33423649  0.42313342  1
  O  O98  1  0.84751125  0.51560145  0.42403464  1
  O  O99  1  0.38146367  0.49784553  0.08102121  1
  O  O100  1  0.12866672  0.63731020  0.08412845  1
  O  O101  1  0.51456546  0.87027449  0.08195619  1
  O  O102  1  0.37741759  0.87277752  0.58305602  1
  O  O103  1  0.51020588  0.63614236  0.58197770  1
  O  O104  1  0.12392263  0.48444851  0.58147745  1
  O  O105  1  0.32505058  0.85812451  0.25637971  1
  O  O106  1  0.53502215  0.67868561  0.25574310  1
  O  O107  1  0.14175510  0.46565421  0.25586867  1
  O  O108  1  0.32323317  0.46537043  0.75661667  1
  O  O109  1  0.14739596  0.68327486  0.75798212  1
  O  O110  1  0.51885491  0.85348590  0.75418851  1
