# generated using pymatgen
data_Na3NbAlSi2PO12
_symmetry_space_group_name_H-M   'P 1'
_cell_length_a   15.43652169
_cell_length_b   26.58644432
_cell_length_c   8.92035977
_cell_angle_alpha   90.00000000
_cell_angle_beta   124.99387871
_cell_angle_gamma   90.00000000
_symmetry_Int_Tables_number   1
_chemical_formula_structural   Na3NbAlSi2PO12
_chemical_formula_sum   'Na36 Nb12 Al12 Si24 P12 O144'
_cell_volume   2999.08711218
_cell_formula_units_Z   12
loop_
 _symmetry_equiv_pos_site_id
 _symmetry_equiv_pos_as_xyz
  1  'x, y, z'
loop_
 _atom_site_type_symbol
 _atom_site_label
 _atom_site_symmetry_multiplicity
 _atom_site_fract_x
 _atom_site_fract_y
 _atom_site_fract_z
 _atom_site_occupancy
  Na  Na0  1  0.25713439  0.25391534  0.00607386  1
  Na  Na1  1  0.24992432  0.58695630  0.01675412  1
  Na  Na2  1  0.25102930  0.91755540  0.01825235  1
  Na  Na3  1  0.75713439  0.24608466  0.50607386  1
  Na  Na4  1  0.75102930  0.58244460  0.51825235  1
  Na  Na5  1  0.74992432  0.91304370  0.51675412  1
  Na  Na6  1  0.74992432  0.08695630  0.01675412  1
  Na  Na7  1  0.75102930  0.41755540  0.01825235  1
  Na  Na8  1  0.75713439  0.75391534  0.00607386  1
  Na  Na9  1  0.25102930  0.08244460  0.51825235  1
  Na  Na10  1  0.24992432  0.41304370  0.51675412  1
  Na  Na11  1  0.25713439  0.74608466  0.50607386  1
  Na  Na12  1  0.49717214  0.03829784  0.75234155  1
  Na  Na13  1  0.49939852  0.37230249  0.75759341  1
  Na  Na14  1  0.49708225  0.70472052  0.74707670  1
  Na  Na15  1  0.49708225  0.29527948  0.24707670  1
  Na  Na16  1  0.49939852  0.62769751  0.25759341  1
  Na  Na17  1  0.49717214  0.96170216  0.25234155  1
  Na  Na18  1  0.99708225  0.20472052  0.74707670  1
  Na  Na19  1  0.99717214  0.53829784  0.75234155  1
  Na  Na20  1  0.99939852  0.87230249  0.75759341  1
  Na  Na21  1  0.99939852  0.12769751  0.25759341  1
  Na  Na22  1  0.99717214  0.46170216  0.25234155  1
  Na  Na23  1  0.99708225  0.79527948  0.24707670  1
  Na  Na24  1  0.81239006  0.64480347  0.21242147  1
  Na  Na25  1  0.81348844  0.97911463  0.22446760  1
  Na  Na26  1  0.19699046  0.31000295  0.28451977  1
  Na  Na27  1  0.19699046  0.68999705  0.78451977  1
  Na  Na28  1  0.81348844  0.02088537  0.72446760  1
  Na  Na29  1  0.81239006  0.35519653  0.71242147  1
  Na  Na30  1  0.31239006  0.14480347  0.21242147  1
  Na  Na31  1  0.31348844  0.47911463  0.22446760  1
  Na  Na32  1  0.69699046  0.81000295  0.28451977  1
  Na  Na33  1  0.69699046  0.18999705  0.78451977  1
  Na  Na34  1  0.31348844  0.52088537  0.72446760  1
  Na  Na35  1  0.31239006  0.85519653  0.71242147  1
  Nb  Nb36  1  0.11040884  0.24727415  0.57089066  1
  Nb  Nb37  1  0.10421943  0.58261755  0.56742043  1
  Nb  Nb38  1  0.10649397  0.91763362  0.56634535  1
  Nb  Nb39  1  0.10649397  0.08236638  0.06634535  1
  Nb  Nb40  1  0.10421943  0.41738245  0.06742043  1
  Nb  Nb41  1  0.11040884  0.75272585  0.07089066  1
  Nb  Nb42  1  0.60421943  0.08261755  0.56742043  1
  Nb  Nb43  1  0.60649397  0.41763362  0.56634535  1
  Nb  Nb44  1  0.61040884  0.74727415  0.57089066  1
  Nb  Nb45  1  0.61040884  0.25272585  0.07089066  1
  Nb  Nb46  1  0.60649397  0.58236638  0.06634535  1
  Nb  Nb47  1  0.60421943  0.91738245  0.06742043  1
  Al  Al48  1  0.89673385  0.24918203  0.93937527  1
  Al  Al49  1  0.89262283  0.58153793  0.93476595  1
  Al  Al50  1  0.89278156  0.91247186  0.93613594  1
  Al  Al51  1  0.89278156  0.08752814  0.43613594  1
  Al  Al52  1  0.89262283  0.41846207  0.43476595  1
  Al  Al53  1  0.89673385  0.75081797  0.43937527  1
  Al  Al54  1  0.39262283  0.08153793  0.93476595  1
  Al  Al55  1  0.39278156  0.41247186  0.93613594  1
  Al  Al56  1  0.39673385  0.74918203  0.93937527  1
  Al  Al57  1  0.39673385  0.25081797  0.43937527  1
  Al  Al58  1  0.39278156  0.58752814  0.43613594  1
  Al  Al59  1  0.39262283  0.91846207  0.43476595  1
  Si  Si60  1  0.35618744  0.29938464  0.74820968  1
  Si  Si61  1  0.35651907  0.63342911  0.75118708  1
  Si  Si62  1  0.35505247  0.96774930  0.74647336  1
  Si  Si63  1  0.64452024  0.29610424  0.73515574  1
  Si  Si64  1  0.64572500  0.62663321  0.73671089  1
  Si  Si65  1  0.64578730  0.96018137  0.73814521  1
  Si  Si66  1  0.64578730  0.03981863  0.23814521  1
  Si  Si67  1  0.64572500  0.37336679  0.23671089  1
  Si  Si68  1  0.64452024  0.70389576  0.23515574  1
  Si  Si69  1  0.35505247  0.03225070  0.24647336  1
  Si  Si70  1  0.35651907  0.36657089  0.25118708  1
  Si  Si71  1  0.35618744  0.70061536  0.24820968  1
  Si  Si72  1  0.85651907  0.13342911  0.75118708  1
  Si  Si73  1  0.85505247  0.46774930  0.74647336  1
  Si  Si74  1  0.85618744  0.79938464  0.74820968  1
  Si  Si75  1  0.14572500  0.12663321  0.73671089  1
  Si  Si76  1  0.14578730  0.46018137  0.73814521  1
  Si  Si77  1  0.14452024  0.79610424  0.73515574  1
  Si  Si78  1  0.14452024  0.20389576  0.23515574  1
  Si  Si79  1  0.14578730  0.53981863  0.23814521  1
  Si  Si80  1  0.14572500  0.87336679  0.23671089  1
  Si  Si81  1  0.85618744  0.20061536  0.24820968  1
  Si  Si82  1  0.85505247  0.53225070  0.24647336  1
  Si  Si83  1  0.85651907  0.86657089  0.25118708  1
  P  P84  1  0.99829077  0.32086952  0.74490408  1
  P  P85  1  0.99022585  0.65582882  0.74114741  1
  P  P86  1  0.99471722  0.98774856  0.73749555  1
  P  P87  1  0.99471722  0.01225144  0.23749555  1
  P  P88  1  0.99022585  0.34417118  0.24114741  1
  P  P89  1  0.99829077  0.67913048  0.24490408  1
  P  P90  1  0.49022585  0.15582882  0.74114741  1
  P  P91  1  0.49471722  0.48774856  0.73749555  1
  P  P92  1  0.49829077  0.82086952  0.74490408  1
  P  P93  1  0.49829077  0.17913048  0.24490408  1
  P  P94  1  0.49471722  0.51225144  0.23749555  1
  P  P95  1  0.49022585  0.84417118  0.24114741  1
  O  O96  1  0.14920421  0.19004768  0.74129726  1
  O  O97  1  0.15116829  0.52424932  0.74256189  1
  O  O98  1  0.15029032  0.85859650  0.73883746  1
  O  O99  1  0.85177622  0.19432519  0.76442248  1
  O  O100  1  0.85516933  0.52765169  0.76573674  1
  O  O101  1  0.85291467  0.86034121  0.76277837  1
  O  O102  1  0.85291467  0.13965879  0.26277837  1
  O  O103  1  0.85516933  0.47234831  0.26573674  1
  O  O104  1  0.85177622  0.80567481  0.26442248  1
  O  O105  1  0.15029032  0.14140350  0.23883746  1
  O  O106  1  0.15116829  0.47575068  0.24256189  1
  O  O107  1  0.14920421  0.80995232  0.24129726  1
  O  O108  1  0.65116829  0.02424932  0.74256189  1
  O  O109  1  0.65029032  0.35859650  0.73883746  1
  O  O110  1  0.64920421  0.69004768  0.74129726  1
  O  O111  1  0.35516933  0.02765169  0.76573674  1
  O  O112  1  0.35291467  0.36034121  0.76277837  1
  O  O113  1  0.35177622  0.69432519  0.76442248  1
  O  O114  1  0.35177622  0.30567481  0.26442248  1
  O  O115  1  0.35291467  0.63965879  0.26277837  1
  O  O116  1  0.35516933  0.97234831  0.26573674  1
  O  O117  1  0.64920421  0.30995232  0.24129726  1
  O  O118  1  0.65029032  0.64140350  0.23883746  1
  O  O119  1  0.65116829  0.97575068  0.24256189  1
  O  O120  1  0.43026879  0.18711615  0.56575883  1
  O  O121  1  0.43207568  0.52075644  0.56732533  1
  O  O122  1  0.43662057  0.85613592  0.58304425  1
  O  O123  1  0.56022808  0.18964054  0.91216900  1
  O  O124  1  0.55750761  0.52143506  0.91296586  1
  O  O125  1  0.56617560  0.85232011  0.92806198  1
  O  O126  1  0.56617560  0.14767989  0.42806198  1
  O  O127  1  0.55750761  0.47856494  0.41296586  1
  O  O128  1  0.56022808  0.81035946  0.41216900  1
  O  O129  1  0.43662057  0.14386408  0.08304425  1
  O  O130  1  0.43207568  0.47924356  0.06732533  1
  O  O131  1  0.43026879  0.81288385  0.06575883  1
  O  O132  1  0.93207568  0.02075644  0.56732533  1
  O  O133  1  0.93662057  0.35613592  0.58304425  1
  O  O134  1  0.93026879  0.68711615  0.56575883  1
  O  O135  1  0.05750761  0.02143506  0.91296586  1
  O  O136  1  0.06617560  0.35232011  0.92806198  1
  O  O137  1  0.06022808  0.68964054  0.91216900  1
  O  O138  1  0.06022808  0.31035946  0.41216900  1
  O  O139  1  0.06617560  0.64767989  0.42806198  1
  O  O140  1  0.05750761  0.97856494  0.41296586  1
  O  O141  1  0.93026879  0.31288385  0.06575883  1
  O  O142  1  0.93662057  0.64386408  0.08304425  1
  O  O143  1  0.93207568  0.97924356  0.06732533  1
  O  O144  1  0.25395873  0.27476694  0.73591054  1
  O  O145  1  0.25494473  0.60915925  0.74546729  1
  O  O146  1  0.25614211  0.93997476  0.73783844  1
  O  O147  1  0.75018135  0.27414711  0.76057106  1
  O  O148  1  0.75244366  0.60550169  0.77219397  1
  O  O149  1  0.75460303  0.94245254  0.76837548  1
  O  O150  1  0.75460303  0.05754746  0.26837548  1
  O  O151  1  0.75244366  0.39449831  0.27219397  1
  O  O152  1  0.75018135  0.72585289  0.26057106  1
  O  O153  1  0.25614211  0.06002524  0.23783844  1
  O  O154  1  0.25494473  0.39084075  0.24546729  1
  O  O155  1  0.25395873  0.72523306  0.23591054  1
  O  O156  1  0.75494473  0.10915925  0.74546729  1
  O  O157  1  0.75614211  0.43997476  0.73783844  1
  O  O158  1  0.75395873  0.77476694  0.73591054  1
  O  O159  1  0.25244366  0.10550169  0.77219397  1
  O  O160  1  0.25460303  0.44245254  0.76837548  1
  O  O161  1  0.25018135  0.77414711  0.76057106  1
  O  O162  1  0.25018135  0.22585289  0.26057106  1
  O  O163  1  0.25460303  0.55754746  0.26837548  1
  O  O164  1  0.25244366  0.89449831  0.27219397  1
  O  O165  1  0.75395873  0.22523306  0.23591054  1
  O  O166  1  0.75614211  0.56002524  0.23783844  1
  O  O167  1  0.75494473  0.89084075  0.24546729  1
  O  O168  1  0.35735904  0.28558666  0.57229249  1
  O  O169  1  0.36053852  0.61675293  0.58337085  1
  O  O170  1  0.36549746  0.95087183  0.58566713  1
  O  O171  1  0.64148459  0.28402911  0.91541288  1
  O  O172  1  0.64053190  0.61696281  0.91879240  1
  O  O173  1  0.64419319  0.94956349  0.92282459  1
  O  O174  1  0.64419319  0.05043651  0.42282459  1
  O  O175  1  0.64053190  0.38303719  0.41879240  1
  O  O176  1  0.64148459  0.71597089  0.41541288  1
  O  O177  1  0.36549746  0.04912817  0.08566713  1
  O  O178  1  0.36053852  0.38324707  0.08337085  1
  O  O179  1  0.35735904  0.71441334  0.07229249  1
  O  O180  1  0.86053852  0.11675293  0.58337085  1
  O  O181  1  0.86549746  0.45087183  0.58566713  1
  O  O182  1  0.85735904  0.78558666  0.57229249  1
  O  O183  1  0.14053190  0.11696281  0.91879240  1
  O  O184  1  0.14419319  0.44956349  0.92282459  1
  O  O185  1  0.14148459  0.78402911  0.91541288  1
  O  O186  1  0.14148459  0.21597089  0.41541288  1
  O  O187  1  0.14419319  0.55043651  0.42282459  1
  O  O188  1  0.14053190  0.88303719  0.41879240  1
  O  O189  1  0.85735904  0.21441334  0.07229249  1
  O  O190  1  0.86549746  0.54912817  0.08566713  1
  O  O191  1  0.86053852  0.88324707  0.08337085  1
  O  O192  1  0.46272520  0.27695573  0.93743665  1
  O  O193  1  0.46088244  0.60883289  0.94150146  1
  O  O194  1  0.46166810  0.94214997  0.93908584  1
  O  O195  1  0.53831037  0.27304203  0.55804267  1
  O  O196  1  0.53593451  0.60713215  0.55689459  1
  O  O197  1  0.53820341  0.94047053  0.55722855  1
  O  O198  1  0.53820341  0.05952947  0.05722855  1
  O  O199  1  0.53593451  0.39286785  0.05689459  1
  O  O200  1  0.53831037  0.72695797  0.05804267  1
  O  O201  1  0.46166810  0.05785003  0.43908584  1
  O  O202  1  0.46088244  0.39116711  0.44150146  1
  O  O203  1  0.46272520  0.72304427  0.43743665  1
  O  O204  1  0.96088244  0.10883289  0.94150146  1
  O  O205  1  0.96166810  0.44214997  0.93908584  1
  O  O206  1  0.96272520  0.77695573  0.93743665  1
  O  O207  1  0.03593451  0.10713215  0.55689459  1
  O  O208  1  0.03820341  0.44047053  0.55722855  1
  O  O209  1  0.03831037  0.77304203  0.55804267  1
  O  O210  1  0.03831037  0.22695797  0.05804267  1
  O  O211  1  0.03820341  0.55952947  0.05722855  1
  O  O212  1  0.03593451  0.89286785  0.05689459  1
  O  O213  1  0.96272520  0.22304427  0.43743665  1
  O  O214  1  0.96166810  0.55785003  0.43908584  1
  O  O215  1  0.96088244  0.89116711  0.44150146  1
  O  O216  1  0.07893545  0.28591961  0.74493168  1
  O  O217  1  0.07702908  0.62220608  0.74234670  1
  O  O218  1  0.08005254  0.95423335  0.74550684  1
  O  O219  1  0.91977937  0.28742153  0.75568482  1
  O  O220  1  0.91827004  0.62010927  0.75582517  1
  O  O221  1  0.91803608  0.95373863  0.74797501  1
  O  O222  1  0.91803608  0.04626137  0.24797501  1
  O  O223  1  0.91827004  0.37989073  0.25582517  1
  O  O224  1  0.91977937  0.71257847  0.25568482  1
  O  O225  1  0.08005254  0.04576665  0.24550684  1
  O  O226  1  0.07702908  0.37779392  0.24234670  1
  O  O227  1  0.07893545  0.71408039  0.24493168  1
  O  O228  1  0.57702908  0.12220608  0.74234670  1
  O  O229  1  0.58005254  0.45423335  0.74550684  1
  O  O230  1  0.57893545  0.78591961  0.74493168  1
  O  O231  1  0.41827004  0.12010927  0.75582517  1
  O  O232  1  0.41803608  0.45373863  0.74797501  1
  O  O233  1  0.41977937  0.78742153  0.75568482  1
  O  O234  1  0.41977937  0.21257847  0.25568482  1
  O  O235  1  0.41803608  0.54626137  0.24797501  1
  O  O236  1  0.41827004  0.87989073  0.25582517  1
  O  O237  1  0.57893545  0.21408039  0.24493168  1
  O  O238  1  0.58005254  0.54576665  0.24550684  1
  O  O239  1  0.57702908  0.87779392  0.24234670  1
