# generated using pymatgen
data_La3NbP2(SO6)4
_symmetry_space_group_name_H-M   'P 1'
_cell_length_a   9.44398065
_cell_length_b   9.44713095
_cell_length_c   24.11843868
_cell_angle_alpha   89.98879187
_cell_angle_beta   89.99566889
_cell_angle_gamma   119.94999529
_symmetry_Int_Tables_number   1
_chemical_formula_structural   La3NbP2(SO6)4
_chemical_formula_sum   'La9 Nb3 P6 S12 O72'
_cell_volume   1864.46158855
_cell_formula_units_Z   3
loop_
 _symmetry_equiv_pos_site_id
 _symmetry_equiv_pos_as_xyz
  1  'x, y, z'
loop_
 _atom_site_type_symbol
 _atom_site_label
 _atom_site_symmetry_multiplicity
 _atom_site_fract_x
 _atom_site_fract_y
 _atom_site_fract_z
 _atom_site_occupancy
  La  La0  1  0.99816057  0.99944876  0.35670673  1
  La  La1  1  0.99463570  0.00159638  0.86153519  1
  La  La2  1  0.98952956  0.99550156  0.65361524  1
  La  La3  1  0.00264781  0.01233893  0.14320846  1
  La  La4  1  0.66573288  0.32721272  0.69603159  1
  La  La5  1  0.67282580  0.33517267  0.19515381  1
  La  La6  1  0.67343190  0.33804073  0.47223198  1
  La  La7  1  0.33184152  0.66580347  0.02290304  1
  La  La8  1  0.32962978  0.67053278  0.52775045  1
  Nb  Nb9  1  0.66708861  0.33372646  0.96986569  1
  Nb  Nb10  1  0.32060814  0.65838744  0.31342528  1
  Nb  Nb11  1  0.34080913  0.67241438  0.82174570  1
  P  P12  1  0.02170287  0.30650949  0.25189197  1
  P  P13  1  0.68667048  0.97492017  0.75533245  1
  P  P14  1  0.60535819  0.63991330  0.91697808  1
  P  P15  1  0.03686694  0.39671620  0.91667554  1
  P  P16  1  0.35860723  0.96540400  0.91680475  1
  P  P17  1  0.05160210  0.65985149  0.41355210  1
  S  S18  1  0.29024416  0.97508392  0.25236731  1
  S  S19  1  0.68321108  0.71112739  0.25262047  1
  S  S20  1  0.29095063  0.32030933  0.75594639  1
  S  S21  1  0.02952538  0.70899352  0.75609946  1
  S  S22  1  0.95108351  0.32365754  0.58415686  1
  S  S23  1  0.37255937  0.05245622  0.58389832  1
  S  S24  1  0.67492746  0.62460490  0.58390428  1
  S  S25  1  0.92909221  0.61200128  0.07732384  1
  S  S26  1  0.67840411  0.06995425  0.07710329  1
  S  S27  1  0.39151110  0.32009796  0.07772813  1
  S  S28  1  0.60195183  0.94341213  0.41139008  1
  S  S29  1  0.34232213  0.39618790  0.41183736  1
  O  O30  1  0.21695396  0.00667202  0.30120691  1
  O  O31  1  0.79090098  0.78280167  0.30110739  1
  O  O32  1  0.99095760  0.19860163  0.30243068  1
  O  O33  1  0.21592440  0.20824372  0.80302419  1
  O  O34  1  0.99428002  0.78584867  0.80302095  1
  O  O35  1  0.80254502  0.01023819  0.80393160  1
  O  O36  1  0.75221218  0.93469473  0.70274244  1
  O  O37  1  0.19124372  0.25591338  0.70520000  1
  O  O38  1  0.06515076  0.80890717  0.70524513  1
  O  O39  1  0.75438574  0.81385524  0.20273719  1
  O  O40  1  0.05729559  0.23365595  0.19999310  1
  O  O41  1  0.18688135  0.94109640  0.20274558  1
  O  O42  1  0.86947926  0.34291181  0.63362702  1
  O  O43  1  0.47408120  0.13565050  0.63324446  1
  O  O44  1  0.65798484  0.52520040  0.63351256  1
  O  O45  1  0.85418781  0.51574971  0.12812791  1
  O  O46  1  0.65857929  0.14396982  0.12824819  1
  O  O47  1  0.48543672  0.33859021  0.12868486  1
  O  O48  1  0.48023891  0.30601158  0.02766651  1
  O  O49  1  0.82523579  0.52170152  0.02737523  1
  O  O50  1  0.69354848  0.17424338  0.02742043  1
  O  O51  1  0.45270617  0.14600446  0.53267524  1
  O  O52  1  0.68960885  0.54386285  0.53283081  1
  O  O53  1  0.85573474  0.30812593  0.53317507  1
  O  O54  1  0.53942575  0.67269365  0.96948933  1
  O  O55  1  0.13169673  0.46157637  0.97011761  1
  O  O56  1  0.32678127  0.86778216  0.96951550  1
  O  O57  1  0.53237101  0.85167523  0.46304591  1
  O  O58  1  0.32242440  0.46906475  0.46272162  1
  O  O59  1  0.15260789  0.68253117  0.46532914  1
  O  O60  1  0.15633448  0.64729729  0.36143016  1
  O  O61  1  0.49783936  0.84678185  0.36249873  1
  O  O62  1  0.35379721  0.50239981  0.36225428  1
  O  O63  1  0.13055031  0.51899409  0.86814949  1
  O  O64  1  0.38840934  0.86904205  0.86814222  1
  O  O65  1  0.48142290  0.61087427  0.86792219  1
  O  O66  1  0.03474084  0.80889824  0.40193132  1
  O  O67  1  0.76686674  0.96581005  0.40437401  1
  O  O68  1  0.19871152  0.23359880  0.40398783  1
  O  O69  1  0.99733934  0.22450181  0.90339075  1
  O  O70  1  0.22757791  0.00461509  0.90076486  1
  O  O71  1  0.77709865  0.77043586  0.90234458  1
  O  O72  1  0.96731859  0.17630481  0.58971142  1
  O  O73  1  0.20872524  0.03449639  0.59028526  1
  O  O74  1  0.82347618  0.78806050  0.58901491  1
  O  O75  1  0.93809533  0.77264057  0.08170182  1
  O  O76  1  0.83068882  0.06053239  0.08081102  1
  O  O77  1  0.22974682  0.16776390  0.08136089  1
  O  O78  1  0.64707994  0.11151096  0.74547982  1
  O  O79  1  0.45936094  0.35355414  0.74709131  1
  O  O80  1  0.89395201  0.54138279  0.74722105  1
  O  O81  1  0.65225831  0.54341190  0.24406863  1
  O  O82  1  0.88495836  0.34538453  0.24260133  1
  O  O83  1  0.45714913  0.11137657  0.24425227  1
  O  O84  1  0.61184400  0.47365244  0.92710055  1
  O  O85  1  0.86048252  0.38583882  0.92742240  1
  O  O86  1  0.52480422  0.13868146  0.92726645  1
  O  O87  1  0.60725333  0.10160487  0.41189661  1
  O  O88  1  0.49395568  0.38906300  0.41133801  1
  O  O89  1  0.88896902  0.50012828  0.41324060  1
  O  O90  1  0.36974167  0.46306368  0.07201730  1
  O  O91  1  0.09329806  0.63230929  0.07142494  1
  O  O92  1  0.53563005  0.90594746  0.07113402  1
  O  O93  1  0.35717828  0.88809218  0.58047243  1
  O  O94  1  0.52850109  0.64302285  0.57904516  1
  O  O95  1  0.11579904  0.46999458  0.57988011  1
  O  O96  1  0.30593445  0.82447644  0.26358542  1
  O  O97  1  0.52014099  0.69838842  0.26472007  1
  O  O98  1  0.18102515  0.48108577  0.26546771  1
  O  O99  1  0.30037808  0.48200839  0.77010906  1
  O  O100  1  0.18173357  0.69893807  0.77014663  1
  O  O101  1  0.51543985  0.81478382  0.77296596  1
