# generated using pymatgen
data_Na2Sc4SiS5O24
_symmetry_space_group_name_H-M   'P 1'
_cell_length_a   8.88126690
_cell_length_b   8.86891229
_cell_length_c   23.20349973
_cell_angle_alpha   89.92457608
_cell_angle_beta   90.00959075
_cell_angle_gamma   119.94801610
_symmetry_Int_Tables_number   1
_chemical_formula_structural   Na2Sc4SiS5O24
_chemical_formula_sum   'Na6 Sc12 Si3 S15 O72'
_cell_volume   1583.63910466
_cell_formula_units_Z   3
loop_
 _symmetry_equiv_pos_site_id
 _symmetry_equiv_pos_as_xyz
  1  'x, y, z'
loop_
 _atom_site_type_symbol
 _atom_site_label
 _atom_site_symmetry_multiplicity
 _atom_site_fract_x
 _atom_site_fract_y
 _atom_site_fract_z
 _atom_site_occupancy
  Na  Na0  1  0.99420229  0.99292100  0.50401751  1
  Na  Na1  1  0.99993559  0.99993788  0.99888771  1
  Na  Na2  1  0.66765658  0.32646450  0.82649578  1
  Na  Na3  1  0.66065462  0.32810672  0.33476555  1
  Na  Na4  1  0.33218238  0.67224355  0.17067902  1
  Na  Na5  1  0.34495080  0.67052140  0.66523047  1
  Sc  Sc6  1  0.01394805  0.00367886  0.35211525  1
  Sc  Sc7  1  0.99246523  0.00342947  0.84596755  1
  Sc  Sc8  1  0.97738499  0.98629823  0.64635464  1
  Sc  Sc9  1  0.00829219  0.99660970  0.15204864  1
  Sc  Sc10  1  0.66367094  0.33277145  0.68435666  1
  Sc  Sc11  1  0.65765591  0.32476572  0.18986106  1
  Sc  Sc12  1  0.66743195  0.33314059  0.98054164  1
  Sc  Sc13  1  0.66876966  0.34477246  0.48532776  1
  Sc  Sc14  1  0.33267961  0.66688940  0.01725253  1
  Sc  Sc15  1  0.34343523  0.66653547  0.52288546  1
  Sc  Sc16  1  0.33286906  0.67746406  0.31461127  1
  Sc  Sc17  1  0.34213851  0.67428490  0.80831681  1
  Si  Si18  1  0.29195567  0.99735876  0.25047502  1
  Si  Si19  1  0.70816766  0.00724870  0.74944940  1
  Si  Si20  1  0.66830462  0.62531016  0.58443053  1
  S  S21  1  0.70897640  0.70956943  0.25013231  1
  S  S22  1  0.00141026  0.29123255  0.25001730  1
  S  S23  1  0.29077048  0.28975661  0.74986060  1
  S  S24  1  0.99886801  0.70833868  0.75029758  1
  S  S25  1  0.95828653  0.33418370  0.58292863  1
  S  S26  1  0.37450440  0.04274245  0.58304541  1
  S  S27  1  0.95710135  0.62386103  0.08297080  1
  S  S28  1  0.66711558  0.04186000  0.08289586  1
  S  S29  1  0.37549213  0.33390710  0.08278783  1
  S  S30  1  0.62520083  0.66679935  0.91729021  1
  S  S31  1  0.04274603  0.37523031  0.91718291  1
  S  S32  1  0.33245133  0.95807842  0.91718374  1
  S  S33  1  0.62602679  0.95945053  0.41650654  1
  S  S34  1  0.33354847  0.37649361  0.41617728  1
  S  S35  1  0.04135046  0.66493301  0.41689141  1
  O  O36  1  0.20168049  0.03073445  0.30594492  1
  O  O37  1  0.81543059  0.78948718  0.30162482  1
  O  O38  1  0.96917269  0.18269546  0.30164060  1
  O  O39  1  0.21191671  0.18396286  0.80303853  1
  O  O40  1  0.97557235  0.78977112  0.80308053  1
  O  O41  1  0.82399255  0.02968763  0.80773107  1
  O  O42  1  0.79622982  0.96898894  0.69477025  1
  O  O43  1  0.18569176  0.21143399  0.69851488  1
  O  O44  1  0.03255990  0.81695586  0.69896627  1
  O  O45  1  0.78634173  0.81653792  0.19751534  1
  O  O46  1  0.02531387  0.21031361  0.19749523  1
  O  O47  1  0.17390683  0.96927093  0.19302854  1
  O  O48  1  0.87939931  0.36058945  0.63471808  1
  O  O49  1  0.48268944  0.11795416  0.63477614  1
  O  O50  1  0.63588935  0.50383046  0.64030531  1
  O  O51  1  0.87855824  0.51773835  0.13462041  1
  O  O52  1  0.63921036  0.12174364  0.13441804  1
  O  O53  1  0.48293826  0.36206141  0.13433186  1
  O  O54  1  0.45814455  0.30817425  0.03093030  1
  O  O55  1  0.84978750  0.54045572  0.03080011  1
  O  O56  1  0.69118393  0.15005161  0.03086588  1
  O  O57  1  0.45697869  0.14788952  0.53067572  1
  O  O58  1  0.69498154  0.53552139  0.52645354  1
  O  O59  1  0.85041464  0.30410452  0.53075730  1
  O  O60  1  0.54139413  0.69127825  0.96957422  1
  O  O61  1  0.15007944  0.45990091  0.96972185  1
  O  O62  1  0.30942429  0.85009237  0.96966170  1
  O  O63  1  0.54386704  0.85103609  0.46783655  1
  O  O64  1  0.30661761  0.45657410  0.46779595  1
  O  O65  1  0.14851245  0.69276999  0.46810504  1
  O  O66  1  0.12345601  0.64101668  0.36441699  1
  O  O67  1  0.51796651  0.87625833  0.36431937  1
  O  O68  1  0.35836316  0.48220779  0.36396321  1
  O  O69  1  0.12057503  0.48228216  0.86595291  1
  O  O70  1  0.36138329  0.87877132  0.86609591  1
  O  O71  1  0.51692546  0.63714203  0.86621623  1
  O  O72  1  0.02038110  0.82069376  0.40967225  1
  O  O73  1  0.79939920  0.97570564  0.40888905  1
  O  O74  1  0.17421592  0.20150081  0.41050260  1
  O  O75  1  0.02569502  0.20121269  0.91327137  1
  O  O76  1  0.17803591  0.97739806  0.91230905  1
  O  O77  1  0.80010634  0.82073262  0.91252723  1
  O  O78  1  0.98235962  0.18174333  0.58879091  1
  O  O79  1  0.20305483  0.02784727  0.58972151  1
  O  O80  1  0.84185693  0.81707467  0.58702274  1
  O  O81  1  0.97393579  0.79845545  0.08765430  1
  O  O82  1  0.82214257  0.02296769  0.08874491  1
  O  O83  1  0.20019548  0.17917642  0.08841111  1
  O  O84  1  0.68609168  0.17670282  0.74475909  1
  O  O85  1  0.46569685  0.31064547  0.74585445  1
  O  O86  1  0.84358510  0.53538407  0.74506818  1
  O  O87  1  0.69441727  0.53632808  0.24227461  1
  O  O88  1  0.84693938  0.31296272  0.24224200  1
  O  O89  1  0.48387449  0.17139622  0.24221436  1
  O  O90  1  0.64226450  0.50855289  0.92564951  1
  O  O91  1  0.86686592  0.35660474  0.92572714  1
  O  O92  1  0.49075080  0.13314092  0.92559059  1
  O  O93  1  0.64307935  0.13313199  0.42211218  1
  O  O94  1  0.48738508  0.35369777  0.42181175  1
  O  O95  1  0.86723677  0.50711642  0.42123559  1
  O  O96  1  0.35763668  0.49152982  0.07525521  1
  O  O97  1  0.13325399  0.64345533  0.07519262  1
  O  O98  1  0.50919038  0.86672178  0.07531479  1
  O  O99  1  0.35407361  0.86663970  0.57559263  1
  O  O100  1  0.49464141  0.64503035  0.57580533  1
  O  O101  1  0.13096724  0.49282194  0.57544319  1
  O  O102  1  0.31296867  0.82573633  0.25644178  1
  O  O103  1  0.53313662  0.68672665  0.25637685  1
  O  O104  1  0.15826307  0.46409980  0.25644877  1
  O  O105  1  0.30586280  0.46370656  0.75828402  1
  O  O106  1  0.15416334  0.68753714  0.75840309  1
  O  O107  1  0.51712618  0.82934793  0.75848300  1
