# generated using pymatgen
data_Na7Zn2Ga2P5SO24
_symmetry_space_group_name_H-M   'P 1'
_cell_length_a   8.91297504
_cell_length_b   8.90202535
_cell_length_c   21.91349004
_cell_angle_alpha   90.57524307
_cell_angle_beta   89.73078303
_cell_angle_gamma   119.91032030
_symmetry_Int_Tables_number   1
_chemical_formula_structural   Na7Zn2Ga2P5SO24
_chemical_formula_sum   'Na21 Zn6 Ga6 P15 S3 O72'
_cell_volume   1507.03567941
_cell_formula_units_Z   3
loop_
 _symmetry_equiv_pos_site_id
 _symmetry_equiv_pos_as_xyz
  1  'x, y, z'
loop_
 _atom_site_type_symbol
 _atom_site_label
 _atom_site_symmetry_multiplicity
 _atom_site_fract_x
 _atom_site_fract_y
 _atom_site_fract_z
 _atom_site_occupancy
  Na  Na0  1  0.63665941  0.99685018  0.25124731  1
  Na  Na1  1  0.00093677  0.63004129  0.25305521  1
  Na  Na2  1  0.63178141  0.63702220  0.74896663  1
  Na  Na3  1  0.00488088  0.36912312  0.75145588  1
  Na  Na4  1  0.36562694  0.99482417  0.75151864  1
  Na  Na5  1  0.29367382  0.33225437  0.58499332  1
  Na  Na6  1  0.04064194  0.70786142  0.58274420  1
  Na  Na7  1  0.66817360  0.95963879  0.58364565  1
  Na  Na8  1  0.29425057  0.96066886  0.08127222  1
  Na  Na9  1  0.66669964  0.70560692  0.08538539  1
  Na  Na10  1  0.04074333  0.33263037  0.08377305  1
  Na  Na11  1  0.97847851  0.66851494  0.91639621  1
  Na  Na12  1  0.33009061  0.30156340  0.91878832  1
  Na  Na13  1  0.96765461  0.30733375  0.41509562  1
  Na  Na14  1  0.69813593  0.66995374  0.41801731  1
  Na  Na15  1  0.00627799  0.99599219  0.50103453  1
  Na  Na16  1  0.99693417  0.00555106  0.00054367  1
  Na  Na17  1  0.66848024  0.31937701  0.83460651  1
  Na  Na18  1  0.65758846  0.32853045  0.33338518  1
  Na  Na19  1  0.33455887  0.65122398  0.16808331  1
  Na  Na20  1  0.33405640  0.66779340  0.66666430  1
  Zn  Zn21  1  0.99923732  0.99970307  0.65177601  1
  Zn  Zn22  1  0.99498379  0.00311647  0.15079554  1
  Zn  Zn23  1  0.32381436  0.66560518  0.01445988  1
  Zn  Zn24  1  0.33501919  0.68146369  0.51386481  1
  Zn  Zn25  1  0.33233336  0.66101940  0.31980070  1
  Zn  Zn26  1  0.32622132  0.67070586  0.81989114  1
  Ga  Ga27  1  0.98660810  0.98979846  0.34750144  1
  Ga  Ga28  1  0.00510352  0.01049877  0.84598532  1
  Ga  Ga29  1  0.66727875  0.33385967  0.68291102  1
  Ga  Ga30  1  0.67098800  0.34181637  0.18184337  1
  Ga  Ga31  1  0.66688726  0.31812244  0.98497248  1
  Ga  Ga32  1  0.66953485  0.32724478  0.48524650  1
  P  P33  1  0.70177835  0.69912899  0.24829116  1
  P  P34  1  0.00033879  0.29477118  0.24963584  1
  P  P35  1  0.29879465  0.29620937  0.74903111  1
  P  P36  1  0.99609512  0.70540122  0.74934154  1
  P  P37  1  0.70784661  0.00173693  0.74890360  1
  P  P38  1  0.95797682  0.33393579  0.58364227  1
  P  P39  1  0.38045681  0.04781513  0.58366745  1
  P  P40  1  0.66471782  0.61886451  0.58261480  1
  P  P41  1  0.95462196  0.62165200  0.08253509  1
  P  P42  1  0.66550201  0.04314006  0.08526914  1
  P  P43  1  0.38189849  0.33421345  0.08255486  1
  P  P44  1  0.02988513  0.36265373  0.91662136  1
  P  P45  1  0.33434914  0.96930024  0.91649340  1
  P  P46  1  0.63149122  0.96778643  0.41599512  1
  P  P47  1  0.03362836  0.67017797  0.41630379  1
  S  S48  1  0.29346802  0.00570467  0.24954022  1
  S  S49  1  0.63412474  0.66985303  0.91680109  1
  S  S50  1  0.33259614  0.36436593  0.41715290  1
  O  O51  1  0.20764813  0.03007544  0.30412608  1
  O  O52  1  0.82166437  0.78058993  0.30610650  1
  O  O53  1  0.96864043  0.17662933  0.30690532  1
  O  O54  1  0.21770880  0.17876417  0.80623962  1
  O  O55  1  0.96289893  0.79030107  0.80710876  1
  O  O56  1  0.83085193  0.03800178  0.80412467  1
  O  O57  1  0.78068430  0.96639802  0.69024166  1
  O  O58  1  0.18556959  0.21876149  0.69212450  1
  O  O59  1  0.03007234  0.81597301  0.69231482  1
  O  O60  1  0.78363979  0.81137178  0.19173986  1
  O  O61  1  0.02747164  0.21623977  0.19135268  1
  O  O62  1  0.19054720  0.97599852  0.19347576  1
  O  O63  1  0.87311043  0.36545765  0.64112025  1
  O  O64  1  0.49204377  0.12782658  0.64238704  1
  O  O65  1  0.63578784  0.50702961  0.64058415  1
  O  O66  1  0.87468127  0.50896638  0.14044182  1
  O  O67  1  0.63308948  0.12661147  0.14337901  1
  O  O68  1  0.49952371  0.36524188  0.13853243  1
  O  O69  1  0.46476447  0.30533964  0.02392869  1
  O  O70  1  0.83765427  0.53559466  0.02569325  1
  O  O71  1  0.70072015  0.16091989  0.02967024  1
  O  O72  1  0.46803464  0.16653157  0.52856999  1
  O  O73  1  0.69308131  0.53226680  0.52506849  1
  O  O74  1  0.84512386  0.30332060  0.52599271  1
  O  O75  1  0.55587434  0.69525402  0.97257184  1
  O  O76  1  0.14614484  0.43883305  0.97373566  1
  O  O77  1  0.29776942  0.85657612  0.97361845  1
  O  O78  1  0.55948479  0.85270211  0.47294549  1
  O  O79  1  0.29859379  0.43840657  0.47336346  1
  O  O80  1  0.13809922  0.69752771  0.47498356  1
  O  O81  1  0.11062741  0.63024177  0.35963028  1
  O  O82  1  0.52519078  0.88815237  0.35800531  1
  O  O83  1  0.36696669  0.47727814  0.36397643  1
  O  O84  1  0.10693287  0.47647243  0.85953044  1
  O  O85  1  0.36619561  0.89235778  0.85840208  1
  O  O86  1  0.52548653  0.63842818  0.86185968  1
  O  O87  1  0.00997072  0.83249298  0.40861296  1
  O  O88  1  0.82004901  0.98998181  0.40965857  1
  O  O89  1  0.17376095  0.19121303  0.40861849  1
  O  O90  1  0.01643630  0.18150016  0.90847064  1
  O  O91  1  0.16528523  0.98493010  0.90975154  1
  O  O92  1  0.81149143  0.82289632  0.91080503  1
  O  O93  1  0.97339491  0.16892645  0.58662282  1
  O  O94  1  0.19865444  0.02900329  0.58663635  1
  O  O95  1  0.82913833  0.79955000  0.58562851  1
  O  O96  1  0.97313767  0.80345261  0.08698916  1
  O  O97  1  0.82926963  0.02529691  0.08762247  1
  O  O98  1  0.20138604  0.16944308  0.08646519  1
  O  O99  1  0.69245891  0.16982327  0.74519422  1
  O  O100  1  0.48069666  0.30967476  0.74443433  1
  O  O101  1  0.82847567  0.52230949  0.74508396  1
  O  O102  1  0.69348565  0.51931088  0.24363353  1
  O  O103  1  0.82708316  0.30446770  0.24630946  1
  O  O104  1  0.47041247  0.16068875  0.24621270  1
  O  O105  1  0.65193441  0.51022974  0.92127232  1
  O  O106  1  0.85088313  0.35402567  0.92456261  1
  O  O107  1  0.49317313  0.15683367  0.92338205  1
  O  O108  1  0.65756513  0.15419484  0.42367442  1
  O  O109  1  0.49152369  0.34984542  0.42324332  1
  O  O110  1  0.84620603  0.50450472  0.42231750  1
  O  O111  1  0.36426502  0.49834230  0.07903670  1
  O  O112  1  0.13573640  0.63799830  0.07914942  1
  O  O113  1  0.50158790  0.86241014  0.07980371  1
  O  O114  1  0.36428440  0.86622584  0.57985369  1
  O  O115  1  0.50018380  0.63523047  0.57887025  1
  O  O116  1  0.13862337  0.49801487  0.57954231  1
  O  O117  1  0.31269504  0.84879048  0.25506323  1
  O  O118  1  0.52562302  0.68864361  0.25672206  1
  O  O119  1  0.15393951  0.48033938  0.25637077  1
  O  O120  1  0.32167270  0.47900515  0.75730270  1
  O  O121  1  0.15587406  0.68177549  0.75523733  1
  O  O122  1  0.52609309  0.84093266  0.75654530  1
