# generated using pymatgen
data_Na5Zn3SnP3(SO8)3
_symmetry_space_group_name_H-M   'P 1'
_cell_length_a   8.93290862
_cell_length_b   8.92655472
_cell_length_c   22.32169427
_cell_angle_alpha   90.43263005
_cell_angle_beta   89.41462962
_cell_angle_gamma   119.97263707
_symmetry_Int_Tables_number   1
_chemical_formula_structural   Na5Zn3SnP3(SO8)3
_chemical_formula_sum   'Na15 Zn9 Sn3 P9 S9 O72'
_cell_volume   1541.80635650
_cell_formula_units_Z   3
loop_
 _symmetry_equiv_pos_site_id
 _symmetry_equiv_pos_as_xyz
  1  'x, y, z'
loop_
 _atom_site_type_symbol
 _atom_site_label
 _atom_site_symmetry_multiplicity
 _atom_site_fract_x
 _atom_site_fract_y
 _atom_site_fract_z
 _atom_site_occupancy
  Na  Na0  1  0.00197663  0.63446027  0.25491139  1
  Na  Na1  1  0.29824886  0.33951722  0.58830718  1
  Na  Na2  1  0.03009548  0.69540192  0.58249166  1
  Na  Na3  1  0.67168053  0.96248200  0.58088508  1
  Na  Na4  1  0.66939840  0.70180702  0.08228335  1
  Na  Na5  1  0.03596101  0.33870746  0.08556115  1
  Na  Na6  1  0.97525880  0.67808074  0.91202730  1
  Na  Na7  1  0.32523064  0.29571573  0.90784483  1
  Na  Na8  1  0.70195375  0.67791256  0.41614803  1
  Na  Na9  1  0.99847901  0.00404384  0.49549746  1
  Na  Na10  1  0.99965730  0.99464840  0.99555617  1
  Na  Na11  1  0.65937975  0.32260953  0.82354067  1
  Na  Na12  1  0.65786296  0.30814071  0.33241426  1
  Na  Na13  1  0.33616241  0.67769031  0.17128203  1
  Na  Na14  1  0.33135781  0.65403629  0.66646070  1
  Zn  Zn15  1  0.00028255  0.00345366  0.35263128  1
  Zn  Zn16  1  0.00105697  0.00906517  0.84643051  1
  Zn  Zn17  1  0.99842893  0.01071274  0.65574264  1
  Zn  Zn18  1  0.00490474  0.99145989  0.15617533  1
  Zn  Zn19  1  0.66612776  0.34515166  0.68516053  1
  Zn  Zn20  1  0.66757956  0.33170811  0.18577279  1
  Zn  Zn21  1  0.32587455  0.67175584  0.01119732  1
  Zn  Zn22  1  0.33062407  0.66713456  0.50958358  1
  Zn  Zn23  1  0.33576546  0.67719294  0.32415442  1
  Sn  Sn24  1  0.66784443  0.33136645  0.98128090  1
  Sn  Sn25  1  0.67935743  0.33356979  0.48169072  1
  Sn  Sn26  1  0.33613758  0.66415325  0.81552390  1
  P  P27  1  0.30021168  0.29656999  0.75058344  1
  P  P28  1  0.96140930  0.33346748  0.58629166  1
  P  P29  1  0.66531433  0.62791792  0.58366855  1
  P  P30  1  0.96390200  0.63040522  0.08539563  1
  P  P31  1  0.62907268  0.67039354  0.92049463  1
  P  P32  1  0.03882100  0.36986474  0.91918539  1
  P  P33  1  0.33448456  0.96059238  0.91736362  1
  P  P34  1  0.62946909  0.96354024  0.41751528  1
  P  P35  1  0.03827618  0.66985245  0.41612378  1
  S  S36  1  0.29759135  0.00263710  0.24995608  1
  S  S37  1  0.69832903  0.70203329  0.24926262  1
  S  S38  1  0.00178956  0.29416039  0.24855130  1
  S  S39  1  0.00243052  0.70520290  0.75106034  1
  S  S40  1  0.70170576  0.99955877  0.75036287  1
  S  S41  1  0.37521748  0.04147215  0.58425238  1
  S  S42  1  0.66445645  0.03827286  0.08497569  1
  S  S43  1  0.37113384  0.33049240  0.08441663  1
  S  S44  1  0.33317053  0.36874164  0.41746874  1
  O  O45  1  0.21283475  0.02543111  0.30340311  1
  O  O46  1  0.81104167  0.78612176  0.30189588  1
  O  O47  1  0.98105273  0.18608113  0.30049772  1
  O  O48  1  0.21564695  0.19697882  0.80872967  1
  O  O49  1  0.98362943  0.78712054  0.80646980  1
  O  O50  1  0.80277537  0.01503981  0.80375333  1
  O  O51  1  0.77206939  0.96803808  0.69408060  1
  O  O52  1  0.19358347  0.21842293  0.69320248  1
  O  O53  1  0.02567115  0.80675073  0.69612700  1
  O  O54  1  0.77653231  0.80377149  0.19288069  1
  O  O55  1  0.02060537  0.21621130  0.19080553  1
  O  O56  1  0.19173681  0.97217454  0.19474695  1
  O  O57  1  0.87248784  0.36514304  0.63949630  1
  O  O58  1  0.48460665  0.12165711  0.63642828  1
  O  O59  1  0.62809049  0.50510082  0.63558855  1
  O  O60  1  0.87459372  0.51148682  0.13941471  1
  O  O61  1  0.63933304  0.12255384  0.13726649  1
  O  O62  1  0.48466255  0.35479220  0.13484610  1
  O  O63  1  0.44544417  0.30160772  0.02627885  1
  O  O64  1  0.84489934  0.54672628  0.02692975  1
  O  O65  1  0.69685732  0.14770319  0.02890486  1
  O  O66  1  0.45187580  0.15253720  0.52894687  1
  O  O67  1  0.69848662  0.54839426  0.52379370  1
  O  O68  1  0.84442139  0.28985381  0.52867309  1
  O  O69  1  0.54971563  0.69067914  0.97894042  1
  O  O70  1  0.14377007  0.44460399  0.97675241  1
  O  O71  1  0.30269258  0.85238293  0.97313354  1
  O  O72  1  0.55342166  0.85732680  0.47581412  1
  O  O73  1  0.31095032  0.44336174  0.47427352  1
  O  O74  1  0.13645193  0.68670693  0.47431575  1
  O  O75  1  0.11318116  0.63588271  0.35853689  1
  O  O76  1  0.52038800  0.88062190  0.36189558  1
  O  O77  1  0.36748724  0.48192757  0.36521053  1
  O  O78  1  0.12170341  0.49659704  0.86517878  1
  O  O79  1  0.36932144  0.88028632  0.86055414  1
  O  O80  1  0.50625918  0.62738016  0.86596283  1
  O  O81  1  0.00964840  0.82637141  0.41156415  1
  O  O82  1  0.81187360  0.98379406  0.41164024  1
  O  O83  1  0.18305316  0.19474101  0.41090756  1
  O  O84  1  0.01932077  0.19127620  0.91023132  1
  O  O85  1  0.17574271  0.98414435  0.91054606  1
  O  O86  1  0.81307582  0.82088711  0.91122148  1
  O  O87  1  0.98174378  0.17017419  0.58946226  1
  O  O88  1  0.19932916  0.02190629  0.58859207  1
  O  O89  1  0.83355673  0.80693999  0.58856712  1
  O  O90  1  0.97162987  0.80736418  0.08903310  1
  O  O91  1  0.82584313  0.02676033  0.08773749  1
  O  O92  1  0.19411555  0.17878713  0.08836573  1
  O  O93  1  0.68092265  0.15213199  0.74584973  1
  O  O94  1  0.48207675  0.31907792  0.74630914  1
  O  O95  1  0.85172661  0.52930494  0.74772714  1
  O  O96  1  0.68974425  0.52959473  0.24432441  1
  O  O97  1  0.84538924  0.31658930  0.24613788  1
  O  O98  1  0.47193092  0.15833618  0.24381620  1
  O  O99  1  0.64096224  0.49636119  0.92236519  1
  O  O100  1  0.85805957  0.36150051  0.92246247  1
  O  O101  1  0.49844380  0.14866543  0.92191205  1
  O  O102  1  0.64192019  0.14612828  0.42196278  1
  O  O103  1  0.49847603  0.35729838  0.42184505  1
  O  O104  1  0.84660283  0.50438160  0.41928931  1
  O  O105  1  0.35986741  0.49083314  0.07965933  1
  O  O106  1  0.13996878  0.63965140  0.07779719  1
  O  O107  1  0.51395678  0.86244438  0.07871317  1
  O  O108  1  0.35627197  0.86689102  0.57689404  1
  O  O109  1  0.50489678  0.65020305  0.57702854  1
  O  O110  1  0.14197155  0.49736143  0.57789969  1
  O  O111  1  0.31041998  0.84167773  0.25408455  1
  O  O112  1  0.52400602  0.68055832  0.25533632  1
  O  O113  1  0.15692664  0.47168831  0.25240855  1
  O  O114  1  0.31406893  0.48366698  0.75452438  1
  O  O115  1  0.16717908  0.69255535  0.75459807  1
  O  O116  1  0.52215860  0.83670891  0.75463960  1
