# generated using pymatgen
data_Ba2GdMgSbO6
_symmetry_space_group_name_H-M   'P 1'
_cell_length_a   7.25984504
_cell_length_b   6.38229288
_cell_length_c   6.39073128
_cell_angle_alpha   119.95621409
_cell_angle_beta   90.39912018
_cell_angle_gamma   63.91946510
_symmetry_Int_Tables_number   1
_chemical_formula_structural   Ba2GdMgSbO6
_chemical_formula_sum   'Ba2 Gd1 Mg1 Sb1 O6'
_cell_volume   221.66703070
_cell_formula_units_Z   1
loop_
 _symmetry_equiv_pos_site_id
 _symmetry_equiv_pos_as_xyz
  1  'x, y, z'
loop_
 _atom_site_type_symbol
 _atom_site_label
 _atom_site_symmetry_multiplicity
 _atom_site_fract_x
 _atom_site_fract_y
 _atom_site_fract_z
 _atom_site_occupancy
  Ba  Ba0  1  0.34095673  0.43952530  0.22008453  1
  Ba  Ba1  1  0.53767072  0.63992675  0.81749272  1
  Gd  Gd2  1  0.58685860  0.94213056  0.47116737  1
  Mg  Mg3  1  0.15312436  0.22717955  0.60739392  1
  Sb  Sb4  1  0.91207225  0.05928264  0.03070098  1
  O  O5  1  0.73425110  0.03273548  0.24520625  1
  O  O6  1  0.71825054  0.04312101  0.80442433  1
  O  O7  1  0.30452426  0.97402202  0.70750015  1
  O  O8  1  0.30898076  0.97445513  0.25791266  1
  O  O9  1  0.73419222  0.47816439  0.24539349  1
  O  O10  1  0.30453546  0.42904017  0.70730661  1
