# generated using pymatgen
data_Na6ZnGe7(PO4)12
_symmetry_space_group_name_H-M   'P 1'
_cell_length_a   16.87637654
_cell_length_b   8.44128540
_cell_length_c   21.75569222
_cell_angle_alpha   90.03225124
_cell_angle_beta   89.94194374
_cell_angle_gamma   120.00128345
_symmetry_Int_Tables_number   1
_chemical_formula_structural   Na6ZnGe7(PO4)12
_chemical_formula_sum   'Na18 Zn3 Ge21 P36 O144'
_cell_volume   2684.01839614
_cell_formula_units_Z   3
loop_
 _symmetry_equiv_pos_site_id
 _symmetry_equiv_pos_as_xyz
  1  'x, y, z'
loop_
 _atom_site_type_symbol
 _atom_site_label
 _atom_site_symmetry_multiplicity
 _atom_site_fract_x
 _atom_site_fract_y
 _atom_site_fract_z
 _atom_site_occupancy
  Na  Na0  1  0.68541444  0.36552659  0.24809751  1
  Na  Na1  1  0.99708097  0.62813836  0.24796659  1
  Na  Na2  1  0.99601669  0.36483804  0.74657088  1
  Na  Na3  1  0.49610451  0.36498154  0.74649732  1
  Na  Na4  1  0.18571411  0.00526921  0.74659196  1
  Na  Na5  1  0.68576878  0.00533239  0.74671697  1
  Na  Na6  1  0.99988718  0.99983566  0.50009010  1
  Na  Na7  1  0.49993197  0.99980068  0.50003953  1
  Na  Na8  1  0.99948219  0.99904609  0.00068222  1
  Na  Na9  1  0.50052894  0.00075816  0.00067805  1
  Na  Na10  1  0.33297390  0.33975126  0.83299193  1
  Na  Na11  1  0.83289185  0.33959274  0.83344088  1
  Na  Na12  1  0.33331935  0.33409132  0.33435378  1
  Na  Na13  1  0.83298534  0.32510543  0.33342640  1
  Na  Na14  1  0.16859116  0.66560551  0.16581265  1
  Na  Na15  1  0.66767261  0.67446649  0.16527317  1
  Na  Na16  1  0.16985630  0.66583514  0.66264252  1
  Na  Na17  1  0.66984323  0.66578452  0.66267594  1
  Zn  Zn18  1  0.33293409  0.33867756  0.68111363  1
  Zn  Zn19  1  0.83294219  0.33870951  0.68115982  1
  Zn  Zn20  1  0.83301366  0.32525884  0.18326296  1
  Ge  Ge21  1  0.00142952  0.00345603  0.35499806  1
  Ge  Ge22  1  0.49816132  0.99677901  0.35441794  1
  Ge  Ge23  1  0.99962981  0.99897348  0.85501127  1
  Ge  Ge24  1  0.50006558  0.99917286  0.85499524  1
  Ge  Ge25  1  0.99911078  0.99842082  0.64321274  1
  Ge  Ge26  1  0.49917387  0.99852188  0.64322135  1
  Ge  Ge27  1  0.99849550  0.00105621  0.14544364  1
  Ge  Ge28  1  0.50071787  0.99917200  0.14615236  1
  Ge  Ge29  1  0.33336359  0.33534060  0.18600666  1
  Ge  Ge30  1  0.33348365  0.33337124  0.98075912  1
  Ge  Ge31  1  0.83337417  0.33301107  0.98242136  1
  Ge  Ge32  1  0.33340961  0.33404537  0.48172830  1
  Ge  Ge33  1  0.83342821  0.33419902  0.48160620  1
  Ge  Ge34  1  0.16657926  0.66704515  0.02044327  1
  Ge  Ge35  1  0.66743558  0.66666583  0.02015057  1
  Ge  Ge36  1  0.16694611  0.66667531  0.51921517  1
  Ge  Ge37  1  0.66687625  0.66702518  0.51924004  1
  Ge  Ge38  1  0.16980936  0.66553173  0.31476246  1
  Ge  Ge39  1  0.66592914  0.67261237  0.31569690  1
  Ge  Ge40  1  0.16862484  0.66571957  0.81584516  1
  Ge  Ge41  1  0.66891299  0.66606885  0.81598661  1
  P  P42  1  0.14537627  0.00435889  0.24997367  1
  P  P43  1  0.64147625  0.99355476  0.25159436  1
  P  P44  1  0.35673011  0.71319516  0.24970806  1
  P  P45  1  0.85601297  0.72012239  0.25177445  1
  P  P46  1  0.00160385  0.28513694  0.25158591  1
  P  P47  1  0.49747869  0.28565542  0.25027055  1
  P  P48  1  0.14343138  0.28855985  0.75145017  1
  P  P49  1  0.64353637  0.28885609  0.75140119  1
  P  P50  1  0.99857136  0.71463248  0.75160407  1
  P  P51  1  0.49862099  0.71463779  0.75160163  1
  P  P52  1  0.35656074  0.99227728  0.75132066  1
  P  P53  1  0.85651081  0.99239159  0.75122992  1
  P  P54  1  0.47996361  0.33501544  0.58292831  1
  P  P55  1  0.97996926  0.33503942  0.58294878  1
  P  P56  1  0.18767248  0.04006857  0.58303008  1
  P  P57  1  0.68771368  0.04024688  0.58304398  1
  P  P58  1  0.33236253  0.62421972  0.58237481  1
  P  P59  1  0.83230084  0.62409031  0.58231968  1
  P  P60  1  0.47702966  0.62065898  0.08323579  1
  P  P61  1  0.97991736  0.62601042  0.08326209  1
  P  P62  1  0.33355392  0.04643357  0.08351243  1
  P  P63  1  0.83272604  0.04070641  0.08241063  1
  P  P64  1  0.18967665  0.33348411  0.08322652  1
  P  P65  1  0.68714273  0.33382962  0.08334257  1
  P  P66  1  0.31082629  0.66626628  0.91782251  1
  P  P67  1  0.81125861  0.66538208  0.91745284  1
  P  P68  1  0.02185258  0.37778682  0.91734075  1
  P  P69  1  0.52210657  0.37816183  0.91725202  1
  P  P70  1  0.16703774  0.95618614  0.91719378  1
  P  P71  1  0.66710618  0.95595475  0.91749320  1
  P  P72  1  0.31054073  0.95560415  0.41672577  1
  P  P73  1  0.81109818  0.95656105  0.41729112  1
  P  P74  1  0.16745969  0.37845260  0.41724784  1
  P  P75  1  0.66672916  0.37805572  0.41651055  1
  P  P76  1  0.02234135  0.66610793  0.41653444  1
  P  P77  1  0.52180820  0.66534140  0.41724932  1
  O  O78  1  0.10453098  0.03842629  0.30814736  1
  O  O79  1  0.59825265  0.03495640  0.30826474  1
  O  O80  1  0.41519392  0.79206055  0.30787797  1
  O  O81  1  0.91904787  0.80301486  0.30843467  1
  O  O82  1  0.48022288  0.16806523  0.30796555  1
  O  O83  1  0.98509584  0.16714525  0.30923269  1
  O  O84  1  0.10015263  0.16574199  0.80897890  1
  O  O85  1  0.60022350  0.16591258  0.80896225  1
  O  O86  1  0.48435168  0.80101493  0.80979529  1
  O  O87  1  0.98457074  0.80124854  0.80975189  1
  O  O88  1  0.41780679  0.03425148  0.80895654  1
  O  O89  1  0.91779959  0.03455432  0.80880606  1
  O  O90  1  0.39737806  0.95803128  0.69310992  1
  O  O91  1  0.89741208  0.95800822  0.69305195  1
  O  O92  1  0.08092151  0.20855374  0.69415590  1
  O  O93  1  0.58088960  0.20855325  0.69415044  1
  O  O94  1  0.02264166  0.83908729  0.69414578  1
  O  O95  1  0.52258674  0.83906361  0.69418186  1
  O  O96  1  0.39681072  0.83288070  0.19176295  1
  O  O97  1  0.89682820  0.83497980  0.19289226  1
  O  O98  1  0.02133183  0.20628465  0.19288124  1
  O  O99  1  0.52073836  0.20724033  0.19275350  1
  O  O100  1  0.08274248  0.95761370  0.19275211  1
  O  O101  1  0.58228973  0.95746767  0.19287219  1
  O  O102  1  0.44695065  0.37347248  0.64286499  1
  O  O103  1  0.94695527  0.37348221  0.64287628  1
  O  O104  1  0.24022820  0.10503341  0.64285794  1
  O  O105  1  0.74027991  0.10523908  0.64285438  1
  O  O106  1  0.31181449  0.51611840  0.64080894  1
  O  O107  1  0.81179643  0.51602247  0.64074335  1
  O  O108  1  0.43655715  0.50091063  0.14111919  1
  O  O109  1  0.94656272  0.51936972  0.14233875  1
  O  O110  1  0.31428567  0.12800428  0.14129312  1
  O  O111  1  0.81129839  0.10787947  0.14065981  1
  O  O112  1  0.24954617  0.37252434  0.14107494  1
  O  O113  1  0.74066922  0.37486021  0.14240265  1
  O  O114  1  0.23019555  0.29460205  0.02518826  1
  O  O115  1  0.72867617  0.29484412  0.02521347  1
  O  O116  1  0.41699294  0.53982135  0.02528036  1
  O  O117  1  0.91912032  0.54273747  0.02515820  1
  O  O118  1  0.35261206  0.16536836  0.02526612  1
  O  O119  1  0.85259893  0.16194402  0.02410168  1
  O  O120  1  0.22949404  0.16358646  0.52559626  1
  O  O121  1  0.72941764  0.16371765  0.52556014  1
  O  O122  1  0.35260654  0.54304658  0.52420641  1
  O  O123  1  0.85259307  0.54293784  0.52410484  1
  O  O124  1  0.41824304  0.29556017  0.52555750  1
  O  O125  1  0.91829753  0.29559679  0.52555284  1
  O  O126  1  0.26923524  0.70495517  0.97468769  1
  O  O127  1  0.76965222  0.70485788  0.97364620  1
  O  O128  1  0.08383964  0.46188798  0.97354425  1
  O  O129  1  0.58293917  0.46277289  0.97347379  1
  O  O130  1  0.14859844  0.83434872  0.97348023  1
  O  O131  1  0.64732261  0.83221517  0.97354182  1
  O  O132  1  0.26983255  0.83451041  0.47350936  1
  O  O133  1  0.76952820  0.83454209  0.47376879  1
  O  O134  1  0.14765475  0.46059024  0.47387177  1
  O  O135  1  0.64782558  0.46207247  0.47298973  1
  O  O136  1  0.08319976  0.70435677  0.47304542  1
  O  O137  1  0.58274301  0.70473879  0.47378226  1
  O  O138  1  0.06235691  0.62981947  0.35674887  1
  O  O139  1  0.56201891  0.62651929  0.35867117  1
  O  O140  1  0.25113448  0.87452392  0.35819981  1
  O  O141  1  0.75168237  0.87596805  0.35868314  1
  O  O142  1  0.18637407  0.49639210  0.35863573  1
  O  O143  1  0.68501112  0.49472760  0.35671440  1
  O  O144  1  0.06172811  0.49470306  0.85753830  1
  O  O145  1  0.56136167  0.49424470  0.85742766  1
  O  O146  1  0.18567562  0.87723203  0.85735501  1
  O  O147  1  0.68531117  0.87668244  0.85741620  1
  O  O148  1  0.25150519  0.62733578  0.85923644  1
  O  O149  1  0.75174901  0.62706710  0.85877461  1
  O  O150  1  0.01316670  0.83887442  0.40919992  1
  O  O151  1  0.51257168  0.83770573  0.40969283  1
  O  O152  1  0.40612655  0.97348999  0.40922413  1
  O  O153  1  0.90630543  0.97412403  0.40997233  1
  O  O154  1  0.08116743  0.18735005  0.41017893  1
  O  O155  1  0.58026540  0.18733037  0.40909674  1
  O  O156  1  0.01291821  0.18738723  0.90988062  1
  O  O157  1  0.51252057  0.18722206  0.90997766  1
  O  O158  1  0.08104360  0.97456843  0.91015387  1
  O  O159  1  0.58065459  0.97384883  0.91023680  1
  O  O160  1  0.40600855  0.83833072  0.91049209  1
  O  O161  1  0.90635885  0.83839042  0.91002874  1
  O  O162  1  0.48893548  0.16053524  0.58826555  1
  O  O163  1  0.98896304  0.16053517  0.58829739  1
  O  O164  1  0.09161535  0.02310022  0.58848707  1
  O  O165  1  0.59160476  0.02316800  0.58851283  1
  O  O166  1  0.41984659  0.81673530  0.58794988  1
  O  O167  1  0.91980322  0.81659853  0.58789852  1
  O  O168  1  0.48603625  0.81140001  0.09032828  1
  O  O169  1  0.99012477  0.81937818  0.08845921  1
  O  O170  1  0.41920155  0.02667755  0.09085184  1
  O  O171  1  0.92023325  0.02326254  0.08775752  1
  O  O172  1  0.09459765  0.16246700  0.09053092  1
  O  O173  1  0.59045219  0.15828903  0.08843062  1
  O  O174  1  0.34449159  0.15922701  0.74801019  1
  O  O175  1  0.84447343  0.15932879  0.74790687  1
  O  O176  1  0.23657786  0.30652458  0.74789223  1
  O  O177  1  0.73657022  0.30656876  0.74783515  1
  O  O178  1  0.41800311  0.52334055  0.74824302  1
  O  O179  1  0.91805050  0.52338569  0.74822735  1
  O  O180  1  0.34636435  0.52111605  0.24231374  1
  O  O181  1  0.84470593  0.52984579  0.24801230  1
  O  O182  1  0.41280343  0.30683657  0.24248790  1
  O  O183  1  0.91985535  0.31277027  0.24805146  1
  O  O184  1  0.24071182  0.17441160  0.24240141  1
  O  O185  1  0.73450561  0.16372385  0.24801667  1
  O  O186  1  0.32036109  0.49443151  0.92435319  1
  O  O187  1  0.82075456  0.49376591  0.92415633  1
  O  O188  1  0.42658658  0.35949735  0.92364227  1
  O  O189  1  0.92689316  0.36003206  0.92365748  1
  O  O190  1  0.25323498  0.14697791  0.92367995  1
  O  O191  1  0.75290183  0.14634907  0.92378790  1
  O  O192  1  0.32071528  0.14673343  0.42374853  1
  O  O193  1  0.82066127  0.14744014  0.42419641  1
  O  O194  1  0.25306642  0.35871874  0.42389910  1
  O  O195  1  0.75272749  0.35937751  0.42331063  1
  O  O196  1  0.42650139  0.49344021  0.42371056  1
  O  O197  1  0.92693660  0.49441918  0.42336559  1
  O  O198  1  0.18036540  0.50575448  0.07582791  1
  O  O199  1  0.67561543  0.50325111  0.07350507  1
  O  O200  1  0.07622233  0.64588075  0.07369811  1
  O  O201  1  0.57222509  0.64041855  0.07581385  1
  O  O202  1  0.24794205  0.85525860  0.07607295  1
  O  O203  1  0.74716816  0.84805267  0.07323623  1
  O  O204  1  0.17639866  0.84824641  0.57335937  1
  O  O205  1  0.67643218  0.84836511  0.57352108  1
  O  O206  1  0.24770131  0.64732441  0.57310201  1
  O  O207  1  0.74760061  0.64704793  0.57302125  1
  O  O208  1  0.07573933  0.50511374  0.57353382  1
  O  O209  1  0.57576258  0.50487300  0.57347888  1
  O  O210  1  0.15327505  0.82841019  0.25697220  1
  O  O211  1  0.64897738  0.81903618  0.25793045  1
  O  O212  1  0.26099765  0.69424834  0.25684592  1
  O  O213  1  0.75856856  0.69642463  0.25774657  1
  O  O214  1  0.08907780  0.48118868  0.25731258  1
  O  O215  1  0.58571756  0.47608814  0.25720019  1
  O  O216  1  0.14910706  0.47837070  0.75814974  1
  O  O217  1  0.64902737  0.47842233  0.75813797  1
  O  O218  1  0.08837593  0.69919901  0.75767714  1
  O  O219  1  0.58832856  0.69916587  0.75768364  1
  O  O220  1  0.25923754  0.82056003  0.75775500  1
  O  O221  1  0.75920468  0.82065575  0.75763683  1
