# generated using pymatgen
data_Na2Y3Nb5Si6(SO8)6
_symmetry_space_group_name_H-M   'P 1'
_cell_length_a   18.02662995
_cell_length_b   9.02145918
_cell_length_c   23.49697738
_cell_angle_alpha   89.90133915
_cell_angle_beta   89.87304866
_cell_angle_gamma   120.15251461
_symmetry_Int_Tables_number   1
_chemical_formula_structural   Na2Y3Nb5Si6(SO8)6
_chemical_formula_sum   'Na6 Y9 Nb15 Si18 S18 O144'
_cell_volume   3304.15999143
_cell_formula_units_Z   3
loop_
 _symmetry_equiv_pos_site_id
 _symmetry_equiv_pos_as_xyz
  1  'x, y, z'
loop_
 _atom_site_type_symbol
 _atom_site_label
 _atom_site_symmetry_multiplicity
 _atom_site_fract_x
 _atom_site_fract_y
 _atom_site_fract_z
 _atom_site_occupancy
  Na  Na0  1  0.99244696  0.97131981  0.49926648  1
  Na  Na1  1  0.50176540  0.99738431  0.99879267  1
  Na  Na2  1  0.33623385  0.31383315  0.83891582  1
  Na  Na3  1  0.83370886  0.34152193  0.83709450  1
  Na  Na4  1  0.32489014  0.31382005  0.33648904  1
  Na  Na5  1  0.83620972  0.34692856  0.34441107  1
  Y  Y6  1  0.00564384  0.00085173  0.35382492  1
  Y  Y7  1  0.50229906  0.02050842  0.85294721  1
  Y  Y8  1  0.99926529  0.00488944  0.65175635  1
  Y  Y9  1  0.49284658  0.98307667  0.14749547  1
  Y  Y10  1  0.33692970  0.33450017  0.97561809  1
  Y  Y11  1  0.83757741  0.33288692  0.97587245  1
  Y  Y12  1  0.33500904  0.33793576  0.47986974  1
  Y  Y13  1  0.83088964  0.34005043  0.47896471  1
  Y  Y14  1  0.67161710  0.66649635  0.30956305  1
  Nb  Nb15  1  0.49270616  0.99114939  0.36176839  1
  Nb  Nb16  1  0.00556285  0.00900699  0.86306439  1
  Nb  Nb17  1  0.49822218  0.00444894  0.64578677  1
  Nb  Nb18  1  0.00453896  0.01798092  0.14965300  1
  Nb  Nb19  1  0.32542313  0.33650891  0.69027273  1
  Nb  Nb20  1  0.82488370  0.32627069  0.68006773  1
  Nb  Nb21  1  0.34027444  0.35345007  0.18977901  1
  Nb  Nb22  1  0.83352430  0.31869700  0.18440064  1
  Nb  Nb23  1  0.16003636  0.66468845  0.01774829  1
  Nb  Nb24  1  0.66879194  0.66541857  0.02318300  1
  Nb  Nb25  1  0.17349686  0.67827145  0.51970517  1
  Nb  Nb26  1  0.67013239  0.65608413  0.52525637  1
  Nb  Nb27  1  0.16231785  0.67881369  0.30572767  1
  Nb  Nb28  1  0.16711180  0.67347849  0.80720934  1
  Nb  Nb29  1  0.66443809  0.64476095  0.81167423  1
  Si  Si30  1  0.14814488  0.00837763  0.24686407  1
  Si  Si31  1  0.35432622  0.71127880  0.25457961  1
  Si  Si32  1  0.99831502  0.28994895  0.25313329  1
  Si  Si33  1  0.14289964  0.28882440  0.75358360  1
  Si  Si34  1  0.64633506  0.28713783  0.74861686  1
  Si  Si35  1  0.35571559  0.00597889  0.74847060  1
  Si  Si36  1  0.68237285  0.03030352  0.58168790  1
  Si  Si37  1  0.33269410  0.62534579  0.58378685  1
  Si  Si38  1  0.83800658  0.63258730  0.58140645  1
  Si  Si39  1  0.48160333  0.62598212  0.07997121  1
  Si  Si40  1  0.83536696  0.03671980  0.08164651  1
  Si  Si41  1  0.80889741  0.66840488  0.91530645  1
  Si  Si42  1  0.02626794  0.38537735  0.91265843  1
  Si  Si43  1  0.52491171  0.38025896  0.91862227  1
  Si  Si44  1  0.16633286  0.94984014  0.91282176  1
  Si  Si45  1  0.30478219  0.95202041  0.41263528  1
  Si  Si46  1  0.66475668  0.37451000  0.41476499  1
  Si  Si47  1  0.02465622  0.66530127  0.41669948  1
  S  S48  1  0.64888965  0.01407220  0.25093634  1
  S  S49  1  0.85775730  0.70438225  0.24456115  1
  S  S50  1  0.49536073  0.28493507  0.25075452  1
  S  S51  1  0.99679965  0.70076379  0.75250475  1
  S  S52  1  0.49957879  0.70624963  0.74874365  1
  S  S53  1  0.85235090  0.00520469  0.75422090  1
  S  S54  1  0.47884468  0.33336450  0.58493199  1
  S  S55  1  0.98214068  0.34200618  0.58306143  1
  S  S56  1  0.18914270  0.03900601  0.58419790  1
  S  S57  1  0.98009969  0.62868413  0.08476757  1
  S  S58  1  0.32781320  0.03522170  0.08232212  1
  S  S59  1  0.18873940  0.33797186  0.08515955  1
  S  S60  1  0.69026164  0.33956887  0.08358518  1
  S  S61  1  0.30534940  0.66914037  0.91706003  1
  S  S62  1  0.66385059  0.93985826  0.91663576  1
  S  S63  1  0.80996158  0.94758511  0.41997217  1
  S  S64  1  0.16570515  0.38759659  0.41736071  1
  S  S65  1  0.52429173  0.67366551  0.41531676  1
  O  O66  1  0.11512323  0.05610863  0.30293777  1
  O  O67  1  0.60948851  0.04204302  0.30174645  1
  O  O68  1  0.42332210  0.80864784  0.30698134  1
  O  O69  1  0.90627572  0.76719441  0.29748969  1
  O  O70  1  0.48187768  0.17526095  0.30140444  1
  O  O71  1  0.96782425  0.16453057  0.30598263  1
  O  O72  1  0.09397640  0.15535088  0.80694472  1
  O  O73  1  0.61582134  0.17969453  0.80603101  1
  O  O74  1  0.47808712  0.76714378  0.80040119  1
  O  O75  1  0.98312080  0.78248216  0.80256580  1
  O  O76  1  0.41021492  0.05117202  0.80555130  1
  O  O77  1  0.90967772  0.03152779  0.80286817  1
  O  O78  1  0.40472808  0.97772376  0.69453045  1
  O  O79  1  0.88384281  0.96624204  0.70198150  1
  O  O80  1  0.09336510  0.22375822  0.69566739  1
  O  O81  1  0.58325585  0.19122875  0.69489285  1
  O  O82  1  0.01285349  0.80234523  0.70071984  1
  O  O83  1  0.51198833  0.81408079  0.69870045  1
  O  O84  1  0.38836417  0.81473025  0.19691436  1
  O  O85  1  0.90482597  0.81753157  0.19537372  1
  O  O86  1  0.01055164  0.19019306  0.19632942  1
  O  O87  1  0.50904889  0.21429171  0.19885891  1
  O  O88  1  0.08425397  0.98034132  0.19255314  1
  O  O89  1  0.60012292  0.99145432  0.19909483  1
  O  O90  1  0.43721879  0.36000312  0.63463227  1
  O  O91  1  0.93842474  0.36230750  0.63535083  1
  O  O92  1  0.24290792  0.12610526  0.63556969  1
  O  O93  1  0.75060383  0.13268159  0.63849633  1
  O  O94  1  0.31873739  0.49426216  0.63946370  1
  O  O95  1  0.82373700  0.50091110  0.63742850  1
  O  O96  1  0.42948605  0.50029620  0.13870565  1
  O  O97  1  0.93725656  0.51148048  0.13445801  1
  O  O98  1  0.31537427  0.11540098  0.13349746  1
  O  O99  1  0.81948092  0.14042296  0.13859828  1
  O  O100  1  0.24441091  0.36447605  0.13551245  1
  O  O101  1  0.74471280  0.35906350  0.13507249  1
  O  O102  1  0.22029739  0.29778383  0.03408225  1
  O  O103  1  0.72875378  0.31227960  0.03275967  1
  O  O104  1  0.41832404  0.53663305  0.02831301  1
  O  O105  1  0.92936177  0.56054336  0.03336060  1
  O  O106  1  0.33862757  0.13553411  0.03073583  1
  O  O107  1  0.85923055  0.16656341  0.03049731  1
  O  O108  1  0.22796820  0.14137237  0.53289066  1
  O  O109  1  0.72263661  0.15181570  0.52913967  1
  O  O110  1  0.35299595  0.54833772  0.52922231  1
  O  O111  1  0.85274909  0.55457608  0.52599069  1
  O  O112  1  0.42813052  0.29739537  0.53310839  1
  O  O113  1  0.92934375  0.31012804  0.53288324  1
  O  O114  1  0.26006986  0.68302423  0.97052504  1
  O  O115  1  0.76470078  0.69651029  0.97224711  1
  O  O116  1  0.08279773  0.47728788  0.97347995  1
  O  O117  1  0.58647714  0.49301836  0.97243992  1
  O  O118  1  0.15530260  0.82952798  0.97228689  1
  O  O119  1  0.65973005  0.84621278  0.97005934  1
  O  O120  1  0.26464981  0.83937749  0.47277524  1
  O  O121  1  0.75980181  0.83848522  0.47083954  1
  O  O122  1  0.16211197  0.47586401  0.47108882  1
  O  O123  1  0.65220526  0.47478165  0.47201159  1
  O  O124  1  0.08643743  0.67696461  0.47346216  1
  O  O125  1  0.57289575  0.69277838  0.46741793  1
  O  O126  1  0.07833223  0.66073104  0.35927365  1
  O  O127  1  0.56446939  0.65682910  0.36360645  1
  O  O128  1  0.24911107  0.84890697  0.35830477  1
  O  O129  1  0.76264514  0.86999335  0.36721152  1
  O  O130  1  0.17304627  0.48452211  0.36593283  1
  O  O131  1  0.67471288  0.48710625  0.35973778  1
  O  O132  1  0.08148015  0.50638064  0.86040921  1
  O  O133  1  0.57604505  0.49211208  0.85896639  1
  O  O134  1  0.17589204  0.84911711  0.85909723  1
  O  O135  1  0.67143450  0.85517664  0.86464119  1
  O  O136  1  0.25838321  0.66166142  0.86514257  1
  O  O137  1  0.74953877  0.65402535  0.85842665  1
  O  O138  1  0.02063260  0.84056736  0.41811578  1
  O  O139  1  0.51832818  0.83596080  0.40940123  1
  O  O140  1  0.40033530  0.96227308  0.40459480  1
  O  O141  1  0.89336876  0.95428457  0.42030222  1
  O  O142  1  0.08678891  0.21770440  0.41826969  1
  O  O143  1  0.57422619  0.18529837  0.40258032  1
  O  O144  1  0.02133932  0.19774848  0.90692271  1
  O  O145  1  0.51998123  0.19698889  0.92098224  1
  O  O146  1  0.07483450  0.94845005  0.90612081  1
  O  O147  1  0.58447101  0.94885077  0.91494055  1
  O  O148  1  0.39123829  0.82087372  0.91743806  1
  O  O149  1  0.90114952  0.84298290  0.89944410  1
  O  O150  1  0.49314811  0.18520375  0.59418631  1
  O  O151  1  0.99465265  0.19380486  0.59096522  1
  O  O152  1  0.10258254  0.01247633  0.59116185  1
  O  O153  1  0.59058743  0.00579814  0.60380215  1
  O  O154  1  0.41274416  0.81266200  0.60284768  1
  O  O155  1  0.91253943  0.82445998  0.59137913  1
  O  O156  1  0.50057835  0.81895163  0.08741328  1
  O  O157  1  0.99462675  0.80046889  0.09717155  1
  O  O158  1  0.40406530  0.01581124  0.08712733  1
  O  O159  1  0.91461788  0.00843707  0.10253870  1
  O  O160  1  0.10022295  0.18699881  0.09676552  1
  O  O161  1  0.60330476  0.19549863  0.09173935  1
  O  O162  1  0.34125967  0.16801430  0.73025269  1
  O  O163  1  0.84667430  0.16466759  0.74628473  1
  O  O164  1  0.24173212  0.31092907  0.74418098  1
  O  O165  1  0.74472600  0.32000475  0.73418286  1
  O  O166  1  0.42423215  0.52502339  0.73769530  1
  O  O167  1  0.92179859  0.52482763  0.74552107  1
  O  O168  1  0.34737122  0.51625556  0.24300238  1
  O  O169  1  0.84547775  0.53003050  0.23292369  1
  O  O170  1  0.41310751  0.29433272  0.24474432  1
  O  O171  1  0.91685602  0.32134427  0.23213073  1
  O  O172  1  0.24375236  0.16875105  0.22869258  1
  O  O173  1  0.73813231  0.17764415  0.24296385  1
  O  O174  1  0.30686180  0.50884539  0.92080053  1
  O  O175  1  0.81780523  0.50136234  0.91692731  1
  O  O176  1  0.43416546  0.37300276  0.91431042  1
  O  O177  1  0.93360981  0.36460697  0.91476874  1
  O  O178  1  0.24555235  0.13740901  0.91677925  1
  O  O179  1  0.74076393  0.11306583  0.91879297  1
  O  O180  1  0.32128995  0.14298940  0.41639813  1
  O  O181  1  0.81969583  0.11693424  0.42436461  1
  O  O182  1  0.24252611  0.36758193  0.42077427  1
  O  O183  1  0.74219288  0.33802234  0.41726134  1
  O  O184  1  0.43610811  0.52618783  0.41829558  1
  O  O185  1  0.93486523  0.48965958  0.41493750  1
  O  O186  1  0.17894287  0.49122067  0.07736728  1
  O  O187  1  0.68745963  0.50132135  0.07860999  1
  O  O188  1  0.06652663  0.64017715  0.07651032  1
  O  O189  1  0.57447258  0.63262900  0.07167893  1
  O  O190  1  0.24990599  0.85847982  0.07410998  1
  O  O191  1  0.74917390  0.85301473  0.07319361  1
  O  O192  1  0.18462304  0.86964692  0.57815950  1
  O  O193  1  0.67182609  0.83996585  0.56985564  1
  O  O194  1  0.24641430  0.64056095  0.57252231  1
  O  O195  1  0.74522215  0.63519422  0.57368492  1
  O  O196  1  0.06750033  0.50036448  0.57673575  1
  O  O197  1  0.56468021  0.48993310  0.57647828  1
  O  O198  1  0.15766314  0.83796475  0.25436304  1
  O  O199  1  0.66456139  0.87197373  0.25770154  1
  O  O200  1  0.25895459  0.66817460  0.27081075  1
  O  O201  1  0.77354028  0.69116021  0.24720019  1
  O  O202  1  0.08173242  0.47683260  0.25954417  1
  O  O203  1  0.56549248  0.46036277  0.25821904  1
  O  O204  1  0.16317928  0.48174436  0.76902160  1
  O  O205  1  0.65859993  0.48222521  0.75801682  1
  O  O206  1  0.07498160  0.68264628  0.76046088  1
  O  O207  1  0.57640219  0.68857980  0.75640485  1
  O  O208  1  0.25949314  0.83723503  0.75924265  1
  O  O209  1  0.76389441  0.85952386  0.76504278  1
