# generated using pymatgen
data_Na6Ta3Ga5(PO4)12
_symmetry_space_group_name_H-M   'P 1'
_cell_length_a   17.32338394
_cell_length_b   8.66333089
_cell_length_c   22.33075022
_cell_angle_alpha   90.03773360
_cell_angle_beta   89.96923835
_cell_angle_gamma   120.00557495
_symmetry_Int_Tables_number   1
_chemical_formula_structural   Na6Ta3Ga5(PO4)12
_chemical_formula_sum   'Na18 Ta9 Ga15 P36 O144'
_cell_volume   2902.19822222
_cell_formula_units_Z   3
loop_
 _symmetry_equiv_pos_site_id
 _symmetry_equiv_pos_as_xyz
  1  'x, y, z'
loop_
 _atom_site_type_symbol
 _atom_site_label
 _atom_site_symmetry_multiplicity
 _atom_site_fract_x
 _atom_site_fract_y
 _atom_site_fract_z
 _atom_site_occupancy
  Na  Na0  1  0.68401530  0.36698557  0.24938185  1
  Na  Na1  1  0.99940526  0.63127035  0.24939659  1
  Na  Na2  1  0.99943977  0.36583895  0.74823190  1
  Na  Na3  1  0.49947952  0.36588805  0.74830620  1
  Na  Na4  1  0.18315214  0.99942676  0.74829198  1
  Na  Na5  1  0.68313489  0.99938087  0.74845346  1
  Na  Na6  1  0.99998899  0.99967776  0.50381393  1
  Na  Na7  1  0.49980761  0.99978808  0.50388201  1
  Na  Na8  1  0.99899747  0.99853779  0.00424562  1
  Na  Na9  1  0.50085137  0.00151226  0.00390681  1
  Na  Na10  1  0.33317794  0.33830101  0.83506119  1
  Na  Na11  1  0.83291645  0.33797914  0.83545364  1
  Na  Na12  1  0.33328180  0.33362910  0.33764207  1
  Na  Na13  1  0.83311528  0.32737969  0.33551268  1
  Na  Na14  1  0.16834905  0.66557729  0.16945748  1
  Na  Na15  1  0.66768525  0.67377541  0.16915310  1
  Na  Na16  1  0.16939978  0.66611556  0.66662375  1
  Na  Na17  1  0.66937551  0.66602535  0.66671004  1
  Ta  Ta18  1  0.99952321  0.00251308  0.35530121  1
  Ta  Ta19  1  0.50024634  0.99831984  0.35551457  1
  Ta  Ta20  1  0.99956469  0.99868675  0.85483296  1
  Ta  Ta21  1  0.49991291  0.99899287  0.85495967  1
  Ta  Ta22  1  0.33344839  0.33554271  0.18741194  1
  Ta  Ta23  1  0.16549106  0.66643961  0.02251748  1
  Ta  Ta24  1  0.66844095  0.66731127  0.02300263  1
  Ta  Ta25  1  0.16690175  0.66681254  0.52253313  1
  Ta  Ta26  1  0.66685808  0.66698848  0.52268540  1
  Ga  Ga27  1  0.99918775  0.99870028  0.64486652  1
  Ga  Ga28  1  0.49913234  0.99861730  0.64493688  1
  Ga  Ga29  1  0.99784143  0.00001362  0.14702402  1
  Ga  Ga30  1  0.50137447  0.99980960  0.14751831  1
  Ga  Ga31  1  0.33306110  0.33864507  0.68087676  1
  Ga  Ga32  1  0.83303271  0.33868711  0.68090060  1
  Ga  Ga33  1  0.83294552  0.32538674  0.18334188  1
  Ga  Ga34  1  0.33368268  0.33373262  0.98133804  1
  Ga  Ga35  1  0.83313582  0.33271193  0.98320425  1
  Ga  Ga36  1  0.33327864  0.33360990  0.48261155  1
  Ga  Ga37  1  0.83353484  0.33406498  0.48249615  1
  Ga  Ga38  1  0.16912076  0.66514558  0.31618454  1
  Ga  Ga39  1  0.66671085  0.67393342  0.31615126  1
  Ga  Ga40  1  0.16944255  0.66595264  0.81671994  1
  Ga  Ga41  1  0.66916430  0.66606668  0.81695774  1
  P  P42  1  0.14344204  0.99693001  0.24897139  1
  P  P43  1  0.64562152  0.99582962  0.24810529  1
  P  P44  1  0.35440568  0.71640289  0.24865825  1
  P  P45  1  0.85351603  0.71156705  0.24821718  1
  P  P46  1  0.00032932  0.29054777  0.24778666  1
  P  P47  1  0.50140186  0.29016205  0.24922651  1
  P  P48  1  0.14667977  0.29381264  0.74813260  1
  P  P49  1  0.64674687  0.29396297  0.74810785  1
  P  P50  1  0.99816950  0.70767660  0.74794000  1
  P  P51  1  0.49815370  0.70776918  0.74794898  1
  P  P52  1  0.35385822  0.99552212  0.74791311  1
  P  P53  1  0.85376809  0.99550417  0.74781804  1
  P  P54  1  0.47430837  0.32588726  0.58371861  1
  P  P55  1  0.97431432  0.32603553  0.58366842  1
  P  P56  1  0.18869554  0.05148093  0.58381503  1
  P  P57  1  0.68879271  0.05185966  0.58374460  1
  P  P58  1  0.33701198  0.62234948  0.58333592  1
  P  P59  1  0.83701970  0.62218571  0.58325081  1
  P  P60  1  0.47591449  0.62585664  0.08177021  1
  P  P61  1  0.97363134  0.62285368  0.08406546  1
  P  P62  1  0.33739147  0.04916581  0.08207230  1
  P  P63  1  0.83753152  0.05283642  0.08346797  1
  P  P64  1  0.18693210  0.32520642  0.08179478  1
  P  P65  1  0.68876201  0.32485340  0.08412661  1
  P  P66  1  0.30936778  0.65899839  0.91656534  1
  P  P67  1  0.80964991  0.65813059  0.91624573  1
  P  P68  1  0.01970820  0.38066776  0.91582451  1
  P  P69  1  0.52027556  0.38149883  0.91610286  1
  P  P70  1  0.17046281  0.96016776  0.91588825  1
  P  P71  1  0.67066519  0.95983707  0.91620644  1
  P  P72  1  0.30897614  0.95940060  0.41586501  1
  P  P73  1  0.80893681  0.95995588  0.41626808  1
  P  P74  1  0.17080740  0.38182148  0.41618153  1
  P  P75  1  0.67074930  0.38215823  0.41559702  1
  P  P76  1  0.02016229  0.65921996  0.41568483  1
  P  P77  1  0.52037669  0.65780772  0.41609816  1
  O  O78  1  0.10196464  0.03222831  0.30564977  1
  O  O79  1  0.60076710  0.03244882  0.30463031  1
  O  O80  1  0.41422314  0.79694116  0.30532905  1
  O  O81  1  0.91537563  0.79822938  0.30485735  1
  O  O82  1  0.48362182  0.17081333  0.30559135  1
  O  O83  1  0.98542826  0.17140051  0.30501229  1
  O  O84  1  0.10148554  0.17040187  0.80513598  1
  O  O85  1  0.60151230  0.17049217  0.80508636  1
  O  O86  1  0.48491654  0.79829812  0.80546147  1
  O  O87  1  0.98497639  0.79834413  0.80548809  1
  O  O88  1  0.41491752  0.03165840  0.80512658  1
  O  O89  1  0.91495729  0.03176110  0.80508778  1
  O  O90  1  0.39739284  0.96622397  0.69424535  1
  O  O91  1  0.89749038  0.96628497  0.69426198  1
  O  O92  1  0.08472027  0.20796272  0.69504438  1
  O  O93  1  0.58472232  0.20795971  0.69500329  1
  O  O94  1  0.01938906  0.83207008  0.69497735  1
  O  O95  1  0.51936064  0.83202248  0.69495569  1
  O  O96  1  0.39716752  0.82741840  0.19337251  1
  O  O97  1  0.89696340  0.82710258  0.19390560  1
  O  O98  1  0.01741245  0.20591922  0.19372810  1
  O  O99  1  0.51808495  0.20724541  0.19421446  1
  O  O100  1  0.08527631  0.96329443  0.19419320  1
  O  O101  1  0.58641113  0.96620909  0.19386877  1
  O  O102  1  0.43994562  0.36926889  0.64205656  1
  O  O103  1  0.93988565  0.36921947  0.64209801  1
  O  O104  1  0.24497027  0.12024587  0.64207660  1
  O  O105  1  0.74499977  0.12032588  0.64207032  1
  O  O106  1  0.31439581  0.50748662  0.64028736  1
  O  O107  1  0.81436180  0.50747087  0.64026993  1
  O  O108  1  0.43459414  0.50426651  0.13853082  1
  O  O109  1  0.93946094  0.50972524  0.14159007  1
  O  O110  1  0.31763454  0.13162020  0.13873805  1
  O  O111  1  0.81430790  0.12199294  0.13975924  1
  O  O112  1  0.24789376  0.36520169  0.13858623  1
  O  O113  1  0.74535361  0.36952130  0.14158293  1
  O  O114  1  0.23064326  0.30075397  0.02678519  1
  O  O115  1  0.72985338  0.30019241  0.02736004  1
  O  O116  1  0.41975113  0.53902250  0.02686489  1
  O  O117  1  0.92030477  0.53993485  0.02728556  1
  O  O118  1  0.34952987  0.15998038  0.02682998  1
  O  O119  1  0.85009571  0.15912367  0.02641125  1
  O  O120  1  0.23040071  0.16035140  0.52774807  1
  O  O121  1  0.73035783  0.16031923  0.52774433  1
  O  O122  1  0.35004706  0.54054947  0.52685841  1
  O  O123  1  0.84998598  0.54054914  0.52687029  1
  O  O124  1  0.41980732  0.30049478  0.52769985  1
  O  O125  1  0.91984937  0.30043382  0.52777204  1
  O  O126  1  0.26768084  0.69832729  0.97219480  1
  O  O127  1  0.76814991  0.69851346  0.97182077  1
  O  O128  1  0.08175736  0.46515032  0.97128572  1
  O  O129  1  0.58158087  0.46540317  0.97143084  1
  O  O130  1  0.15125005  0.83715060  0.97132324  1
  O  O131  1  0.65076332  0.83616061  0.97140085  1
  O  O132  1  0.26796110  0.83739717  0.47180506  1
  O  O133  1  0.76788806  0.83740653  0.47202208  1
  O  O134  1  0.15081221  0.46415212  0.47196373  1
  O  O135  1  0.65085343  0.46522342  0.47123825  1
  O  O136  1  0.08164635  0.69811618  0.47130457  1
  O  O137  1  0.58133629  0.69856973  0.47195488  1
  O  O138  1  0.06239559  0.63512089  0.35841301  1
  O  O139  1  0.56306835  0.63294367  0.36007196  1
  O  O140  1  0.25331645  0.87324435  0.35986688  1
  O  O141  1  0.75397438  0.87373942  0.36017720  1
  O  O142  1  0.18311296  0.49206596  0.36005715  1
  O  O143  1  0.68228474  0.48973402  0.35830697  1
  O  O144  1  0.06230955  0.49022106  0.85872402  1
  O  O145  1  0.56184389  0.48966656  0.85863056  1
  O  O146  1  0.18253522  0.87561415  0.85861580  1
  O  O147  1  0.68237347  0.87555127  0.85857514  1
  O  O148  1  0.25378543  0.63329540  0.86036249  1
  O  O149  1  0.75383287  0.63347610  0.86017693  1
  O  O150  1  0.01324856  0.83313535  0.40865986  1
  O  O151  1  0.51327567  0.83195527  0.40895590  1
  O  O152  1  0.40293987  0.97333879  0.40868397  1
  O  O153  1  0.90282707  0.97346896  0.40908565  1
  O  O154  1  0.08387904  0.19403501  0.40915775  1
  O  O155  1  0.58353456  0.19375302  0.40876022  1
  O  O156  1  0.01348512  0.19383786  0.90899022  1
  O  O157  1  0.51309421  0.19369047  0.90892717  1
  O  O158  1  0.08366451  0.97363943  0.90928710  1
  O  O159  1  0.58358566  0.97350876  0.90915257  1
  O  O160  1  0.40298804  0.83260729  0.90922793  1
  O  O161  1  0.90296884  0.83260644  0.90900883  1
  O  O162  1  0.48904655  0.16708462  0.59055132  1
  O  O163  1  0.98903756  0.16702980  0.59057566  1
  O  O164  1  0.09463154  0.02262139  0.59075565  1
  O  O165  1  0.59458430  0.02262551  0.59074799  1
  O  O166  1  0.41675302  0.81050458  0.59035915  1
  O  O167  1  0.91670937  0.81049960  0.59035484  1
  O  O168  1  0.48818610  0.81023978  0.09078040  1
  O  O169  1  0.98974304  0.81238885  0.09051450  1
  O  O170  1  0.41683534  0.02290239  0.09119807  1
  O  O171  1  0.91682367  0.02244899  0.08986021  1
  O  O172  1  0.09491195  0.16661372  0.09092848  1
  O  O173  1  0.59387043  0.16608311  0.09045899  1
  O  O174  1  0.34578073  0.16685108  0.74461909  1
  O  O175  1  0.84584976  0.16692460  0.74460256  1
  O  O176  1  0.23794740  0.30413417  0.74417709  1
  O  O177  1  0.73794188  0.30414058  0.74412075  1
  O  O178  1  0.41608689  0.51962304  0.74405435  1
  O  O179  1  0.91613017  0.51969158  0.74406910  1
  O  O180  1  0.34645965  0.52734033  0.24219542  1
  O  O181  1  0.84601886  0.52462854  0.24426523  1
  O  O182  1  0.41631843  0.30767557  0.24263289  1
  O  O183  1  0.91683661  0.31194528  0.24389069  1
  O  O184  1  0.23742051  0.16720080  0.24251511  1
  O  O185  1  0.73683948  0.17067673  0.24401587  1
  O  O186  1  0.32197393  0.49965969  0.92431352  1
  O  O187  1  0.82219760  0.49937469  0.92430493  1
  O  O188  1  0.42780595  0.35611450  0.92390278  1
  O  O189  1  0.92789879  0.35647528  0.92390307  1
  O  O190  1  0.25040070  0.14435910  0.92401215  1
  O  O191  1  0.75031621  0.14437499  0.92387306  1
  O  O192  1  0.32214206  0.14459793  0.42415225  1
  O  O193  1  0.82214224  0.14479605  0.42440660  1
  O  O194  1  0.25038545  0.35577149  0.42415214  1
  O  O195  1  0.75008740  0.35597749  0.42385612  1
  O  O196  1  0.42758620  0.49933465  0.42407700  1
  O  O197  1  0.92797632  0.49968697  0.42388000  1
  O  O198  1  0.18016247  0.49953466  0.07585904  1
  O  O199  1  0.67890369  0.49733660  0.07497535  1
  O  O200  1  0.06980191  0.64162051  0.07471436  1
  O  O201  1  0.56967184  0.64005371  0.07592626  1
  O  O202  1  0.25035978  0.86080900  0.07586926  1
  O  O203  1  0.75124124  0.86060178  0.07470070  1
  O  O204  1  0.17911640  0.86019474  0.57544188  1
  O  O205  1  0.67918216  0.86031777  0.57548981  1
  O  O206  1  0.25107576  0.64213767  0.57518062  1
  O  O207  1  0.75099785  0.64196612  0.57510002  1
  O  O208  1  0.06995632  0.49844246  0.57541197  1
  O  O209  1  0.56995056  0.49818756  0.57536155  1
  O  O210  1  0.15357001  0.83176305  0.25741817  1
  O  O211  1  0.65430854  0.83057583  0.25747805  1
  O  O212  1  0.26111058  0.68943267  0.25727908  1
  O  O213  1  0.75957411  0.68511079  0.25725599  1
  O  O214  1  0.08254602  0.47899927  0.25717158  1
  O  O215  1  0.58409791  0.47468551  0.25749835  1
  O  O216  1  0.15259513  0.47608157  0.75788822  1
  O  O217  1  0.65263667  0.47621398  0.75789300  1
  O  O218  1  0.08303903  0.69039523  0.75748732  1
  O  O219  1  0.58301230  0.69032647  0.75740747  1
  O  O220  1  0.25961532  0.83358016  0.75741104  1
  O  O221  1  0.75963403  0.83353796  0.75738460  1
