# generated using pymatgen
data_Na6Ti4Si7Sn4S5O48
_symmetry_space_group_name_H-M   'P 1'
_cell_length_a   17.64683092
_cell_length_b   8.82564985
_cell_length_c   22.66286741
_cell_angle_alpha   89.90467578
_cell_angle_beta   90.02221399
_cell_angle_gamma   120.10912312
_symmetry_Int_Tables_number   1
_chemical_formula_structural   Na6Ti4Si7Sn4S5O48
_chemical_formula_sum   'Na18 Ti12 Si21 Sn12 S15 O144'
_cell_volume   3053.37150381
_cell_formula_units_Z   3
loop_
 _symmetry_equiv_pos_site_id
 _symmetry_equiv_pos_as_xyz
  1  'x, y, z'
loop_
 _atom_site_type_symbol
 _atom_site_label
 _atom_site_symmetry_multiplicity
 _atom_site_fract_x
 _atom_site_fract_y
 _atom_site_fract_z
 _atom_site_occupancy
  Na  Na0  1  0.00106028  0.63327870  0.25200415  1
  Na  Na1  1  0.49586910  0.64521903  0.24535909  1
  Na  Na2  1  0.99753019  0.34824071  0.75137144  1
  Na  Na3  1  0.50011401  0.37157515  0.75347053  1
  Na  Na4  1  0.66193255  0.30670287  0.91809999  1
  Na  Na5  1  0.16340340  0.01926343  0.41416595  1
  Na  Na6  1  0.99740449  0.98139843  0.50029925  1
  Na  Na7  1  0.49204519  0.98542440  0.49521293  1
  Na  Na8  1  0.99337253  0.00047542  0.99716631  1
  Na  Na9  1  0.49565690  0.99794960  0.00563321  1
  Na  Na10  1  0.33343240  0.33767525  0.83213345  1
  Na  Na11  1  0.83327845  0.32574998  0.83651538  1
  Na  Na12  1  0.33118950  0.33938789  0.32878859  1
  Na  Na13  1  0.83413096  0.32912696  0.32907504  1
  Na  Na14  1  0.17636214  0.67316817  0.17179942  1
  Na  Na15  1  0.67208023  0.66736600  0.16137348  1
  Na  Na16  1  0.17914645  0.68716948  0.66641078  1
  Na  Na17  1  0.67382713  0.67797237  0.67352252  1
  Ti  Ti18  1  0.00031060  0.99231541  0.34498051  1
  Ti  Ti19  1  0.49898047  0.00478609  0.84635429  1
  Ti  Ti20  1  0.32609876  0.32143170  0.69454491  1
  Ti  Ti21  1  0.82246885  0.33267238  0.69004129  1
  Ti  Ti22  1  0.33231303  0.32763514  0.18439888  1
  Ti  Ti23  1  0.82685685  0.32966159  0.19415220  1
  Ti  Ti24  1  0.83254316  0.34282977  0.97687883  1
  Ti  Ti25  1  0.33281644  0.32217171  0.47531074  1
  Ti  Ti26  1  0.16723409  0.68088021  0.30836977  1
  Ti  Ti27  1  0.66348125  0.67572797  0.31067695  1
  Ti  Ti28  1  0.16643631  0.65187462  0.81344724  1
  Ti  Ti29  1  0.66715867  0.65619887  0.81048527  1
  Si  Si30  1  0.14867110  0.00896903  0.24820996  1
  Si  Si31  1  0.64329994  0.00579804  0.25144420  1
  Si  Si32  1  0.35088096  0.70305506  0.24834984  1
  Si  Si33  1  0.84976013  0.70730696  0.25004643  1
  Si  Si34  1  0.00108887  0.29094753  0.25062790  1
  Si  Si35  1  0.14278642  0.28250323  0.75079707  1
  Si  Si36  1  0.64366857  0.28773235  0.74943694  1
  Si  Si37  1  0.50112197  0.71109156  0.75012041  1
  Si  Si38  1  0.34942903  0.99183401  0.75049115  1
  Si  Si39  1  0.85167808  0.99846303  0.74698147  1
  Si  Si40  1  0.19157615  0.05006714  0.58434663  1
  Si  Si41  1  0.83201890  0.62546491  0.58444808  1
  Si  Si42  1  0.47976156  0.62197486  0.08301798  1
  Si  Si43  1  0.33075017  0.03821251  0.08432392  1
  Si  Si44  1  0.69282472  0.33325485  0.08498954  1
  Si  Si45  1  0.81206011  0.67364888  0.91679506  1
  Si  Si46  1  0.02251630  0.38263020  0.91951720  1
  Si  Si47  1  0.51797941  0.36841789  0.91228797  1
  Si  Si48  1  0.31503935  0.95560242  0.41472329  1
  Si  Si49  1  0.01879417  0.66674276  0.41311498  1
  Si  Si50  1  0.52329051  0.66471692  0.41924741  1
  Sn  Sn51  1  0.49664947  0.97738474  0.35270429  1
  Sn  Sn52  1  0.99597511  0.01554316  0.85433985  1
  Sn  Sn53  1  0.99992457  0.00025732  0.64542587  1
  Sn  Sn54  1  0.49377515  0.98968708  0.65276360  1
  Sn  Sn55  1  0.99570010  0.00070285  0.15251276  1
  Sn  Sn56  1  0.49768468  0.98810592  0.14273512  1
  Sn  Sn57  1  0.34298425  0.33233587  0.98077545  1
  Sn  Sn58  1  0.83849505  0.34931175  0.47890799  1
  Sn  Sn59  1  0.16832213  0.67286282  0.02145319  1
  Sn  Sn60  1  0.66392661  0.64635416  0.02137458  1
  Sn  Sn61  1  0.17090032  0.68976284  0.51752877  1
  Sn  Sn62  1  0.66778753  0.66208961  0.52080412  1
  S  S63  1  0.50111215  0.29183984  0.25117335  1
  S  S64  1  0.00088525  0.70664358  0.75078512  1
  S  S65  1  0.47652134  0.32731150  0.58368716  1
  S  S66  1  0.98000688  0.33654835  0.58328602  1
  S  S67  1  0.68726936  0.04561916  0.58300840  1
  S  S68  1  0.33381561  0.62026595  0.58269112  1
  S  S69  1  0.97643406  0.62549876  0.08364998  1
  S  S70  1  0.83618821  0.05113518  0.08300978  1
  S  S71  1  0.18614959  0.32718184  0.08227992  1
  S  S72  1  0.31237893  0.66536638  0.91630638  1
  S  S73  1  0.16653624  0.95925810  0.91519344  1
  S  S74  1  0.66562367  0.95346513  0.91720558  1
  S  S75  1  0.81250094  0.95841437  0.41710720  1
  S  S76  1  0.16576425  0.37931763  0.41807426  1
  S  S77  1  0.66635970  0.37421708  0.41523478  1
  O  O78  1  0.10180460  0.03368114  0.30820002  1
  O  O79  1  0.60846952  0.05270889  0.31080879  1
  O  O80  1  0.41631800  0.76830845  0.30653101  1
  O  O81  1  0.91894238  0.80033228  0.30509397  1
  O  O82  1  0.48797484  0.18810013  0.30514243  1
  O  O83  1  0.98357671  0.15850454  0.30672427  1
  O  O84  1  0.10511879  0.15995821  0.80856984  1
  O  O85  1  0.60146930  0.16885966  0.80833452  1
  O  O86  1  0.48306838  0.80723626  0.80559406  1
  O  O87  1  0.98441449  0.78179207  0.80328780  1
  O  O88  1  0.41900782  0.03682861  0.80452059  1
  O  O89  1  0.91823733  0.06677884  0.80411823  1
  O  O90  1  0.38272658  0.94764300  0.68928075  1
  O  O91  1  0.89312930  0.95577597  0.68986345  1
  O  O92  1  0.07864012  0.21508840  0.69358874  1
  O  O93  1  0.58241720  0.21236010  0.69066961  1
  O  O94  1  0.01757022  0.81306765  0.69678139  1
  O  O95  1  0.52511654  0.82732886  0.68927139  1
  O  O96  1  0.39216135  0.83444187  0.19281742  1
  O  O97  1  0.88424223  0.82057050  0.18959107  1
  O  O98  1  0.02468420  0.22285119  0.19031755  1
  O  O99  1  0.51743141  0.21803036  0.19813828  1
  O  O100  1  0.08187640  0.95101636  0.19165076  1
  O  O101  1  0.57828727  0.94498653  0.19573723  1
  O  O102  1  0.43926712  0.35017199  0.63849367  1
  O  O103  1  0.93898330  0.35900007  0.63607652  1
  O  O104  1  0.25350375  0.15398107  0.64112800  1
  O  O105  1  0.74068696  0.13114587  0.63589998  1
  O  O106  1  0.32758869  0.52510209  0.63713129  1
  O  O107  1  0.81994609  0.49690512  0.64081711  1
  O  O108  1  0.43064004  0.49906596  0.14158045  1
  O  O109  1  0.93920011  0.52805712  0.13853837  1
  O  O110  1  0.31500361  0.13657112  0.14035321  1
  O  O111  1  0.83055879  0.13589904  0.13727763  1
  O  O112  1  0.23908444  0.34940422  0.13533572  1
  O  O113  1  0.75525363  0.34973431  0.14120912  1
  O  O114  1  0.22537848  0.30678965  0.02706197  1
  O  O115  1  0.74195279  0.31381859  0.02485960  1
  O  O116  1  0.41911768  0.54454610  0.02367337  1
  O  O117  1  0.92431760  0.53753669  0.03026362  1
  O  O118  1  0.33997353  0.13575716  0.02156146  1
  O  O119  1  0.84776751  0.15582090  0.02911492  1
  O  O120  1  0.24054341  0.16378257  0.52437011  1
  O  O121  1  0.72918998  0.14661770  0.52793218  1
  O  O122  1  0.34510307  0.54013543  0.52905886  1
  O  O123  1  0.84546481  0.54192713  0.52416837  1
  O  O124  1  0.42465256  0.31081963  0.53048696  1
  O  O125  1  0.92598880  0.30718915  0.52863620  1
  O  O126  1  0.27587251  0.69718855  0.97109483  1
  O  O127  1  0.77344358  0.71462645  0.97556144  1
  O  O128  1  0.08509086  0.47356093  0.97641559  1
  O  O129  1  0.57949078  0.44480673  0.97112946  1
  O  O130  1  0.15551352  0.85992415  0.97109302  1
  O  O131  1  0.65313597  0.85316028  0.97197775  1
  O  O132  1  0.28131176  0.84263973  0.47589236  1
  O  O133  1  0.77637114  0.85451786  0.47289013  1
  O  O134  1  0.15226946  0.45370122  0.47423897  1
  O  O135  1  0.65652896  0.44985972  0.47221151  1
  O  O136  1  0.07762070  0.70656686  0.47401397  1
  O  O137  1  0.58478197  0.69945636  0.47748166  1
  O  O138  1  0.06722170  0.64492653  0.35614077  1
  O  O139  1  0.56952476  0.63635279  0.36040432  1
  O  O140  1  0.24749537  0.86602512  0.36075711  1
  O  O141  1  0.75630540  0.87199650  0.36572895  1
  O  O142  1  0.17938390  0.48668872  0.36696040  1
  O  O143  1  0.68052671  0.48667105  0.36490350  1
  O  O144  1  0.06956205  0.50159297  0.85952451  1
  O  O145  1  0.56731489  0.48913794  0.85458698  1
  O  O146  1  0.18038886  0.87372036  0.86398974  1
  O  O147  1  0.67944524  0.87331751  0.86460320  1
  O  O148  1  0.25582208  0.64500263  0.86419388  1
  O  O149  1  0.74794613  0.63316866  0.85999577  1
  O  O150  1  0.01099271  0.84519851  0.40843275  1
  O  O151  1  0.51594456  0.84061066  0.41640947  1
  O  O152  1  0.41560001  0.00114285  0.40842212  1
  O  O153  1  0.90083157  0.98453844  0.41086441  1
  O  O154  1  0.08872009  0.19800443  0.41371808  1
  O  O155  1  0.58625898  0.20101087  0.41158346  1
  O  O156  1  0.01638502  0.19274132  0.91645114  1
  O  O157  1  0.51023206  0.17423476  0.90585795  1
  O  O158  1  0.08586373  0.96936654  0.91049684  1
  O  O159  1  0.58891616  0.98027319  0.91145801  1
  O  O160  1  0.40009701  0.81755836  0.90888250  1
  O  O161  1  0.91319445  0.83053774  0.90941346  1
  O  O162  1  0.48617295  0.16703434  0.58508223  1
  O  O163  1  0.98792316  0.17728623  0.58500588  1
  O  O164  1  0.09523762  0.03369586  0.58789394  1
  O  O165  1  0.59950738  0.02990701  0.58590790  1
  O  O166  1  0.41378322  0.80444030  0.58464003  1
  O  O167  1  0.91851859  0.81738908  0.58787630  1
  O  O168  1  0.48820377  0.81212101  0.08432487  1
  O  O169  1  0.98572149  0.80422124  0.08475442  1
  O  O170  1  0.41913866  0.02941298  0.08889195  1
  O  O171  1  0.91726023  0.03094539  0.08484822  1
  O  O172  1  0.09724668  0.16735634  0.08609330  1
  O  O173  1  0.59628714  0.16306661  0.08856628  1
  O  O174  1  0.34691881  0.17458490  0.74427988  1
  O  O175  1  0.84709913  0.17970715  0.73363087  1
  O  O176  1  0.24146910  0.31726703  0.74224433  1
  O  O177  1  0.74122159  0.30713570  0.74373517  1
  O  O178  1  0.41569308  0.51477960  0.73973257  1
  O  O179  1  0.92355964  0.52516354  0.74315470  1
  O  O180  1  0.34505133  0.51302212  0.23776306  1
  O  O181  1  0.84721447  0.51990320  0.24413747  1
  O  O182  1  0.42350918  0.31620557  0.24593592  1
  O  O183  1  0.91638789  0.31767574  0.24130047  1
  O  O184  1  0.24459704  0.18007856  0.24308344  1
  O  O185  1  0.74259565  0.16669303  0.24321049  1
  O  O186  1  0.31310391  0.49781830  0.91948609  1
  O  O187  1  0.81568565  0.48804372  0.92479742  1
  O  O188  1  0.42138705  0.35324485  0.91347261  1
  O  O189  1  0.92564650  0.36249539  0.92680832  1
  O  O190  1  0.24424393  0.13947851  0.91968020  1
  O  O191  1  0.74598180  0.13595483  0.92174407  1
  O  O192  1  0.31724995  0.14681111  0.42427136  1
  O  O193  1  0.81530625  0.13137259  0.42314355  1
  O  O194  1  0.24570987  0.35735668  0.42392776  1
  O  O195  1  0.74467476  0.34956505  0.41972773  1
  O  O196  1  0.42594998  0.49072177  0.42881801  1
  O  O197  1  0.92241417  0.48462166  0.41553500  1
  O  O198  1  0.17760207  0.48778550  0.08002623  1
  O  O199  1  0.69166029  0.51649657  0.08356569  1
  O  O200  1  0.06563132  0.64454659  0.07882276  1
  O  O201  1  0.57730920  0.64094592  0.08020778  1
  O  O202  1  0.24085689  0.84064773  0.08212933  1
  O  O203  1  0.75640388  0.87595480  0.07952222  1
  O  O204  1  0.18249724  0.85420189  0.58352691  1
  O  O205  1  0.67979685  0.86967954  0.58064215  1
  O  O206  1  0.25193268  0.63346638  0.57948195  1
  O  O207  1  0.74175640  0.63905099  0.58125582  1
  O  O208  1  0.06889049  0.49461730  0.57754817  1
  O  O209  1  0.56632983  0.48684629  0.57917691  1
  O  O210  1  0.15467282  0.83089797  0.25597348  1
  O  O211  1  0.65195765  0.82676113  0.26203910  1
  O  O212  1  0.25533409  0.67950079  0.26151459  1
  O  O213  1  0.75392972  0.68121728  0.26577390  1
  O  O214  1  0.08371042  0.48635079  0.26147315  1
  O  O215  1  0.57951384  0.47379964  0.25717293  1
  O  O216  1  0.15195417  0.47820993  0.76140371  1
  O  O217  1  0.65442102  0.48022322  0.75563443  1
  O  O218  1  0.07857595  0.68278871  0.75692530  1
  O  O219  1  0.58370640  0.68150236  0.76080498  1
  O  O220  1  0.25286257  0.82683816  0.76462703  1
  O  O221  1  0.75589833  0.83432733  0.75975993  1
