# generated using pymatgen
data_Na5In3Sn(PO4)6
_symmetry_space_group_name_H-M   'P 1'
_cell_length_a   9.05434076
_cell_length_b   9.05344378
_cell_length_c   22.70285746
_cell_angle_alpha   89.93372872
_cell_angle_beta   90.04268774
_cell_angle_gamma   119.99403746
_symmetry_Int_Tables_number   1
_chemical_formula_structural   Na5In3Sn(PO4)6
_chemical_formula_sum   'Na15 In9 Sn3 P18 O72'
_cell_volume   1611.78678335
_cell_formula_units_Z   3
loop_
 _symmetry_equiv_pos_site_id
 _symmetry_equiv_pos_as_xyz
  1  'x, y, z'
loop_
 _atom_site_type_symbol
 _atom_site_label
 _atom_site_symmetry_multiplicity
 _atom_site_fract_x
 _atom_site_fract_y
 _atom_site_fract_z
 _atom_site_occupancy
  Na  Na0  1  0.63773744  0.00107283  0.25505225  1
  Na  Na1  1  0.36397920  0.36385827  0.25589168  1
  Na  Na2  1  -0.00126912  0.63622820  0.25508994  1
  Na  Na3  1  0.64623792  0.64037678  0.74928295  1
  Na  Na4  1  0.99565079  0.35771094  0.74968903  1
  Na  Na5  1  0.03289859  0.70143624  0.58007614  1
  Na  Na6  1  0.66585347  0.96619359  0.57975717  1
  Na  Na7  1  0.66559953  0.70035539  0.08016798  1
  Na  Na8  1  0.03393339  0.33185306  0.08029185  1
  Na  Na9  1  0.01358837  0.01440053  0.49497953  1
  Na  Na10  1  0.01371761  0.99908738  0.99397480  1
  Na  Na11  1  0.65236521  0.31839252  0.83450148  1
  Na  Na12  1  0.66644633  0.33319084  0.33987750  1
  Na  Na13  1  0.33244013  0.68020782  0.16553475  1
  Na  Na14  1  0.33314167  0.66547874  0.66364203  1
  In  In15  1  0.99901574  0.99879691  0.35434842  1
  In  In16  1  0.00225441  0.00011544  0.85267662  1
  In  In17  1  0.00995226  0.00706681  0.65041668  1
  In  In18  1  0.00651707  0.99953306  0.14826342  1
  In  In19  1  0.65649213  0.32652340  0.68332190  1
  In  In20  1  0.66312137  0.32983355  0.18121664  1
  In  In21  1  0.33307327  0.67277380  0.01358071  1
  In  In22  1  0.33286318  0.65993102  0.51308589  1
  In  In23  1  0.33345497  0.66560952  0.32409289  1
  Sn  Sn24  1  0.66429823  0.33125756  0.97881170  1
  Sn  Sn25  1  0.66330340  0.33297701  0.48109956  1
  Sn  Sn26  1  0.33366010  0.67270643  0.82003255  1
  P  P27  1  0.29535614  0.99795704  0.25042427  1
  P  P28  1  0.70313801  0.70426301  0.24799095  1
  P  P29  1  0.00100224  0.29694760  0.24818338  1
  P  P30  1  0.29653708  0.30191737  0.75282358  1
  P  P31  1  0.00464526  0.70334701  0.74954468  1
  P  P32  1  0.70037808  0.99582866  0.75004118  1
  P  P33  1  0.95965282  0.33289986  0.58475963  1
  P  P34  1  0.37091358  0.03730828  0.58194227  1
  P  P35  1  0.66680383  0.62914776  0.58513557  1
  P  P36  1  0.95988386  0.62660399  0.08280258  1
  P  P37  1  0.66651172  0.03784942  0.08351816  1
  P  P38  1  0.37131297  0.33318620  0.08220263  1
  P  P39  1  0.63099686  0.66329747  0.91776278  1
  P  P40  1  0.03213041  0.36870780  0.91809234  1
  P  P41  1  0.33629519  0.96779363  0.91747288  1
  P  P42  1  0.63557333  0.97273914  0.41813491  1
  P  P43  1  0.33668541  0.36405769  0.41587453  1
  P  P44  1  0.02753592  0.66296672  0.41823802  1
  O  O45  1  0.21391001  0.03394727  0.30327078  1
  O  O46  1  0.82418910  0.79055170  0.29969824  1
  O  O47  1  0.96746197  0.17582451  0.29977604  1
  O  O48  1  0.21655209  0.19380268  0.80718446  1
  O  O49  1  0.96863695  0.78865157  0.80119408  1
  O  O50  1  0.82123515  0.03013424  0.80190483  1
  O  O51  1  0.77228409  0.95950990  0.69280328  1
  O  O52  1  0.18440226  0.23025460  0.69701407  1
  O  O53  1  0.03330737  0.80216764  0.69083377  1
  O  O54  1  0.77344650  0.80673867  0.18962199  1
  O  O55  1  0.03324041  0.22708259  0.18976842  1
  O  O56  1  0.18633014  0.95993963  0.19383141  1
  O  O57  1  0.88622608  0.36298688  0.64230171  1
  O  O58  1  0.48026536  0.11114434  0.63756779  1
  O  O59  1  0.64324910  0.53360733  0.64384443  1
  O  O60  1  0.88706022  0.52467468  0.14085297  1
  O  O61  1  0.64272845  0.10822897  0.14257448  1
  O  O62  1  0.47180854  0.36221136  0.14041750  1
  O  O63  1  0.46424026  0.31073873  0.02879026  1
  O  O64  1  0.83679534  0.53312983  0.03048450  1
  O  O65  1  0.69533282  0.15998487  0.03114975  1
  O  O66  1  0.45638286  0.14872751  0.52677624  1
  O  O67  1  0.69630973  0.53689593  0.53253154  1
  O  O68  1  0.83633042  0.30175482  0.53215906  1
  O  O69  1  0.54986889  0.68318511  0.97453655  1
  O  O70  1  0.13431887  0.44986513  0.97470849  1
  O  O71  1  0.31273365  0.86472200  0.97319971  1
  O  O72  1  0.54858105  0.86723796  0.47382268  1
  O  O73  1  0.31534437  0.45436216  0.46904957  1
  O  O74  1  0.13372808  0.68233149  0.47381153  1
  O  O75  1  0.10698730  0.63853056  0.36096750  1
  O  O76  1  0.53186294  0.89212112  0.36094353  1
  O  O77  1  0.36135778  0.46345718  0.35728792  1
  O  O78  1  0.11991102  0.48183739  0.86213820  1
  O  O79  1  0.36534371  0.88370090  0.86179042  1
  O  O80  1  0.51826481  0.63950622  0.86190028  1
  O  O81  1  0.00491132  0.82014112  0.41479005  1
  O  O82  1  0.81527635  0.99467157  0.41470067  1
  O  O83  1  0.18042541  0.18391556  0.41314042  1
  O  O84  1  0.00953748  0.18973127  0.91292939  1
  O  O85  1  0.18038982  0.99045588  0.91171104  1
  O  O86  1  0.80988539  0.82027863  0.91249657  1
  O  O87  1  0.97028609  0.16721960  0.58766431  1
  O  O88  1  0.18939015  0.01389877  0.58609002  1
  O  O89  1  0.83266996  0.80810189  0.58661843  1
  O  O90  1  0.97026979  0.80271183  0.08482661  1
  O  O91  1  0.83266678  0.02519385  0.08456020  1
  O  O92  1  0.18894967  0.17570459  0.08406665  1
  O  O93  1  0.68171237  0.15683389  0.74539382  1
  O  O94  1  0.48143637  0.33442398  0.74672554  1
  O  O95  1  0.84429054  0.52004646  0.74614455  1
  O  O96  1  0.68047046  0.52158939  0.24453696  1
  O  O97  1  0.84056861  0.31904890  0.24496857  1
  O  O98  1  0.47688780  0.15860685  0.24513121  1
  O  O99  1  0.64308633  0.49648609  0.91964838  1
  O  O100  1  0.85319548  0.35687200  0.92036467  1
  O  O101  1  0.50287503  0.14678024  0.92035594  1
  O  O102  1  0.65201935  0.15300445  0.42197099  1
  O  O103  1  0.50236201  0.35134992  0.42135366  1
  O  O104  1  0.84770799  0.49858761  0.42271474  1
  O  O105  1  0.35432726  0.49595945  0.07719495  1
  O  O106  1  0.13611382  0.63966840  0.07678874  1
  O  O107  1  0.51253818  0.85465712  0.07763737  1
  O  O108  1  0.35124471  0.85624142  0.57667178  1
  O  O109  1  0.51230378  0.65770960  0.57833574  1
  O  O110  1  0.13622835  0.49575866  0.57758817  1
  O  O111  1  0.31733501  0.83819300  0.25738202  1
  O  O112  1  0.52320229  0.68654975  0.25542068  1
  O  O113  1  0.16203408  0.47803459  0.25542258  1
  O  O114  1  0.31414421  0.48556769  0.75859849  1
  O  O115  1  0.16339398  0.67789771  0.75736257  1
  O  O116  1  0.52212473  0.82940654  0.75781713  1
