# generated using pymatgen
data_Na10TaGa7(PO4)12
_symmetry_space_group_name_H-M   'P 1'
_cell_length_a   17.40285135
_cell_length_b   8.70755157
_cell_length_c   22.05504145
_cell_angle_alpha   89.98356739
_cell_angle_beta   89.97189414
_cell_angle_gamma   120.02182186
_symmetry_Int_Tables_number   1
_chemical_formula_structural   Na10TaGa7(PO4)12
_chemical_formula_sum   'Na30 Ta3 Ga21 P36 O144'
_cell_volume   2893.73862758
_cell_formula_units_Z   3
loop_
 _symmetry_equiv_pos_site_id
 _symmetry_equiv_pos_as_xyz
  1  'x, y, z'
loop_
 _atom_site_type_symbol
 _atom_site_label
 _atom_site_symmetry_multiplicity
 _atom_site_fract_x
 _atom_site_fract_y
 _atom_site_fract_z
 _atom_site_occupancy
  Na  Na0  1  0.31738198  0.99934477  0.25100946  1
  Na  Na1  1  0.68290207  0.36449242  0.25099255  1
  Na  Na2  1  0.31619300  0.63291307  0.75098271  1
  Na  Na3  1  0.81619579  0.63296717  0.75089053  1
  Na  Na4  1  0.15037174  0.33360590  0.58297328  1
  Na  Na5  1  0.65036442  0.33355750  0.58273260  1
  Na  Na6  1  0.01614846  0.69873502  0.58311492  1
  Na  Na7  1  0.51635511  0.69889241  0.58322537  1
  Na  Na8  1  0.33320057  0.96793287  0.58277094  1
  Na  Na9  1  0.83313047  0.96781735  0.58290199  1
  Na  Na10  1  0.15048266  0.96763322  0.08294693  1
  Na  Na11  1  0.65078071  0.96790600  0.08350934  1
  Na  Na12  1  0.33313148  0.69831231  0.08337435  1
  Na  Na13  1  0.83335412  0.69892550  0.08305912  1
  Na  Na14  1  0.01602136  0.33359387  0.08323657  1
  Na  Na15  1  0.51599043  0.33360918  0.08331987  1
  Na  Na16  1  0.66604632  0.03339988  0.41522474  1
  Na  Na17  1  0.35010909  0.66786055  0.41501321  1
  Na  Na18  1  0.00015602  0.99941747  0.49959799  1
  Na  Na19  1  0.49974374  0.00696923  0.49713497  1
  Na  Na20  1  0.00008243  0.00003918  0.00052640  1
  Na  Na21  1  0.50009235  0.99988368  0.00055409  1
  Na  Na22  1  0.33366994  0.32734971  0.83528686  1
  Na  Na23  1  0.83366006  0.32736485  0.83528121  1
  Na  Na24  1  0.33429167  0.33437741  0.33285877  1
  Na  Na25  1  0.83873792  0.33785881  0.33289532  1
  Na  Na26  1  0.16403990  0.65938235  0.16967716  1
  Na  Na27  1  0.66604231  0.67319980  0.16959064  1
  Na  Na28  1  0.16352776  0.66715711  0.66982763  1
  Na  Na29  1  0.66363979  0.66706093  0.66984456  1
  Ta  Ta30  1  0.00005895  0.99910477  0.35336432  1
  Ta  Ta31  1  0.00053456  0.00158628  0.85575498  1
  Ta  Ta32  1  0.50056564  0.00168656  0.85573854  1
  Ga  Ga33  1  0.49946927  0.00521034  0.35035167  1
  Ga  Ga34  1  0.00080396  0.00111532  0.65207974  1
  Ga  Ga35  1  0.50086256  0.00120390  0.65201371  1
  Ga  Ga36  1  0.00013165  0.00161638  0.15183279  1
  Ga  Ga37  1  0.50022618  0.99803335  0.15283955  1
  Ga  Ga38  1  0.33374466  0.32761655  0.68644133  1
  Ga  Ga39  1  0.83391978  0.32826182  0.68637285  1
  Ga  Ga40  1  0.33410505  0.34213196  0.18597655  1
  Ga  Ga41  1  0.83579268  0.32963227  0.18642276  1
  Ga  Ga42  1  0.33326771  0.33351426  0.97970744  1
  Ga  Ga43  1  0.83358128  0.33334330  0.97976666  1
  Ga  Ga44  1  0.33310619  0.32484133  0.48005374  1
  Ga  Ga45  1  0.83624389  0.34043480  0.47980712  1
  Ga  Ga46  1  0.16624310  0.66646239  0.01458004  1
  Ga  Ga47  1  0.66638443  0.66692639  0.01455068  1
  Ga  Ga48  1  0.16592546  0.66803886  0.51381020  1
  Ga  Ga49  1  0.66616871  0.66343728  0.51367972  1
  Ga  Ga50  1  0.16415082  0.66105162  0.31475532  1
  Ga  Ga51  1  0.66524039  0.66981224  0.31508801  1
  Ga  Ga52  1  0.16380584  0.66749477  0.81651993  1
  Ga  Ga53  1  0.66380639  0.66746649  0.81652204  1
  P  P54  1  0.14641903  0.99943569  0.24801860  1
  P  P55  1  0.64595984  0.99678621  0.25030914  1
  P  P56  1  0.35409796  0.70567683  0.25078211  1
  P  P57  1  0.85329925  0.70706210  0.24807184  1
  P  P58  1  0.00049842  0.29512650  0.24841071  1
  P  P59  1  0.49985405  0.29392899  0.24975482  1
  P  P60  1  0.14622310  0.29307648  0.74855287  1
  P  P61  1  0.64629829  0.29319495  0.74858470  1
  P  P62  1  0.00212226  0.70712964  0.74869070  1
  P  P63  1  0.50210364  0.70709807  0.74866943  1
  P  P64  1  0.35311905  0.00225353  0.74895044  1
  P  P65  1  0.85313249  0.00234191  0.74892462  1
  P  P66  1  0.47781212  0.33334588  0.58345303  1
  P  P67  1  0.97766726  0.33347484  0.58313411  1
  P  P68  1  0.18880756  0.04469175  0.58321133  1
  P  P69  1  0.68873451  0.04401973  0.58289772  1
  P  P70  1  0.33328965  0.62283146  0.58320033  1
  P  P71  1  0.83340596  0.62288767  0.58369809  1
  P  P72  1  0.47767394  0.62180514  0.08287050  1
  P  P73  1  0.97753627  0.62190375  0.08315950  1
  P  P74  1  0.33326856  0.04453200  0.08348633  1
  P  P75  1  0.83338973  0.04451851  0.08289614  1
  P  P76  1  0.18885377  0.33308862  0.08286680  1
  P  P77  1  0.68900242  0.33341316  0.08339495  1
  P  P78  1  0.30856505  0.65917638  0.91699755  1
  P  P79  1  0.80857422  0.65895036  0.91699781  1
  P  P80  1  0.02089625  0.38304572  0.91754206  1
  P  P81  1  0.52088572  0.38312049  0.91757764  1
  P  P82  1  0.17057922  0.95798567  0.91744805  1
  P  P83  1  0.67059832  0.95812669  0.91740379  1
  P  P84  1  0.31188718  0.96007828  0.41575152  1
  P  P85  1  0.81035010  0.95656423  0.41733809  1
  P  P86  1  0.16784238  0.37929694  0.41741043  1
  P  P87  1  0.66688812  0.37686405  0.41585399  1
  P  P88  1  0.02146610  0.66087054  0.41674539  1
  P  P89  1  0.52054036  0.66249148  0.41634046  1
  O  O90  1  0.09986686  0.02813697  0.30426276  1
  O  O91  1  0.60536866  0.03728389  0.30686486  1
  O  O92  1  0.41157940  0.79028260  0.30791002  1
  O  O93  1  0.91416025  0.80033909  0.30434787  1
  O  O94  1  0.48038936  0.17040983  0.30479232  1
  O  O95  1  0.98641045  0.17103165  0.30445860  1
  O  O96  1  0.09973195  0.17088203  0.80409751  1
  O  O97  1  0.59971120  0.17088475  0.80410324  1
  O  O98  1  0.48434077  0.79961842  0.80375583  1
  O  O99  1  0.98436998  0.79963068  0.80378524  1
  O  O100  1  0.41440971  0.02852459  0.80438961  1
  O  O101  1  0.91441691  0.02860925  0.80438242  1
  O  O102  1  0.39331439  0.96199533  0.69194368  1
  O  O103  1  0.89335841  0.96212499  0.69195956  1
  O  O104  1  0.08951360  0.21229911  0.69111761  1
  O  O105  1  0.58952978  0.21235710  0.69111365  1
  O  O106  1  0.01647682  0.82033633  0.69096034  1
  O  O107  1  0.51645093  0.82043284  0.69091490  1
  O  O108  1  0.39339175  0.82524799  0.19294964  1
  O  O109  1  0.89439480  0.82151762  0.19140164  1
  O  O110  1  0.01667062  0.21279295  0.19129609  1
  O  O111  1  0.51915556  0.21443057  0.19175573  1
  O  O112  1  0.08917081  0.96718179  0.19139197  1
  O  O113  1  0.58965087  0.96659035  0.19192052  1
  O  O114  1  0.43815620  0.37363146  0.63967890  1
  O  O115  1  0.93811951  0.37351991  0.63952716  1
  O  O116  1  0.24832112  0.12370659  0.63957360  1
  O  O117  1  0.74870909  0.12546457  0.63877130  1
  O  O118  1  0.31469144  0.50635708  0.64059462  1
  O  O119  1  0.81433207  0.50735388  0.64148888  1
  O  O120  1  0.43842581  0.50325459  0.13927732  1
  O  O121  1  0.93785539  0.50307365  0.13965487  1
  O  O122  1  0.31422956  0.12136718  0.14139014  1
  O  O123  1  0.81333375  0.12295602  0.13937479  1
  O  O124  1  0.24799914  0.37234864  0.13941276  1
  O  O125  1  0.74652443  0.37198890  0.14130201  1
  O  O126  1  0.22865575  0.29375302  0.02713701  1
  O  O127  1  0.72962743  0.29488616  0.02814503  1
  O  O128  1  0.41823000  0.54291116  0.02714926  1
  O  O129  1  0.91819276  0.54276538  0.02724582  1
  O  O130  1  0.35254339  0.16421040  0.02816164  1
  O  O131  1  0.85311682  0.16333610  0.02710901  1
  O  O132  1  0.22833522  0.16388862  0.52752683  1
  O  O133  1  0.72750349  0.15951984  0.52573600  1
  O  O134  1  0.35177404  0.54321290  0.52657312  1
  O  O135  1  0.85269826  0.54192351  0.52848921  1
  O  O136  1  0.41859732  0.29373524  0.52769425  1
  O  O137  1  0.91802761  0.29326308  0.52736822  1
  O  O138  1  0.27264409  0.70162230  0.97448782  1
  O  O139  1  0.77262230  0.70148086  0.97449103  1
  O  O140  1  0.07741507  0.45264143  0.97546536  1
  O  O141  1  0.57753189  0.45288646  0.97550780  1
  O  O142  1  0.14873748  0.84479842  0.97542923  1
  O  O143  1  0.64864461  0.84487238  0.97540122  1
  O  O144  1  0.27302317  0.84100608  0.47413557  1
  O  O145  1  0.77386140  0.84583724  0.47631125  1
  O  O146  1  0.14865284  0.45245363  0.47617118  1
  O  O147  1  0.65021000  0.45436167  0.47497967  1
  O  O148  1  0.07667718  0.70231420  0.47601644  1
  O  O149  1  0.57895014  0.70479170  0.47506120  1
  O  O150  1  0.06417156  0.63410648  0.36099791  1
  O  O151  1  0.56350416  0.63292835  0.36140190  1
  O  O152  1  0.25473602  0.87481923  0.35913288  1
  O  O153  1  0.75159092  0.87353089  0.36201088  1
  O  O154  1  0.18544799  0.49713022  0.36203715  1
  O  O155  1  0.68289811  0.49119243  0.35923613  1
  O  O156  1  0.06383699  0.49336064  0.86041445  1
  O  O157  1  0.56378947  0.49334516  0.86048042  1
  O  O158  1  0.18344736  0.87268074  0.86043539  1
  O  O159  1  0.68346674  0.87277973  0.86042808  1
  O  O160  1  0.25485255  0.63514960  0.85849892  1
  O  O161  1  0.75487378  0.63509040  0.85850348  1
  O  O162  1  0.01203848  0.83132509  0.40878062  1
  O  O163  1  0.51164219  0.83293561  0.41104777  1
  O  O164  1  0.40411278  0.97148160  0.41060969  1
  O  O165  1  0.90418626  0.97606294  0.40949495  1
  O  O166  1  0.08391941  0.19140999  0.40959580  1
  O  O167  1  0.58410303  0.18689761  0.41047450  1
  O  O168  1  0.01235256  0.19379048  0.90888361  1
  O  O169  1  0.51236435  0.19385688  0.90891712  1
  O  O170  1  0.08450601  0.97523432  0.90859194  1
  O  O171  1  0.58449260  0.97528289  0.90856471  1
  O  O172  1  0.40328806  0.83123568  0.90869303  1
  O  O173  1  0.90327307  0.83114347  0.90868896  1
  O  O174  1  0.48857345  0.16624885  0.59017383  1
  O  O175  1  0.98855791  0.16632394  0.58988603  1
  O  O176  1  0.09433439  0.02260054  0.58972066  1
  O  O177  1  0.59445978  0.02296724  0.58963509  1
  O  O178  1  0.41702174  0.81155808  0.58964127  1
  O  O179  1  0.91703341  0.81182896  0.58981772  1
  O  O180  1  0.48864710  0.81113763  0.08977835  1
  O  O181  1  0.98880412  0.81107543  0.08978886  1
  O  O182  1  0.41699763  0.02240600  0.08987169  1
  O  O183  1  0.91686812  0.02244400  0.08960167  1
  O  O184  1  0.09435099  0.16626094  0.08959316  1
  O  O185  1  0.59421650  0.16600594  0.08967886  1
  O  O186  1  0.34681053  0.16989535  0.74407867  1
  O  O187  1  0.84673132  0.16991326  0.74396466  1
  O  O188  1  0.23925612  0.31241541  0.74388336  1
  O  O189  1  0.73922632  0.31218755  0.74396069  1
  O  O190  1  0.41448616  0.52700696  0.74392627  1
  O  O191  1  0.91455244  0.52698709  0.74402435  1
  O  O192  1  0.34539898  0.52242146  0.24368855  1
  O  O193  1  0.84414521  0.52174132  0.24431382  1
  O  O194  1  0.41445314  0.30484540  0.24289135  1
  O  O195  1  0.91541754  0.30610157  0.24463978  1
  O  O196  1  0.23927863  0.16606901  0.24422388  1
  O  O197  1  0.73725504  0.17036030  0.24355298  1
  O  O198  1  0.32197550  0.49991673  0.92299479  1
  O  O199  1  0.82195572  0.49976476  0.92308339  1
  O  O200  1  0.42775055  0.35568311  0.92347754  1
  O  O201  1  0.92777823  0.35584570  0.92330447  1
  O  O202  1  0.25027444  0.14437194  0.92341041  1
  O  O203  1  0.75017540  0.14451579  0.92342795  1
  O  O204  1  0.32085305  0.14340232  0.42311065  1
  O  O205  1  0.81986638  0.14171093  0.42368699  1
  O  O206  1  0.25123558  0.36125167  0.42387595  1
  O  O207  1  0.74913591  0.35223339  0.42293734  1
  O  O208  1  0.42617057  0.50122616  0.42367877  1
  O  O209  1  0.92802714  0.49981100  0.42320454  1
  O  O210  1  0.17797281  0.50033157  0.07674113  1
  O  O211  1  0.67810360  0.50059218  0.07696938  1
  O  O212  1  0.07213320  0.64377643  0.07697385  1
  O  O213  1  0.57230486  0.64421754  0.07678804  1
  O  O214  1  0.24968777  0.85545563  0.07705983  1
  O  O215  1  0.74976059  0.85523740  0.07673748  1
  O  O216  1  0.17804360  0.85580185  0.57688524  1
  O  O217  1  0.67776869  0.85508608  0.57698066  1
  O  O218  1  0.24957991  0.64415320  0.57718160  1
  O  O219  1  0.74961899  0.64397931  0.57737030  1
  O  O220  1  0.07222559  0.50060274  0.57691341  1
  O  O221  1  0.57231443  0.50048548  0.57702142  1
  O  O222  1  0.15674428  0.83510598  0.25646019  1
  O  O223  1  0.65515722  0.83150642  0.25676430  1
  O  O224  1  0.26240499  0.69508198  0.25652937  1
  O  O225  1  0.76073962  0.68615319  0.25672267  1
  O  O226  1  0.08414273  0.47620063  0.25720337  1
  O  O227  1  0.58537441  0.47556244  0.25624127  1
  O  O228  1  0.15727465  0.47903205  0.75649544  1
  O  O229  1  0.65727807  0.47900976  0.75652273  1
  O  O230  1  0.08444037  0.69081721  0.75665348  1
  O  O231  1  0.58438017  0.69080836  0.75662561  1
  O  O232  1  0.26289820  0.83036556  0.75678173  1
  O  O233  1  0.76293319  0.83044892  0.75676436  1
