# generated using pymatgen
data_Na9Ca4Nb2(PO4)9
_symmetry_space_group_name_H-M   'P 1'
_cell_length_a   9.28805576
_cell_length_b   27.76690795
_cell_length_c   22.55294554
_cell_angle_alpha   89.90655001
_cell_angle_beta   90.06835317
_cell_angle_gamma   120.03006626
_symmetry_Int_Tables_number   1
_chemical_formula_structural   Na9Ca4Nb2(PO4)9
_chemical_formula_sum   'Na54 Ca24 Nb12 P54 O216'
_cell_volume   5035.63173359
_cell_formula_units_Z   6
loop_
 _symmetry_equiv_pos_site_id
 _symmetry_equiv_pos_as_xyz
  1  'x, y, z'
loop_
 _atom_site_type_symbol
 _atom_site_label
 _atom_site_symmetry_multiplicity
 _atom_site_fract_x
 _atom_site_fract_y
 _atom_site_fract_z
 _atom_site_occupancy
  Na  Na0  1  0.03102259  0.00386483  0.49328754  1
  Na  Na1  1  0.00534383  0.33090360  0.49397532  1
  Na  Na2  1  0.98115388  0.66941480  0.50469166  1
  Na  Na3  1  0.99558259  0.00589872  0.99931124  1
  Na  Na4  1  0.02411214  0.33940400  0.00838447  1
  Na  Na5  1  0.99748720  0.65891649  0.01041984  1
  Na  Na6  1  0.64584017  0.10356365  0.82754255  1
  Na  Na7  1  0.68720091  0.45169269  0.83911887  1
  Na  Na8  1  0.66803068  0.77824547  0.83311661  1
  Na  Na9  1  0.65234311  0.10148523  0.32020078  1
  Na  Na10  1  0.67921368  0.45343998  0.34589309  1
  Na  Na11  1  0.68937541  0.78259682  0.33101892  1
  Na  Na12  1  0.32705135  0.22396483  0.17251678  1
  Na  Na13  1  0.30327465  0.55099575  0.17198309  1
  Na  Na14  1  0.34130675  0.89352340  0.16102986  1
  Na  Na15  1  0.30876440  0.21574421  0.65808686  1
  Na  Na16  1  0.33786043  0.54986739  0.66841655  1
  Na  Na17  1  0.33545685  0.89682756  0.65504864  1
  Na  Na18  1  0.64896104  0.32550794  0.26404567  1
  Na  Na19  1  0.62686489  0.66279088  0.25138755  1
  Na  Na20  1  0.37369320  0.12234429  0.25407295  1
  Na  Na21  1  0.34715996  0.45167884  0.25710179  1
  Na  Na22  1  0.36001866  0.78660348  0.23637535  1
  Na  Na23  1  0.98852945  0.21251448  0.24519492  1
  Na  Na24  1  0.63484124  0.21065346  0.74356322  1
  Na  Na25  1  0.62084134  0.54287115  0.74569713  1
  Na  Na26  1  0.65217003  0.87572249  0.74239514  1
  Na  Na27  1  0.98978884  0.12378827  0.74512229  1
  Na  Na28  1  0.99521517  0.45499478  0.75524851  1
  Na  Na29  1  0.38563596  0.33639045  0.74458964  1
  Na  Na30  1  0.37642247  0.66392749  0.75365656  1
  Na  Na31  1  0.30693186  0.78064122  0.58195461  1
  Na  Na32  1  0.00588664  0.56321076  0.58491499  1
  Na  Na33  1  0.01309384  0.88760184  0.57375457  1
  Na  Na34  1  0.65178623  0.32379489  0.57028089  1
  Na  Na35  1  0.69028497  0.67105532  0.59024037  1
  Na  Na36  1  0.32175186  0.66827284  0.09255219  1
  Na  Na37  1  0.32828556  0.99357653  0.08136107  1
  Na  Na38  1  0.68082143  0.23137801  0.09659225  1
  Na  Na39  1  0.64509278  0.88646108  0.07601313  1
  Na  Na40  1  0.02741832  0.77606615  0.08332964  1
  Na  Na41  1  0.94750362  0.21901996  0.92238595  1
  Na  Na42  1  0.95773834  0.89224521  0.91461226  1
  Na  Na43  1  0.71292575  0.01264378  0.92117163  1
  Na  Na44  1  0.69809035  0.34465906  0.92303767  1
  Na  Na45  1  0.68162755  0.68038319  0.92383527  1
  Na  Na46  1  0.33797905  0.10025591  0.91175662  1
  Na  Na47  1  0.34323677  0.43145074  0.92145435  1
  Na  Na48  1  0.98622547  0.10316593  0.40904192  1
  Na  Na49  1  0.95883705  0.43262478  0.41266114  1
  Na  Na50  1  0.34348279  0.34229382  0.42157551  1
  Na  Na51  1  0.35996720  0.68232638  0.42111073  1
  Na  Na52  1  0.68307633  0.22935005  0.40271524  1
  Na  Na53  1  0.70540303  0.89160415  0.41341589  1
  Ca  Ca54  1  0.00460444  0.00092215  0.34784756  1
  Ca  Ca55  1  0.00769549  0.33833833  0.34387952  1
  Ca  Ca56  1  0.00851806  0.00460623  0.84833576  1
  Ca  Ca57  1  0.00027731  0.33335721  0.85595110  1
  Ca  Ca58  1  0.00986489  0.67204197  0.65400836  1
  Ca  Ca59  1  0.00645881  0.33334381  0.14889104  1
  Ca  Ca60  1  0.99674905  0.66668409  0.15200464  1
  Ca  Ca61  1  0.65338885  0.10766888  0.67996888  1
  Ca  Ca62  1  0.67474172  0.45177407  0.67735209  1
  Ca  Ca63  1  0.67740074  0.77243096  0.68551669  1
  Ca  Ca64  1  0.67753959  0.11338021  0.17610795  1
  Ca  Ca65  1  0.66523206  0.77649436  0.18447219  1
  Ca  Ca66  1  0.65872529  0.10356237  0.98952550  1
  Ca  Ca67  1  0.67957833  0.44776296  0.98661982  1
  Ca  Ca68  1  0.65826575  0.78409141  0.98119248  1
  Ca  Ca69  1  0.65521679  0.44206820  0.49045955  1
  Ca  Ca70  1  0.68971000  0.78256665  0.48183665  1
  Ca  Ca71  1  0.32514939  0.88341273  0.01309418  1
  Ca  Ca72  1  0.32658379  0.22194830  0.51773241  1
  Ca  Ca73  1  0.33085726  0.88698983  0.51261066  1
  Ca  Ca74  1  0.32484922  0.21673086  0.32268934  1
  Ca  Ca75  1  0.32380423  0.55287070  0.31728381  1
  Ca  Ca76  1  0.33299434  0.22208028  0.81076516  1
  Ca  Ca77  1  0.32505561  0.55097849  0.81860934  1
  Nb  Nb78  1  0.99495154  0.66041235  0.35073077  1
  Nb  Nb79  1  0.99692527  0.66474177  0.85310456  1
  Nb  Nb80  1  0.00428359  0.00109631  0.64905389  1
  Nb  Nb81  1  0.00454565  0.33086039  0.64929846  1
  Nb  Nb82  1  0.98753691  0.99820983  0.15510106  1
  Nb  Nb83  1  0.67458333  0.44621919  0.17726337  1
  Nb  Nb84  1  0.65816832  0.10908702  0.48921966  1
  Nb  Nb85  1  0.32827852  0.22439344  0.01738403  1
  Nb  Nb86  1  0.32934097  0.55443797  0.01738207  1
  Nb  Nb87  1  0.34509834  0.55560027  0.51280347  1
  Nb  Nb88  1  0.33249236  0.89613431  0.31734852  1
  Nb  Nb89  1  0.33649059  0.89099446  0.81331527  1
  P  P90  1  0.29336947  0.99759970  0.24800984  1
  P  P91  1  0.32120232  0.33768369  0.25100228  1
  P  P92  1  0.30231392  0.66744217  0.25175861  1
  P  P93  1  0.69012626  0.22831501  0.24947274  1
  P  P94  1  0.69996105  0.56347599  0.24923131  1
  P  P95  1  0.68415393  0.90012582  0.25551980  1
  P  P96  1  0.00555391  0.10222465  0.25308972  1
  P  P97  1  0.99093532  0.43585435  0.24775686  1
  P  P98  1  0.00353692  0.76585510  0.25534953  1
  P  P99  1  0.29572626  0.10282574  0.74945169  1
  P  P100  1  0.29521648  0.43042259  0.75088364  1
  P  P101  1  0.30082909  0.76690943  0.75520065  1
  P  P102  1  0.99629241  0.23382621  0.75302671  1
  P  P103  1  0.99633814  0.56737271  0.75035258  1
  P  P104  1  0.01442745  0.90315019  0.75101978  1
  P  P105  1  0.69996544  0.99713875  0.75439388  1
  P  P106  1  0.70921821  0.33482136  0.74657204  1
  P  P107  1  0.69837744  0.66461288  0.75254680  1
  P  P108  1  0.95703223  0.10595998  0.58903550  1
  P  P109  1  0.98727600  0.44514069  0.58332041  1
  P  P110  1  0.98337859  0.77840627  0.58382118  1
  P  P111  1  0.34980527  0.01032173  0.58671194  1
  P  P112  1  0.35684656  0.33971630  0.58781096  1
  P  P113  1  0.35962488  0.67292256  0.57921664  1
  P  P114  1  0.67858108  0.21432112  0.58778240  1
  P  P115  1  0.66711648  0.55148557  0.58642583  1
  P  P116  1  0.66983949  0.87957141  0.58928296  1
  P  P117  1  0.97651704  0.21582997  0.07883321  1
  P  P118  1  0.98406545  0.54502358  0.07994866  1
  P  P119  1  0.97419828  0.88292039  0.08190710  1
  P  P120  1  0.66789014  0.00417795  0.08042046  1
  P  P121  1  0.65430978  0.34107144  0.07879962  1
  P  P122  1  0.66269975  0.67616825  0.07732063  1
  P  P123  1  0.34414703  0.10987178  0.08344002  1
  P  P124  1  0.37646036  0.44971150  0.07770377  1
  P  P125  1  0.35149248  0.77717465  0.08804256  1
  P  P126  1  0.62424101  0.22071000  0.92020196  1
  P  P127  1  0.63380541  0.55855151  0.91238262  1
  P  P128  1  0.63464150  0.89073369  0.91390621  1
  P  P129  1  0.03785066  0.12505673  0.91582301  1
  P  P130  1  0.03750835  0.45266237  0.91724528  1
  P  P131  1  0.03313390  0.78867624  0.91168871  1
  P  P132  1  0.33715337  0.32162755  0.91369567  1
  P  P133  1  0.31879408  0.65260785  0.91600406  1
  P  P134  1  0.33770359  0.98814549  0.91627582  1
  P  P135  1  0.64289336  0.32714716  0.41713769  1
  P  P136  1  0.64199785  0.65442577  0.41125841  1
  P  P137  1  0.63184341  0.99174729  0.41802031  1
  P  P138  1  0.34166735  0.11959069  0.41853845  1
  P  P139  1  0.32682628  0.45259901  0.41336857  1
  P  P140  1  0.33163525  0.78912089  0.41076022  1
  P  P141  1  0.01217470  0.21794610  0.41563871  1
  P  P142  1  0.04032883  0.55878126  0.41929482  1
  P  P143  1  0.02796636  0.88877593  0.41754840  1
  O  O144  1  0.22049238  0.00571558  0.30373284  1
  O  O145  1  0.27554284  0.35504129  0.31019457  1
  O  O146  1  0.16896954  0.65810805  0.30447271  1
  O  O147  1  0.79448129  0.26273289  0.30332161  1
  O  O148  1  0.81375109  0.59540086  0.30720092  1
  O  O149  1  0.76983671  0.92464247  0.31392916  1
  O  O150  1  0.00939814  0.07980665  0.31432709  1
  O  O151  1  0.94646590  0.40817648  0.30947006  1
  O  O152  1  0.98920374  0.71811212  0.30016655  1
  O  O153  1  0.22455770  0.07845660  0.81030367  1
  O  O154  1  0.22306507  0.40373583  0.81076170  1
  O  O155  1  0.17594111  0.72401199  0.80282376  1
  O  O156  1  0.98911665  0.26017448  0.81143244  1
  O  O157  1  0.00391247  0.60766862  0.80404620  1
  O  O158  1  0.99922042  0.92983379  0.80788092  1
  O  O159  1  0.77828300  0.00136240  0.81473684  1
  O  O160  1  0.80101548  0.33867506  0.80443187  1
  O  O161  1  0.81271144  0.66105529  0.80501625  1
  O  O162  1  0.81981688  0.33419874  0.69196337  1
  O  O163  1  0.78528601  0.66787353  0.69459672  1
  O  O164  1  0.81272232  0.99048690  0.70531403  1
  O  O165  1  0.17315956  0.05865167  0.69997950  1
  O  O166  1  0.17784148  0.38727089  0.70082835  1
  O  O167  1  0.22731957  0.74958982  0.69370491  1
  O  O168  1  0.97604932  0.27040129  0.70077614  1
  O  O169  1  0.99810788  0.59551618  0.69223876  1
  O  O170  1  0.03695880  0.94201294  0.69576962  1
  O  O171  1  0.77735783  0.25742529  0.19141678  1
  O  O172  1  0.77919336  0.60270163  0.19798984  1
  O  O173  1  0.79691731  0.93937531  0.20234985  1
  O  O174  1  0.99627182  0.05535652  0.20707965  1
  O  O175  1  0.00279523  0.39804131  0.20239705  1
  O  O176  1  0.04803648  0.75197737  0.19510397  1
  O  O177  1  0.19482573  0.32699884  0.20279014  1
  O  O178  1  0.22048825  0.67031709  0.19482963  1
  O  O179  1  0.17254011  0.98913564  0.19388202  1
  O  O180  1  0.89112660  0.11359777  0.64775137  1
  O  O181  1  0.93492254  0.46621457  0.63776551  1
  O  O182  1  0.88770606  0.77733564  0.63966652  1
  O  O183  1  0.43658862  0.03225325  0.64491983  1
  O  O184  1  0.46975254  0.37468218  0.63890023  1
  O  O185  1  0.45822584  0.69411944  0.63771999  1
  O  O186  1  0.66767780  0.18722781  0.64727408  1
  O  O187  1  0.63256014  0.52593858  0.64845788  1
  O  O188  1  0.64803113  0.84171123  0.64249215  1
  O  O189  1  0.91971313  0.18712373  0.13932893  1
  O  O190  1  0.87042754  0.50423611  0.13150666  1
  O  O191  1  0.87190498  0.83937200  0.12895893  1
  O  O192  1  0.63673716  0.03972855  0.12441531  1
  O  O193  1  0.64529862  0.38144111  0.12875673  1
  O  O194  1  0.62321843  0.69609268  0.13595489  1
  O  O195  1  0.46957164  0.12772086  0.13447313  1
  O  O196  1  0.50602911  0.45798742  0.12957884  1
  O  O197  1  0.43840470  0.77683310  0.14635176  1
  O  O198  1  0.39783387  0.08924044  0.02888138  1
  O  O199  1  0.44229053  0.44209241  0.01908247  1
  O  O200  1  0.46365959  0.77977784  0.03687031  1
  O  O201  1  0.86380314  0.18091462  0.02772062  1
  O  O202  1  0.89670860  0.52307360  0.02162469  1
  O  O203  1  0.88890842  0.86709568  0.02053567  1
  O  O204  1  0.70411475  0.02979404  0.01847100  1
  O  O205  1  0.66565702  0.36829143  0.01944985  1
  O  O206  1  0.68468093  0.71400581  0.02420985  1
  O  O207  1  0.46318984  0.05142949  0.53517174  1
  O  O208  1  0.41353943  0.36854026  0.52732137  1
  O  O209  1  0.44923108  0.71068246  0.52582465  1
  O  O210  1  0.68799512  0.17423824  0.53783835  1
  O  O211  1  0.69783284  0.51608135  0.54219090  1
  O  O212  1  0.71130988  0.85978928  0.53104378  1
  O  O213  1  0.82735534  0.09770641  0.53719503  1
  O  O214  1  0.86307445  0.42784686  0.53203175  1
  O  O215  1  0.87912988  0.77449127  0.52915049  1
  O  O216  1  0.51352440  0.22133228  0.97482904  1
  O  O217  1  0.52039702  0.56499771  0.96155710  1
  O  O218  1  0.54759834  0.88674262  0.97228396  1
  O  O219  1  0.15529035  0.16835752  0.96584690  1
  O  O220  1  0.16024192  0.49693092  0.96672423  1
  O  O221  1  0.10692434  0.80567895  0.97336904  1
  O  O222  1  0.35730510  0.28508829  0.96588225  1
  O  O223  1  0.29638497  0.61342127  0.97100373  1
  O  O224  1  0.33678485  0.95972137  0.97411750  1
  O  O225  1  0.55580873  0.29819347  0.47527139  1
  O  O226  1  0.53590797  0.61458199  0.46539309  1
  O  O227  1  0.55214399  0.95295553  0.46920333  1
  O  O228  1  0.33018031  0.15726005  0.46423829  1
  O  O229  1  0.33494789  0.49869315  0.46020408  1
  O  O230  1  0.30467325  0.80508353  0.47239106  1
  O  O231  1  0.13936235  0.22902096  0.46369949  1
  O  O232  1  0.16406187  0.56738467  0.47256331  1
  O  O233  1  0.10262940  0.88471840  0.47542670  1
  O  O234  1  0.05799508  0.20075499  0.35634425  1
  O  O235  1  0.11683802  0.55309054  0.36298253  1
  O  O236  1  0.16549828  0.89673088  0.36641515  1
  O  O237  1  0.53811382  0.29278879  0.36335372  1
  O  O238  1  0.55095943  0.62889852  0.35370945  1
  O  O239  1  0.51687919  0.95985014  0.36003996  1
  O  O240  1  0.38915373  0.14812349  0.35720537  1
  O  O241  1  0.32335789  0.47553395  0.35232834  1
  O  O242  1  0.34855249  0.83599050  0.36517972  1
  O  O243  1  0.11012074  0.15180107  0.85598188  1
  O  O244  1  0.10875266  0.47719937  0.85650072  1
  O  O245  1  0.15741804  0.83148558  0.86416951  1
  O  O246  1  0.34441128  0.29544838  0.85519949  1
  O  O247  1  0.33554466  0.62619728  0.85905159  1
  O  O248  1  0.32988319  0.94804550  0.86235154  1
  O  O249  1  0.53288539  0.21710601  0.86233811  1
  O  O250  1  0.55548261  0.55444878  0.85208558  1
  O  O251  1  0.52022930  0.89455560  0.86185562  1
  O  O252  1  0.98190527  0.26748839  0.41111655  1
  O  O253  1  0.03355230  0.61542447  0.41706420  1
  O  O254  1  0.00169752  0.93907435  0.41679883  1
  O  O255  1  0.81727607  0.33212558  0.41594568  1
  O  O256  1  0.81779954  0.65800960  0.41119813  1
  O  O257  1  0.81017470  0.00404391  0.40922912  1
  O  O258  1  0.18500799  0.06234119  0.41928080  1
  O  O259  1  0.16245224  0.39898901  0.42660640  1
  O  O260  1  0.17844751  0.72935561  0.39519445  1
  O  O261  1  0.04232062  0.07085343  0.92705340  1
  O  O262  1  0.04805103  0.40016975  0.93103844  1
  O  O263  1  0.00767384  0.72877700  0.89907953  1
  O  O264  1  0.17017664  0.31858435  0.92628330  1
  O  O265  1  0.15671885  0.65880584  0.91278627  1
  O  O266  1  0.18428411  0.99521483  0.91373631  1
  O  O267  1  0.79260213  0.27498046  0.92641201  1
  O  O268  1  0.80908107  0.61523070  0.91537286  1
  O  O269  1  0.80591216  0.94470657  0.91480884  1
  O  O270  1  0.95898520  0.04853539  0.59375615  1
  O  O271  1  0.01288190  0.39444382  0.59657914  1
  O  O272  1  0.01108836  0.72770125  0.58098081  1
  O  O273  1  0.17712413  0.01075375  0.58627532  1
  O  O274  1  0.17550174  0.33165246  0.59851356  1
  O  O275  1  0.17975123  0.66133142  0.58212396  1
  O  O276  1  0.84525325  0.27351780  0.58430455  1
  O  O277  1  0.80976042  0.61193013  0.58265352  1
  O  O278  1  0.83726268  0.93771372  0.60198303  1
  O  O279  1  0.99273542  0.27331996  0.07641188  1
  O  O280  1  0.03113401  0.60487778  0.09205141  1
  O  O281  1  0.98150689  0.94073340  0.09728833  1
  O  O282  1  0.82843153  0.99955311  0.09790747  1
  O  O283  1  0.79571614  0.32995034  0.09003393  1
  O  O284  1  0.81237280  0.66746884  0.08070092  1
  O  O285  1  0.16937422  0.05902693  0.10239873  1
  O  O286  1  0.20320269  0.40407803  0.09159662  1
  O  O287  1  0.17799662  0.72426466  0.08054276  1
  O  O288  1  0.67954971  0.04736419  0.74415144  1
  O  O289  1  0.69359606  0.38745625  0.74088482  1
  O  O290  1  0.67487802  0.71450528  0.76580447  1
  O  O291  1  0.47322152  0.11344623  0.74554846  1
  O  O292  1  0.47162358  0.43943936  0.74492276  1
  O  O293  1  0.46930044  0.76992960  0.76262931  1
  O  O294  1  0.84716914  0.17421008  0.75018517  1
  O  O295  1  0.83330158  0.51222637  0.76020543  1
  O  O296  1  0.85854321  0.84645262  0.74348359  1
  O  O297  1  0.67183610  0.16930840  0.25354674  1
  O  O298  1  0.69539782  0.50640208  0.24279778  1
  O  O299  1  0.65338411  0.84159582  0.24502391  1
  O  O300  1  0.85579366  0.11012857  0.24467938  1
  O  O301  1  0.83192838  0.44132508  0.23011771  1
  O  O302  1  0.83546841  0.76320416  0.25866047  1
  O  O303  1  0.46539763  0.04712758  0.23580248  1
  O  O304  1  0.49594280  0.39204605  0.23223981  1
  O  O305  1  0.46122982  0.72286725  0.26643197  1
  O  O306  1  0.63991168  0.16813589  0.92588417  1
  O  O307  1  0.65375390  0.50822690  0.92260370  1
  O  O308  1  0.65712326  0.84068935  0.90054306  1
  O  O309  1  0.86166784  0.11614469  0.92179251  1
  O  O310  1  0.85994408  0.44198512  0.92118811  1
  O  O311  1  0.86389276  0.78508017  0.90447904  1
  O  O312  1  0.50075502  0.04336059  0.90661548  1
  O  O313  1  0.48632057  0.38132236  0.91651040  1
  O  O314  1  0.47340524  0.70939993  0.92417615  1
  O  O315  1  0.63767894  0.04914899  0.42406758  1
  O  O316  1  0.66165637  0.38625616  0.41291066  1
  O  O317  1  0.65527286  0.71050944  0.42176180  1
  O  O318  1  0.50014148  0.11375846  0.43656272  1
  O  O319  1  0.47714692  0.44502187  0.42168213  1
  O  O320  1  0.49005110  0.78494498  0.40435343  1
  O  O321  1  0.83757631  0.16366496  0.43445447  1
  O  O322  1  0.86942588  0.50875643  0.43050654  1
  O  O323  1  0.86413078  0.83615987  0.40180803  1
  O  O324  1  0.31856734  0.16069775  0.06997869  1
  O  O325  1  0.37477273  0.50720866  0.07311724  1
  O  O326  1  0.32818048  0.82883046  0.08947787  1
  O  O327  1  0.15794330  0.22396184  0.06823206  1
  O  O328  1  0.15615936  0.54446311  0.08040977  1
  O  O329  1  0.15504404  0.89507417  0.08280653  1
  O  O330  1  0.48788550  0.28205648  0.08249790  1
  O  O331  1  0.49507822  0.61805601  0.06515719  1
  O  O332  1  0.52244894  0.94405338  0.08378897  1
  O  O333  1  0.34078501  0.28230950  0.59016071  1
  O  O334  1  0.34923433  0.61363863  0.56950077  1
  O  O335  1  0.30365331  0.95065783  0.57417479  1
  O  O336  1  0.53745683  0.22555338  0.57673606  1
  O  O337  1  0.50338839  0.55473370  0.56975851  1
  O  O338  1  0.52009188  0.88806792  0.58551758  1
  O  O339  1  0.13003100  0.15153781  0.57524503  1
  O  O340  1  0.16275183  0.49578218  0.56425384  1
  O  O341  1  0.15604774  0.83215035  0.58556101  1
  O  O342  1  0.35133895  0.28814641  0.25553993  1
  O  O343  1  0.33845364  0.61937559  0.25075875  1
  O  O344  1  0.30436947  0.94182409  0.25235472  1
  O  O345  1  0.51577216  0.22334316  0.25053530  1
  O  O346  1  0.52109222  0.55089676  0.25714959  1
  O  O347  1  0.50815268  0.89731723  0.25334913  1
  O  O348  1  0.17010373  0.15572826  0.23941946  1
  O  O349  1  0.14664601  0.49349203  0.24592976  1
  O  O350  1  0.15224695  0.82418290  0.27386041  1
  O  O351  1  0.28558483  0.15544239  0.73570569  1
  O  O352  1  0.29098889  0.48472159  0.73985042  1
  O  O353  1  0.32636100  0.82668884  0.76785519  1
  O  O354  1  0.16340281  0.23703648  0.74039074  1
  O  O355  1  0.15014726  0.56049898  0.75320096  1
  O  O356  1  0.17587567  0.89647448  0.75419135  1
  O  O357  1  0.54096965  0.28061838  0.74044985  1
  O  O358  1  0.52649216  0.61068967  0.75178254  1
  O  O359  1  0.52408758  0.94043221  0.75166433  1
