# generated using pymatgen
data_MgZn2(WO4)2
_symmetry_space_group_name_H-M   'P 1'
_cell_length_a   5.26595069
_cell_length_b   5.03591948
_cell_length_c   6.12926101
_cell_angle_alpha   90.00000000
_cell_angle_beta   90.00000000
_cell_angle_gamma   82.27494191
_symmetry_Int_Tables_number   1
_chemical_formula_structural   MgZn2(WO4)2
_chemical_formula_sum   'Mg1 Zn2 W2 O8'
_cell_volume   161.06613993
_cell_formula_units_Z   1
loop_
 _symmetry_equiv_pos_site_id
 _symmetry_equiv_pos_as_xyz
  1  'x, y, z'
loop_
 _atom_site_type_symbol
 _atom_site_label
 _atom_site_symmetry_multiplicity
 _atom_site_fract_x
 _atom_site_fract_y
 _atom_site_fract_z
 _atom_site_occupancy
  Mg  Mg0  1  0.50000000  0.25000000  0.05324771  1
  Zn  Zn1  1  0.50000000  0.25000000  0.59960665  1
  Zn  Zn2  1  0.50000000  0.75000000  0.41442184  1
  W  W3  1  -0.00000000  0.25000000  0.17307461  1
  W  W4  1  -0.00000000  0.75000000  0.84384106  1
  O  O5  1  0.79192298  0.96344329  0.10090505  1
  O  O6  1  0.20807702  0.53655671  0.10090505  1
  O  O7  1  0.21239158  0.04361986  0.91306057  1
  O  O8  1  0.78760842  0.45638014  0.91306057  1
  O  O9  1  0.70666973  0.40225811  0.35133895  1
  O  O10  1  0.29333027  0.09774189  0.35133895  1
  O  O11  1  0.26464677  0.58765997  0.63947450  1
  O  O12  1  0.73535323  0.91234003  0.63947450  1
