# generated using pymatgen
data_Na6CaSi2Ge3(PO6)4
_symmetry_space_group_name_H-M   'P 1'
_cell_length_a   15.32279726
_cell_length_b   8.81856081
_cell_length_c   8.89690890
_cell_angle_alpha   89.62788391
_cell_angle_beta   125.05712206
_cell_angle_gamma   90.16062901
_symmetry_Int_Tables_number   1
_chemical_formula_structural   Na6CaSi2Ge3(PO6)4
_chemical_formula_sum   'Na12 Ca2 Si4 Ge6 P8 O48'
_cell_volume   984.07114710
_cell_formula_units_Z   2
loop_
 _symmetry_equiv_pos_site_id
 _symmetry_equiv_pos_as_xyz
  1  'x, y, z'
loop_
 _atom_site_type_symbol
 _atom_site_label
 _atom_site_symmetry_multiplicity
 _atom_site_fract_x
 _atom_site_fract_y
 _atom_site_fract_z
 _atom_site_occupancy
  Na  Na0  1  0.25042324  0.74631612  0.99666384  1
  Na  Na1  1  0.74962300  0.74668319  0.49321384  1
  Na  Na2  1  0.75042324  0.24631612  0.99666384  1
  Na  Na3  1  0.24962300  0.24668319  0.49321384  1
  Na  Na4  1  0.50668877  0.09570241  0.75840827  1
  Na  Na5  1  0.50105031  0.88739034  0.24050724  1
  Na  Na6  1  0.00668877  0.59570241  0.75840827  1
  Na  Na7  1  0.00105031  0.38739034  0.24050724  1
  Na  Na8  1  0.80290487  0.92455847  0.22061908  1
  Na  Na9  1  0.18235322  0.07614755  0.78655131  1
  Na  Na10  1  0.30290487  0.42455847  0.22061908  1
  Na  Na11  1  0.68235322  0.57614755  0.78655131  1
  Ca  Ca12  1  0.10068885  0.24311046  0.05927722  1
  Ca  Ca13  1  0.60068885  0.74311046  0.05927722  1
  Si  Si14  1  0.65211996  0.90266574  0.74487838  1
  Si  Si15  1  0.36261453  0.09773184  0.25866147  1
  Si  Si16  1  0.15211996  0.40266574  0.74487838  1
  Si  Si17  1  0.86261453  0.59773184  0.25866147  1
  Ge  Ge18  1  0.10365195  0.74715813  0.55668054  1
  Ge  Ge19  1  0.89511751  0.75371814  0.93906482  1
  Ge  Ge20  1  0.89871361  0.25383351  0.44209983  1
  Ge  Ge21  1  0.60365195  0.24715813  0.55668054  1
  Ge  Ge22  1  0.39511751  0.25371814  0.93906482  1
  Ge  Ge23  1  0.39871361  0.75383351  0.44209983  1
  P  P24  1  0.99367980  0.94759131  0.73787126  1
  P  P25  1  0.99645586  0.03411156  0.26030310  1
  P  P26  1  0.49367980  0.44759131  0.73787126  1
  P  P27  1  0.49645586  0.53411156  0.26030310  1
  P  P28  1  0.34786320  0.89850442  0.74872935  1
  P  P29  1  0.64768650  0.12711205  0.25298188  1
  P  P30  1  0.84786320  0.39850442  0.74872935  1
  P  P31  1  0.14768650  0.62711205  0.25298188  1
  O  O32  1  0.16088683  0.58674789  0.72103635  1
  O  O33  1  0.84937211  0.57709634  0.75298212  1
  O  O34  1  0.86044675  0.40899179  0.26806141  1
  O  O35  1  0.15530069  0.45349697  0.25833329  1
  O  O36  1  0.66088683  0.08674789  0.72103635  1
  O  O37  1  0.34937211  0.07709634  0.75298212  1
  O  O38  1  0.36044675  0.90899179  0.26806141  1
  O  O39  1  0.65530069  0.95349697  0.25833329  1
  O  O40  1  0.42054090  0.54906472  0.56201293  1
  O  O41  1  0.57047792  0.53887953  0.90616289  1
  O  O42  1  0.55728374  0.43639981  0.43508318  1
  O  O43  1  0.43201052  0.43413741  0.08377342  1
  O  O44  1  0.92054090  0.04906472  0.56201293  1
  O  O45  1  0.07047792  0.03887953  0.90616289  1
  O  O46  1  0.05728374  0.93639981  0.43508318  1
  O  O47  1  0.93201052  0.93413741  0.08377342  1
  O  O48  1  0.24028804  0.84935896  0.71633042  1
  O  O49  1  0.75305251  0.81236215  0.76396745  1
  O  O50  1  0.74489326  0.19553359  0.26224240  1
  O  O51  1  0.27130998  0.17975502  0.26089319  1
  O  O52  1  0.74028804  0.34935896  0.71633042  1
  O  O53  1  0.25305251  0.31236215  0.76396745  1
  O  O54  1  0.24489326  0.69553359  0.26224240  1
  O  O55  1  0.77130998  0.67975502  0.26089319  1
  O  O56  1  0.36256616  0.85942431  0.59237432  1
  O  O57  1  0.65271251  0.89191085  0.92449072  1
  O  O58  1  0.64833468  0.17845110  0.41662707  1
  O  O59  1  0.35930260  0.13135946  0.06862791  1
  O  O60  1  0.86256616  0.35942431  0.59237432  1
  O  O61  1  0.15271251  0.39191085  0.92449072  1
  O  O62  1  0.14833468  0.67845110  0.41662707  1
  O  O63  1  0.85930260  0.63135946  0.06862791  1
  O  O64  1  0.43653519  0.83567990  0.93429752  1
  O  O65  1  0.54362602  0.81009716  0.57071749  1
  O  O66  1  0.54342827  0.18035463  0.06535193  1
  O  O67  1  0.47611340  0.15456956  0.43686378  1
  O  O68  1  0.93653519  0.33567990  0.93429752  1
  O  O69  1  0.04362602  0.31009716  0.57071749  1
  O  O70  1  0.04342827  0.68035463  0.06535193  1
  O  O71  1  0.97611340  0.65456956  0.43686378  1
  O  O72  1  0.07030444  0.83978262  0.72194073  1
  O  O73  1  0.91909172  0.84069048  0.75726816  1
  O  O74  1  0.90754692  0.12642085  0.25886788  1
  O  O75  1  0.07293967  0.14709961  0.26518200  1
  O  O76  1  0.57030444  0.33978262  0.72194073  1
  O  O77  1  0.41909172  0.34069048  0.75726816  1
  O  O78  1  0.40754692  0.62642085  0.25886788  1
  O  O79  1  0.57293967  0.64709961  0.26518200  1
