# generated using pymatgen
data_KGaBr4
_symmetry_space_group_name_H-M   'P 1'
_cell_length_a   13.22221724
_cell_length_b   13.22221724
_cell_length_c   13.22221693
_cell_angle_alpha   115.19439957
_cell_angle_beta   115.19439957
_cell_angle_gamma   115.19440411
_symmetry_Int_Tables_number   1
_chemical_formula_structural   KGaBr4
_chemical_formula_sum   'K6 Ga6 Br24'
_cell_volume   1270.49894395
_cell_formula_units_Z   6
loop_
 _symmetry_equiv_pos_site_id
 _symmetry_equiv_pos_as_xyz
  1  'x, y, z'
loop_
 _atom_site_type_symbol
 _atom_site_label
 _atom_site_symmetry_multiplicity
 _atom_site_fract_x
 _atom_site_fract_y
 _atom_site_fract_z
 _atom_site_occupancy
  K  K0  1  0.88238029  0.69394025  0.09922618  1
  K  K1  1  0.09922618  0.88238029  0.69394025  1
  K  K2  1  0.69394025  0.09922618  0.88238029  1
  K  K3  1  0.19394025  0.38238029  0.59922618  1
  K  K4  1  0.59922618  0.19394025  0.38238029  1
  K  K5  1  0.38238029  0.59922618  0.19394025  1
  Ga  Ga6  1  0.87244863  0.08421648  0.68685752  1
  Ga  Ga7  1  0.68685752  0.87244863  0.08421648  1
  Ga  Ga8  1  0.08421648  0.68685752  0.87244863  1
  Ga  Ga9  1  0.58421648  0.37244863  0.18685752  1
  Ga  Ga10  1  0.18685752  0.58421648  0.37244863  1
  Ga  Ga11  1  0.37244863  0.18685752  0.58421648  1
  Br  Br12  1  0.96976029  0.12503603  0.90983967  1
  Br  Br13  1  0.90983967  0.96976029  0.12503603  1
  Br  Br14  1  0.12503603  0.90983967  0.96976029  1
  Br  Br15  1  0.62503603  0.46976029  0.40983967  1
  Br  Br16  1  0.40983967  0.62503603  0.46976029  1
  Br  Br17  1  0.46976029  0.40983967  0.62503603  1
  Br  Br18  1  0.07850366  0.32888397  0.78410401  1
  Br  Br19  1  0.78410401  0.07850366  0.32888397  1
  Br  Br20  1  0.32888397  0.78410401  0.07850366  1
  Br  Br21  1  0.82888397  0.57850366  0.28410401  1
  Br  Br22  1  0.28410401  0.82888397  0.57850366  1
  Br  Br23  1  0.57850366  0.28410401  0.82888397  1
  Br  Br24  1  0.63360971  0.02054531  0.55924971  1
  Br  Br25  1  0.55924971  0.63360971  0.02054531  1
  Br  Br26  1  0.02054531  0.55924971  0.63360971  1
  Br  Br27  1  0.52054531  0.13360971  0.05924971  1
  Br  Br28  1  0.05924971  0.52054531  0.13360971  1
  Br  Br29  1  0.13360971  0.05924971  0.52054531  1
  Br  Br30  1  0.80142363  0.85978906  0.48798361  1
  Br  Br31  1  0.48798361  0.80142363  0.85978906  1
  Br  Br32  1  0.85978906  0.48798361  0.80142363  1
  Br  Br33  1  0.35978906  0.30142363  0.98798361  1
  Br  Br34  1  0.98798361  0.35978906  0.30142363  1
  Br  Br35  1  0.30142363  0.98798361  0.35978906  1
