# generated using pymatgen
data_Fe3BO6
_symmetry_space_group_name_H-M   'P 1'
_cell_length_a   4.46920401
_cell_length_b   8.59569376
_cell_length_c   10.09319898
_cell_angle_alpha   90.00000000
_cell_angle_beta   90.00000000
_cell_angle_gamma   90.00000000
_symmetry_Int_Tables_number   1
_chemical_formula_structural   Fe3BO6
_chemical_formula_sum   'Fe12 B4 O24'
_cell_volume   387.73941375
_cell_formula_units_Z   4
loop_
 _symmetry_equiv_pos_site_id
 _symmetry_equiv_pos_as_xyz
  1  'x, y, z'
loop_
 _atom_site_type_symbol
 _atom_site_label
 _atom_site_symmetry_multiplicity
 _atom_site_fract_x
 _atom_site_fract_y
 _atom_site_fract_z
 _atom_site_occupancy
  Fe  Fe0  1  0.48311745  0.75000000  0.91119736  1
  Fe  Fe1  1  0.98311745  0.25000000  0.58880264  1
  Fe  Fe2  1  0.51688255  0.25000000  0.08880264  1
  Fe  Fe3  1  0.01688255  0.75000000  0.41119736  1
  Fe  Fe4  1  0.52317041  0.43422523  0.37089526  1
  Fe  Fe5  1  0.02317041  0.56577477  0.12910474  1
  Fe  Fe6  1  0.47682959  0.93422523  0.62910474  1
  Fe  Fe7  1  0.97682959  0.06577477  0.87089526  1
  Fe  Fe8  1  0.47682959  0.56577477  0.62910474  1
  Fe  Fe9  1  0.97682959  0.43422523  0.87089526  1
  Fe  Fe10  1  0.52317041  0.06577477  0.37089526  1
  Fe  Fe11  1  0.02317041  0.93422523  0.12910474  1
  B  B12  1  0.08961440  0.25000000  0.28307920  1
  B  B13  1  0.91038560  0.75000000  0.71692080  1
  B  B14  1  0.41038560  0.25000000  0.78307920  1
  B  B15  1  0.58961440  0.75000000  0.21692080  1
  O  O16  1  0.77513129  0.75000000  0.58155855  1
  O  O17  1  0.27513129  0.25000000  0.91844145  1
  O  O18  1  0.22486871  0.25000000  0.41844145  1
  O  O19  1  0.72486871  0.75000000  0.08155855  1
  O  O20  1  0.76453172  0.41886594  0.03567079  1
  O  O21  1  0.26453172  0.58113406  0.46432921  1
  O  O22  1  0.23546828  0.91886594  0.96432921  1
  O  O23  1  0.73546828  0.08113406  0.53567079  1
  O  O24  1  0.26733494  0.75000000  0.21818840  1
  O  O25  1  0.23266506  0.75000000  0.71818840  1
  O  O26  1  0.76733494  0.25000000  0.28181160  1
  O  O27  1  0.73266506  0.25000000  0.78181160  1
  O  O28  1  0.73362309  0.88697094  0.28499163  1
  O  O29  1  0.23362309  0.11302906  0.21500837  1
  O  O30  1  0.26637691  0.38697094  0.71500837  1
  O  O31  1  0.76637691  0.61302906  0.78499163  1
  O  O32  1  0.26637691  0.11302906  0.71500837  1
  O  O33  1  0.76637691  0.88697094  0.78499163  1
  O  O34  1  0.73362309  0.61302906  0.28499163  1
  O  O35  1  0.23362309  0.38697094  0.21500837  1
  O  O36  1  0.26453172  0.91886594  0.46432921  1
  O  O37  1  0.76453172  0.08113406  0.03567079  1
  O  O38  1  0.73546828  0.41886594  0.53567079  1
  O  O39  1  0.23546828  0.58113406  0.96432921  1
