# generated using pymatgen
data_Na9Ta2Zn4(PO4)9
_symmetry_space_group_name_H-M   'P 1'
_cell_length_a   9.02292393
_cell_length_b   26.96998721
_cell_length_c   22.11151191
_cell_angle_alpha   89.93819342
_cell_angle_beta   89.97005511
_cell_angle_gamma   120.08603033
_symmetry_Int_Tables_number   1
_chemical_formula_structural   Na9Ta2Zn4(PO4)9
_chemical_formula_sum   'Na54 Ta12 Zn24 P54 O216'
_cell_volume   4655.85433476
_cell_formula_units_Z   6
loop_
 _symmetry_equiv_pos_site_id
 _symmetry_equiv_pos_as_xyz
  1  'x, y, z'
loop_
 _atom_site_type_symbol
 _atom_site_label
 _atom_site_symmetry_multiplicity
 _atom_site_fract_x
 _atom_site_fract_y
 _atom_site_fract_z
 _atom_site_occupancy
  Na  Na0  1  0.02170354  0.00366161  0.49085451  1
  Na  Na1  1  0.00952271  0.33133117  0.49182553  1
  Na  Na2  1  0.98610763  0.66912602  0.50671641  1
  Na  Na3  1  0.99738129  0.00317618  0.99354735  1
  Na  Na4  1  0.01659837  0.33794616  0.00776515  1
  Na  Na5  1  0.99640138  0.66128320  0.01069552  1
  Na  Na6  1  0.65186769  0.10624726  0.82962793  1
  Na  Na7  1  0.68106385  0.44915593  0.83705382  1
  Na  Na8  1  0.66727488  0.77802493  0.83315678  1
  Na  Na9  1  0.65309191  0.10267249  0.32115484  1
  Na  Na10  1  0.67833665  0.45203633  0.34527190  1
  Na  Na11  1  0.69353986  0.78316130  0.33213222  1
  Na  Na12  1  0.32327958  0.22362795  0.17487756  1
  Na  Na13  1  0.31158324  0.55123403  0.17513695  1
  Na  Na14  1  0.33559626  0.89231596  0.15981400  1
  Na  Na15  1  0.31635735  0.21726568  0.65884011  1
  Na  Na16  1  0.33625816  0.55265653  0.67377822  1
  Na  Na17  1  0.33580300  0.89415274  0.65528889  1
  Na  Na18  1  0.64124991  0.32743146  0.26259660  1
  Na  Na19  1  0.62017933  0.66589896  0.24612087  1
  Na  Na20  1  0.37453526  0.12447173  0.25511017  1
  Na  Na21  1  0.34618169  0.45267783  0.25814928  1
  Na  Na22  1  0.36638324  0.78572001  0.23741298  1
  Na  Na23  1  0.99769682  0.21137945  0.24833276  1
  Na  Na24  1  0.62393053  0.20803364  0.74943711  1
  Na  Na25  1  0.62213245  0.54163683  0.74529378  1
  Na  Na26  1  0.64314753  0.87402245  0.74275263  1
  Na  Na27  1  -0.00000703  0.12656681  0.74976651  1
  Na  Na28  1  0.99539779  0.45718265  0.75580528  1
  Na  Na29  1  0.38240358  0.33386975  0.74989823  1
  Na  Na30  1  0.38031044  0.66716811  0.74685635  1
  Na  Na31  1  0.30081121  0.77875955  0.58227276  1
  Na  Na32  1  0.01277452  0.56678139  0.58964244  1
  Na  Na33  1  0.02132176  0.89116768  0.57441465  1
  Na  Na34  1  0.64935335  0.32149827  0.57110462  1
  Na  Na35  1  0.68540454  0.66532613  0.59162455  1
  Na  Na36  1  0.31267506  0.66463630  0.09291767  1
  Na  Na37  1  0.32134161  0.98979931  0.07697611  1
  Na  Na38  1  0.68317667  0.23356470  0.09579859  1
  Na  Na39  1  0.64860818  0.89172393  0.07475409  1
  Na  Na40  1  0.03323525  0.77777878  0.08361565  1
  Na  Na41  1  0.95074958  0.22154074  0.91698477  1
  Na  Na42  1  0.95357631  0.88889042  0.91950100  1
  Na  Na43  1  0.71124184  0.01390085  0.92142575  1
  Na  Na44  1  0.70901176  0.34739116  0.91721788  1
  Na  Na45  1  0.69018515  0.68177806  0.92366728  1
  Na  Na46  1  0.33796687  0.09830228  0.91109096  1
  Na  Na47  1  0.33313196  0.42881932  0.91677813  1
  Na  Na48  1  0.98607236  0.10210200  0.40805239  1
  Na  Na49  1  0.95802373  0.43058047  0.41188406  1
  Na  Na50  1  0.33475137  0.34349099  0.41834759  1
  Na  Na51  1  0.35785695  0.68362383  0.42180820  1
  Na  Na52  1  0.69142311  0.22771743  0.40407413  1
  Na  Na53  1  0.70900938  0.88906293  0.41923919  1
  Ta  Ta54  1  0.99398425  0.66277151  0.35240503  1
  Ta  Ta55  1  0.99862983  0.66506461  0.85375083  1
  Ta  Ta56  1  0.00286400  0.00180369  0.64614696  1
  Ta  Ta57  1  0.00455578  0.33143261  0.64761303  1
  Ta  Ta58  1  0.99205929  0.99956615  0.15042169  1
  Ta  Ta59  1  0.67280295  0.44552747  0.18242112  1
  Ta  Ta60  1  0.66028519  0.10981551  0.48414810  1
  Ta  Ta61  1  0.32834773  0.22390132  0.01908683  1
  Ta  Ta62  1  0.33057640  0.55376417  0.02041066  1
  Ta  Ta63  1  0.34072791  0.55488336  0.51727119  1
  Ta  Ta64  1  0.33239394  0.89422267  0.31478808  1
  Ta  Ta65  1  0.33482855  0.89068394  0.81284121  1
  Zn  Zn66  1  0.00624541  0.99945765  0.34933716  1
  Zn  Zn67  1  0.99864729  0.33479077  0.34376944  1
  Zn  Zn68  1  0.00454496  0.00093617  0.84742879  1
  Zn  Zn69  1  0.99943727  0.33339568  0.85194226  1
  Zn  Zn70  1  0.00268025  0.67069796  0.65340959  1
  Zn  Zn71  1  0.00712423  0.33395587  0.15050120  1
  Zn  Zn72  1  0.00136269  0.66700855  0.15052937  1
  Zn  Zn73  1  0.65901223  0.10900008  0.68246370  1
  Zn  Zn74  1  0.66078185  0.44561356  0.67846728  1
  Zn  Zn75  1  0.68615594  0.77647929  0.68063189  1
  Zn  Zn76  1  0.67827563  0.11294440  0.17939124  1
  Zn  Zn77  1  0.66320992  0.77834842  0.18101729  1
  Zn  Zn78  1  0.67228474  0.10967899  0.98842985  1
  Zn  Zn79  1  0.67417033  0.44646167  0.98412720  1
  Zn  Zn80  1  0.65048265  0.78020512  0.98529142  1
  Zn  Zn81  1  0.65355276  0.44204378  0.48742644  1
  Zn  Zn82  1  0.69595920  0.78082748  0.48497321  1
  Zn  Zn83  1  0.33098135  0.88512835  0.01381435  1
  Zn  Zn84  1  0.32537209  0.22126497  0.51612250  1
  Zn  Zn85  1  0.32697282  0.88713556  0.51446936  1
  Zn  Zn86  1  0.33425978  0.22031650  0.32302887  1
  Zn  Zn87  1  0.32531066  0.55424598  0.31677613  1
  Zn  Zn88  1  0.33358901  0.22197515  0.81471117  1
  Zn  Zn89  1  0.32892765  0.55476890  0.81932564  1
  P  P90  1  0.29290159  0.00074391  0.24934479  1
  P  P91  1  0.29806706  0.33439335  0.25108491  1
  P  P92  1  0.29367846  0.66440902  0.24880986  1
  P  P93  1  0.70145027  0.23282055  0.24863562  1
  P  P94  1  0.70669061  0.56883845  0.24625993  1
  P  P95  1  0.70034611  0.90075240  0.25513781  1
  P  P96  1  0.99654367  0.09818477  0.25527761  1
  P  P97  1  -0.00009636  0.43253384  0.24884031  1
  P  P98  1  0.00055828  0.76504551  0.24985165  1
  P  P99  1  0.29561714  0.09840520  0.75305944  1
  P  P100  1  0.29527800  0.42983023  0.75329743  1
  P  P101  1  0.29338596  0.76506822  0.75017024  1
  P  P102  1  0.99510672  0.23400859  0.75507093  1
  P  P103  1  0.00281004  0.56950070  0.74688782  1
  P  P104  1  0.00240327  0.90205215  0.75130507  1
  P  P105  1  0.70995428  0.00099538  0.75418624  1
  P  P106  1  0.70988668  0.33476161  0.75060702  1
  P  P107  1  0.70199780  0.66583838  0.74975190  1
  P  P108  1  0.95994358  0.11189308  0.58784513  1
  P  P109  1  0.96432184  0.44462650  0.58385755  1
  P  P110  1  0.97223627  0.77764096  0.58381733  1
  P  P111  1  0.36891162  0.01216144  0.58798322  1
  P  P112  1  0.36911899  0.34365741  0.58406989  1
  P  P113  1  0.37411494  0.67985783  0.58095072  1
  P  P114  1  0.66595420  0.20953324  0.58813034  1
  P  P115  1  0.66749288  0.54349856  0.58435577  1
  P  P116  1  0.66444889  0.87511473  0.58558300  1
  P  P117  1  0.96391381  0.21180035  0.08265392  1
  P  P118  1  0.96451367  0.54328957  0.07878160  1
  P  P119  1  0.96012343  0.87589038  0.08265679  1
  P  P120  1  0.66650488  0.01192658  0.08232754  1
  P  P121  1  0.66726026  0.34590569  0.07847188  1
  P  P122  1  0.66808865  0.68047992  0.08114697  1
  P  P123  1  0.36734965  0.11050467  0.08275235  1
  P  P124  1  0.37332306  0.44374768  0.07893827  1
  P  P125  1  0.36168221  0.77746407  0.08556873  1
  P  P126  1  0.62351207  0.22085509  0.91603101  1
  P  P127  1  0.62379464  0.55467292  0.91261060  1
  P  P128  1  0.63038664  0.88950999  0.91706074  1
  P  P129  1  0.03776451  0.12567863  0.91333307  1
  P  P130  1  0.03771121  0.45717239  0.91366480  1
  P  P131  1  0.04086482  0.79058140  0.91677679  1
  P  P132  1  0.33838116  0.32148932  0.91160743  1
  P  P133  1  0.33061060  0.65360816  0.91571040  1
  P  P134  1  0.33063276  0.98620805  0.91968379  1
  P  P135  1  0.63155179  0.32266289  0.41800827  1
  P  P136  1  0.63080129  0.65415336  0.41235950  1
  P  P137  1  0.62546626  0.98645750  0.42078479  1
  P  P138  1  0.33333791  0.12299409  0.41786189  1
  P  P139  1  0.33620578  0.45682097  0.41152826  1
  P  P140  1  0.33083804  0.79109248  0.41509755  1
  P  P141  1  0.03535940  0.22123060  0.41561228  1
  P  P142  1  0.04025949  0.55550079  0.41719912  1
  P  P143  1  0.03553047  0.88979267  0.42011499  1
  O  O144  1  0.20937803  0.00804361  0.30494374  1
  O  O145  1  0.23829368  0.35105960  0.30946025  1
  O  O146  1  0.17758509  0.66408583  0.30471906  1
  O  O147  1  0.81064256  0.26226810  0.30573013  1
  O  O148  1  0.81623893  0.59773417  0.30620556  1
  O  O149  1  0.79522470  0.92891099  0.31292296  1
  O  O150  1  0.98574725  0.06697928  0.31397698  1
  O  O151  1  0.95430678  0.39822559  0.30891932  1
  O  O152  1  0.98669927  0.72140138  0.30184600  1
  O  O153  1  0.21490129  0.06750405  0.81245232  1
  O  O154  1  0.21750979  0.39754375  0.81238696  1
  O  O155  1  0.17833681  0.72476525  0.80333750  1
  O  O156  1  0.97575665  0.26141212  0.81286970  1
  O  O157  1  0.99553906  0.60607677  0.80328972  1
  O  O158  1  0.98111119  0.92910175  0.80880673  1
  O  O159  1  0.80311416  0.00632697  0.81341674  1
  O  O160  1  0.81262462  0.34240744  0.80869649  1
  O  O161  1  0.81566131  0.66667119  0.80610762  1
  O  O162  1  0.81370271  0.33052937  0.69391657  1
  O  O163  1  0.78554266  0.65965063  0.69208762  1
  O  O164  1  0.80923073  0.99119564  0.70060597  1
  O  O165  1  0.17031281  0.05978037  0.69917104  1
  O  O166  1  0.17505991  0.39165783  0.69908748  1
  O  O167  1  0.20368630  0.74277270  0.69016643  1
  O  O168  1  0.99664381  0.27259309  0.69925881  1
  O  O169  1  0.02111439  0.60428269  0.68966276  1
  O  O170  1  0.02684032  0.94063037  0.69413763  1
  O  O171  1  0.78493277  0.26832103  0.19128096  1
  O  O172  1  0.79584393  0.60811598  0.19375409  1
  O  O173  1  0.79979472  0.93894253  0.19798378  1
  O  O174  1  0.00460067  0.05808163  0.20219551  1
  O  O175  1  0.02246132  0.40104128  0.19626862  1
  O  O176  1  0.04537589  0.74573357  0.19150494  1
  O  O177  1  0.18370428  0.32449750  0.19720541  1
  O  O178  1  0.20053572  0.66328853  0.19107707  1
  O  O179  1  0.17615979  0.99127442  0.19191930  1
  O  O180  1  0.88037956  0.11708556  0.64616149  1
  O  O181  1  0.90048925  0.46142165  0.64031854  1
  O  O182  1  0.89094306  0.78720562  0.64022714  1
  O  O183  1  0.46760108  0.03942883  0.64497892  1
  O  O184  1  0.47989875  0.37364976  0.63981269  1
  O  O185  1  0.47870015  0.70223463  0.63962936  1
  O  O186  1  0.65633771  0.17865822  0.64648500  1
  O  O187  1  0.63694512  0.51338677  0.64576751  1
  O  O188  1  0.63947968  0.83796174  0.64202181  1
  O  O189  1  0.89722495  0.17816459  0.14177980  1
  O  O190  1  0.86481744  0.50408711  0.13504010  1
  O  O191  1  0.87035556  0.83561232  0.13552847  1
  O  O192  1  0.63711788  0.04347192  0.13359980  1
  O  O193  1  0.64889447  0.38057134  0.13387142  1
  O  O194  1  0.62331111  0.70219216  0.13920689  1
  O  O195  1  0.48131029  0.12474791  0.13833057  1
  O  O196  1  0.49725627  0.45347129  0.13474019  1
  O  O197  1  0.46609112  0.78514322  0.14402296  1
  O  O198  1  0.43208839  0.09403645  0.02618529  1
  O  O199  1  0.45334406  0.43863315  0.02056927  1
  O  O200  1  0.45284485  0.76971983  0.03126887  1
  O  O201  1  0.85362154  0.18196378  0.02675347  1
  O  O202  1  0.86566223  0.51623675  0.02181791  1
  O  O203  1  0.85969544  0.85579346  0.02271263  1
  O  O204  1  0.69795305  0.04214114  0.02097255  1
  O  O205  1  0.67741075  0.37699193  0.02023843  1
  O  O206  1  0.69381559  0.71762449  0.02469957  1
  O  O207  1  0.46881153  0.05163646  0.53177795  1
  O  O208  1  0.43520678  0.37723004  0.52487155  1
  O  O209  1  0.46089710  0.71679292  0.52476246  1
  O  O210  1  0.68478121  0.17511565  0.53270983  1
  O  O211  1  0.69601032  0.51188169  0.53295867  1
  O  O212  1  0.70838932  0.85319213  0.52758624  1
  O  O213  1  0.83607956  0.10215182  0.53202705  1
  O  O214  1  0.85140179  0.43083952  0.52808022  1
  O  O215  1  0.85639222  0.76514618  0.52824963  1
  O  O216  1  0.51968886  0.22515795  0.97272449  1
  O  O217  1  0.52413069  0.56435756  0.96613325  1
  O  O218  1  0.54615862  0.89516159  0.97484681  1
  O  O219  1  0.15823777  0.16394453  0.96752177  1
  O  O220  1  0.16297287  0.49583481  0.96751410  1
  O  O221  1  0.13081391  0.81258676  0.97682276  1
  O  O222  1  0.33656739  0.28292754  0.96746139  1
  O  O223  1  0.30637749  0.61492944  0.97273118  1
  O  O224  1  0.31281807  0.95155005  0.97671769  1
  O  O225  1  0.54797703  0.28742432  0.47546567  1
  O  O226  1  0.53477473  0.61585473  0.47001109  1
  O  O227  1  0.53518454  0.94745318  0.47327303  1
  O  O228  1  0.31104145  0.15448468  0.47040478  1
  O  O229  1  0.32725451  0.49680542  0.46454001  1
  O  O230  1  0.30336986  0.81192998  0.47521067  1
  O  O231  1  0.15038818  0.23158244  0.46936998  1
  O  O232  1  0.16139626  0.56578865  0.47381846  1
  O  O233  1  0.12944211  0.89299806  0.47822879  1
  O  O234  1  0.09546294  0.20469213  0.35717178  1
  O  O235  1  0.12522839  0.54926395  0.36124846  1
  O  O236  1  0.15561722  0.89081792  0.36513354  1
  O  O237  1  0.52215277  0.29332241  0.36094249  1
  O  O238  1  0.52874675  0.62571407  0.35543531  1
  O  O239  1  0.51510009  0.95751322  0.36086945  1
  O  O240  1  0.38011254  0.15758693  0.35797199  1
  O  O241  1  0.34809521  0.48799402  0.35262590  1
  O  O242  1  0.34434654  0.83312775  0.36242651  1
  O  O243  1  0.11540433  0.15796797  0.85430294  1
  O  O244  1  0.11867312  0.48823246  0.85425907  1
  O  O245  1  0.15510984  0.83082401  0.86354922  1
  O  O246  1  0.35775802  0.29418470  0.85380906  1
  O  O247  1  0.35308810  0.62673782  0.85814255  1
  O  O248  1  0.33777133  0.94956064  0.86325137  1
  O  O249  1  0.52117875  0.21336945  0.85794108  1
  O  O250  1  0.53013628  0.54924855  0.85331262  1
  O  O251  1  0.51718928  0.88883531  0.86067027  1
  O  O252  1  0.00668424  0.27273113  0.40912727  1
  O  O253  1  0.03141018  0.61317475  0.41402638  1
  O  O254  1  0.01187100  0.94212141  0.41422438  1
  O  O255  1  0.81265441  0.32866432  0.41341104  1
  O  O256  1  0.81101022  0.65750960  0.41044577  1
  O  O257  1  0.80766236  0.99690511  0.41455504  1
  O  O258  1  0.17752771  0.06286956  0.41366854  1
  O  O259  1  0.16663706  0.39952707  0.41813914  1
  O  O260  1  0.17084746  0.72880550  0.40318100  1
  O  O261  1  0.03283294  0.06790947  0.91923927  1
  O  O262  1  0.03580104  0.39972193  0.92040324  1
  O  O263  1  0.01495952  0.72868005  0.90652372  1
  O  O264  1  0.16844638  0.32165664  0.91811515  1
  O  O265  1  0.16166856  0.65815489  0.91148308  1
  O  O266  1  0.17002445  0.99196664  0.91454666  1
  O  O267  1  0.79875527  0.27673526  0.91867815  1
  O  O268  1  0.80513654  0.61253618  0.91219457  1
  O  O269  1  0.80880785  0.94430580  0.91308270  1
  O  O270  1  0.96802726  0.05362818  0.59201655  1
  O  O271  1  0.98926076  0.39153802  0.59418280  1
  O  O272  1  0.99356395  0.72386641  0.58861010  1
  O  O273  1  0.18714264  0.00986967  0.58890132  1
  O  O274  1  0.18414388  0.33709520  0.59397384  1
  O  O275  1  0.19000056  0.66919830  0.58433313  1
  O  O276  1  0.83657323  0.27133054  0.58722902  1
  O  O277  1  0.81731952  0.60582520  0.58447719  1
  O  O278  1  0.83512411  0.93646860  0.59597039  1
  O  O279  1  0.98787960  0.27218084  0.08488387  1
  O  O280  1  0.00804173  0.60486892  0.08732165  1
  O  O281  1  0.97523307  0.93756151  0.09366161  1
  O  O282  1  0.83083953  0.00444822  0.09368997  1
  O  O283  1  0.81502627  0.33494255  0.08699025  1
  O  O284  1  0.82381129  0.67244917  0.08640186  1
  O  O285  1  0.18166248  0.05711590  0.09473808  1
  O  O286  1  0.19412903  0.39498246  0.08940258  1
  O  O287  1  0.18002929  0.72350925  0.08704509  1
  O  O288  1  0.68852581  0.05258282  0.74566536  1
  O  O289  1  0.69285050  0.38864638  0.74365841  1
  O  O290  1  0.68513051  0.71942423  0.75366614  1
  O  O291  1  0.47564682  0.10700303  0.74736457  1
  O  O292  1  0.47472144  0.43690100  0.74645318  1
  O  O293  1  0.46851917  0.76969844  0.75543800  1
  O  O294  1  0.83798577  0.17373398  0.74998988  1
  O  O295  1  0.83614596  0.51174372  0.75153736  1
  O  O296  1  0.84461416  0.84270007  0.74445390  1
  O  O297  1  0.68283493  0.17207043  0.24682349  1
  O  O298  1  0.69265768  0.50811702  0.24143563  1
  O  O299  1  0.66984205  0.84023846  0.24726821  1
  O  O300  1  0.84197188  0.10592955  0.24699707  1
  O  O301  1  0.83217037  0.43797836  0.23709134  1
  O  O302  1  0.83306565  0.76571582  0.25131824  1
  O  O303  1  0.47004721  0.05240067  0.24028244  1
  O  O304  1  0.48601900  0.39023644  0.23881741  1
  O  O305  1  0.46631985  0.72094763  0.25589061  1
  O  O306  1  0.64066979  0.16704247  0.92302840  1
  O  O307  1  0.64482792  0.50296406  0.92107740  1
  O  O308  1  0.64653570  0.83571650  0.91294197  1
  O  O309  1  0.85848650  0.11866874  0.92030964  1
  O  O310  1  0.85777022  0.44859993  0.91931036  1
  O  O311  1  0.86512500  0.78572284  0.91152835  1
  O  O312  1  0.49745122  0.04399849  0.91495903  1
  O  O313  1  0.49541496  0.38181656  0.91673194  1
  O  O314  1  0.48778691  0.71309286  0.92297968  1
  O  O315  1  0.64005668  0.04735043  0.42525187  1
  O  O316  1  0.65089507  0.38360019  0.41975588  1
  O  O317  1  0.65038735  0.71314753  0.42004161  1
  O  O318  1  0.50130020  0.11760957  0.42966704  1
  O  O319  1  0.49133628  0.44943822  0.41995403  1
  O  O320  1  0.49135018  0.78560042  0.41030359  1
  O  O321  1  0.84776177  0.16539178  0.42796274  1
  O  O322  1  0.86399557  0.50355246  0.42631972  1
  O  O323  1  0.86077875  0.83453684  0.41408438  1
  O  O324  1  0.34302366  0.16382111  0.07227242  1
  O  O325  1  0.36536362  0.50199969  0.07482624  1
  O  O326  1  0.34398551  0.83199371  0.08154832  1
  O  O327  1  0.14910424  0.21843785  0.07280538  1
  O  O328  1  0.14621886  0.54571471  0.07791146  1
  O  O329  1  0.14548269  0.88732492  0.07986961  1
  O  O330  1  0.49660050  0.28426081  0.07948016  1
  O  O331  1  0.49808100  0.61911368  0.07099557  1
  O  O332  1  0.51472124  0.94976499  0.08171335  1
  O  O333  1  0.34535395  0.28330981  0.58188742  1
  O  O334  1  0.35684954  0.61732126  0.57314423  1
  O  O335  1  0.32591389  0.95085892  0.57949061  1
  O  O336  1  0.51830149  0.22060183  0.57973567  1
  O  O337  1  0.50102469  0.54998455  0.57344156  1
  O  O338  1  0.50937569  0.88342956  0.58072460  1
  O  O339  1  0.13914909  0.16060289  0.57729716  1
  O  O340  1  0.15014962  0.49810020  0.57158809  1
  O  O341  1  0.15209048  0.83189323  0.57869443  1
  O  O342  1  0.32645680  0.28282287  0.25741334  1
  O  O343  1  0.32040573  0.61282036  0.25256510  1
  O  O344  1  0.30675421  0.94416515  0.25368003  1
  O  O345  1  0.52020712  0.22674970  0.25326570  1
  O  O346  1  0.52451520  0.55848906  0.25240808  1
  O  O347  1  0.51624167  0.89634498  0.25537400  1
  O  O348  1  0.16624896  0.15557742  0.24845927  1
  O  O349  1  0.15566158  0.49260539  0.25279098  1
  O  O350  1  0.16081166  0.82543015  0.26441835  1
  O  O351  1  0.29773410  0.15593668  0.74630049  1
  O  O352  1  0.30038217  0.48763687  0.74748910  1
  O  O353  1  0.31870453  0.82687421  0.76033171  1
  O  O354  1  0.16503388  0.23396079  0.74852549  1
  O  O355  1  0.16346838  0.56378326  0.75198173  1
  O  O356  1  0.17115456  0.89725868  0.75537610  1
  O  O357  1  0.53485724  0.27895368  0.74800321  1
  O  O358  1  0.52331488  0.61097486  0.75386419  1
  O  O359  1  0.52817420  0.94307114  0.75463144  1
