# generated using pymatgen
data_Na5Y2Ta2Si3(PO8)3
_symmetry_space_group_name_H-M   'P 1'
_cell_length_a   9.15426893
_cell_length_b   9.18191881
_cell_length_c   22.90616045
_cell_angle_alpha   90.31914891
_cell_angle_beta   89.78772738
_cell_angle_gamma   119.52852598
_symmetry_Int_Tables_number   1
_chemical_formula_structural   Na5Y2Ta2Si3(PO8)3
_chemical_formula_sum   'Na15 Y6 Ta6 Si9 P9 O72'
_cell_volume   1675.23903290
_cell_formula_units_Z   3
loop_
 _symmetry_equiv_pos_site_id
 _symmetry_equiv_pos_as_xyz
  1  'x, y, z'
loop_
 _atom_site_type_symbol
 _atom_site_label
 _atom_site_symmetry_multiplicity
 _atom_site_fract_x
 _atom_site_fract_y
 _atom_site_fract_z
 _atom_site_occupancy
  Na  Na0  1  0.98979790  0.63072407  0.24494857  1
  Na  Na1  1  0.36494585  0.01112675  0.74550846  1
  Na  Na2  1  0.03802159  0.69383616  0.57895100  1
  Na  Na3  1  0.64668728  0.96641754  0.58165657  1
  Na  Na4  1  0.30322022  0.95988540  0.07875588  1
  Na  Na5  1  0.03110427  0.35427152  0.08423646  1
  Na  Na6  1  0.98583636  0.68237027  0.91654929  1
  Na  Na7  1  0.97393474  0.30161496  0.41092004  1
  Na  Na8  1  0.32127204  0.01670212  0.41665217  1
  Na  Na9  1  0.98745997  0.98666730  0.49475724  1
  Na  Na10  1  0.99739652  0.00245188  0.99436518  1
  Na  Na11  1  0.67289860  0.32297581  0.83012444  1
  Na  Na12  1  0.66570611  0.32906061  0.32830670  1
  Na  Na13  1  0.35115617  0.65606880  0.16393363  1
  Na  Na14  1  0.34113531  0.64546361  0.66292217  1
  Y  Y15  1  0.98800857  0.99536818  0.35073847  1
  Y  Y16  1  0.99757997  0.00999265  0.85294236  1
  Y  Y17  1  0.67000029  0.33799759  0.68725879  1
  Y  Y18  1  0.66293659  0.32948199  0.18626936  1
  Y  Y19  1  0.34040618  0.66569993  0.01732800  1
  Y  Y20  1  0.34021789  0.66463318  0.51775122  1
  Ta  Ta21  1  0.99799589  0.00058717  0.64785493  1
  Ta  Ta22  1  0.99905519  0.00134218  0.14800515  1
  Ta  Ta23  1  0.65736231  0.33109349  0.98071970  1
  Ta  Ta24  1  0.66399766  0.33770804  0.48090139  1
  Ta  Ta25  1  0.33422329  0.66551946  0.31485086  1
  Ta  Ta26  1  0.34167104  0.67065672  0.81437918  1
  Si  Si27  1  0.01242780  0.30637285  0.25266043  1
  Si  Si28  1  0.69606103  0.99000493  0.75050135  1
  Si  Si29  1  0.36656267  0.04432660  0.58494973  1
  Si  Si30  1  0.67556343  0.63506047  0.58545689  1
  Si  Si31  1  0.95471084  0.63205694  0.08401410  1
  Si  Si32  1  0.36362346  0.32429518  0.08524121  1
  Si  Si33  1  0.34379235  0.96780017  0.91891150  1
  Si  Si34  1  0.62698203  0.97040212  0.41908704  1
  Si  Si35  1  0.03296317  0.65853299  0.41898358  1
  P  P36  1  0.28835655  0.98677548  0.25144340  1
  P  P37  1  0.69921392  0.71276975  0.24829738  1
  P  P38  1  0.28353631  0.29776711  0.74986596  1
  P  P39  1  0.01408407  0.71369604  0.75215845  1
  P  P40  1  0.95303514  0.32105269  0.58179245  1
  P  P41  1  0.67871420  0.04813463  0.08195749  1
  P  P42  1  0.62348441  0.65102116  0.91525212  1
  P  P43  1  0.03293179  0.38107713  0.91782954  1
  P  P44  1  0.34643286  0.37890487  0.41428128  1
  O  O45  1  0.20876422  0.00348418  0.30762670  1
  O  O46  1  0.80678571  0.78464977  0.30286230  1
  O  O47  1  0.99430057  0.20950023  0.31210834  1
  O  O48  1  0.21110729  0.18890488  0.80335439  1
  O  O49  1  0.99879772  0.79480999  0.80761308  1
  O  O50  1  0.80394096  0.01055060  0.80638375  1
  O  O51  1  0.80226351  0.97578354  0.69126648  1
  O  O52  1  0.16615395  0.19903463  0.69558039  1
  O  O53  1  0.03562172  0.83420372  0.69762321  1
  O  O54  1  0.79995112  0.83081911  0.19497047  1
  O  O55  1  0.02124452  0.19114698  0.19475121  1
  O  O56  1  0.16638299  0.96609183  0.19754088  1
  O  O57  1  0.87417020  0.35041470  0.63518935  1
  O  O58  1  0.48152434  0.11697655  0.64159692  1
  O  O59  1  0.65950863  0.52947973  0.64127469  1
  O  O60  1  0.88442629  0.51834221  0.14113576  1
  O  O61  1  0.64661791  0.12061258  0.13656662  1
  O  O62  1  0.47087429  0.34457971  0.14119037  1
  O  O63  1  0.46946599  0.29986805  0.02723229  1
  O  O64  1  0.83129440  0.52534027  0.02593153  1
  O  O65  1  0.70422587  0.16880618  0.02855021  1
  O  O66  1  0.47423152  0.16889595  0.52677668  1
  O  O67  1  0.69877986  0.53038891  0.52705284  1
  O  O68  1  0.83594925  0.29618109  0.52646449  1
  O  O69  1  0.55099391  0.67890524  0.97059777  1
  O  O70  1  0.12464092  0.45442361  0.97513262  1
  O  O71  1  0.31607811  0.86431416  0.97770785  1
  O  O72  1  0.55206206  0.87276277  0.47876238  1
  O  O73  1  0.30452931  0.44615322  0.46830737  1
  O  O74  1  0.13468210  0.67983498  0.47784706  1
  O  O75  1  0.14110813  0.63379937  0.36118269  1
  O  O76  1  0.49695315  0.85552250  0.36315510  1
  O  O77  1  0.36594076  0.49592343  0.36078281  1
  O  O78  1  0.13923972  0.50052544  0.86552468  1
  O  O79  1  0.36119236  0.85423038  0.86144234  1
  O  O80  1  0.50629539  0.63479134  0.86161562  1
  O  O81  1  0.02311128  0.82746945  0.41158924  1
  O  O82  1  0.82197818  0.01860393  0.41493638  1
  O  O83  1  0.20417547  0.19880453  0.40559176  1
  O  O84  1  0.00185294  0.20291957  0.91264494  1
  O  O85  1  0.17641701  0.98196312  0.91108922  1
  O  O86  1  0.80451751  0.79135775  0.90817305  1
  O  O87  1  0.95568673  0.15140708  0.58792085  1
  O  O88  1  0.18137246  0.03635190  0.59254805  1
  O  O89  1  0.85865116  0.81901266  0.59058955  1
  O  O90  1  0.96451929  0.81789132  0.09284545  1
  O  O91  1  0.84915502  0.04544684  0.08796979  1
  O  O92  1  0.18040767  0.14126609  0.09115933  1
  O  O93  1  0.64643422  0.13554537  0.74789844  1
  O  O94  1  0.45908071  0.32093781  0.74189631  1
  O  O95  1  0.86942921  0.53676564  0.74551442  1
  O  O96  1  0.67809641  0.53879240  0.24111817  1
  O  O97  1  0.86139243  0.34926595  0.24852540  1
  O  O98  1  0.46436501  0.13051403  0.24475361  1
  O  O99  1  0.63002467  0.48268566  0.92048123  1
  O  O100  1  0.86168015  0.38360191  0.91922945  1
  O  O101  1  0.52105590  0.15097553  0.92414878  1
  O  O102  1  0.62265023  0.15156955  0.42141411  1
  O  O103  1  0.51369211  0.37291702  0.42142140  1
  O  O104  1  0.85167036  0.47886742  0.42292985  1
  O  O105  1  0.31419372  0.46854901  0.07922312  1
  O  O106  1  0.14752941  0.67066909  0.07707027  1
  O  O107  1  0.52951303  0.87328617  0.07410280  1
  O  O108  1  0.32668882  0.85189658  0.57810538  1
  O  O109  1  0.52823036  0.68131569  0.58177881  1
  O  O110  1  0.12809950  0.47063844  0.57493308  1
  O  O111  1  0.28811754  0.81399990  0.25444841  1
  O  O112  1  0.52737126  0.70780740  0.25459269  1
  O  O113  1  0.19259504  0.49168186  0.25611402  1
  O  O114  1  0.28956573  0.47029460  0.75676823  1
  O  O115  1  0.18622182  0.71062738  0.75525438  1
  O  O116  1  0.51052201  0.80721402  0.75758066  1
