# generated using pymatgen
data_NaScCl4
_symmetry_space_group_name_H-M   'P 1'
_cell_length_a   6.20482254
_cell_length_b   6.37509210
_cell_length_c   15.50500136
_cell_angle_alpha   90.00000000
_cell_angle_beta   90.00000000
_cell_angle_gamma   90.00000000
_symmetry_Int_Tables_number   1
_chemical_formula_structural   NaScCl4
_chemical_formula_sum   'Na4 Sc4 Cl16'
_cell_volume   613.32072030
_cell_formula_units_Z   4
loop_
 _symmetry_equiv_pos_site_id
 _symmetry_equiv_pos_as_xyz
  1  'x, y, z'
loop_
 _atom_site_type_symbol
 _atom_site_label
 _atom_site_symmetry_multiplicity
 _atom_site_fract_x
 _atom_site_fract_y
 _atom_site_fract_z
 _atom_site_occupancy
  Na  Na0  1  0.00000000  0.25000000  0.31956905  1
  Na  Na1  1  0.50000000  0.75000000  0.18043095  1
  Na  Na2  1  0.00000000  0.75000000  0.68043095  1
  Na  Na3  1  0.50000000  0.25000000  0.81956905  1
  Sc  Sc4  1  0.00000000  0.25000000  0.07073587  1
  Sc  Sc5  1  0.50000000  0.25000000  0.57073587  1
  Sc  Sc6  1  0.00000000  0.75000000  0.92926413  1
  Sc  Sc7  1  0.50000000  0.75000000  0.42926413  1
  Cl  Cl8  1  0.26601377  0.60333970  0.32120480  1
  Cl  Cl9  1  0.77477146  0.42535180  0.94956755  1
  Cl  Cl10  1  0.27477146  0.57464820  0.55043245  1
  Cl  Cl11  1  0.72522854  0.92535180  0.55043245  1
  Cl  Cl12  1  0.76601377  0.39666030  0.17879520  1
  Cl  Cl13  1  0.23398623  0.60333970  0.82120480  1
  Cl  Cl14  1  0.73398623  0.89666030  0.32120480  1
  Cl  Cl15  1  0.23398623  0.10333970  0.17879520  1
  Cl  Cl16  1  0.26601377  0.10333970  0.67879520  1
  Cl  Cl17  1  0.73398623  0.39666030  0.67879520  1
  Cl  Cl18  1  0.22522854  0.57464820  0.05043245  1
  Cl  Cl19  1  0.76601377  0.89666030  0.82120480  1
  Cl  Cl20  1  0.77477146  0.92535180  0.05043245  1
  Cl  Cl21  1  0.27477146  0.07464820  0.44956755  1
  Cl  Cl22  1  0.72522854  0.42535180  0.44956755  1
  Cl  Cl23  1  0.22522854  0.07464820  0.94956755  1
