# generated using pymatgen
data_Na6ZnSi2Ge3(PO6)4
_symmetry_space_group_name_H-M   'P 1'
_cell_length_a   15.06396237
_cell_length_b   8.76726727
_cell_length_c   8.82292896
_cell_angle_alpha   89.06078609
_cell_angle_beta   125.06220410
_cell_angle_gamma   90.07337352
_symmetry_Int_Tables_number   1
_chemical_formula_structural   Na6ZnSi2Ge3(PO6)4
_chemical_formula_sum   'Na12 Zn2 Si4 Ge6 P8 O48'
_cell_volume   953.60919393
_cell_formula_units_Z   2
loop_
 _symmetry_equiv_pos_site_id
 _symmetry_equiv_pos_as_xyz
  1  'x, y, z'
loop_
 _atom_site_type_symbol
 _atom_site_label
 _atom_site_symmetry_multiplicity
 _atom_site_fract_x
 _atom_site_fract_y
 _atom_site_fract_z
 _atom_site_occupancy
  Na  Na0  1  0.25201812  0.74728734  0.99828623  1
  Na  Na1  1  0.74574485  0.74270803  0.48595842  1
  Na  Na2  1  0.75201812  0.24728734  0.99828623  1
  Na  Na3  1  0.24574485  0.24270803  0.48595842  1
  Na  Na4  1  0.50988511  0.10342835  0.76454141  1
  Na  Na5  1  0.49946971  0.87927167  0.23547593  1
  Na  Na6  1  0.00988511  0.60342835  0.76454141  1
  Na  Na7  1  0.99946971  0.37927167  0.23547593  1
  Na  Na8  1  0.79853068  0.93028287  0.22878977  1
  Na  Na9  1  0.18421080  0.07178945  0.77994962  1
  Na  Na10  1  0.29853068  0.43028287  0.22878977  1
  Na  Na11  1  0.68421080  0.57178945  0.77994962  1
  Zn  Zn12  1  0.10232186  0.24024783  0.05103060  1
  Zn  Zn13  1  0.60232186  0.74024783  0.05103060  1
  Si  Si14  1  0.64884995  0.89901428  0.74826145  1
  Si  Si15  1  0.35887354  0.10186053  0.25614238  1
  Si  Si16  1  0.14884995  0.39901428  0.74826145  1
  Si  Si17  1  0.85887354  0.60186053  0.25614238  1
  Ge  Ge18  1  0.10308863  0.74938753  0.55934746  1
  Ge  Ge19  1  0.89604679  0.75284363  0.94074772  1
  Ge  Ge20  1  0.89842376  0.25366808  0.44230344  1
  Ge  Ge21  1  0.60308863  0.24938753  0.55934746  1
  Ge  Ge22  1  0.39604679  0.25284363  0.94074772  1
  Ge  Ge23  1  0.39842376  0.75366808  0.44230344  1
  P  P24  1  0.99355361  0.95539811  0.74165242  1
  P  P25  1  0.99949294  0.03370178  0.25587259  1
  P  P26  1  0.49355361  0.45539811  0.74165242  1
  P  P27  1  0.49949294  0.53370178  0.25587259  1
  P  P28  1  0.35481775  0.89306070  0.75335207  1
  P  P29  1  0.64635049  0.12414416  0.25305346  1
  P  P30  1  0.85481775  0.39306070  0.75335207  1
  P  P31  1  0.14635049  0.62414416  0.25305346  1
  O  O32  1  0.15714069  0.58393720  0.72188044  1
  O  O33  1  0.85324442  0.57270440  0.75606989  1
  O  O34  1  0.86008229  0.41218422  0.27112691  1
  O  O35  1  0.15288171  0.45044029  0.26129560  1
  O  O36  1  0.65714069  0.08393720  0.72188044  1
  O  O37  1  0.35324442  0.07270440  0.75606989  1
  O  O38  1  0.36008229  0.91218422  0.27112691  1
  O  O39  1  0.65288171  0.95044029  0.26129560  1
  O  O40  1  0.41933273  0.55147748  0.55750821  1
  O  O41  1  0.56698536  0.55205214  0.90793207  1
  O  O42  1  0.56406550  0.44184918  0.44047950  1
  O  O43  1  0.43133753  0.42821896  0.08571739  1
  O  O44  1  0.91933273  0.05147748  0.55750821  1
  O  O45  1  0.06698536  0.05205214  0.90793207  1
  O  O46  1  0.06406550  0.94184918  0.44047950  1
  O  O47  1  0.93133753  0.92821896  0.08571739  1
  O  O48  1  0.24802241  0.83879139  0.72778146  1
  O  O49  1  0.75154605  0.80745455  0.76900904  1
  O  O50  1  0.74505837  0.19306423  0.26206975  1
  O  O51  1  0.25997673  0.18298540  0.24223311  1
  O  O52  1  0.74802241  0.33879139  0.72778146  1
  O  O53  1  0.25154605  0.30745455  0.76900904  1
  O  O54  1  0.24505837  0.69306423  0.26206975  1
  O  O55  1  0.75997673  0.68298540  0.24223311  1
  O  O56  1  0.36232694  0.85747188  0.58824800  1
  O  O57  1  0.64382992  0.89032735  0.92537864  1
  O  O58  1  0.64496311  0.17909135  0.41490232  1
  O  O59  1  0.36379754  0.12463921  0.07259746  1
  O  O60  1  0.86232694  0.35747188  0.58824800  1
  O  O61  1  0.14382992  0.39032735  0.92537864  1
  O  O62  1  0.14496311  0.67909135  0.41490232  1
  O  O63  1  0.86379754  0.62463921  0.07259746  1
  O  O64  1  0.44940500  0.82812659  0.93757123  1
  O  O65  1  0.54458485  0.80583548  0.56957625  1
  O  O66  1  0.54367799  0.18313582  0.06210989  1
  O  O67  1  0.46760881  0.17099209  0.43971818  1
  O  O68  1  0.94940500  0.32812659  0.93757123  1
  O  O69  1  0.04458485  0.30583548  0.56957625  1
  O  O70  1  0.04367799  0.68313582  0.06210989  1
  O  O71  1  0.96760881  0.67099209  0.43971818  1
  O  O72  1  0.07535959  0.84942275  0.73220067  1
  O  O73  1  0.91619903  0.84765539  0.75619271  1
  O  O74  1  0.91039994  0.12988259  0.25467998  1
  O  O75  1  0.07649490  0.14016576  0.24895631  1
  O  O76  1  0.57535959  0.34942275  0.73220067  1
  O  O77  1  0.41619903  0.34765539  0.75619271  1
  O  O78  1  0.41039994  0.62988259  0.25467998  1
  O  O79  1  0.57649490  0.64016576  0.24895631  1
