# generated using pymatgen
data_Na4LaAlSi(PO6)2
_symmetry_space_group_name_H-M   'P 1'
_cell_length_a   9.24165789
_cell_length_b   9.23878955
_cell_length_c   22.34639916
_cell_angle_alpha   89.90468964
_cell_angle_beta   89.66523299
_cell_angle_gamma   120.11033952
_symmetry_Int_Tables_number   1
_chemical_formula_structural   Na4LaAlSi(PO6)2
_chemical_formula_sum   'Na24 La6 Al6 Si6 P12 O72'
_cell_volume   1650.46249618
_cell_formula_units_Z   6
loop_
 _symmetry_equiv_pos_site_id
 _symmetry_equiv_pos_as_xyz
  1  'x, y, z'
loop_
 _atom_site_type_symbol
 _atom_site_label
 _atom_site_symmetry_multiplicity
 _atom_site_fract_x
 _atom_site_fract_y
 _atom_site_fract_z
 _atom_site_occupancy
  Na  Na0  1  0.62570321  0.99607612  0.26394505  1
  Na  Na1  1  0.36485665  0.37160252  0.25540626  1
  Na  Na2  1  0.00238444  0.62151051  0.25517374  1
  Na  Na3  1  0.63993118  0.63601443  0.73118138  1
  Na  Na4  1  0.98690950  0.35945829  0.73902312  1
  Na  Na5  1  0.38558034  0.01703811  0.73415481  1
  Na  Na6  1  0.29158207  0.32888343  0.58002620  1
  Na  Na7  1  0.04672145  0.71989838  0.58173305  1
  Na  Na8  1  0.66662908  0.95997862  0.58980732  1
  Na  Na9  1  0.29801861  0.98315796  0.09001433  1
  Na  Na10  1  0.68991953  0.69476182  0.09026154  1
  Na  Na11  1  0.01738403  0.32827915  0.10178744  1
  Na  Na12  1  0.97998423  0.68022346  0.92275013  1
  Na  Na13  1  0.68959552  0.03125485  0.90762549  1
  Na  Na14  1  0.33288291  0.30663104  0.91558219  1
  Na  Na15  1  0.96701686  0.30173384  0.40636187  1
  Na  Na16  1  0.33286420  0.03095178  0.41796170  1
  Na  Na17  1  0.69356582  0.66496916  0.41267536  1
  Na  Na18  1  0.00280673  0.99228987  0.49826835  1
  Na  Na19  1  0.00384832  0.99674988  0.00135409  1
  Na  Na20  1  0.66503373  0.32556864  0.83111574  1
  Na  Na21  1  0.67242309  0.33329559  0.34383843  1
  Na  Na22  1  0.33056729  0.66786333  0.17272276  1
  Na  Na23  1  0.33434890  0.67281962  0.65944727  1
  La  La24  1  0.00131367  0.00126473  0.83457100  1
  La  La25  1  0.66902358  0.32941768  0.19259259  1
  La  La26  1  0.67009551  0.33583530  0.99448801  1
  La  La27  1  0.33127010  0.67252917  0.01527371  1
  La  La28  1  0.32802336  0.67321922  0.50849960  1
  La  La29  1  0.34065951  0.67743867  0.80981666  1
  Al  Al30  1  0.99414296  0.99208984  0.35176512  1
  Al  Al31  1  0.01147579  0.00146757  0.64728342  1
  Al  Al32  1  0.00110044  0.00301028  0.15676688  1
  Al  Al33  1  0.66592747  0.32754695  0.67780388  1
  Al  Al34  1  0.67619410  0.34473788  0.48701394  1
  Al  Al35  1  0.30698336  0.64633145  0.32019197  1
  Si  Si36  1  0.01663936  0.28656661  0.25823216  1
  Si  Si37  1  0.70979013  0.01625693  0.73819171  1
  Si  Si38  1  0.37958367  0.06142597  0.58176180  1
  Si  Si39  1  0.98742571  0.66665153  0.09035399  1
  Si  Si40  1  0.33464189  0.99207265  0.91596215  1
  Si  Si41  1  0.01837351  0.66741527  0.41678955  1
  P  P42  1  0.26794790  0.97771830  0.25819379  1
  P  P43  1  0.70603600  0.72805527  0.25597878  1
  P  P44  1  0.31500518  0.30078093  0.73852612  1
  P  P45  1  0.98516404  0.68615616  0.73735407  1
  P  P46  1  0.94152577  0.32092787  0.58166179  1
  P  P47  1  0.67921962  0.62109993  0.58282129  1
  P  P48  1  0.68199048  0.01393586  0.08920059  1
  P  P49  1  0.33590640  0.32073400  0.09018308  1
  P  P50  1  0.65137375  0.66416526  0.91627577  1
  P  P51  1  0.01630286  0.34898153  0.91466061  1
  P  P52  1  0.64015881  0.96786214  0.41286015  1
  P  P53  1  0.32750134  0.35596336  0.41385886  1
  O  O54  1  0.16953718  0.98218800  0.31300082  1
  O  O55  1  0.80952467  0.81978041  0.31119039  1
  O  O56  1  0.01077298  0.17456019  0.31459941  1
  O  O57  1  0.26030133  0.22915105  0.80245560  1
  O  O58  1  0.96610683  0.74284943  0.80037695  1
  O  O59  1  0.78248866  0.03564192  0.80625035  1
  O  O60  1  0.83970286  0.00027378  0.69048263  1
  O  O61  1  0.18666691  0.17731623  0.69228275  1
  O  O62  1  0.00645296  0.81889262  0.68931293  1
  O  O63  1  0.79734049  0.82801752  0.19868681  1
  O  O64  1  0.03120937  0.19678154  0.19673842  1
  O  O65  1  0.17470844  0.97139399  0.20001144  1
  O  O66  1  0.85082633  0.33770173  0.63659102  1
  O  O67  1  0.49329876  0.15781542  0.63898839  1
  O  O68  1  0.66799237  0.51311656  0.63684996  1
  O  O69  1  0.88656478  0.52054428  0.14125123  1
  O  O70  1  0.63465666  0.10119738  0.13874465  1
  O  O71  1  0.46339841  0.35194439  0.14050414  1
  O  O72  1  0.40991043  0.30631875  0.02937863  1
  O  O73  1  0.89014498  0.59574163  0.02602300  1
  O  O74  1  0.69739038  0.10270558  0.02848249  1
  O  O75  1  0.47568879  0.17548729  0.52076467  1
  O  O76  1  0.69447851  0.53677006  0.52413848  1
  O  O77  1  0.83988254  0.30931133  0.52418048  1
  O  O78  1  0.56054075  0.65756535  0.97523809  1
  O  O79  1  0.10967103  0.43773856  0.97237926  1
  O  O80  1  0.32297481  0.89296885  0.97803874  1
  O  O81  1  0.58860342  0.87292174  0.47365417  1
  O  O82  1  0.28812489  0.41381424  0.47379221  1
  O  O83  1  0.12868283  0.72852473  0.47837373  1
  O  O84  1  0.12970890  0.63039574  0.36560472  1
  O  O85  1  0.50695919  0.85778919  0.36427857  1
  O  O86  1  0.34613532  0.48470248  0.36346520  1
  O  O87  1  0.11759871  0.44655386  0.85815093  1
  O  O88  1  0.34663414  0.89173002  0.85692962  1
  O  O89  1  0.54463599  0.65658694  0.86148910  1
  O  O90  1  0.98362293  0.82338031  0.40366303  1
  O  O91  1  0.82008886  0.99821321  0.40262212  1
  O  O92  1  0.18029250  0.17303591  0.40579457  1
  O  O93  1  0.99261605  0.17202750  0.91636814  1
  O  O94  1  0.16608513  0.00602316  0.91451540  1
  O  O95  1  0.82105233  0.82797639  0.91589157  1
  O  O96  1  0.96306742  0.16292596  0.58391077  1
  O  O97  1  0.18253341  0.03249824  0.58839162  1
  O  O98  1  0.83650849  0.80222072  0.58616374  1
  O  O99  1  0.98279564  0.83818152  0.10298189  1
  O  O100  1  0.85299249  0.02793699  0.10022837  1
  O  O101  1  0.17229712  0.15266825  0.09900827  1
  O  O102  1  0.68614037  0.18110257  0.73185584  1
  O  O103  1  0.49479174  0.32896177  0.73167309  1
  O  O104  1  0.82754667  0.51171759  0.72934569  1
  O  O105  1  0.68464919  0.54829688  0.25688000  1
  O  O106  1  0.84733543  0.30598021  0.26184588  1
  O  O107  1  0.44617830  0.13722665  0.26050933  1
  O  O108  1  0.67625059  0.51154502  0.91182685  1
  O  O109  1  0.84597517  0.34201572  0.91230651  1
  O  O110  1  0.50392495  0.17514494  0.91510096  1
  O  O111  1  0.64530189  0.13871926  0.41622795  1
  O  O112  1  0.49716760  0.35831937  0.41572422  1
  O  O113  1  0.83699613  0.48712835  0.42622448  1
  O  O114  1  0.30287291  0.46872433  0.09184865  1
  O  O115  1  0.17832218  0.69998124  0.09288923  1
  O  O116  1  0.54228116  0.82851361  0.08975528  1
  O  O117  1  0.35967159  0.87267066  0.58183345  1
  O  O118  1  0.51844297  0.63625860  0.58269564  1
  O  O119  1  0.12030292  0.47927357  0.58120681  1
  O  O120  1  0.29215634  0.82002556  0.26114713  1
  O  O121  1  0.52579314  0.70563511  0.25872714  1
  O  O122  1  0.18271927  0.48339179  0.26171495  1
  O  O123  1  0.31973378  0.47049532  0.73130311  1
  O  O124  1  0.14365972  0.66845601  0.73288919  1
  O  O125  1  0.52716405  0.84386619  0.73109849  1
