# generated using pymatgen
data_Na5Y2In2P5SO24
_symmetry_space_group_name_H-M   'P 1'
_cell_length_a   9.16926004
_cell_length_b   9.18071109
_cell_length_c   23.20355352
_cell_angle_alpha   90.21970191
_cell_angle_beta   90.05508923
_cell_angle_gamma   120.06034985
_symmetry_Int_Tables_number   1
_chemical_formula_structural   Na5Y2In2P5SO24
_chemical_formula_sum   'Na15 Y6 In6 P15 S3 O72'
_cell_volume   1690.54102377
_cell_formula_units_Z   3
loop_
 _symmetry_equiv_pos_site_id
 _symmetry_equiv_pos_as_xyz
  1  'x, y, z'
loop_
 _atom_site_type_symbol
 _atom_site_label
 _atom_site_symmetry_multiplicity
 _atom_site_fract_x
 _atom_site_fract_y
 _atom_site_fract_z
 _atom_site_occupancy
  Na  Na0  1  0.64901137  -0.00054673  0.25027061  1
  Na  Na1  1  0.99637093  0.36310414  0.74889852  1
  Na  Na2  1  0.36516847  0.00042654  0.75018904  1
  Na  Na3  1  0.02808413  0.69637944  0.58352051  1
  Na  Na4  1  0.66908171  0.97197248  0.58656457  1
  Na  Na5  1  0.30547736  0.97272604  0.07748178  1
  Na  Na6  1  0.02613533  0.33310214  0.08288808  1
  Na  Na7  1  0.97952922  0.66592154  0.91557090  1
  Na  Na8  1  0.70500123  0.67447447  0.42100880  1
  Na  Na9  1  0.02307190  0.01921725  0.50460461  1
  Na  Na10  1  0.99882867  0.01413462  0.99445445  1
  Na  Na11  1  0.65092655  0.32152323  0.83396624  1
  Na  Na12  1  0.69903382  0.34758202  0.33371244  1
  Na  Na13  1  0.33961675  0.63627883  0.16721076  1
  Na  Na14  1  0.35133752  0.64771289  0.66691097  1
  Y  Y15  1  -0.00026742  0.00156786  0.35275003  1
  Y  Y16  1  0.98883924  0.98904351  0.14801604  1
  Y  Y17  1  0.67306990  0.35216593  0.18339096  1
  Y  Y18  1  0.66635436  0.32241567  0.48549250  1
  Y  Y19  1  0.34073043  0.66443688  0.01294142  1
  Y  Y20  1  0.31639135  0.65847436  0.31650032  1
  In  In21  1  0.00592622  0.01012382  0.84687787  1
  In  In22  1  0.00008395  0.00155737  0.65380628  1
  In  In23  1  0.66575251  0.34316375  0.68232055  1
  In  In24  1  0.66126406  0.32505074  0.98055881  1
  In  In25  1  0.32823326  0.66877710  0.51896798  1
  In  In26  1  0.33639711  0.66898878  0.81711723  1
  P  P27  1  0.69312350  0.69681704  0.25520966  1
  P  P28  1  0.99714744  0.29873929  0.24634254  1
  P  P29  1  0.29919434  0.29968602  0.75049648  1
  P  P30  1  0.99931590  0.70100506  0.75144786  1
  P  P31  1  0.69989485  0.00100163  0.74786752  1
  P  P32  1  0.97106370  0.33386292  0.58893647  1
  P  P33  1  0.36314826  0.03040371  0.58823444  1
  P  P34  1  0.66695210  0.63792852  0.58253729  1
  P  P35  1  0.96641449  0.63119677  0.07532267  1
  P  P36  1  0.66532473  0.04013006  0.08402185  1
  P  P37  1  0.36606674  0.32831350  0.08053924  1
  P  P38  1  0.02555009  0.36176085  0.91381630  1
  P  P39  1  0.33115957  0.97092307  0.91388826  1
  P  P40  1  0.62795422  0.95989690  0.41757354  1
  P  P41  1  0.02959587  0.66848802  0.42290005  1
  S  S42  1  0.30536010  0.00162887  0.24812699  1
  S  S43  1  0.64228474  0.66703642  0.91272052  1
  S  S44  1  0.33473748  0.37256804  0.42011184  1
  O  O45  1  0.21211374  0.00808290  0.29864398  1
  O  O46  1  0.78882508  0.78042917  0.31174528  1
  O  O47  1  0.99042513  0.18833492  0.29763795  1
  O  O48  1  0.22556027  0.18505402  0.80369024  1
  O  O49  1  0.97770306  0.78243716  0.80671117  1
  O  O50  1  0.82085538  0.03194934  0.79844232  1
  O  O51  1  0.76988074  0.97492354  0.69025346  1
  O  O52  1  0.18088818  0.22204744  0.69782885  1
  O  O53  1  0.02703406  0.80994335  0.69718965  1
  O  O54  1  0.79422378  0.80661750  0.20322674  1
  O  O55  1  0.00839483  0.21829074  0.18887546  1
  O  O56  1  0.21601943  0.99221998  0.19387563  1
  O  O57  1  0.89438499  0.36441932  0.64454045  1
  O  O58  1  0.46927549  0.10989615  0.64370460  1
  O  O59  1  0.64365825  0.52836702  0.63555548  1
  O  O60  1  0.87642843  0.52039843  0.12771683  1
  O  O61  1  0.64360618  0.11639123  0.14060050  1
  O  O62  1  0.46570224  0.34567284  0.13556918  1
  O  O63  1  0.45338382  0.30939424  0.02656233  1
  O  O64  1  0.86767734  0.55425204  0.01871159  1
  O  O65  1  0.69484592  0.15697005  0.03226658  1
  O  O66  1  0.44891709  0.13762093  0.53527996  1
  O  O67  1  0.68961464  0.55890865  0.52696645  1
  O  O68  1  0.85328304  0.30573281  0.53751963  1
  O  O69  1  0.56357887  0.68399247  0.96562515  1
  O  O70  1  0.12919349  0.44474830  0.96897584  1
  O  O71  1  0.31326374  0.86454029  0.96797794  1
  O  O72  1  0.54098151  0.85173365  0.47210404  1
  O  O73  1  0.31561537  0.45289436  0.47262672  1
  O  O74  1  0.11835723  0.67463388  0.48079674  1
  O  O75  1  0.12377817  0.65403846  0.37072881  1
  O  O76  1  0.53128771  0.87077834  0.36209795  1
  O  O77  1  0.34752124  0.46974462  0.36795448  1
  O  O78  1  0.11540731  0.47349894  0.86019354  1
  O  O79  1  0.35321181  0.88609263  0.85886514  1
  O  O80  1  0.54001407  0.64926026  0.86126467  1
  O  O81  1  0.01452814  0.82955078  0.42003465  1
  O  O82  1  0.80522474  0.97489926  0.41732022  1
  O  O83  1  0.18890598  0.20027312  0.41684453  1
  O  O84  1  0.00016497  0.18253546  0.90973423  1
  O  O85  1  0.16093699  0.97113080  0.91103287  1
  O  O86  1  0.81406537  0.81827279  0.90970389  1
  O  O87  1  0.98231608  0.17122591  0.59153722  1
  O  O88  1  0.18039240  -0.00145456  0.59149756  1
  O  O89  1  0.83127609  0.81431021  0.58820887  1
  O  O90  1  0.99848232  0.81274421  0.08164176  1
  O  O91  1  0.82481560  0.02241690  0.08536177  1
  O  O92  1  0.18939054  0.16503655  0.08278641  1
  O  O93  1  0.68336022  0.16320868  0.74568687  1
  O  O94  1  0.47365046  0.31289662  0.74354735  1
  O  O95  1  0.84619622  0.51970075  0.74655400  1
  O  O96  1  0.66909713  0.51908123  0.25243554  1
  O  O97  1  0.82856582  0.30052504  0.24910129  1
  O  O98  1  0.47688982  0.15109765  0.24916633  1
  O  O99  1  0.66309730  0.51604759  0.91518087  1
  O  O100  1  0.85346729  0.35898357  0.91611675  1
  O  O101  1  0.48533571  0.15067260  0.91708365  1
  O  O102  1  0.64547036  0.13528437  0.42009937  1
  O  O103  1  0.49372389  0.36730223  0.42237174  1
  O  O104  1  0.84734402  0.51509538  0.42109875  1
  O  O105  1  0.33566087  0.47991650  0.07772412  1
  O  O106  1  0.14227910  0.64364235  0.07440856  1
  O  O107  1  0.50282610  0.86734918  0.07692589  1
  O  O108  1  0.35114033  0.85379709  0.58369217  1
  O  O109  1  0.51459215  0.66870981  0.57973170  1
  O  O110  1  0.14534461  0.49632436  0.58230452  1
  O  O111  1  0.32544069  0.85028847  0.25007173  1
  O  O112  1  0.52266415  0.69457338  0.25296441  1
  O  O113  1  0.14944337  0.47821312  0.24933324  1
  O  O114  1  0.31174520  0.47454334  0.75731321  1
  O  O115  1  0.16283959  0.68617686  0.75449884  1
  O  O116  1  0.51931068  0.84682307  0.75513995  1
