# generated using pymatgen
data_NaTaGa3P3(SO8)3
_symmetry_space_group_name_H-M   'P 1'
_cell_length_a   8.54895108
_cell_length_b   8.53112644
_cell_length_c   22.27623086
_cell_angle_alpha   90.53589867
_cell_angle_beta   90.00276176
_cell_angle_gamma   120.18569157
_symmetry_Int_Tables_number   1
_chemical_formula_structural   NaTaGa3P3(SO8)3
_chemical_formula_sum   'Na3 Ta3 Ga9 P9 S9 O72'
_cell_volume   1404.26903532
_cell_formula_units_Z   3
loop_
 _symmetry_equiv_pos_site_id
 _symmetry_equiv_pos_as_xyz
  1  'x, y, z'
loop_
 _atom_site_type_symbol
 _atom_site_label
 _atom_site_symmetry_multiplicity
 _atom_site_fract_x
 _atom_site_fract_y
 _atom_site_fract_z
 _atom_site_occupancy
  Na  Na0  1  0.00094488  0.01108252  0.99937396  1
  Na  Na1  1  0.67737948  0.33961761  0.83428448  1
  Na  Na2  1  0.66407019  0.33952455  0.33803181  1
  Ta  Ta3  1  0.00273148  0.99596052  0.64394144  1
  Ta  Ta4  1  0.65890855  0.33329135  0.18492468  1
  Ta  Ta5  1  0.32883086  0.65740485  0.52403528  1
  Ga  Ga6  1  0.99957685  0.99749690  0.35582393  1
  Ga  Ga7  1  0.99722779  0.00071402  0.85364038  1
  Ga  Ga8  1  0.98949318  0.00174526  0.14560091  1
  Ga  Ga9  1  0.67528772  0.34249044  0.68512878  1
  Ga  Ga10  1  0.66781736  0.32177456  0.98073778  1
  Ga  Ga11  1  0.65804941  0.33273363  0.48289151  1
  Ga  Ga12  1  0.33567795  0.65528914  0.02130628  1
  Ga  Ga13  1  0.34698038  0.66029845  0.31266858  1
  Ga  Ga14  1  0.31335700  0.65924892  0.81413511  1
  P  P15  1  0.71767608  0.72284586  0.25140593  1
  P  P16  1  0.99818735  0.70805097  0.75347958  1
  P  P17  1  0.94048435  0.32812551  0.58287269  1
  P  P18  1  0.39087642  0.05545064  0.58406193  1
  P  P19  1  0.66632482  0.61170072  0.58341927  1
  P  P20  1  0.66349815  0.03600985  0.07991322  1
  P  P21  1  0.36912063  0.32813239  0.07921383  1
  P  P22  1  0.04120903  0.37493379  0.91712625  1
  P  P23  1  0.33378046  0.36996717  0.41369669  1
  S  S24  1  0.28289657  0.99104391  0.25114470  1
  S  S25  1  0.00436706  0.29183883  0.25147033  1
  S  S26  1  0.29557419  0.29397850  0.75234794  1
  S  S27  1  0.70467425  0.99844837  0.75219823  1
  S  S28  1  0.96012513  0.62720001  0.08137124  1
  S  S29  1  0.62243182  0.66560044  0.91570687  1
  S  S30  1  0.33237736  0.95503746  0.91689585  1
  S  S31  1  0.62410003  0.95948374  0.41520517  1
  S  S32  1  0.04330411  0.66554449  0.41388988  1
  O  O33  1  0.21404291  0.03803294  0.30493235  1
  O  O34  1  0.83562399  0.79772390  0.30799084  1
  O  O35  1  0.96424451  0.17793293  0.30479737  1
  O  O36  1  0.21269017  0.17948167  0.80511060  1
  O  O37  1  0.96367126  0.79667550  0.80791896  1
  O  O38  1  0.82287404  0.03770355  0.80529033  1
  O  O39  1  0.79442281  0.97461098  0.69703693  1
  O  O40  1  0.17948636  0.20706427  0.69716002  1
  O  O41  1  0.02222210  0.82695547  0.69658220  1
  O  O42  1  0.80139045  0.83096835  0.19482365  1
  O  O43  1  0.03618228  0.21507716  0.19668004  1
  O  O44  1  0.17994044  0.96809265  0.19618118  1
  O  O45  1  0.87487211  0.37336389  0.63970548  1
  O  O46  1  0.50133837  0.12868989  0.64089763  1
  O  O47  1  0.62312287  0.50111235  0.63972069  1
  O  O48  1  0.87087736  0.51186188  0.13695484  1
  O  O49  1  0.64089168  0.13412980  0.13765281  1
  O  O50  1  0.49307152  0.35943805  0.13750784  1
  O  O51  1  0.45976649  0.29498399  0.02549374  1
  O  O52  1  0.84239812  0.54703502  0.02850974  1
  O  O53  1  0.70819726  0.16214953  0.02663898  1
  O  O54  1  0.45692784  0.16324319  0.52688029  1
  O  O55  1  0.70974339  0.54501531  0.52613084  1
  O  O56  1  0.83247506  0.29280120  0.52541314  1
  O  O57  1  0.54719072  0.70165808  0.97051729  1
  O  O58  1  0.15870524  0.45886923  0.97358458  1
  O  O59  1  0.30399107  0.84669568  0.97094493  1
  O  O60  1  0.53595569  0.84674710  0.46926271  1
  O  O61  1  0.30712489  0.46515881  0.47019488  1
  O  O62  1  0.15619904  0.69271724  0.46910313  1
  O  O63  1  0.12694973  0.63650726  0.36027113  1
  O  O64  1  0.50852486  0.88088105  0.36120544  1
  O  O65  1  0.37045869  0.49143739  0.35934557  1
  O  O66  1  0.12050907  0.48778846  0.86003359  1
  O  O67  1  0.36739026  0.87842521  0.86174069  1
  O  O68  1  0.51306824  0.63777456  0.86081395  1
  O  O69  1  0.03045429  0.83026898  0.41039902  1
  O  O70  1  0.79976364  0.96984360  0.41004430  1
  O  O71  1  0.16083323  0.18713234  0.40713754  1
  O  O72  1  0.02336991  0.18555355  0.90988054  1
  O  O73  1  0.16801480  0.97224858  0.91082372  1
  O  O74  1  0.80648544  0.83006973  0.91082736  1
  O  O75  1  0.97311184  0.16766732  0.59405282  1
  O  O76  1  0.19772567  0.02777202  0.59395959  1
  O  O77  1  0.82987873  0.80646525  0.59327908  1
  O  O78  1  0.97685836  0.80599164  0.09066234  1
  O  O79  1  0.83332973  0.02059053  0.08916269  1
  O  O80  1  0.18739682  0.15642072  0.09160125  1
  O  O81  1  0.68683867  0.16069353  0.74471590  1
  O  O82  1  0.47221948  0.30585646  0.74444272  1
  O  O83  1  0.82748709  0.52049268  0.74517698  1
  O  O84  1  0.69592649  0.52808672  0.24278723  1
  O  O85  1  0.83769104  0.30948628  0.24346303  1
  O  O86  1  0.47280158  0.16034002  0.24421817  1
  O  O87  1  0.63889330  0.50122600  0.92177782  1
  O  O88  1  0.85297136  0.35805870  0.92308871  1
  O  O89  1  0.49531175  0.14008160  0.92133408  1
  O  O90  1  0.64507263  0.14160761  0.42196772  1
  O  O91  1  0.50392134  0.35442562  0.42213247  1
  O  O92  1  0.86384870  0.50105804  0.42075727  1
  O  O93  1  0.35888508  0.49967649  0.07654509  1
  O  O94  1  0.13457116  0.63857186  0.07720062  1
  O  O95  1  0.49033212  0.85589746  0.07343006  1
  O  O96  1  0.35981052  0.86154097  0.57220772  1
  O  O97  1  0.50305566  0.64264700  0.57300778  1
  O  O98  1  0.13450752  0.49627340  0.57284625  1
  O  O99  1  0.30578510  0.83438203  0.25939863  1
  O  O100  1  0.52908166  0.69706008  0.25805592  1
  O  O101  1  0.15999909  0.47488583  0.25889711  1
  O  O102  1  0.31147809  0.47245533  0.75712464  1
  O  O103  1  0.17133427  0.69896743  0.75714354  1
  O  O104  1  0.53040602  0.83200168  0.75814345  1
