# generated using pymatgen
data_Na9MgNb5(SiO4)9
_symmetry_space_group_name_H-M   'P 1'
_cell_length_a   15.82003687
_cell_length_b   27.24372239
_cell_length_c   9.08081994
_cell_angle_alpha   89.78617781
_cell_angle_beta   125.08541125
_cell_angle_gamma   90.29087511
_symmetry_Int_Tables_number   1
_chemical_formula_structural   Na9MgNb5(SiO4)9
_chemical_formula_sum   'Na36 Mg4 Nb20 Si36 O144'
_cell_volume   3202.60717128
_cell_formula_units_Z   4
loop_
 _symmetry_equiv_pos_site_id
 _symmetry_equiv_pos_as_xyz
  1  'x, y, z'
loop_
 _atom_site_type_symbol
 _atom_site_label
 _atom_site_symmetry_multiplicity
 _atom_site_fract_x
 _atom_site_fract_y
 _atom_site_fract_z
 _atom_site_occupancy
  Na  Na0  1  0.25556833  0.25443869  0.01461392  1
  Na  Na1  1  0.25891519  0.58915663  0.01802742  1
  Na  Na2  1  0.24762722  0.91489299  0.99790428  1
  Na  Na3  1  0.74878646  0.25618947  0.50259277  1
  Na  Na4  1  0.74283608  0.57655780  0.49687989  1
  Na  Na5  1  0.75075533  0.91464185  0.50657756  1
  Na  Na6  1  0.75891519  0.08915663  0.01802742  1
  Na  Na7  1  0.74762722  0.41489299  0.99790428  1
  Na  Na8  1  0.75556833  0.75443869  0.01461392  1
  Na  Na9  1  0.24283608  0.07655780  0.49687989  1
  Na  Na10  1  0.25075533  0.41464185  0.50657756  1
  Na  Na11  1  0.24878646  0.75618947  0.50259277  1
  Na  Na12  1  0.50245131  0.03822486  0.75398861  1
  Na  Na13  1  0.48818472  0.36330288  0.71856634  1
  Na  Na14  1  0.48910896  0.69807682  0.72604227  1
  Na  Na15  1  0.50087724  0.28879434  0.27004548  1
  Na  Na16  1  0.50126021  0.62410049  0.27658944  1
  Na  Na17  1  0.49998077  0.96405394  0.25433624  1
  Na  Na18  1  0.98910896  0.19807682  0.72604227  1
  Na  Na19  1  0.00245131  0.53822486  0.75398861  1
  Na  Na20  1  0.98818472  0.86330288  0.71856634  1
  Na  Na21  1  0.00126021  0.12410049  0.27658944  1
  Na  Na22  1  -0.00001923  0.46405394  0.25433624  1
  Na  Na23  1  0.00087724  0.78879434  0.27004548  1
  Na  Na24  1  0.80702276  0.65318494  0.24050774  1
  Na  Na25  1  0.81662842  0.98547168  0.25070301  1
  Na  Na26  1  0.20541200  0.30792555  0.29314817  1
  Na  Na27  1  0.20840777  0.64526241  0.28671495  1
  Na  Na28  1  0.81448138  0.02511881  0.68184484  1
  Na  Na29  1  0.81156821  0.69122716  0.67842396  1
  Na  Na30  1  0.30702276  0.15318494  0.24050774  1
  Na  Na31  1  0.31662842  0.48547168  0.25070301  1
  Na  Na32  1  0.70840777  0.14526241  0.28671495  1
  Na  Na33  1  0.70541200  0.80792555  0.29314817  1
  Na  Na34  1  0.31156821  0.19122716  0.67842396  1
  Na  Na35  1  0.31448138  0.52511881  0.68184484  1
  Mg  Mg36  1  0.89827363  0.08275749  0.43677210  1
  Mg  Mg37  1  0.89726118  0.74925850  0.43618361  1
  Mg  Mg38  1  0.39726118  0.24925850  0.43618361  1
  Mg  Mg39  1  0.39827363  0.58275749  0.43677210  1
  Nb  Nb40  1  0.10827958  0.25028387  0.57576445  1
  Nb  Nb41  1  0.10858051  0.58469379  0.57358955  1
  Nb  Nb42  1  0.10874533  0.91734528  0.57167454  1
  Nb  Nb43  1  0.88897307  0.25151287  0.93130026  1
  Nb  Nb44  1  0.89302365  0.58233097  0.93256342  1
  Nb  Nb45  1  0.89657386  0.91733222  0.93550461  1
  Nb  Nb46  1  0.89072449  0.41515649  0.43038081  1
  Nb  Nb47  1  0.10254318  0.08128597  0.05827058  1
  Nb  Nb48  1  0.10642331  0.41549473  0.06747305  1
  Nb  Nb49  1  0.10772099  0.75066414  0.06063927  1
  Nb  Nb50  1  0.60858051  0.08469379  0.57358955  1
  Nb  Nb51  1  0.60874533  0.41734528  0.57167454  1
  Nb  Nb52  1  0.60827958  0.75028387  0.57576445  1
  Nb  Nb53  1  0.39302365  0.08233097  0.93256342  1
  Nb  Nb54  1  0.39657386  0.41733222  0.93550461  1
  Nb  Nb55  1  0.38897307  0.75151287  0.93130026  1
  Nb  Nb56  1  0.39072449  0.91515649  0.43038081  1
  Nb  Nb57  1  0.60772099  0.25066414  0.06063927  1
  Nb  Nb58  1  0.60254318  0.58128597  0.05827058  1
  Nb  Nb59  1  0.60642331  0.91549473  0.06747305  1
  Si  Si60  1  0.00005181  0.31921921  0.75044560  1
  Si  Si61  1  0.00035420  0.65346909  0.74359143  1
  Si  Si62  1  0.99783342  0.98559795  0.73461121  1
  Si  Si63  1  0.00246371  0.01402708  0.24956925  1
  Si  Si64  1  0.00077633  0.34625600  0.25179535  1
  Si  Si65  1  0.00174833  0.68007964  0.24816731  1
  Si  Si66  1  0.50035420  0.15346909  0.74359143  1
  Si  Si67  1  0.49783342  0.48559795  0.73461121  1
  Si  Si68  1  0.50005181  0.81921921  0.75044560  1
  Si  Si69  1  0.50174833  0.18007964  0.24816731  1
  Si  Si70  1  0.50246371  0.51402708  0.24956925  1
  Si  Si71  1  0.50077633  0.84625600  0.25179535  1
  Si  Si72  1  0.35491096  0.29774499  0.75206365  1
  Si  Si73  1  0.35253800  0.63168929  0.74714936  1
  Si  Si74  1  0.35561271  0.96360547  0.75403088  1
  Si  Si75  1  0.64104982  0.29785293  0.73123973  1
  Si  Si76  1  0.64434681  0.63027034  0.74092356  1
  Si  Si77  1  0.64554052  0.96353966  0.74365576  1
  Si  Si78  1  0.64415282  0.03424729  0.24553306  1
  Si  Si79  1  0.64275251  0.36812249  0.24687777  1
  Si  Si80  1  0.64028530  0.70123396  0.24104560  1
  Si  Si81  1  0.35478979  0.03591168  0.25700382  1
  Si  Si82  1  0.35641344  0.36938911  0.25691795  1
  Si  Si83  1  0.35536941  0.70415641  0.25766574  1
  Si  Si84  1  0.85253800  0.13168929  0.74714936  1
  Si  Si85  1  0.85561271  0.46360547  0.75403088  1
  Si  Si86  1  0.85491096  0.79774499  0.75206365  1
  Si  Si87  1  0.14434681  0.13027034  0.74092356  1
  Si  Si88  1  0.14554052  0.46353966  0.74365576  1
  Si  Si89  1  0.14104982  0.79785293  0.73123973  1
  Si  Si90  1  0.14028530  0.20123396  0.24104560  1
  Si  Si91  1  0.14415282  0.53424729  0.24553306  1
  Si  Si92  1  0.14275251  0.86812249  0.24687777  1
  Si  Si93  1  0.85536941  0.20415641  0.25766574  1
  Si  Si94  1  0.85478979  0.53591168  0.25700382  1
  Si  Si95  1  0.85641344  0.86938911  0.25691795  1
  O  O96  1  0.15328019  0.19155291  0.74477757  1
  O  O97  1  0.14869899  0.52384262  0.74049850  1
  O  O98  1  0.14932097  0.85857408  0.74373945  1
  O  O99  1  0.84574194  0.19109999  0.76779129  1
  O  O100  1  0.84883162  0.52361750  0.75454462  1
  O  O101  1  0.84824264  0.85744460  0.77235433  1
  O  O102  1  0.84487472  0.14532780  0.25034054  1
  O  O103  1  0.84982354  0.47564266  0.26131142  1
  O  O104  1  0.84224638  0.81092898  0.24590861  1
  O  O105  1  0.14542605  0.14056593  0.23885011  1
  O  O106  1  0.15189884  0.47315042  0.24744349  1
  O  O107  1  0.14630170  0.80812653  0.23905426  1
  O  O108  1  0.64869899  0.02384262  0.74049850  1
  O  O109  1  0.64932097  0.35857408  0.74373945  1
  O  O110  1  0.65328019  0.69155291  0.74477757  1
  O  O111  1  0.34883162  0.02361750  0.75454462  1
  O  O112  1  0.34824264  0.35744460  0.77235433  1
  O  O113  1  0.34574194  0.69109999  0.76779129  1
  O  O114  1  0.34224638  0.31092898  0.24590861  1
  O  O115  1  0.34487472  0.64532780  0.25034054  1
  O  O116  1  0.34982354  0.97564266  0.26131142  1
  O  O117  1  0.64630170  0.30812653  0.23905426  1
  O  O118  1  0.64542605  0.64056593  0.23885011  1
  O  O119  1  0.65189884  0.97315042  0.24744349  1
  O  O120  1  0.41974356  0.18370402  0.56515385  1
  O  O121  1  0.41804284  0.51598824  0.55467323  1
  O  O122  1  0.43649893  0.85655670  0.57707163  1
  O  O123  1  0.56858028  0.18882329  0.92519164  1
  O  O124  1  0.56221049  0.52384833  0.91077071  1
  O  O125  1  0.56741673  0.85500381  0.93077958  1
  O  O126  1  0.56812409  0.14175514  0.42354167  1
  O  O127  1  0.56553622  0.47635787  0.42458134  1
  O  O128  1  0.56903749  0.80940337  0.42556545  1
  O  O129  1  0.44327501  0.14124431  0.07699837  1
  O  O130  1  0.44239567  0.47799403  0.07084208  1
  O  O131  1  0.43690307  0.81282038  0.07096989  1
  O  O132  1  0.91804284  0.01598824  0.55467323  1
  O  O133  1  0.93649893  0.35655670  0.57707163  1
  O  O134  1  0.91974356  0.68370402  0.56515385  1
  O  O135  1  0.06221049  0.02384833  0.91077071  1
  O  O136  1  0.06741673  0.35500381  0.93077958  1
  O  O137  1  0.06858028  0.68882329  0.92519164  1
  O  O138  1  0.06903749  0.30940337  0.42556545  1
  O  O139  1  0.06812409  0.64175514  0.42354167  1
  O  O140  1  0.06553622  0.97635787  0.42458134  1
  O  O141  1  0.93690307  0.31282038  0.07096989  1
  O  O142  1  0.94327501  0.64124431  0.07699837  1
  O  O143  1  0.94239567  0.97799403  0.07084208  1
  O  O144  1  0.25983765  0.26958766  0.74507701  1
  O  O145  1  0.25960262  0.60237234  0.74563958  1
  O  O146  1  0.25846913  0.93793610  0.74010638  1
  O  O147  1  0.74596105  0.27579450  0.76053276  1
  O  O148  1  0.75029499  0.61036896  0.76345614  1
  O  O149  1  0.74592511  0.94311563  0.75447607  1
  O  O150  1  0.73405908  0.05986483  0.23997982  1
  O  O151  1  0.74407666  0.39293083  0.26718867  1
  O  O152  1  0.73347020  0.72638325  0.24417817  1
  O  O153  1  0.25965953  0.06444290  0.24157208  1
  O  O154  1  0.25828568  0.39649345  0.24543852  1
  O  O155  1  0.25744758  0.72996365  0.24619848  1
  O  O156  1  0.75960262  0.10237234  0.74563958  1
  O  O157  1  0.75846913  0.43793610  0.74010638  1
  O  O158  1  0.75983765  0.76958766  0.74507701  1
  O  O159  1  0.25029499  0.11036896  0.76345614  1
  O  O160  1  0.24592511  0.44311563  0.75447607  1
  O  O161  1  0.24596105  0.77579450  0.76053276  1
  O  O162  1  0.23347020  0.22638325  0.24417817  1
  O  O163  1  0.23405908  0.55986483  0.23997982  1
  O  O164  1  0.24407666  0.89293083  0.26718867  1
  O  O165  1  0.75744758  0.22996365  0.24619848  1
  O  O166  1  0.75965953  0.56444290  0.24157208  1
  O  O167  1  0.75828568  0.89649345  0.24543852  1
  O  O168  1  0.35306004  0.28850933  0.57607354  1
  O  O169  1  0.34967359  0.62093927  0.57133021  1
  O  O170  1  0.36324822  0.95068369  0.58493995  1
  O  O171  1  0.63601224  0.28334311  0.90711152  1
  O  O172  1  0.64533325  0.61857394  0.92268270  1
  O  O173  1  0.64449108  0.95007930  0.92240137  1
  O  O174  1  0.64512521  0.04655162  0.42580100  1
  O  O175  1  0.63684039  0.38128465  0.41726956  1
  O  O176  1  0.64290479  0.71441914  0.42410295  1
  O  O177  1  0.35780015  0.04957097  0.08288753  1
  O  O178  1  0.35990845  0.39043876  0.08960267  1
  O  O179  1  0.35731254  0.72315140  0.08728453  1
  O  O180  1  0.84967359  0.12093927  0.57133021  1
  O  O181  1  0.86324822  0.45068369  0.58493995  1
  O  O182  1  0.85306004  0.78850933  0.57607354  1
  O  O183  1  0.14533325  0.11857394  0.92268270  1
  O  O184  1  0.14449108  0.45007930  0.92240137  1
  O  O185  1  0.13601224  0.78334311  0.90711152  1
  O  O186  1  0.14290479  0.21441914  0.42410295  1
  O  O187  1  0.14512521  0.54655162  0.42580100  1
  O  O188  1  0.13684039  0.88128465  0.41726956  1
  O  O189  1  0.85731254  0.22315140  0.08728453  1
  O  O190  1  0.85780015  0.54957097  0.08288753  1
  O  O191  1  0.85990845  0.89043876  0.08960267  1
  O  O192  1  0.46325441  0.27534519  0.93414538  1
  O  O193  1  0.46247859  0.60905236  0.92686088  1
  O  O194  1  0.46526055  0.94359679  0.93810824  1
  O  O195  1  0.53920158  0.27838702  0.55118646  1
  O  O196  1  0.54261239  0.61076625  0.56081242  1
  O  O197  1  0.53741671  0.94304678  0.56482147  1
  O  O198  1  0.52971582  0.04891988  0.06797621  1
  O  O199  1  0.53672126  0.38821723  0.06243827  1
  O  O200  1  0.52922443  0.72131234  0.06682720  1
  O  O201  1  0.46438845  0.05562210  0.43881701  1
  O  O202  1  0.46191428  0.39085646  0.44141075  1
  O  O203  1  0.46522539  0.72354427  0.44210610  1
  O  O204  1  0.96247859  0.10905236  0.92686088  1
  O  O205  1  0.96526055  0.44359679  0.93810824  1
  O  O206  1  0.96325441  0.77534519  0.93414538  1
  O  O207  1  0.04261239  0.11076625  0.56081242  1
  O  O208  1  0.03741671  0.44304678  0.56482147  1
  O  O209  1  0.03920158  0.77838702  0.55118646  1
  O  O210  1  0.02922443  0.22131234  0.06682720  1
  O  O211  1  0.02971582  0.54891988  0.06797621  1
  O  O212  1  0.03672126  0.88821723  0.06243827  1
  O  O213  1  0.96522539  0.22354427  0.44210610  1
  O  O214  1  0.96438845  0.55562210  0.43881701  1
  O  O215  1  0.96191428  0.89085646  0.44141075  1
  O  O216  1  0.08258095  0.28504112  0.74322018  1
  O  O217  1  0.08389543  0.61716892  0.74320958  1
  O  O218  1  0.08467660  0.95021337  0.74581768  1
  O  O219  1  0.91973933  0.28278630  0.75483229  1
  O  O220  1  0.92899882  0.61455401  0.77227548  1
  O  O221  1  0.92236195  0.94894165  0.76058582  1
  O  O222  1  0.91778895  0.04772868  0.24456798  1
  O  O223  1  0.92318427  0.38375413  0.26068525  1
  O  O224  1  0.91655810  0.71257367  0.24447542  1
  O  O225  1  0.08698641  0.04766358  0.24261512  1
  O  O226  1  0.08742991  0.37998947  0.24832633  1
  O  O227  1  0.08914925  0.71226140  0.24588347  1
  O  O228  1  0.58389543  0.11716892  0.74320958  1
  O  O229  1  0.58467660  0.45021337  0.74581768  1
  O  O230  1  0.58258095  0.78504112  0.74322018  1
  O  O231  1  0.42899882  0.11455401  0.77227548  1
  O  O232  1  0.42236195  0.44894165  0.76058582  1
  O  O233  1  0.41973933  0.78278630  0.75483229  1
  O  O234  1  0.41655810  0.21257367  0.24447542  1
  O  O235  1  0.41778895  0.54772868  0.24456798  1
  O  O236  1  0.42318427  0.88375413  0.26068525  1
  O  O237  1  0.58914925  0.21226140  0.24588347  1
  O  O238  1  0.58698641  0.54766358  0.24261512  1
  O  O239  1  0.58742991  0.87998947  0.24832633  1
