# generated using pymatgen
data_Na8Y2Zr2Si5SO24
_symmetry_space_group_name_H-M   'P 1'
_cell_length_a   9.42377275
_cell_length_b   9.41002076
_cell_length_c   22.95685814
_cell_angle_alpha   90.07470692
_cell_angle_beta   89.81285287
_cell_angle_gamma   119.94350842
_symmetry_Int_Tables_number   1
_chemical_formula_structural   Na8Y2Zr2Si5SO24
_chemical_formula_sum   'Na24 Y6 Zr6 Si15 S3 O72'
_cell_volume   1764.01819354
_cell_formula_units_Z   3
loop_
 _symmetry_equiv_pos_site_id
 _symmetry_equiv_pos_as_xyz
  1  'x, y, z'
loop_
 _atom_site_type_symbol
 _atom_site_label
 _atom_site_symmetry_multiplicity
 _atom_site_fract_x
 _atom_site_fract_y
 _atom_site_fract_z
 _atom_site_occupancy
  Na  Na0  1  0.64905108  0.00794198  0.25401511  1
  Na  Na1  1  0.35065223  0.35943898  0.24624994  1
  Na  Na2  1  0.00017630  0.64202876  0.24976256  1
  Na  Na3  1  0.63641953  0.63492474  0.74445212  1
  Na  Na4  1  0.99005568  0.35461714  0.74836424  1
  Na  Na5  1  0.36886123  0.01254403  0.74842636  1
  Na  Na6  1  0.30032192  0.33807015  0.59017883  1
  Na  Na7  1  0.03940740  0.70288318  0.58306074  1
  Na  Na8  1  0.66458044  0.95833904  0.58358565  1
  Na  Na9  1  0.27727626  0.96438740  0.07985495  1
  Na  Na10  1  0.67204275  0.68172364  0.09176559  1
  Na  Na11  1  0.05322880  0.34149755  0.09011603  1
  Na  Na12  1  0.98641038  0.67056365  0.91533243  1
  Na  Na13  1  0.70800932  0.05343255  0.90226012  1
  Na  Na14  1  0.31252211  0.27550274  0.91869288  1
  Na  Na15  1  0.95232323  0.29337139  0.40843759  1
  Na  Na16  1  0.32665109  0.01199605  0.41556020  1
  Na  Na17  1  0.71840552  0.68669079  0.41939455  1
  Na  Na18  1  0.98368436  0.98095183  0.50307165  1
  Na  Na19  1  0.03615393  0.01449624  0.99951635  1
  Na  Na20  1  0.66838236  0.31858415  0.82937983  1
  Na  Na21  1  0.67852186  0.32886570  0.33213067  1
  Na  Na22  1  0.31796414  0.64607942  0.16829534  1
  Na  Na23  1  0.33717362  0.66669913  0.66324351  1
  Y  Y24  1  0.99779506  0.99630479  0.34513239  1
  Y  Y25  1  0.00703760  0.00396712  0.84475282  1
  Y  Y26  1  0.00322850  0.99912382  0.15556540  1
  Y  Y27  1  0.66643655  0.33478573  0.98038678  1
  Y  Y28  1  0.31808579  0.65693749  0.01842460  1
  Y  Y29  1  0.33567397  0.67556940  0.52071078  1
  Zr  Zr30  1  0.00024881  0.00061503  0.64963159  1
  Zr  Zr31  1  0.66875664  0.33351166  0.68352107  1
  Zr  Zr32  1  0.66704590  0.34313281  0.18516106  1
  Zr  Zr33  1  0.67566998  0.33057499  0.48551752  1
  Zr  Zr34  1  0.33048371  0.67762403  0.31658965  1
  Zr  Zr35  1  0.31987506  0.66693775  0.81065881  1
  Si  Si36  1  0.31252200  0.00382165  0.25046266  1
  Si  Si37  1  0.68577864  0.69175928  0.25036868  1
  Si  Si38  1  0.00069752  0.31106210  0.25026393  1
  Si  Si39  1  0.30465096  0.30475294  0.74918368  1
  Si  Si40  1  0.99486414  0.69786854  0.74986335  1
  Si  Si41  1  0.69721105  0.99740010  0.75031792  1
  Si  Si42  1  0.96245933  0.32568267  0.58519066  1
  Si  Si43  1  0.36984274  0.04489528  0.58397342  1
  Si  Si44  1  0.67228467  0.62831858  0.58373940  1
  Si  Si45  1  0.96532692  0.63632576  0.08263392  1
  Si  Si46  1  0.36679649  0.33389435  0.08303424  1
  Si  Si47  1  0.03210353  0.36181121  0.91527297  1
  Si  Si48  1  0.33474421  0.96580168  0.91660685  1
  Si  Si49  1  0.63625826  0.97226703  0.41809594  1
  Si  Si50  1  0.02662272  0.66270321  0.41893598  1
  S  S51  1  0.66975845  0.03792447  0.08449328  1
  S  S52  1  0.62505102  0.66797772  0.91491365  1
  S  S53  1  0.33872461  0.37202020  0.41648245  1
  O  O54  1  0.23860304  0.04844947  0.30769580  1
  O  O55  1  0.80798240  0.77249029  0.30605068  1
  O  O56  1  0.96382202  0.19429068  0.30752073  1
  O  O57  1  0.23449692  0.19359923  0.80784314  1
  O  O58  1  0.95672770  0.76632181  0.80918640  1
  O  O59  1  0.80498730  0.03483725  0.80930110  1
  O  O60  1  0.79691914  0.97237265  0.69514801  1
  O  O61  1  0.17779952  0.20877851  0.69406656  1
  O  O62  1  0.02322604  0.82326923  0.69497991  1
  O  O63  1  0.75933031  0.80959817  0.19305815  1
  O  O64  1  0.03764499  0.23242937  0.19265280  1
  O  O65  1  0.19157182  0.96143164  0.19447955  1
  O  O66  1  0.86853451  0.34764790  0.64118570  1
  O  O67  1  0.48319748  0.14072371  0.64010372  1
  O  O68  1  0.65670678  0.51745441  0.64055129  1
  O  O69  1  0.85943049  0.51835944  0.13842270  1
  O  O70  1  0.65346803  0.12379278  0.13633149  1
  O  O71  1  0.47916088  0.33500617  0.13886343  1
  O  O72  1  0.44783726  0.31006856  0.02314723  1
  O  O73  1  0.86515303  0.54753289  0.02312355  1
  O  O74  1  0.68460984  0.13227641  0.03041746  1
  O  O75  1  0.46292426  0.15670207  0.52537917  1
  O  O76  1  0.69265637  0.53555324  0.52513266  1
  O  O77  1  0.84745041  0.30348857  0.52667616  1
  O  O78  1  0.54827356  0.68260383  0.96991669  1
  O  O79  1  0.13806083  0.44234784  0.97503330  1
  O  O80  1  0.32717131  0.86942399  0.97707824  1
  O  O81  1  0.55586554  0.85978249  0.47587220  1
  O  O82  1  0.31932341  0.44965998  0.47025398  1
  O  O83  1  0.13276382  0.68012027  0.47697695  1
  O  O84  1  0.12433771  0.64275983  0.36172006  1
  O  O85  1  0.51766333  0.87063777  0.36172608  1
  O  O86  1  0.35127050  0.47256636  0.36457137  1
  O  O87  1  0.14238413  0.48013119  0.85945690  1
  O  O88  1  0.34393890  0.85846613  0.86014370  1
  O  O89  1  0.52531393  0.65685598  0.86360395  1
  O  O90  1  0.01130786  0.82909341  0.41437071  1
  O  O91  1  0.82455432  0.00722883  0.41257272  1
  O  O92  1  0.19223349  0.20561830  0.41233683  1
  O  O93  1  0.00177569  0.17458293  0.91299938  1
  O  O94  1  0.16481144  0.97499649  0.91493949  1
  O  O95  1  0.79088485  0.81447311  0.91172151  1
  O  O96  1  0.96775832  0.15394986  0.58846792  1
  O  O97  1  0.18956831  0.03311106  0.58790589  1
  O  O98  1  0.84112962  0.80917794  0.58744939  1
  O  O99  1  0.97616406  0.81603126  0.08617552  1
  O  O100  1  0.81802556  0.02365854  0.08829987  1
  O  O101  1  0.17960149  0.17727592  0.08696707  1
  O  O102  1  0.66946815  0.15581536  0.74220755  1
  O  O103  1  0.48912577  0.33088101  0.74049287  1
  O  O104  1  0.84049725  0.51163498  0.74177985  1
  O  O105  1  0.66412305  0.50660007  0.24283689  1
  O  O106  1  0.83869212  0.33305368  0.24298883  1
  O  O107  1  0.50000445  0.15588383  0.24100777  1
  O  O108  1  0.63699582  0.51560600  0.91603820  1
  O  O109  1  0.85596702  0.35958572  0.91237537  1
  O  O110  1  0.49973773  0.14885982  0.91183519  1
  O  O111  1  0.63587364  0.14965380  0.41948802  1
  O  O112  1  0.49059114  0.36138887  0.41857255  1
  O  O113  1  0.84242305  0.49426637  0.41948873  1
  O  O114  1  0.37120530  0.51179432  0.08725942  1
  O  O115  1  0.14884889  0.65469620  0.08725871  1
  O  O116  1  0.52070473  0.87209200  0.08247736  1
  O  O117  1  0.35120345  0.86193289  0.58388767  1
  O  O118  1  0.50658778  0.64326275  0.58288089  1
  O  O119  1  0.14626042  0.48498188  0.58288140  1
  O  O120  1  0.33171520  0.83912589  0.25845585  1
  O  O121  1  0.49971833  0.65950327  0.26149178  1
  O  O122  1  0.16306927  0.49453130  0.25837809  1
  O  O123  1  0.32294563  0.48842038  0.75335959  1
  O  O124  1  0.16517511  0.68561703  0.75194053  1
  O  O125  1  0.51633375  0.82878320  0.75370712  1
