# generated using pymatgen
data_NaTa4Si3(PO8)3
_symmetry_space_group_name_H-M   'P 1'
_cell_length_a   8.82551211
_cell_length_b   8.82663412
_cell_length_c   22.80008537
_cell_angle_alpha   90.06663764
_cell_angle_beta   90.13874748
_cell_angle_gamma   119.98505227
_symmetry_Int_Tables_number   1
_chemical_formula_structural   NaTa4Si3(PO8)3
_chemical_formula_sum   'Na3 Ta12 Si9 P9 O72'
_cell_volume   1538.38358139
_cell_formula_units_Z   3
loop_
 _symmetry_equiv_pos_site_id
 _symmetry_equiv_pos_as_xyz
  1  'x, y, z'
loop_
 _atom_site_type_symbol
 _atom_site_label
 _atom_site_symmetry_multiplicity
 _atom_site_fract_x
 _atom_site_fract_y
 _atom_site_fract_z
 _atom_site_occupancy
  Na  Na0  1  0.00049630  0.99692281  0.99916781  1
  Na  Na1  1  0.66494540  0.33115502  0.83593112  1
  Na  Na2  1  0.66794820  0.33203642  0.33156103  1
  Ta  Ta3  1  0.99607554  0.00123246  0.35808764  1
  Ta  Ta4  1  0.00220840  0.00310976  0.85609184  1
  Ta  Ta5  1  0.99832577  0.00212039  0.64488790  1
  Ta  Ta6  1  0.00326461  0.00357815  0.14443708  1
  Ta  Ta7  1  0.66491218  0.33258142  0.68981599  1
  Ta  Ta8  1  0.67126224  0.33769526  0.18679621  1
  Ta  Ta9  1  0.66191071  0.33607108  0.97761886  1
  Ta  Ta10  1  0.66890031  0.33397775  0.47729174  1
  Ta  Ta11  1  0.33439270  0.66930102  0.02385076  1
  Ta  Ta12  1  0.33477009  0.67081339  0.52222970  1
  Ta  Ta13  1  0.32937596  0.66817279  0.30912589  1
  Ta  Ta14  1  0.34101949  0.67032587  0.80951663  1
  Si  Si15  1  0.99789600  0.28578107  0.25049362  1
  Si  Si16  1  0.28411296  0.28656543  0.75016933  1
  Si  Si17  1  0.71489785  0.00020816  0.74985811  1
  Si  Si18  1  0.95427795  0.62108110  0.08280514  1
  Si  Si19  1  0.37939530  0.33389773  0.08336263  1
  Si  Si20  1  0.62003196  0.66868762  0.91684153  1
  Si  Si21  1  0.33392387  0.95200579  0.91671044  1
  Si  Si22  1  0.61666918  0.95071560  0.41667073  1
  Si  Si23  1  0.04928576  0.66780987  0.41631031  1
  P  P24  1  0.28611439  0.00253593  0.25055603  1
  P  P25  1  0.71489372  0.71461040  0.25057535  1
  P  P26  1  0.00064223  0.71634188  0.74979550  1
  P  P27  1  0.95312103  0.33380606  0.58341368  1
  P  P28  1  0.38032218  0.04783514  0.58336629  1
  P  P29  1  0.66670443  0.61886809  0.58336166  1
  P  P30  1  0.66753930  0.04876122  0.08305990  1
  P  P31  1  0.04845279  0.38320607  0.91659490  1
  P  P32  1  0.33424860  0.38428189  0.41649171  1
  O  O33  1  0.20031804  0.03026062  0.30482884  1
  O  O34  1  0.83229151  0.79960750  0.30512608  1
  O  O35  1  0.97100687  0.16306469  0.30735735  1
  O  O36  1  0.19837765  0.16143419  0.80674263  1
  O  O37  1  0.96473450  0.79722760  0.80407675  1
  O  O38  1  0.83771923  0.03358529  0.80679743  1
  O  O39  1  0.80657784  0.97138197  0.69172540  1
  O  O40  1  0.16594245  0.18967546  0.69182835  1
  O  O41  1  0.02640065  0.82809942  0.69442018  1
  O  O42  1  0.80001699  0.82563704  0.19588154  1
  O  O43  1  0.02474151  0.19169136  0.19310599  1
  O  O44  1  0.17146358  0.97154837  0.19549499  1
  O  O45  1  0.86634378  0.36339414  0.63726774  1
  O  O46  1  0.49864149  0.13642208  0.63748431  1
  O  O47  1  0.63884628  0.50283046  0.63730884  1
  O  O48  1  0.86131400  0.49892575  0.14090095  1
  O  O49  1  0.64058906  0.13505455  0.13851250  1
  O  O50  1  0.49868766  0.35804851  0.14132969  1
  O  O51  1  0.46974167  0.29789836  0.02646090  1
  O  O52  1  0.82989775  0.52693746  0.02617940  1
  O  O53  1  0.70098066  0.16331607  0.02878138  1
  O  O54  1  0.46778497  0.16362809  0.52912856  1
  O  O55  1  0.69385477  0.52990090  0.52899680  1
  O  O56  1  0.83492100  0.30482503  0.52893787  1
  O  O57  1  0.52920174  0.69641342  0.97422235  1
  O  O58  1  0.16181362  0.46557827  0.97159459  1
  O  O59  1  0.30295541  0.83274260  0.97440209  1
  O  O60  1  0.52672070  0.83065390  0.47470578  1
  O  O61  1  0.30526658  0.46711164  0.47195065  1
  O  O62  1  0.16776682  0.69197285  0.47447240  1
  O  O63  1  0.13750861  0.63137088  0.35960759  1
  O  O64  1  0.49609155  0.86173505  0.35938085  1
  O  O65  1  0.36874399  0.49909088  0.36220749  1
  O  O66  1  0.12983171  0.49351019  0.86146126  1
  O  O67  1  0.35849065  0.85888568  0.85875604  1
  O  O68  1  0.49790267  0.63502511  0.85885081  1
  O  O69  1  0.02949944  0.83755209  0.40516026  1
  O  O70  1  0.80953486  0.97476040  0.40693471  1
  O  O71  1  0.17487463  0.20074418  0.40690263  1
  O  O72  1  0.02921854  0.19834770  0.90926291  1
  O  O73  1  0.16280573  0.97669408  0.90891658  1
  O  O74  1  0.81407901  0.83965088  0.90833442  1
  O  O75  1  0.97046835  0.16975844  0.59189991  1
  O  O76  1  0.19810150  0.02458008  0.59274451  1
  O  O77  1  0.82951522  0.79940270  0.59233768  1
  O  O78  1  0.96978743  0.81127176  0.09272329  1
  O  O79  1  0.82921152  0.02567173  0.09230438  1
  O  O80  1  0.18597215  0.15972783  0.09178483  1
  O  O81  1  0.69643425  0.17464099  0.73935177  1
  O  O82  1  0.47993901  0.31090676  0.73933726  1
  O  O83  1  0.83548235  0.53219781  0.73957612  1
  O  O84  1  0.69279373  0.52909963  0.24336207  1
  O  O85  1  0.82431365  0.30610726  0.24363814  1
  O  O86  1  0.46993971  0.16383608  0.24280251  1
  O  O87  1  0.64334939  0.49598596  0.92346582  1
  O  O88  1  0.86306242  0.35770892  0.92447356  1
  O  O89  1  0.50930239  0.14430076  0.92392096  1
  O  O90  1  0.63758353  0.14452675  0.42703471  1
  O  O91  1  0.49702254  0.36151562  0.42660329  1
  O  O92  1  0.85366755  0.49711320  0.42687839  1
  O  O93  1  0.35923074  0.50281830  0.07298870  1
  O  O94  1  0.14410186  0.64119019  0.07364410  1
  O  O95  1  0.50529741  0.86752117  0.07524440  1
  O  O96  1  0.36312610  0.86595167  0.57441922  1
  O  O97  1  0.50339137  0.63633554  0.57376664  1
  O  O98  1  0.13543894  0.49340151  0.57336024  1
  O  O99  1  0.30543937  0.83877284  0.25895475  1
  O  O100  1  0.53326787  0.69431467  0.26050878  1
  O  O101  1  0.17162106  0.47653117  0.26034223  1
  O  O102  1  0.30042129  0.47462365  0.75926061  1
  O  O103  1  0.15803195  0.69181630  0.75886211  1
  O  O104  1  0.52218178  0.83270935  0.75843010  1
