# generated using pymatgen
data_Na4Y3Nb(PO4)6
_symmetry_space_group_name_H-M   'P 1'
_cell_length_a   9.17714233
_cell_length_b   9.17185390
_cell_length_c   23.49742587
_cell_angle_alpha   89.98019760
_cell_angle_beta   90.06854585
_cell_angle_gamma   120.00579935
_symmetry_Int_Tables_number   1
_chemical_formula_structural   Na4Y3Nb(PO4)6
_chemical_formula_sum   'Na12 Y9 Nb3 P18 O72'
_cell_volume   1712.73354458
_cell_formula_units_Z   3
loop_
 _symmetry_equiv_pos_site_id
 _symmetry_equiv_pos_as_xyz
  1  'x, y, z'
loop_
 _atom_site_type_symbol
 _atom_site_label
 _atom_site_symmetry_multiplicity
 _atom_site_fract_x
 _atom_site_fract_y
 _atom_site_fract_z
 _atom_site_occupancy
  Na  Na0  1  0.63819306  0.99930345  0.25134873  1
  Na  Na1  1  0.36180944  0.36169376  0.25108906  1
  Na  Na2  1  0.99941319  0.63876115  0.25049787  1
  Na  Na3  1  0.29995384  0.33418923  0.58480293  1
  Na  Na4  1  0.03550062  0.69815751  0.58488110  1
  Na  Na5  1  0.66410562  0.70200323  0.07977229  1
  Na  Na6  1  0.98981840  0.99959555  0.49758523  1
  Na  Na7  1  0.01074480  0.01052668  0.99656112  1
  Na  Na8  1  0.66675488  0.33378645  0.82925041  1
  Na  Na9  1  0.66651820  0.33325196  0.33693603  1
  Na  Na10  1  0.32219757  0.66680005  0.16237974  1
  Na  Na11  1  0.34656687  0.67959165  0.66998216  1
  Y  Y12  1  0.00091021  0.99966847  0.35453047  1
  Y  Y13  1  0.99942916  0.99885504  0.85207219  1
  Y  Y14  1  0.99043105  0.99942666  0.65358845  1
  Y  Y15  1  0.00875696  0.00810061  0.14352340  1
  Y  Y16  1  0.66662826  0.32978243  0.68912167  1
  Y  Y17  1  0.66658023  0.32950898  0.18056617  1
  Y  Y18  1  0.32535921  0.66607282  0.01629750  1
  Y  Y19  1  0.34097656  0.67392068  0.51530029  1
  Y  Y20  1  0.33405689  0.66705366  0.32436387  1
  Nb  Nb21  1  0.66650260  0.33095826  0.97741916  1
  Nb  Nb22  1  0.66688781  0.33108508  0.48118539  1
  Nb  Nb23  1  0.33178240  0.66561926  0.81590278  1
  P  P24  1  0.29569847  0.99769412  0.25031624  1
  P  P25  1  0.70251294  0.70442749  0.24825923  1
  P  P26  1  0.00252071  0.29799669  0.25050284  1
  P  P27  1  0.29655008  0.30495870  0.75160591  1
  P  P28  1  0.00830976  0.70329324  0.75134869  1
  P  P29  1  0.69384508  0.99095129  0.75391991  1
  P  P30  1  0.95583549  0.33181610  0.58144923  1
  P  P31  1  0.37516989  0.04457110  0.58224572  1
  P  P32  1  0.66833646  0.62029040  0.58204007  1
  P  P33  1  0.95486944  0.62249353  0.08101125  1
  P  P34  1  0.66729697  0.04094895  0.08019599  1
  P  P35  1  0.37885003  0.33385906  0.07979038  1
  P  P36  1  0.62130198  0.65887366  0.91856085  1
  P  P37  1  0.03641375  0.37705621  0.91673086  1
  P  P38  1  0.34101562  0.96334349  0.91654856  1
  P  P39  1  0.63676387  0.97677349  0.41726701  1
  P  P40  1  0.34026698  0.36451449  0.41974415  1
  P  P41  1  0.02421507  0.65929222  0.41958524  1
  O  O42  1  0.21506356  0.02762416  0.30236568  1
  O  O43  1  0.81632331  0.79012891  0.29945287  1
  O  O44  1  0.97361999  0.18751452  0.30250355  1
  O  O45  1  0.20570386  0.19153042  0.80130443  1
  O  O46  1  0.98514032  0.79339356  0.80116925  1
  O  O47  1  0.80456525  0.01551121  0.80457550  1
  O  O48  1  0.76302044  0.95606025  0.69854889  1
  O  O49  1  0.19644485  0.23905722  0.69475633  1
  O  O50  1  0.04095718  0.80308922  0.69452343  1
  O  O51  1  0.77990044  0.80796422  0.19326567  1
  O  O52  1  0.03021878  0.21707176  0.19716850  1
  O  O53  1  0.18717914  0.97050520  0.19697259  1
  O  O54  1  0.87676512  0.36014422  0.63377918  1
  O  O55  1  0.47748702  0.12540296  0.63512384  1
  O  O56  1  0.64236328  0.51437288  0.63465329  1
  O  O57  1  0.88035029  0.53142068  0.13793116  1
  O  O58  1  0.64922102  0.11462791  0.13699708  1
  O  O59  1  0.47333166  0.35477801  0.13650724  1
  O  O60  1  0.48517822  0.32141154  0.02896721  1
  O  O61  1  0.83592143  0.51521768  0.03000670  1
  O  O62  1  0.67776392  0.15862193  0.02926726  1
  O  O63  1  0.47670713  0.15849093  0.52916435  1
  O  O64  1  0.68419391  0.52075743  0.52903271  1
  O  O65  1  0.84186152  0.31725157  0.52834718  1
  O  O66  1  0.54802944  0.68199078  0.97371194  1
  O  O67  1  0.13793245  0.45375205  0.97020744  1
  O  O68  1  0.31753167  0.86275257  0.97011795  1
  O  O69  1  0.54511454  0.86275470  0.46725555  1
  O  O70  1  0.31898454  0.45174666  0.47178385  1
  O  O71  1  0.13249388  0.68037504  0.47167925  1
  O  O72  1  0.09731260  0.62880689  0.36414437  1
  O  O73  1  0.53623526  0.90890650  0.36095627  1
  O  O74  1  0.37208424  0.46861230  0.36425349  1
  O  O75  1  0.13004740  0.49641095  0.86457648  1
  O  O76  1  0.36475850  0.86889217  0.86441344  1
  O  O77  1  0.50042118  0.63494102  0.86702002  1
  O  O78  1  -0.00167242  0.81049993  0.41488425  1
  O  O79  1  0.81360001  0.00251134  0.41398782  1
  O  O80  1  0.18870306  0.18794713  0.41490397  1
  O  O81  1  0.00654087  0.19979294  0.90891462  1
  O  O82  1  0.19424508  0.99444647  0.90905233  1
  O  O83  1  0.79856743  0.80605725  0.90999428  1
  O  O84  1  0.97693405  0.17508118  0.58325241  1
  O  O85  1  0.20231460  0.03859216  0.58285062  1
  O  O86  1  0.83444180  0.79126965  0.58346934  1
  O  O87  1  0.95312628  0.79064690  0.08032584  1
  O  O88  1  0.82801926  0.02635380  0.07979113  1
  O  O89  1  0.20604602  0.17397473  0.07943035  1
  O  O90  1  0.66434689  0.14018262  0.74824951  1
  O  O91  1  0.47569024  0.33498032  0.74713949  1
  O  O92  1  0.85935198  0.52392516  0.74699749  1
  O  O93  1  0.68031706  0.52444143  0.24503974  1
  O  O94  1  0.84461175  0.31913092  0.24575721  1
  O  O95  1  0.47489201  0.15540948  0.24557687  1
  O  O96  1  0.63387764  0.49131276  0.92534431  1
  O  O97  1  0.85772413  0.36568033  0.92487460  1
  O  O98  1  0.50871082  0.14226829  0.92448254  1
  O  O99  1  0.64953675  0.15324765  0.42776003  1
  O  O100  1  0.50391800  0.35006890  0.42860279  1
  O  O101  1  0.84618350  0.49530041  0.42814559  1
  O  O102  1  0.37121612  0.49703562  0.07526555  1
  O  O103  1  0.13052855  0.64581474  0.07714056  1
  O  O104  1  0.51435106  0.86225231  0.07632819  1
  O  O105  1  0.34215332  0.86297078  0.57652546  1
  O  O106  1  0.50938034  0.63523079  0.57544803  1
  O  O107  1  0.13275960  0.49093711  0.57489498  1
  O  O108  1  0.31418572  0.83815122  0.25589694  1
  O  O109  1  0.52465128  0.68582377  0.25516074  1
  O  O110  1  0.16143582  0.47668501  0.25607288  1
  O  O111  1  0.31194526  0.48466874  0.76385204  1
  O  O112  1  0.17302163  0.68885363  0.76343865  1
  O  O113  1  0.51446769  0.82629671  0.76456372  1
