# generated using pymatgen
data_Na7La2Mg2P5SO24
_symmetry_space_group_name_H-M   'P 1'
_cell_length_a   9.34467434
_cell_length_b   9.37776001
_cell_length_c   22.90586422
_cell_angle_alpha   90.33673684
_cell_angle_beta   89.75501077
_cell_angle_gamma   119.96137039
_symmetry_Int_Tables_number   1
_chemical_formula_structural   Na7La2Mg2P5SO24
_chemical_formula_sum   'Na21 La6 Mg6 P15 S3 O72'
_cell_volume   1739.00767595
_cell_formula_units_Z   3
loop_
 _symmetry_equiv_pos_site_id
 _symmetry_equiv_pos_as_xyz
  1  'x, y, z'
loop_
 _atom_site_type_symbol
 _atom_site_label
 _atom_site_symmetry_multiplicity
 _atom_site_fract_x
 _atom_site_fract_y
 _atom_site_fract_z
 _atom_site_occupancy
  Na  Na0  1  0.64417795  0.99252838  0.25164486  1
  Na  Na1  1  0.00234301  0.62689463  0.25646481  1
  Na  Na2  1  0.62802123  0.63900111  0.74829055  1
  Na  Na3  1  0.01539372  0.37538576  0.75255566  1
  Na  Na4  1  0.35928289  0.98764483  0.75285885  1
  Na  Na5  1  0.30395152  0.33352966  0.58764019  1
  Na  Na6  1  0.03051800  0.69571772  0.58180353  1
  Na  Na7  1  0.66814733  0.96654347  0.58404657  1
  Na  Na8  1  0.30131763  0.96570687  0.07947414  1
  Na  Na9  1  0.66630055  0.69434989  0.08680606  1
  Na  Na10  1  0.03266554  0.33832933  0.08455886  1
  Na  Na11  1  0.99056549  0.67154962  0.91650353  1
  Na  Na12  1  0.32886976  0.29591375  0.92030812  1
  Na  Na13  1  0.96471040  0.30610282  0.41237601  1
  Na  Na14  1  0.70572889  0.67567635  0.41988525  1
  Na  Na15  1  0.00316473  0.98853236  0.51024415  1
  Na  Na16  1  -0.00061747  0.00732921  0.00931610  1
  Na  Na17  1  0.66691755  0.30666896  0.83227491  1
  Na  Na18  1  0.66240044  0.32847104  0.33206034  1
  Na  Na19  1  0.33436668  0.64044324  0.16956805  1
  Na  Na20  1  0.33350957  0.66793754  0.66682757  1
  La  La21  1  0.00591372  0.99950926  0.35208135  1
  La  La22  1  0.99424792  0.00487098  0.85156132  1
  La  La23  1  0.66636714  0.33292638  0.67535789  1
  La  La24  1  0.66514946  0.33685426  0.17759751  1
  La  La25  1  0.66907299  0.31823689  0.98347900  1
  La  La26  1  0.66016490  0.31952647  0.48376039  1
  Mg  Mg27  1  0.99886057  0.99907506  0.65322091  1
  Mg  Mg28  1  0.99329867  0.00533627  0.15198567  1
  Mg  Mg29  1  0.33024655  0.67255294  0.01583337  1
  Mg  Mg30  1  0.33351030  0.67863784  0.51534637  1
  Mg  Mg31  1  0.33442343  0.66535637  0.31581961  1
  Mg  Mg32  1  0.32958593  0.67271526  0.81540623  1
  P  P33  1  0.69379035  0.70354746  0.24929097  1
  P  P34  1  0.00934442  0.30954198  0.24982843  1
  P  P35  1  0.30035271  0.30936922  0.74922470  1
  P  P36  1  0.00631055  0.70085675  0.74928377  1
  P  P37  1  0.68961910  0.99034350  0.74564966  1
  P  P38  1  0.99211645  0.33252369  0.58244123  1
  P  P39  1  0.34094853  0.01062382  0.58710323  1
  P  P40  1  0.66554041  0.65501193  0.58148381  1
  P  P41  1  0.98650711  0.65666325  0.08244612  1
  P  P42  1  0.66595108  0.00865425  0.08718938  1
  P  P43  1  0.34445281  0.33292804  0.07866013  1
  P  P44  1  0.05638413  0.39305141  0.91587024  1
  P  P45  1  0.33460421  0.95465251  0.91590651  1
  P  P46  1  0.61601267  0.95085977  0.41457264  1
  P  P47  1  0.04499230  0.66120242  0.41629773  1
  S  S48  1  0.30083803  0.98660540  0.24628396  1
  S  S49  1  0.61286094  0.66108777  0.91704526  1
  S  S50  1  0.33736428  0.39602101  0.41804218  1
  O  O51  1  0.22472238  0.00662200  0.29987232  1
  O  O52  1  0.79411632  0.77866578  0.30678109  1
  O  O53  1  0.98886640  0.21230217  0.30733945  1
  O  O54  1  0.22856247  0.20948074  0.80641336  1
  O  O55  1  0.97871567  0.77161373  0.80711759  1
  O  O56  1  0.79864246  0.02106727  0.80005697  1
  O  O57  1  0.77947198  0.97913598  0.69070188  1
  O  O58  1  0.19153215  0.21269585  0.69658481  1
  O  O59  1  0.01449652  0.80795548  0.69714602  1
  O  O60  1  0.79239581  0.81260089  0.19686966  1
  O  O61  1  0.01460594  0.21196480  0.19625861  1
  O  O62  1  0.20839749  0.98649293  0.19413877  1
  O  O63  1  0.91525016  0.36986149  0.63690887  1
  O  O64  1  0.44656621  0.07782658  0.64344446  1
  O  O65  1  0.62948972  0.54292756  0.63612636  1
  O  O66  1  0.90760668  0.54051601  0.13603572  1
  O  O67  1  0.62627992  0.07771892  0.14291357  1
  O  O68  1  0.47068193  0.37036560  0.12868267  1
  O  O69  1  0.41830832  0.29655712  0.02290635  1
  O  O70  1  0.86746180  0.57296674  0.02945910  1
  O  O71  1  0.70587450  0.13910246  0.03830852  1
  O  O72  1  0.43414292  0.14179873  0.53857923  1
  O  O73  1  0.69556156  0.56624603  0.52858947  1
  O  O74  1  0.87057312  0.29773881  0.53024938  1
  O  O75  1  0.52507294  0.66257147  0.97024014  1
  O  O76  1  0.14620393  0.48581486  0.97129149  1
  O  O77  1  0.34053579  0.86914315  0.97202108  1
  O  O78  1  0.52776520  0.86216775  0.47076280  1
  O  O79  1  0.33911965  0.47973608  0.47269715  1
  O  O80  1  0.13260444  0.65738776  0.47207699  1
  O  O81  1  0.13307402  0.65890768  0.35948787  1
  O  O82  1  0.52700895  0.86224150  0.35821901  1
  O  O83  1  0.33711213  0.48431260  0.36552944  1
  O  O84  1  0.14343999  0.48071933  0.85902279  1
  O  O85  1  0.33594147  0.86608686  0.85942169  1
  O  O86  1  0.53089609  0.66550253  0.86264280  1
  O  O87  1  0.01202944  0.81006514  0.41977545  1
  O  O88  1  0.79524909  0.97011676  0.41783745  1
  O  O89  1  0.18597987  0.22797463  0.41958908  1
  O  O90  1  0.03831490  0.21782023  0.91967157  1
  O  O91  1  0.17082960  0.96599385  0.91992321  1
  O  O92  1  0.78759017  0.80090756  0.92035933  1
  O  O93  1  0.00399260  0.17486737  0.59009761  1
  O  O94  1  0.16855519  0.99423949  0.59268914  1
  O  O95  1  0.82568046  0.82311705  0.58897786  1
  O  O96  1  0.00051960  0.82699755  0.09209894  1
  O  O97  1  0.82347003  0.99483171  0.09275059  1
  O  O98  1  0.17527729  0.17627913  0.09041913  1
  O  O99  1  0.66188730  0.14206323  0.74493216  1
  O  O100  1  0.47947451  0.33529497  0.74546719  1
  O  O101  1  0.85453886  0.52106912  0.74562398  1
  O  O102  1  0.67886946  0.52994240  0.24598442  1
  O  O103  1  0.84707412  0.32376045  0.24853655  1
  O  O104  1  0.47544769  0.12628823  0.24625084  1
  O  O105  1  0.62331834  0.50478036  0.91506079  1
  O  O106  1  0.87923012  0.37644087  0.91397912  1
  O  O107  1  0.48012795  0.13890759  0.91282473  1
  O  O108  1  0.65123174  0.13392052  0.41241067  1
  O  O109  1  0.48828332  0.37713427  0.41496661  1
  O  O110  1  0.86512935  0.50155034  0.41391407  1
  O  O111  1  0.32644746  0.48776502  0.07335302  1
  O  O112  1  0.15838424  0.67369400  0.07411474  1
  O  O113  1  0.51376421  0.83893798  0.07419195  1
  O  O114  1  0.32678394  0.84213977  0.57470420  1
  O  O115  1  0.51204447  0.67438033  0.57361403  1
  O  O116  1  0.16360353  0.48637305  0.57331348  1
  O  O117  1  0.30366812  0.82856411  0.24840561  1
  O  O118  1  0.52384193  0.69452094  0.25268598  1
  O  O119  1  0.15954679  0.48662828  0.25283263  1
  O  O120  1  0.31454884  0.48202777  0.75295284  1
  O  O121  1  0.16699302  0.68925487  0.75185070  1
  O  O122  1  0.51934238  0.82990318  0.75203116  1
