# generated using pymatgen
data_Na3La2(PO4)3
_symmetry_space_group_name_H-M   'P 1'
_cell_length_a   16.60720787
_cell_length_b   9.56845187
_cell_length_c   9.67718893
_cell_angle_alpha   90.00000000
_cell_angle_beta   125.22851791
_cell_angle_gamma   90.00000000
_symmetry_Int_Tables_number   1
_chemical_formula_structural   Na3La2(PO4)3
_chemical_formula_sum   'Na12 La8 P12 O48'
_cell_volume   1256.12837409
_cell_formula_units_Z   4
loop_
 _symmetry_equiv_pos_site_id
 _symmetry_equiv_pos_as_xyz
  1  'x, y, z'
loop_
 _atom_site_type_symbol
 _atom_site_label
 _atom_site_symmetry_multiplicity
 _atom_site_fract_x
 _atom_site_fract_y
 _atom_site_fract_z
 _atom_site_occupancy
  Na  Na0  1  0.24246792  0.77039816  0.99524644  1
  Na  Na1  1  0.74246792  0.72960184  0.49524644  1
  Na  Na2  1  0.74246792  0.27039816  0.99524644  1
  Na  Na3  1  0.24246792  0.22960184  0.49524644  1
  Na  Na4  1  0.50053539  0.09837172  0.73470040  1
  Na  Na5  1  0.50053539  0.90162828  0.23470040  1
  Na  Na6  1  0.00053539  0.59837172  0.73470040  1
  Na  Na7  1  0.00053539  0.40162828  0.23470040  1
  Na  Na8  1  0.81063650  0.93406002  0.19158568  1
  Na  Na9  1  0.81063650  0.06593998  0.69158568  1
  Na  Na10  1  0.31063650  0.43406002  0.19158568  1
  Na  Na11  1  0.31063650  0.56593998  0.69158568  1
  La  La12  1  0.10270402  0.76699000  0.54529983  1
  La  La13  1  0.89951207  0.75027281  0.94590371  1
  La  La14  1  0.89951207  0.24972719  0.44590371  1
  La  La15  1  0.10270402  0.23301000  0.04529983  1
  La  La16  1  0.60270402  0.26699000  0.54529983  1
  La  La17  1  0.39951207  0.25027281  0.94590371  1
  La  La18  1  0.39951207  0.74972719  0.44590371  1
  La  La19  1  0.60270402  0.73301000  0.04529983  1
  P  P20  1  0.99129319  0.93360833  0.73400426  1
  P  P21  1  0.99129319  0.06639167  0.23400426  1
  P  P22  1  0.49129319  0.43360833  0.73400426  1
  P  P23  1  0.49129319  0.56639167  0.23400426  1
  P  P24  1  0.35669389  0.89928497  0.76856639  1
  P  P25  1  0.65714871  0.91308446  0.75387332  1
  P  P26  1  0.65714871  0.08691554  0.25387332  1
  P  P27  1  0.35669389  0.10071503  0.26856639  1
  P  P28  1  0.85669389  0.39928497  0.76856639  1
  P  P29  1  0.15714871  0.41308446  0.75387332  1
  P  P30  1  0.15714871  0.58691554  0.25387332  1
  P  P31  1  0.85669389  0.60071503  0.26856639  1
  O  O32  1  0.16087949  0.57618006  0.75851334  1
  O  O33  1  0.84255749  0.55926721  0.73490852  1
  O  O34  1  0.84255749  0.44073279  0.23490852  1
  O  O35  1  0.16087949  0.42381994  0.25851334  1
  O  O36  1  0.66087949  0.07618006  0.75851334  1
  O  O37  1  0.34255749  0.05926721  0.73490852  1
  O  O38  1  0.34255749  0.94073279  0.23490852  1
  O  O39  1  0.66087949  0.92381994  0.25851334  1
  O  O40  1  0.44017133  0.52557048  0.57359443  1
  O  O41  1  0.54040251  0.52829154  0.89266998  1
  O  O42  1  0.54040251  0.47170846  0.39266998  1
  O  O43  1  0.44017133  0.47442952  0.07359443  1
  O  O44  1  0.94017133  0.02557048  0.57359443  1
  O  O45  1  0.04040251  0.02829154  0.89266998  1
  O  O46  1  0.04040251  0.97170846  0.39266998  1
  O  O47  1  0.94017133  0.97442952  0.07359443  1
  O  O48  1  0.27163814  0.83025475  0.76844315  1
  O  O49  1  0.73874999  0.85754619  0.73628960  1
  O  O50  1  0.73874999  0.14245381  0.23628960  1
  O  O51  1  0.27163814  0.16974525  0.26844315  1
  O  O52  1  0.77163814  0.33025475  0.76844315  1
  O  O53  1  0.23874999  0.35754619  0.73628960  1
  O  O54  1  0.23874999  0.64245381  0.23628960  1
  O  O55  1  0.77163814  0.66974525  0.26844315  1
  O  O56  1  0.36108220  0.82997445  0.62764634  1
  O  O57  1  0.67248600  0.86358207  0.92155761  1
  O  O58  1  0.67248600  0.13641793  0.42155761  1
  O  O59  1  0.36108220  0.17002555  0.12764634  1
  O  O60  1  0.86108220  0.32997445  0.62764634  1
  O  O61  1  0.17248600  0.36358207  0.92155761  1
  O  O62  1  0.17248600  0.63641793  0.42155761  1
  O  O63  1  0.86108220  0.67002555  0.12764634  1
  O  O64  1  0.45586384  0.86924647  0.94085200  1
  O  O65  1  0.55505899  0.86114305  0.60224538  1
  O  O66  1  0.55505899  0.13885695  0.10224538  1
  O  O67  1  0.45586384  0.13075353  0.44085200  1
  O  O68  1  0.95586384  0.36924647  0.94085200  1
  O  O69  1  0.05505899  0.36114305  0.60224538  1
  O  O70  1  0.05505899  0.63885695  0.10224538  1
  O  O71  1  0.95586384  0.63075353  0.44085200  1
  O  O72  1  0.07062960  0.83342680  0.75165336  1
  O  O73  1  0.90948876  0.84286838  0.72244625  1
  O  O74  1  0.90948876  0.15713162  0.22244625  1
  O  O75  1  0.07062960  0.16657320  0.25165336  1
  O  O76  1  0.57062960  0.33342680  0.75165336  1
  O  O77  1  0.40948876  0.34286838  0.72244625  1
  O  O78  1  0.40948876  0.65713162  0.22244625  1
  O  O79  1  0.57062960  0.66657320  0.25165336  1
