# generated using pymatgen
data_MgV2Fe2(H2O5)2
_symmetry_space_group_name_H-M   'P 1'
_cell_length_a   5.76955382
_cell_length_b   6.09196129
_cell_length_c   7.04567674
_cell_angle_alpha   100.62398729
_cell_angle_beta   91.91532926
_cell_angle_gamma   111.26810770
_symmetry_Int_Tables_number   1
_chemical_formula_structural   MgV2Fe2(H2O5)2
_chemical_formula_sum   'Mg1 V2 Fe2 H4 O10'
_cell_volume   225.45483642
_cell_formula_units_Z   1
loop_
 _symmetry_equiv_pos_site_id
 _symmetry_equiv_pos_as_xyz
  1  'x, y, z'
loop_
 _atom_site_type_symbol
 _atom_site_label
 _atom_site_symmetry_multiplicity
 _atom_site_fract_x
 _atom_site_fract_y
 _atom_site_fract_z
 _atom_site_occupancy
  Mg  Mg0  1  0.03855008  0.25571336  0.50085109  1
  V  V1  1  0.27634291  0.66020376  0.79123374  1
  V  V2  1  0.73688005  0.39989135  0.26597412  1
  Fe  Fe3  1  0.60702471  0.25451014  0.73552652  1
  Fe  Fe4  1  0.37866548  0.80329074  0.33321188  1
  H  H5  1  0.07397706  0.95874189  0.69453733  1
  H  H6  1  0.91342726  0.85061196  0.28411815  1
  H  H7  1  0.80596871  0.83992942  0.57918944  1
  H  H8  1  0.11213289  0.01107573  0.15658667  1
  O  O9  1  0.66959770  0.65924387  0.35012287  1
  O  O10  1  0.62267252  0.29049138  0.03070230  1
  O  O11  1  0.36060082  0.75930214  0.03217242  1
  O  O12  1  0.37682949  0.43283423  0.67660393  1
  O  O13  1  0.36231543  0.90271301  0.66258491  1
  O  O14  1  0.92151111  0.99284632  0.66653128  1
  O  O15  1  0.06509490  0.48449773  0.30726047  1
  O  O16  1  0.95404919  0.50391580  0.73077518  1
  O  O17  1  0.08284822  0.98853457  0.28865279  1
  O  O18  1  0.64151247  0.16594459  0.40336292  1
