# generated using pymatgen
data_Na7MgSc3Si3(SO8)3
_symmetry_space_group_name_H-M   'P 1'
_cell_length_a   9.16544284
_cell_length_b   9.13273244
_cell_length_c   22.58036459
_cell_angle_alpha   90.22122723
_cell_angle_beta   89.87784581
_cell_angle_gamma   119.84407833
_symmetry_Int_Tables_number   1
_chemical_formula_structural   Na7MgSc3Si3(SO8)3
_chemical_formula_sum   'Na21 Mg3 Sc9 Si9 S9 O72'
_cell_volume   1639.42943383
_cell_formula_units_Z   3
loop_
 _symmetry_equiv_pos_site_id
 _symmetry_equiv_pos_as_xyz
  1  'x, y, z'
loop_
 _atom_site_type_symbol
 _atom_site_label
 _atom_site_symmetry_multiplicity
 _atom_site_fract_x
 _atom_site_fract_y
 _atom_site_fract_z
 _atom_site_occupancy
  Na  Na0  1  0.63809471  0.99329996  0.24216429  1
  Na  Na1  1  0.38643054  0.37805866  0.23967658  1
  Na  Na2  1  0.98230874  0.63400622  0.25454302  1
  Na  Na3  1  0.62446094  0.62582366  0.73982610  1
  Na  Na4  1  0.99664470  0.34845832  0.74965826  1
  Na  Na5  1  0.38342400  0.01853292  0.75506294  1
  Na  Na6  1  0.01772456  0.69668617  0.57680966  1
  Na  Na7  1  0.66744053  0.95441974  0.58415281  1
  Na  Na8  1  0.31842697  0.98484392  0.08028239  1
  Na  Na9  1  0.65441095  0.69210304  0.09109521  1
  Na  Na10  1  0.68972047  0.03344220  0.91645552  1
  Na  Na11  1  0.33444042  0.28926036  0.91894815  1
  Na  Na12  1  0.95966964  0.29863605  0.41233769  1
  Na  Na13  1  0.33196984  0.01802706  0.41585695  1
  Na  Na14  1  0.72088687  0.68691453  0.41475617  1
  Na  Na15  1  0.98731083  0.98377573  0.49637853  1
  Na  Na16  1  0.01262218  0.01086402  0.00383985  1
  Na  Na17  1  0.65524812  0.31980579  0.82995976  1
  Na  Na18  1  0.67786579  0.34650329  0.33150174  1
  Na  Na19  1  0.34633079  0.65775058  0.16156141  1
  Na  Na20  1  0.35184613  0.64888565  0.66681523  1
  Mg  Mg21  1  0.98287655  0.97779176  0.35262108  1
  Mg  Mg22  1  0.65047820  0.33214157  0.68575876  1
  Mg  Mg23  1  0.65754553  0.33700574  0.17759359  1
  Sc  Sc24  1  0.01183899  0.00824584  0.84931899  1
  Sc  Sc25  1  0.99286198  0.00432868  0.65124346  1
  Sc  Sc26  1  0.98475531  0.00353036  0.14486634  1
  Sc  Sc27  1  0.65179091  0.31437106  0.98614970  1
  Sc  Sc28  1  0.67811823  0.35022859  0.48146185  1
  Sc  Sc29  1  0.33289808  0.67398549  0.02138058  1
  Sc  Sc30  1  0.34893996  0.67400382  0.51600986  1
  Sc  Sc31  1  0.34420569  0.68079630  0.31807676  1
  Sc  Sc32  1  0.34460600  0.67922441  0.81407913  1
  Si  Si33  1  0.70224180  0.69616103  0.25081048  1
  Si  Si34  1  0.29612295  0.29709085  0.75051282  1
  Si  Si35  1  0.70551974  0.00463536  0.75055411  1
  Si  Si36  1  0.66653222  0.63053609  0.58600597  1
  Si  Si37  1  0.66710573  0.03965223  0.08533435  1
  Si  Si38  1  0.36527125  0.33229253  0.08426386  1
  Si  Si39  1  0.32749258  0.96175878  0.91714365  1
  Si  Si40  1  0.63540481  0.97104379  0.41700794  1
  Si  Si41  1  0.04362278  0.66971484  0.41740521  1
  S  S42  1  0.29083050  0.00058647  0.25157895  1
  S  S43  1  0.00238739  0.29407140  0.25237004  1
  S  S44  1  0.00029526  0.70530013  0.74904174  1
  S  S45  1  0.96019265  0.33445912  0.58438678  1
  S  S46  1  0.37219837  0.03992890  0.58371052  1
  S  S47  1  0.95792824  0.62247544  0.08500622  1
  S  S48  1  0.62979477  0.66678909  0.91671279  1
  S  S49  1  0.03897268  0.37637682  0.91552704  1
  S  S50  1  0.33098939  0.37078490  0.41555504  1
  O  O51  1  0.21215759  0.02551511  0.30493925  1
  O  O52  1  0.81524654  0.78143083  0.30956628  1
  O  O53  1  0.98397059  0.19523859  0.30626007  1
  O  O54  1  0.21017219  0.17973287  0.80979626  1
  O  O55  1  0.97270621  0.78800878  0.80091343  1
  O  O56  1  0.82060191  0.02704355  0.80930613  1
  O  O57  1  0.78803268  0.96479254  0.69186369  1
  O  O58  1  0.16873962  0.19953975  0.69520170  1
  O  O59  1  0.03017286  0.80916995  0.69499321  1
  O  O60  1  0.79163739  0.82009910  0.19297613  1
  O  O61  1  0.02830573  0.21139922  0.19957081  1
  O  O62  1  0.18909044  0.97921721  0.19783847  1
  O  O63  1  0.87828608  0.35594479  0.63746923  1
  O  O64  1  0.47797855  0.11938528  0.63662057  1
  O  O65  1  0.65331134  0.52457413  0.64460189  1
  O  O66  1  0.88375611  0.52622654  0.13966135  1
  O  O67  1  0.63938854  0.12519878  0.14424892  1
  O  O68  1  0.48308796  0.37394624  0.14262885  1
  O  O69  1  0.45591576  0.30339704  0.02498066  1
  O  O70  1  0.85155851  0.54164307  0.03270869  1
  O  O71  1  0.69150234  0.14838487  0.02462367  1
  O  O72  1  0.45233278  0.13783285  0.52940363  1
  O  O73  1  0.69207400  0.54077346  0.52598708  1
  O  O74  1  0.85507636  0.30905508  0.53034939  1
  O  O75  1  0.54602022  0.69006211  0.96946780  1
  O  O76  1  0.14877776  0.45949859  0.96703503  1
  O  O77  1  0.31238495  0.85034972  0.97552648  1
  O  O78  1  0.54566179  0.84557073  0.47409913  1
  O  O79  1  0.30334318  0.45113369  0.46798600  1
  O  O80  1  0.15622816  0.68688102  0.47645304  1
  O  O81  1  0.12727288  0.63123386  0.35875854  1
  O  O82  1  0.51349071  0.88155719  0.35881950  1
  O  O83  1  0.36286120  0.47765523  0.36196359  1
  O  O84  1  0.11915769  0.47028339  0.86032440  1
  O  O85  1  0.35636933  0.87163128  0.85826068  1
  O  O86  1  0.52260858  0.63828173  0.86301431  1
  O  O87  1  0.03412368  0.84367812  0.41404292  1
  O  O88  1  0.82540365  0.99950104  0.41245330  1
  O  O89  1  0.18110407  0.20235311  0.40836790  1
  O  O90  1  0.01865487  0.20177495  0.91286862  1
  O  O91  1  0.16419167  0.99100650  0.91398564  1
  O  O92  1  0.79458461  0.82378162  0.91094916  1
  O  O93  1  0.97516569  0.17943197  0.58738318  1
  O  O94  1  0.20012008  0.01587521  0.58868811  1
  O  O95  1  0.84173722  0.82103623  0.58591373  1
  O  O96  1  0.97858721  0.79616906  0.08946305  1
  O  O97  1  0.82559086  0.00150204  0.08583218  1
  O  O98  1  0.18653523  0.15224345  0.09044834  1
  O  O99  1  0.69187304  0.17554908  0.74345371  1
  O  O100  1  0.48384438  0.31940372  0.74708833  1
  O  O101  1  0.85186364  0.53436473  0.74388082  1
  O  O102  1  0.68486634  0.50765283  0.24523562  1
  O  O103  1  0.84928287  0.31060986  0.24649449  1
  O  O104  1  0.46435910  0.14755950  0.24755997  1
  O  O105  1  0.64840545  0.51587789  0.92189140  1
  O  O106  1  0.86982783  0.35809366  0.92048208  1
  O  O107  1  0.50349613  0.15139656  0.91846798  1
  O  O108  1  0.64032132  0.15292368  0.42388169  1
  O  O109  1  0.48272934  0.35157355  0.42248829  1
  O  O110  1  0.85170551  0.50121946  0.42126924  1
  O  O111  1  0.34807152  0.50109827  0.07416779  1
  O  O112  1  0.13069882  0.64585703  0.07909246  1
  O  O113  1  0.49380706  0.84975385  0.07959639  1
  O  O114  1  0.35402100  0.86630508  0.57961725  1
  O  O115  1  0.50237878  0.65947666  0.58063447  1
  O  O116  1  0.12784254  0.48880604  0.57855389  1
  O  O117  1  0.30235398  0.84097132  0.25523226  1
  O  O118  1  0.51017031  0.67716538  0.25434476  1
  O  O119  1  0.15497908  0.46697458  0.25507734  1
  O  O120  1  0.30686142  0.48276353  0.75587016  1
  O  O121  1  0.15314908  0.68795988  0.75596205  1
  O  O122  1  0.51555081  0.83386012  0.75454069  1
