# generated using pymatgen
data_MgMn(CO3)2
_symmetry_space_group_name_H-M   'P 1'
_cell_length_a   4.76947645
_cell_length_b   5.86314286
_cell_length_c   4.76895376
_cell_angle_alpha   66.01398151
_cell_angle_beta   119.99847563
_cell_angle_gamma   113.98632272
_symmetry_Int_Tables_number   1
_chemical_formula_structural   MgMn(CO3)2
_chemical_formula_sum   'Mg1 Mn1 C2 O6'
_cell_volume   101.97956324
_cell_formula_units_Z   1
loop_
 _symmetry_equiv_pos_site_id
 _symmetry_equiv_pos_as_xyz
  1  'x, y, z'
loop_
 _atom_site_type_symbol
 _atom_site_label
 _atom_site_symmetry_multiplicity
 _atom_site_fract_x
 _atom_site_fract_y
 _atom_site_fract_z
 _atom_site_occupancy
  Mg  Mg0  1  0.00000000  0.00000000  0.00000000  1
  Mn  Mn1  1  0.50000000  0.50000000  0.50000000  1
  C  C2  1  0.25264600  0.75774100  0.74739800  1
  C  C3  1  0.74735400  0.24225900  0.25260200  1
  O  O4  1  0.01284100  0.24307100  0.23886200  1
  O  O5  1  0.53098000  0.75683600  0.01281100  1
  O  O6  1  0.23884300  0.75690900  0.46892400  1
  O  O7  1  0.76115700  0.24309100  0.53107600  1
  O  O8  1  0.46902000  0.24316400  0.98718900  1
  O  O9  1  0.98715900  0.75692900  0.76113800  1
