# generated using pymatgen
data_Na9Mg5TaSi3(SO6)6
_symmetry_space_group_name_H-M   'P 1'
_cell_length_a   9.00989162
_cell_length_b   8.98122779
_cell_length_c   22.33210847
_cell_angle_alpha   89.76128954
_cell_angle_beta   90.00000000
_cell_angle_gamma   120.10563113
_symmetry_Int_Tables_number   1
_chemical_formula_structural   Na9Mg5TaSi3(SO6)6
_chemical_formula_sum   'Na18 Mg10 Ta2 Si6 S12 O72'
_cell_volume   1563.31808004
_cell_formula_units_Z   2
loop_
 _symmetry_equiv_pos_site_id
 _symmetry_equiv_pos_as_xyz
  1  'x, y, z'
loop_
 _atom_site_type_symbol
 _atom_site_label
 _atom_site_symmetry_multiplicity
 _atom_site_fract_x
 _atom_site_fract_y
 _atom_site_fract_z
 _atom_site_occupancy
  Na  Na0  1  0.64315488  0.00339527  0.23961963  1
  Na  Na1  1  0.37881253  0.34824610  0.24972254  1
  Na  Na2  1  0.99538779  0.65677914  0.24434536  1
  Na  Na3  1  0.66139135  0.65677914  0.74434536  1
  Na  Na4  1  0.96943357  0.34824610  0.74972254  1
  Na  Na5  1  0.36024039  0.00339527  0.73961963  1
  Na  Na6  1  0.30105607  0.33568969  0.57536275  1
  Na  Na7  1  0.03463462  0.33568969  0.07536275  1
  Na  Na8  1  0.96114699  0.65650326  0.91194780  1
  Na  Na9  1  0.71893691  0.04783090  0.91074470  1
  Na  Na10  1  0.32889298  0.04783090  0.41074470  1
  Na  Na11  1  0.69535527  0.65650326  0.41194780  1
  Na  Na12  1  0.00061460  0.01649191  0.50032135  1
  Na  Na13  1  0.01587731  0.01649191  0.00032135  1
  Na  Na14  1  0.68192778  0.33455006  0.83047056  1
  Na  Na15  1  0.65262328  0.33455006  0.33047056  1
  Na  Na16  1  0.35345645  0.69220713  0.15824705  1
  Na  Na17  1  0.33874968  0.69220713  0.65824705  1
  Mg  Mg18  1  0.01322296  0.00597487  0.34908888  1
  Mg  Mg19  1  0.99275192  0.00597487  0.84908888  1
  Mg  Mg20  1  0.97929629  0.97402837  0.65146924  1
  Mg  Mg21  1  0.99473208  0.97402837  0.15146924  1
  Mg  Mg22  1  0.67813591  0.33449930  0.68308540  1
  Mg  Mg23  1  0.65636439  0.33449930  0.18308540  1
  Mg  Mg24  1  0.66907881  0.33529658  0.98307882  1
  Mg  Mg25  1  0.66621877  0.33529658  0.48307882  1
  Mg  Mg26  1  0.33208378  0.65965184  0.01819252  1
  Mg  Mg27  1  0.32756706  0.65965184  0.51819252  1
  Ta  Ta28  1  0.33992651  0.66207971  0.31473566  1
  Ta  Ta29  1  0.32215220  0.66207971  0.81473566  1
  Si  Si30  1  0.29701516  0.00087005  0.25118535  1
  Si  Si31  1  0.71435612  0.71152753  0.25270015  1
  Si  Si32  1  0.99717141  0.71152753  0.75270015  1
  Si  Si33  1  0.70385489  0.00087005  0.75118535  1
  Si  Si34  1  0.03453225  0.36063697  0.92337969  1
  Si  Si35  1  0.32610372  0.36063697  0.42337969  1
  S  S36  1  0.00233460  0.29436139  0.24933775  1
  S  S37  1  0.29202679  0.29436139  0.74933775  1
  S  S38  1  0.96404815  0.33383664  0.58360621  1
  S  S39  1  0.36966859  0.03807188  0.58207528  1
  S  S40  1  0.66753688  0.62955374  0.58266280  1
  S  S41  1  0.96201786  0.62955374  0.08266280  1
  S  S42  1  0.66840429  0.03807188  0.08207528  1
  S  S43  1  0.36978949  0.33383664  0.08360621  1
  S  S44  1  0.62040961  0.66268502  0.91880401  1
  S  S45  1  0.33284332  0.95758303  0.91861851  1
  S  S46  1  0.62473871  0.95758303  0.41861851  1
  S  S47  1  0.04227440  0.66268502  0.41880401  1
  O  O48  1  0.22727296  0.04435887  0.31154894  1
  O  O49  1  0.81573297  0.78915183  0.31473254  1
  O  O50  1  0.97299736  0.18704363  0.30211637  1
  O  O51  1  0.21404627  0.18704363  0.80211637  1
  O  O52  1  0.97341886  0.78915183  0.81473254  1
  O  O53  1  0.81708591  0.04435887  0.81154894  1
  O  O54  1  0.78091791  0.94753585  0.69574199  1
  O  O55  1  0.18789564  0.23102093  0.69488031  1
  O  O56  1  0.06394007  0.84440355  0.69733060  1
  O  O57  1  0.78046348  0.84440355  0.19733060  1
  O  O58  1  0.04312529  0.23102093  0.19488031  1
  O  O59  1  0.16661794  0.94753585  0.19574199  1
  O  O60  1  0.88319301  0.34783102  0.63980896  1
  O  O61  1  0.47116368  0.12121908  0.63725636  1
  O  O62  1  0.64440744  0.52097177  0.63678534  1
  O  O63  1  0.87656534  0.52097177  0.13678534  1
  O  O64  1  0.65005640  0.12121908  0.13725636  1
  O  O65  1  0.46463901  0.34783102  0.13980896  1
  O  O66  1  0.45965807  0.31737634  0.03097445  1
  O  O67  1  0.86185085  0.54294442  0.02792840  1
  O  O68  1  0.68498631  0.14419345  0.02812860  1
  O  O69  1  0.45920814  0.14419345  0.52812860  1
  O  O70  1  0.68109457  0.54294442  0.52792840  1
  O  O71  1  0.85771928  0.31737634  0.53097445  1
  O  O72  1  0.53576965  0.69124953  0.96925534  1
  O  O73  1  0.14380551  0.46072580  0.98091310  1
  O  O74  1  0.31240613  0.84790959  0.96999800  1
  O  O75  1  0.53550246  0.84790959  0.46999800  1
  O  O76  1  0.31691929  0.46072580  0.48091310  1
  O  O77  1  0.15547888  0.69124953  0.46925534  1
  O  O78  1  0.12656142  0.64730589  0.36185968  1
  O  O79  1  0.51238904  0.87130387  0.36208891  1
  O  O80  1  0.34632583  0.49350470  0.36353106  1
  O  O81  1  0.14717787  0.49350470  0.86353106  1
  O  O82  1  0.35891384  0.87130387  0.86208891  1
  O  O83  1  0.52074347  0.64730589  0.86185968  1
  O  O84  1  0.01895855  0.81457063  0.41369517  1
  O  O85  1  0.79163028  0.96964615  0.41085428  1
  O  O86  1  0.15901046  0.17162989  0.41597912  1
  O  O87  1  0.01261943  0.17162989  0.91597912  1
  O  O88  1  0.17801587  0.96964615  0.91085428  1
  O  O89  1  0.79561208  0.81457063  0.91369517  1
  O  O90  1  0.99048920  0.18212047  0.58644777  1
  O  O91  1  0.20086713  0.03156741  0.58537970  1
  O  O92  1  0.82388242  0.80062754  0.58569667  1
  O  O93  1  0.97674512  0.80062754  0.08569667  1
  O  O94  1  0.83070027  0.03156741  0.08537970  1
  O  O95  1  0.19163127  0.18212047  0.08644777  1
  O  O96  1  0.66041247  0.15612260  0.74251708  1
  O  O97  1  0.46816882  0.32319171  0.74194456  1
  O  O98  1  0.83207266  0.51908926  0.74345126  1
  O  O99  1  0.68701760  0.51908926  0.24345126  1
  O  O100  1  0.85502389  0.32319171  0.24194456  1
  O  O101  1  0.49571112  0.15612260  0.24251708  1
  O  O102  1  0.63310277  0.50445440  0.92274364  1
  O  O103  1  0.84796990  0.35533993  0.91904315  1
  O  O104  1  0.49112224  0.12714888  0.92058914  1
  O  O105  1  0.63602764  0.12714888  0.42058914  1
  O  O106  1  0.50737103  0.35533993  0.41904315  1
  O  O107  1  0.87135264  0.50445440  0.42274364  1
  O  O108  1  0.35412022  0.49277507  0.08045304  1
  O  O109  1  0.13610681  0.64605372  0.08025061  1
  O  O110  1  0.51553004  0.86362085  0.07710812  1
  O  O111  1  0.34808981  0.86362085  0.57710812  1
  O  O112  1  0.50994591  0.64605372  0.58025061  1
  O  O113  1  0.13865385  0.49277507  0.58045304  1
  O  O114  1  0.31093344  0.82010261  0.26258326  1
  O  O115  1  0.50850195  0.67661606  0.26116237  1
  O  O116  1  0.15977961  0.47488937  0.25908707  1
  O  O117  1  0.31510876  0.47488937  0.75908707  1
  O  O118  1  0.16811311  0.67661606  0.76116237  1
  O  O119  1  0.50916816  0.82010261  0.76258326  1
