# generated using pymatgen
data_Na7Hf3Ta(SiO4)6
_symmetry_space_group_name_H-M   'P 1'
_cell_length_a   9.16462482
_cell_length_b   9.16318110
_cell_length_c   22.81635165
_cell_angle_alpha   90.05448821
_cell_angle_beta   89.91956033
_cell_angle_gamma   120.06472758
_symmetry_Int_Tables_number   1
_chemical_formula_structural   Na7Hf3Ta(SiO4)6
_chemical_formula_sum   'Na21 Hf9 Ta3 Si18 O72'
_cell_volume   1658.26416280
_cell_formula_units_Z   3
loop_
 _symmetry_equiv_pos_site_id
 _symmetry_equiv_pos_as_xyz
  1  'x, y, z'
loop_
 _atom_site_type_symbol
 _atom_site_label
 _atom_site_symmetry_multiplicity
 _atom_site_fract_x
 _atom_site_fract_y
 _atom_site_fract_z
 _atom_site_occupancy
  Na  Na0  1  0.36969433  0.36522816  0.24939708  1
  Na  Na1  1  0.63779631  0.63469012  0.74981943  1
  Na  Na2  1  0.99699784  0.36278736  0.74965507  1
  Na  Na3  1  0.36525959  0.00288525  0.74973051  1
  Na  Na4  1  0.30077022  0.33356855  0.58281133  1
  Na  Na5  1  0.03268693  0.69913320  0.58278137  1
  Na  Na6  1  0.66646334  0.96720054  0.58277382  1
  Na  Na7  1  0.30565711  0.96950880  0.08330660  1
  Na  Na8  1  0.66387663  0.69530053  0.08332128  1
  Na  Na9  1  0.03088112  0.33599379  0.08292571  1
  Na  Na10  1  0.96414221  0.66556281  0.91793000  1
  Na  Na11  1  0.70285417  0.03452858  0.91800759  1
  Na  Na12  1  0.96683867  0.29868721  0.41546055  1
  Na  Na13  1  0.33200807  0.03391492  0.41577297  1
  Na  Na14  1  0.70124517  0.66758133  0.41542898  1
  Na  Na15  1  0.00014887  0.00011451  0.49892688  1
  Na  Na16  1  0.00682485  0.00656033  0.99836844  1
  Na  Na17  1  0.66040801  0.33293014  0.83588443  1
  Na  Na18  1  0.67286301  0.33318240  0.32946979  1
  Na  Na19  1  0.33292352  0.67225057  0.16757596  1
  Na  Na20  1  0.33325250  0.66672458  0.66509858  1
  Hf  Hf21  1  0.99886644  0.99941035  0.35045328  1
  Hf  Hf22  1  0.00475050  0.00433570  0.85328446  1
  Hf  Hf23  1  0.00017961  0.00011400  0.64876636  1
  Hf  Hf24  1  0.66696170  0.33349446  0.68479860  1
  Hf  Hf25  1  0.67133474  0.33297033  0.18741923  1
  Hf  Hf26  1  0.66149999  0.33278864  0.98070622  1
  Hf  Hf27  1  0.66655997  0.33341194  0.48016133  1
  Hf  Hf28  1  0.33301949  0.66555140  0.01860411  1
  Hf  Hf29  1  0.33316648  0.66658083  0.51772304  1
  Ta  Ta30  1  0.99917834  0.99887474  0.14948986  1
  Ta  Ta31  1  0.33322741  0.67038185  0.31098505  1
  Ta  Ta32  1  0.33399112  0.66636012  0.81569055  1
  Si  Si33  1  0.29149744  0.99784205  0.25035841  1
  Si  Si34  1  0.70709010  0.70772304  0.25076169  1
  Si  Si35  1  0.99860840  0.29260316  0.25093876  1
  Si  Si36  1  0.29324952  0.29469417  0.75001435  1
  Si  Si37  1  0.00145861  0.70737770  0.75095758  1
  Si  Si38  1  0.70586369  0.99867835  0.75083570  1
  Si  Si39  1  0.96004427  0.33309603  0.58312993  1
  Si  Si40  1  0.37315175  0.03982612  0.58323738  1
  Si  Si41  1  0.66664632  0.62687703  0.58322988  1
  Si  Si42  1  0.95802197  0.62644579  0.08333598  1
  Si  Si43  1  0.66841187  0.04260993  0.08336658  1
  Si  Si44  1  0.37367673  0.33168111  0.08516921  1
  Si  Si45  1  0.62433187  0.66411483  0.91662260  1
  Si  Si46  1  0.04185526  0.37359328  0.91711939  1
  Si  Si47  1  0.33346578  0.95957816  0.91691714  1
  Si  Si48  1  0.62378892  0.95634323  0.41593523  1
  Si  Si49  1  0.33266349  0.37645177  0.41541048  1
  Si  Si50  1  0.04382590  0.66739356  0.41583498  1
  O  O51  1  0.20518854  0.03067108  0.30777116  1
  O  O52  1  0.82141053  0.79552729  0.30854272  1
  O  O53  1  0.97602528  0.17919454  0.30876662  1
  O  O54  1  0.20258341  0.16812838  0.80480218  1
  O  O55  1  0.96616788  0.79330798  0.80761547  1
  O  O56  1  0.82648595  0.03269124  0.80746247  1
  O  O57  1  0.78818313  0.96085691  0.69280288  1
  O  O58  1  0.17381468  0.21393429  0.69178525  1
  O  O59  1  0.03923962  0.82753722  0.69292139  1
  O  O60  1  0.80362871  0.83135271  0.19297853  1
  O  O61  1  0.03223302  0.19785805  0.19351657  1
  O  O62  1  0.16804427  0.97177302  0.19264909  1
  O  O63  1  0.87393420  0.36685747  0.64101886  1
  O  O64  1  0.49302881  0.12618917  0.64103367  1
  O  O65  1  0.63318967  0.50692136  0.64100412  1
  O  O66  1  0.86836196  0.50131379  0.13820294  1
  O  O67  1  0.63141654  0.13132606  0.13825294  1
  O  O68  1  0.49227691  0.36770640  0.14220019  1
  O  O69  1  0.45955415  0.29254605  0.02843911  1
  O  O70  1  0.83937904  0.54626508  0.02463670  1
  O  O71  1  0.70753640  0.16129307  0.02453334  1
  O  O72  1  0.46032951  0.16124969  0.52584480  1
  O  O73  1  0.70101639  0.53970184  0.52583649  1
  O  O74  1  0.83855089  0.29902539  0.52584410  1
  O  O75  1  0.53913030  0.70061473  0.97347884  1
  O  O76  1  0.15708334  0.46289243  0.97462824  1
  O  O77  1  0.30071714  0.83897995  0.97387034  1
  O  O78  1  0.54068250  0.83992524  0.47456389  1
  O  O79  1  0.29962547  0.46041791  0.47396400  1
  O  O80  1  0.16028626  0.70083354  0.47444592  1
  O  O81  1  0.14332392  0.63673836  0.36089173  1
  O  O82  1  0.49395339  0.85634809  0.36102282  1
  O  O83  1  0.36333380  0.50176419  0.35899129  1
  O  O84  1  0.13938534  0.49928509  0.85951535  1
  O  O85  1  0.36022186  0.86090783  0.85921118  1
  O  O86  1  0.50277663  0.64271657  0.85886392  1
  O  O87  1  0.02472042  0.83510420  0.41039531  1
  O  O88  1  0.81082747  0.97595676  0.41068490  1
  O  O89  1  0.16500366  0.18862119  0.41075387  1
  O  O90  1  0.01461573  0.18499586  0.91038081  1
  O  O91  1  0.16016946  0.96546148  0.90968462  1
  O  O92  1  0.80878529  0.83494131  0.90936782  1
  O  O93  1  0.97671055  0.16343367  0.58922366  1
  O  O94  1  0.18664166  0.02288437  0.58926268  1
  O  O95  1  0.83654611  0.81344856  0.58927581  1
  O  O96  1  0.97735293  0.81645471  0.09181362  1
  O  O97  1  0.83895335  0.02329861  0.09223012  1
  O  O98  1  0.18296033  0.16091327  0.09203652  1
  O  O99  1  0.68432159  0.16508612  0.74444184  1
  O  O100  1  0.48116080  0.31619892  0.74427553  1
  O  O101  1  0.83485126  0.51928016  0.74441939  1
  O  O102  1  0.67685970  0.51856514  0.24344523  1
  O  O103  1  0.83519078  0.31305481  0.24380140  1
  O  O104  1  0.47160451  0.16948332  0.24285246  1
  O  O105  1  0.64882251  0.50018728  0.92010018  1
  O  O106  1  0.85789213  0.36302229  0.92013146  1
  O  O107  1  0.50997228  0.13887048  0.92023369  1
  O  O108  1  0.63852006  0.14194169  0.42082055  1
  O  O109  1  0.50343413  0.36114641  0.42096890  1
  O  O110  1  0.85808539  0.49639529  0.42084822  1
  O  O111  1  0.35089097  0.49760603  0.07765970  1
  O  O112  1  0.14750858  0.65043830  0.07772687  1
  O  O113  1  0.50264213  0.85307943  0.07739387  1
  O  O114  1  0.35555689  0.85318280  0.57822331  1
  O  O115  1  0.49756445  0.64432623  0.57821249  1
  O  O116  1  0.14680696  0.50240589  0.57820864  1
  O  O117  1  0.30599572  0.82678388  0.25758988  1
  O  O118  1  0.51755107  0.68815029  0.25749880  1
  O  O119  1  0.17777841  0.47508608  0.25735794  1
  O  O120  1  0.31088763  0.48301658  0.75819184  1
  O  O121  1  0.17215398  0.68907980  0.75827606  1
  O  O122  1  0.51654850  0.82784241  0.75793219  1
