# generated using pymatgen
data_NaZr2Nb2SiP5O24
_symmetry_space_group_name_H-M   'P 1'
_cell_length_a   8.89106939
_cell_length_b   8.89505456
_cell_length_c   23.02935545
_cell_angle_alpha   90.02072421
_cell_angle_beta   89.91473708
_cell_angle_gamma   120.02639120
_symmetry_Int_Tables_number   1
_chemical_formula_structural   NaZr2Nb2SiP5O24
_chemical_formula_sum   'Na3 Zr6 Nb6 Si3 P15 O72'
_cell_volume   1576.88111343
_cell_formula_units_Z   3
loop_
 _symmetry_equiv_pos_site_id
 _symmetry_equiv_pos_as_xyz
  1  'x, y, z'
loop_
 _atom_site_type_symbol
 _atom_site_label
 _atom_site_symmetry_multiplicity
 _atom_site_fract_x
 _atom_site_fract_y
 _atom_site_fract_z
 _atom_site_occupancy
  Na  Na0  1  0.99990937  0.99866305  0.99889636  1
  Na  Na1  1  0.66674438  0.33337429  0.83221941  1
  Na  Na2  1  0.66655000  0.33343373  0.33502472  1
  Zr  Zr3  1  0.00037146  0.99756060  0.85538835  1
  Zr  Zr4  1  0.00146170  0.00296069  0.14725546  1
  Zr  Zr5  1  0.66643914  0.33370454  0.68596052  1
  Zr  Zr6  1  0.66738133  0.33390436  0.48047058  1
  Zr  Zr7  1  0.33301025  0.66687720  0.52162556  1
  Zr  Zr8  1  0.33093864  0.66488566  0.31029215  1
  Nb  Nb9  1  0.99835133  0.00397520  0.35693488  1
  Nb  Nb10  1  0.00063698  0.00032787  0.64340428  1
  Nb  Nb11  1  0.66893915  0.33382307  0.18932778  1
  Nb  Nb12  1  0.66400896  0.33366171  0.97698849  1
  Nb  Nb13  1  0.33663307  0.67169966  0.02251965  1
  Nb  Nb14  1  0.33922115  0.67071680  0.81002421  1
  Si  Si15  1  0.00027157  0.28762571  0.25027139  1
  Si  Si16  1  0.61822775  0.66733388  0.91696864  1
  Si  Si17  1  0.33337951  0.95149485  0.91697436  1
  P  P18  1  0.28731751  0.00154027  0.25051818  1
  P  P19  1  0.71399169  0.71295716  0.25055102  1
  P  P20  1  0.28693337  0.28863476  0.74972507  1
  P  P21  1  0.00137008  0.71210576  0.74955828  1
  P  P22  1  0.71317756  0.00040439  0.74961310  1
  P  P23  1  0.95713699  0.33243379  0.58384186  1
  P  P24  1  0.37567251  0.04295723  0.58380076  1
  P  P25  1  0.66749676  0.62489636  0.58381844  1
  P  P26  1  0.95316908  0.61807785  0.08254938  1
  P  P27  1  0.66604809  0.04767648  0.08273794  1
  P  P28  1  0.38100069  0.33487215  0.08296367  1
  P  P29  1  0.04971632  0.38441654  0.91729089  1
  P  P30  1  0.62237087  0.95601250  0.41604686  1
  P  P31  1  0.33375654  0.37715125  0.41607960  1
  P  P32  1  0.04370298  0.66832448  0.41598012  1
  O  O33  1  0.20295764  0.03366909  0.30425840  1
  O  O34  1  0.83099478  0.79525284  0.30435742  1
  O  O35  1  0.96601617  0.16065639  0.30676819  1
  O  O36  1  0.20649790  0.17750040  0.80389979  1
  O  O37  1  0.97010838  0.79336612  0.80369224  1
  O  O38  1  0.82212656  0.02944834  0.80399772  1
  O  O39  1  0.79990610  0.97172960  0.69556213  1
  O  O40  1  0.17165946  0.19926865  0.69563154  1
  O  O41  1  0.02825429  0.82806105  0.69567542  1
  O  O42  1  0.79556980  0.81970059  0.19555987  1
  O  O43  1  0.02677915  0.20026422  0.19295509  1
  O  O44  1  0.17931722  0.97276450  0.19557280  1
  O  O45  1  0.87266344  0.36037447  0.63770886  1
  O  O46  1  0.48764457  0.12723496  0.63767495  1
  O  O47  1  0.63954928  0.51240368  0.63764170  1
  O  O48  1  0.86373416  0.50310929  0.13716527  1
  O  O49  1  0.63825630  0.13491248  0.13712345  1
  O  O50  1  0.49542350  0.36139553  0.13685131  1
  O  O51  1  0.47238765  0.30860520  0.02891740  1
  O  O52  1  0.83677420  0.52744309  0.02901230  1
  O  O53  1  0.69170549  0.16250287  0.02905956  1
  O  O54  1  0.45463588  0.15811212  0.53005494  1
  O  O55  1  0.70353839  0.54552494  0.53010948  1
  O  O56  1  0.84205511  0.29647260  0.53013917  1
  O  O57  1  0.52147716  0.68995550  0.97416661  1
  O  O58  1  0.16102389  0.46951537  0.97194245  1
  O  O59  1  0.30680265  0.83090159  0.97427798  1
  O  O60  1  0.54424342  0.84527581  0.47056476  1
  O  O61  1  0.30022700  0.45478876  0.47048601  1
  O  O62  1  0.15447033  0.69896529  0.47042002  1
  O  O63  1  0.12560070  0.63724909  0.36231793  1
  O  O64  1  0.51321961  0.87596269  0.36199408  1
  O  O65  1  0.36378538  0.48839131  0.36222987  1
  O  O66  1  0.13015379  0.49598758  0.86235323  1
  O  O67  1  0.36429521  0.85991681  0.85979450  1
  O  O68  1  0.49525316  0.63289383  0.85964560  1
  O  O69  1  0.02352340  0.83004478  0.40498283  1
  O  O70  1  0.80549002  0.97396304  0.40621552  1
  O  O71  1  0.17091936  0.19310507  0.40569042  1
  O  O72  1  0.02576053  0.20237908  0.91118868  1
  O  O73  1  0.16843462  0.97866808  0.91179318  1
  O  O74  1  0.80839373  0.83510322  0.91177365  1
  O  O75  1  0.97529723  0.16853757  0.59556377  1
  O  O76  1  0.19335424  0.02463774  0.59545792  1
  O  O77  1  0.83153753  0.80689835  0.59560017  1
  O  O78  1  0.97337215  0.79840833  0.08836440  1
  O  O79  1  0.82472152  0.02419453  0.08824649  1
  O  O80  1  0.20090806  0.17187879  0.08760407  1
  O  O81  1  0.68711783  0.15783585  0.74266978  1
  O  O82  1  0.46987617  0.31222243  0.74257756  1
  O  O83  1  0.84123179  0.52974100  0.74268417  1
  O  O84  1  0.69340215  0.52739220  0.24096518  1
  O  O85  1  0.82353619  0.30604054  0.24043531  1
  O  O86  1  0.47144925  0.16826802  0.24089959  1
  O  O87  1  0.64000441  0.49486339  0.92647165  1
  O  O88  1  0.86529467  0.36338188  0.92607825  1
  O  O89  1  0.50838347  0.14370458  0.92652258  1
  O  O90  1  0.64906734  0.14057394  0.42326228  1
  O  O91  1  0.49244851  0.35174485  0.42313909  1
  O  O92  1  0.86010438  0.50770091  0.42321376  1
  O  O93  1  0.36158595  0.49539399  0.07310351  1
  O  O94  1  0.13217715  0.63351885  0.07366742  1
  O  O95  1  0.50229308  0.86663213  0.07423857  1
  O  O96  1  0.35217243  0.86321186  0.57507418  1
  O  O97  1  0.51092357  0.64780341  0.57497186  1
  O  O98  1  0.13688063  0.48893087  0.57505268  1
  O  O99  1  0.31457761  0.84816621  0.25899487  1
  O  O100  1  0.53477589  0.68931113  0.25904737  1
  O  O101  1  0.16229018  0.47671327  0.25922765  1
  O  O102  1  0.30360996  0.46915798  0.75895314  1
  O  O103  1  0.16336071  0.69293634  0.75933417  1
  O  O104  1  0.53061381  0.83554127  0.75839631  1
