# generated using pymatgen
data_Na8Al2Si5Sn2SO24
_symmetry_space_group_name_H-M   'P 1'
_cell_length_a   8.98211481
_cell_length_b   8.96303080
_cell_length_c   21.99259609
_cell_angle_alpha   90.00049871
_cell_angle_beta   89.43395973
_cell_angle_gamma   119.87672468
_symmetry_Int_Tables_number   1
_chemical_formula_structural   Na8Al2Si5Sn2SO24
_chemical_formula_sum   'Na24 Al6 Si15 Sn6 S3 O72'
_cell_volume   1535.14923158
_cell_formula_units_Z   3
loop_
 _symmetry_equiv_pos_site_id
 _symmetry_equiv_pos_as_xyz
  1  'x, y, z'
loop_
 _atom_site_type_symbol
 _atom_site_label
 _atom_site_symmetry_multiplicity
 _atom_site_fract_x
 _atom_site_fract_y
 _atom_site_fract_z
 _atom_site_occupancy
  Na  Na0  1  0.63680539  0.00067713  0.25286624  1
  Na  Na1  1  0.36294007  0.36373023  0.24689896  1
  Na  Na2  1  0.99995704  0.63491395  0.25000056  1
  Na  Na3  1  0.63458735  0.63594200  0.74688822  1
  Na  Na4  1  0.00064609  0.36656280  0.74999726  1
  Na  Na5  1  0.36638658  0.00112034  0.75009624  1
  Na  Na6  1  0.30251311  0.33780222  0.58507828  1
  Na  Na7  1  0.03583320  0.69950240  0.58265905  1
  Na  Na8  1  0.66539838  0.96480899  0.58268632  1
  Na  Na9  1  0.28785179  0.96433158  0.08193947  1
  Na  Na10  1  0.66732005  0.69266237  0.08690155  1
  Na  Na11  1  0.04188019  0.33661478  0.08710725  1
  Na  Na12  1  0.97379972  0.66681435  0.91632473  1
  Na  Na13  1  0.70133781  0.04161320  0.91117100  1
  Na  Na14  1  0.32305146  0.28670023  0.91850221  1
  Na  Na15  1  0.96122481  0.29524455  0.41208496  1
  Na  Na16  1  0.32954240  0.02314826  0.41517820  1
  Na  Na17  1  0.71348630  0.67950198  0.41718925  1
  Na  Na18  1  0.99350649  0.99245596  0.49932067  1
  Na  Na19  1  0.01429362  0.00539653  0.00028132  1
  Na  Na20  1  0.66687518  0.32600718  0.83398020  1
  Na  Na21  1  0.67407292  0.33250530  0.33191958  1
  Na  Na22  1  0.32597663  0.65810065  0.16555867  1
  Na  Na23  1  0.33380795  0.66700351  0.66394913  1
  Al  Al24  1  0.98749294  0.98586835  0.34838022  1
  Al  Al25  1  0.01419965  0.01223590  0.85023816  1
  Al  Al26  1  0.01353746  0.99914274  0.15129914  1
  Al  Al27  1  0.66361708  0.33256326  0.98263872  1
  Al  Al28  1  0.29654985  0.64342896  0.01748825  1
  Al  Al29  1  0.33810544  0.68592301  0.52262860  1
  Si  Si30  1  0.28262585  0.00242047  0.25054071  1
  Si  Si31  1  0.71770956  0.71990317  0.24907507  1
  Si  Si32  1  0.99957556  0.27717590  0.24977187  1
  Si  Si33  1  0.29165609  0.29174262  0.75238112  1
  Si  Si34  1  0.99753321  0.71455594  0.75364075  1
  Si  Si35  1  0.71344834  0.99864710  0.75442462  1
  Si  Si36  1  0.97258650  0.33978892  0.58224367  1
  Si  Si37  1  0.37297603  0.03854436  0.58265013  1
  Si  Si38  1  0.65934375  0.62828181  0.58154448  1
  Si  Si39  1  0.95666715  0.62815492  0.08002627  1
  Si  Si40  1  0.37202113  0.33697283  0.07960266  1
  Si  Si41  1  0.03008870  0.36336078  0.91927114  1
  Si  Si42  1  0.33581860  0.96255729  0.92144318  1
  Si  Si43  1  0.62826171  0.95597415  0.41802363  1
  Si  Si44  1  0.04421408  0.67275775  0.41880661  1
  Sn  Sn45  1  0.99967456  0.00068041  0.64840709  1
  Sn  Sn46  1  0.66965732  0.33523701  0.68625902  1
  Sn  Sn47  1  0.66888644  0.34350888  0.18632712  1
  Sn  Sn48  1  0.67582778  0.33223161  0.48394658  1
  Sn  Sn49  1  0.32963639  0.67255054  0.31224008  1
  Sn  Sn50  1  0.32421103  0.67045162  0.81578563  1
  S  S51  1  0.66563117  0.04000838  0.08091207  1
  S  S52  1  0.62419604  0.66572636  0.91950657  1
  S  S53  1  0.33144676  0.37429161  0.41759627  1
  O  O54  1  0.19768430  0.03599036  0.31084277  1
  O  O55  1  0.83067694  0.79727205  0.30978436  1
  O  O56  1  0.97070070  0.16377838  0.31110860  1
  O  O57  1  0.20424860  0.16880526  0.81085288  1
  O  O58  1  0.96729938  0.80689419  0.81205595  1
  O  O59  1  0.83694036  0.02904425  0.81181029  1
  O  O60  1  0.78147854  0.95691588  0.69063665  1
  O  O61  1  0.17657208  0.22208207  0.69061185  1
  O  O62  1  0.04069368  0.82603086  0.69046955  1
  O  O63  1  0.80304731  0.83859886  0.18873062  1
  O  O64  1  0.02913677  0.19237329  0.18861646  1
  O  O65  1  0.16953011  0.96657392  0.18978697  1
  O  O66  1  0.89167195  0.38426183  0.64248471  1
  O  O67  1  0.49598537  0.11793688  0.64241383  1
  O  O68  1  0.61876065  0.50634867  0.64240454  1
  O  O69  1  0.88687409  0.50255405  0.14158666  1
  O  O70  1  0.62904589  0.11066487  0.13769973  1
  O  O71  1  0.49068609  0.37897829  0.14200211  1
  O  O72  1  0.47039504  0.30050457  0.02388794  1
  O  O73  1  0.82745891  0.52919215  0.02373568  1
  O  O74  1  0.69378951  0.15446880  0.02834989  1
  O  O75  1  0.45020779  0.16453593  0.52245272  1
  O  O76  1  0.70506040  0.54785886  0.52177942  1
  O  O77  1  0.84574565  0.28533246  0.52327121  1
  O  O78  1  0.53815422  0.69333087  0.97209478  1
  O  O79  1  0.16286693  0.45473671  0.97493843  1
  O  O80  1  0.30729785  0.82884297  0.97711485  1
  O  O81  1  0.53218748  0.82928176  0.47549772  1
  O  O82  1  0.30792811  0.45977818  0.47142354  1
  O  O83  1  0.16861218  0.69882844  0.47580391  1
  O  O84  1  0.11348507  0.61747337  0.35729122  1
  O  O85  1  0.50944885  0.88063576  0.35637117  1
  O  O86  1  0.36474959  0.48072847  0.36102406  1
  O  O87  1  0.10872005  0.48883398  0.85822452  1
  O  O88  1  0.38694831  0.89153023  0.85918345  1
  O  O89  1  0.51917372  0.63204930  0.86299355  1
  O  O90  1  0.02958914  0.84730302  0.41085261  1
  O  O91  1  0.82174093  0.98076900  0.41114239  1
  O  O92  1  0.17730375  0.20359889  0.41314425  1
  O  O93  1  0.01261266  0.17246665  0.91129460  1
  O  O94  1  0.15788751  0.97175626  0.91314949  1
  O  O95  1  0.79623358  0.82098440  0.91385701  1
  O  O96  1  0.98490093  0.16482792  0.58688280  1
  O  O97  1  0.18348001  0.02111284  0.58615450  1
  O  O98  1  0.83469449  0.81570638  0.58578807  1
  O  O99  1  0.97185168  0.81827125  0.08840554  1
  O  O100  1  0.82277625  0.02678462  0.08553641  1
  O  O101  1  0.18035514  0.16425470  0.08778831  1
  O  O102  1  0.69505481  0.17229194  0.74964108  1
  O  O103  1  0.48144973  0.30721275  0.74835069  1
  O  O104  1  0.82540335  0.52256232  0.74981861  1
  O  O105  1  0.69479364  0.52459295  0.24780431  1
  O  O106  1  0.82658736  0.30008876  0.24570239  1
  O  O107  1  0.47992704  0.17123281  0.24538507  1
  O  O108  1  0.64281704  0.50949624  0.92402676  1
  O  O109  1  0.84152366  0.35031723  0.92869653  1
  O  O110  1  0.50679111  0.15595234  0.92790434  1
  O  O111  1  0.64036233  0.14803994  0.42036736  1
  O  O112  1  0.48827664  0.35688815  0.42025192  1
  O  O113  1  0.84714388  0.50053551  0.42048920  1
  O  O114  1  0.35940004  0.51527598  0.07151301  1
  O  O115  1  0.15068533  0.65005181  0.07505764  1
  O  O116  1  0.51325692  0.86593869  0.07474983  1
  O  O117  1  0.35675275  0.85083488  0.57688448  1
  O  O118  1  0.48764983  0.64302544  0.57372350  1
  O  O119  1  0.15930020  0.50910944  0.57215938  1
  O  O120  1  0.30572405  0.83017625  0.25156246  1
  O  O121  1  0.52009608  0.69044821  0.25372571  1
  O  O122  1  0.17285250  0.47293462  0.25338498  1
  O  O123  1  0.31708715  0.48614882  0.75801629  1
  O  O124  1  0.16890582  0.69203442  0.75419202  1
  O  O125  1  0.52117952  0.82608067  0.75758104  1
