# generated using pymatgen
data_CrXeF6
_symmetry_space_group_name_H-M   'P 1'
_cell_length_a   7.22617381
_cell_length_b   7.52728623
_cell_length_c   12.47993932
_cell_angle_alpha   52.95966444
_cell_angle_beta   90.00000000
_cell_angle_gamma   90.00000000
_symmetry_Int_Tables_number   1
_chemical_formula_structural   CrXeF6
_chemical_formula_sum   'Cr4 Xe4 F24'
_cell_volume   541.84786362
_cell_formula_units_Z   4
loop_
 _symmetry_equiv_pos_site_id
 _symmetry_equiv_pos_as_xyz
  1  'x, y, z'
loop_
 _atom_site_type_symbol
 _atom_site_label
 _atom_site_symmetry_multiplicity
 _atom_site_fract_x
 _atom_site_fract_y
 _atom_site_fract_z
 _atom_site_occupancy
  Cr  Cr0  1  0.41429286  0.98988646  0.25768650  1
  Cr  Cr1  1  0.91429286  0.01011354  0.24231350  1
  Cr  Cr2  1  0.58570714  0.01011354  0.74231350  1
  Cr  Cr3  1  0.08570714  0.98988646  0.75768650  1
  Xe  Xe4  1  0.34024832  0.38365255  0.88647028  1
  Xe  Xe5  1  0.84024832  0.61634745  0.61352972  1
  Xe  Xe6  1  0.65975168  0.61634745  0.11352972  1
  Xe  Xe7  1  0.15975168  0.38365255  0.38647028  1
  F  F8  1  0.46202576  0.73215768  0.40579994  1
  F  F9  1  0.96202576  0.26784232  0.09420006  1
  F  F10  1  0.53797424  0.26784232  0.59420006  1
  F  F11  1  0.03797424  0.73215768  0.90579994  1
  F  F12  1  0.45731497  0.15419945  0.31201647  1
  F  F13  1  0.95731497  0.84580055  0.18798353  1
  F  F14  1  0.54268503  0.84580055  0.68798353  1
  F  F15  1  0.04268503  0.15419945  0.81201647  1
  F  F16  1  0.13969531  0.29236226  0.58674783  1
  F  F17  1  0.63969531  0.70763774  0.91325217  1
  F  F18  1  0.86030469  0.70763774  0.41325217  1
  F  F19  1  0.36030469  0.29236226  0.08674783  1
  F  F20  1  0.16847848  0.48532714  0.19742662  1
  F  F21  1  0.66847848  0.51467286  0.30257338  1
  F  F22  1  0.83152152  0.51467286  0.80257338  1
  F  F23  1  0.33152152  0.48532714  0.69742662  1
  F  F24  1  0.83861379  0.03435022  0.69042777  1
  F  F25  1  0.33861379  0.96564978  0.80957223  1
  F  F26  1  0.16138621  0.96564978  0.30957223  1
  F  F27  1  0.66138621  0.03435022  0.19042777  1
  F  F28  1  0.14460350  0.90340070  0.65785460  1
  F  F29  1  0.64460350  0.09659930  0.84214540  1
  F  F30  1  0.85539650  0.09659930  0.34214540  1
  F  F31  1  0.35539650  0.90340070  0.15785460  1
