# generated using pymatgen
data_Na10Hf6Mg2Si7S5O48
_symmetry_space_group_name_H-M   'P 1'
_cell_length_a   18.07583509
_cell_length_b   9.06908006
_cell_length_c   22.83970983
_cell_angle_alpha   90.03017909
_cell_angle_beta   90.01048109
_cell_angle_gamma   120.10486192
_symmetry_Int_Tables_number   1
_chemical_formula_structural   Na10Hf6Mg2Si7S5O48
_chemical_formula_sum   'Na30 Hf18 Mg6 Si21 S15 O144'
_cell_volume   3239.08862178
_cell_formula_units_Z   3
loop_
 _symmetry_equiv_pos_site_id
 _symmetry_equiv_pos_as_xyz
  1  'x, y, z'
loop_
 _atom_site_type_symbol
 _atom_site_label
 _atom_site_symmetry_multiplicity
 _atom_site_fract_x
 _atom_site_fract_y
 _atom_site_fract_z
 _atom_site_occupancy
  Na  Na0  1  0.81726325  0.01124846  0.24803141  1
  Na  Na1  1  0.18763563  0.37670578  0.24711931  1
  Na  Na2  1  0.68986087  0.36100483  0.25270264  1
  Na  Na3  1  0.99164246  0.61432526  0.25243471  1
  Na  Na4  1  0.49476294  0.63714710  0.24486260  1
  Na  Na5  1  0.31817962  0.62288879  0.74833379  1
  Na  Na6  1  0.99477274  0.35096105  0.74646313  1
  Na  Na7  1  0.49142155  0.37125729  0.75185752  1
  Na  Na8  1  0.19256448  0.02331148  0.74751287  1
  Na  Na9  1  0.68692212  0.99613579  0.74761906  1
  Na  Na10  1  0.14805351  0.32587565  0.58169383  1
  Na  Na11  1  0.01640327  0.69314394  0.58355917  1
  Na  Na12  1  0.48801206  0.66406317  0.91821793  1
  Na  Na13  1  0.99282080  0.67626644  0.92009497  1
  Na  Na14  1  0.84936860  0.02588998  0.91379438  1
  Na  Na15  1  0.49312577  0.31225822  0.41978044  1
  Na  Na16  1  0.16413248  0.02433990  0.41960882  1
  Na  Na17  1  0.35039312  0.66934337  0.41295114  1
  Na  Na18  1  0.99731078  0.00401047  0.50006525  1
  Na  Na19  1  0.51089247  0.00943045  0.49487224  1
  Na  Na20  1  0.00946737  0.01116190  0.99522402  1
  Na  Na21  1  0.50282883  0.00880923  0.00088280  1
  Na  Na22  1  0.32822280  0.31629344  0.82925086  1
  Na  Na23  1  0.83164840  0.33234597  0.83160981  1
  Na  Na24  1  0.33680359  0.34126734  0.33109475  1
  Na  Na25  1  0.83132633  0.33867404  0.33062910  1
  Na  Na26  1  0.17384185  0.66960425  0.16313659  1
  Na  Na27  1  0.66201236  0.67103449  0.16365881  1
  Na  Na28  1  0.16941904  0.67464544  0.66453190  1
  Na  Na29  1  0.67247836  0.67810056  0.66348159  1
  Hf  Hf30  1  0.99402938  0.99658492  0.35368132  1
  Hf  Hf31  1  0.50553377  0.99266374  0.35467419  1
  Hf  Hf32  1  0.00391126  0.01661247  0.85521375  1
  Hf  Hf33  1  0.49801863  0.00228914  0.85335268  1
  Hf  Hf34  1  0.99700006  0.01364014  0.64618579  1
  Hf  Hf35  1  0.49800114  0.99165846  0.64822598  1
  Hf  Hf36  1  0.99732222  0.00519497  0.14753432  1
  Hf  Hf37  1  0.49491133  0.97421492  0.14574410  1
  Hf  Hf38  1  0.33473133  0.32461895  0.98130707  1
  Hf  Hf39  1  0.83234721  0.33722033  0.97802472  1
  Hf  Hf40  1  0.33104879  0.32613156  0.48019559  1
  Hf  Hf41  1  0.83474426  0.33810817  0.47848129  1
  Hf  Hf42  1  0.66040001  0.65995597  0.01652448  1
  Hf  Hf43  1  0.16407503  0.67128876  0.51651286  1
  Hf  Hf44  1  0.16925234  0.66369978  0.31650219  1
  Hf  Hf45  1  0.66540406  0.66202425  0.31701722  1
  Hf  Hf46  1  0.16582504  0.66971875  0.81746835  1
  Hf  Hf47  1  0.67035736  0.67555531  0.81676800  1
  Mg  Mg48  1  0.33117519  0.32264377  0.68882953  1
  Mg  Mg49  1  0.83650784  0.32472669  0.68071286  1
  Mg  Mg50  1  0.33833074  0.34838986  0.18011232  1
  Mg  Mg51  1  0.83372019  0.33465661  0.18890026  1
  Mg  Mg52  1  0.16135896  0.66847683  0.01530947  1
  Mg  Mg53  1  0.66042527  0.65456957  0.51492362  1
  Si  Si54  1  0.64786029  0.00006805  0.24857239  1
  Si  Si55  1  0.35110682  0.70152339  0.25105540  1
  Si  Si56  1  0.85262726  0.70614095  0.24889245  1
  Si  Si57  1  0.00069111  0.29567144  0.24958183  1
  Si  Si58  1  0.14809855  0.29771941  0.74920122  1
  Si  Si59  1  0.50022437  0.70489221  0.75054304  1
  Si  Si60  1  0.35276429  -0.00096293  0.74937739  1
  Si  Si61  1  0.85092591  0.99976890  0.75075078  1
  Si  Si62  1  0.97885401  0.33555164  0.58445693  1
  Si  Si63  1  0.18732928  0.03776686  0.58692641  1
  Si  Si64  1  0.48079153  0.62319337  0.08398038  1
  Si  Si65  1  0.81159303  0.66728625  0.91786018  1
  Si  Si66  1  0.02406566  0.37901441  0.92027096  1
  Si  Si67  1  0.51979709  0.37069054  0.91475613  1
  Si  Si68  1  0.16805488  0.96096793  0.91820255  1
  Si  Si69  1  0.66497130  0.95962177  0.91734317  1
  Si  Si70  1  0.31361339  0.95803524  0.41648595  1
  Si  Si71  1  0.16471644  0.37114896  0.41864136  1
  Si  Si72  1  0.66771607  0.37563579  0.41813275  1
  Si  Si73  1  0.01804874  0.66447977  0.41406721  1
  Si  Si74  1  0.52321821  0.66846167  0.42010601  1
  S  S75  1  0.14576761  0.00170315  0.24900162  1
  S  S76  1  0.49748042  0.28721758  0.24989916  1
  S  S77  1  0.64592477  0.29020926  0.74868608  1
  S  S78  1  0.99706468  0.70567323  0.75002832  1
  S  S79  1  0.48199342  0.33657885  0.58560159  1
  S  S80  1  0.68725073  0.03895301  0.58449969  1
  S  S81  1  0.33563820  0.62709152  0.58404415  1
  S  S82  1  0.82910340  0.61825467  0.58515864  1
  S  S83  1  0.98065574  0.62566630  0.08566857  1
  S  S84  1  0.33134159  0.03945420  0.08585260  1
  S  S85  1  0.83353749  0.04266819  0.08430084  1
  S  S86  1  0.18728760  0.33525176  0.08472561  1
  S  S87  1  0.68844680  0.33490576  0.08558485  1
  S  S88  1  0.31134263  0.66517289  0.91862292  1
  S  S89  1  0.81003833  0.95555206  0.41931262  1
  O  O90  1  0.10692164  0.02953679  0.30270902  1
  O  O91  1  0.60299593  0.03594209  0.30446704  1
  O  O92  1  0.41156607  0.79382873  0.30814378  1
  O  O93  1  0.91556684  0.79977913  0.30490920  1
  O  O94  1  0.48830027  0.19004861  0.30390246  1
  O  O95  1  0.98755723  0.17024852  0.30492838  1
  O  O96  1  0.09974222  0.16717399  0.80319099  1
  O  O97  1  0.60606815  0.18118043  0.80129729  1
  O  O98  1  0.48760105  0.79926458  0.80791043  1
  O  O99  1  0.98814425  0.78761908  0.80310087  1
  O  O100  1  0.41571104  0.02606621  0.80469345  1
  O  O101  1  0.91118993  0.02964869  0.80809075  1
  O  O102  1  0.40149543  0.96690311  0.69344626  1
  O  O103  1  0.89898754  0.97340087  0.69427494  1
  O  O104  1  0.08646134  0.20950120  0.69096447  1
  O  O105  1  0.58999266  0.20714123  0.69655933  1
  O  O106  1  0.01196956  0.81218786  0.69704558  1
  O  O107  1  0.51976545  0.84092651  0.69570304  1
  O  O108  1  0.39874804  0.82348146  0.19415657  1
  O  O109  1  0.90180916  0.83760424  0.19352668  1
  O  O110  1  0.02035620  0.20195263  0.19398465  1
  O  O111  1  0.51327611  0.20884557  0.19826479  1
  O  O112  1  0.08895128  0.97378188  0.19745132  1
  O  O113  1  0.58302194  0.96586370  0.19323134  1
  O  O114  1  0.43933147  0.35413382  0.63756673  1
  O  O115  1  0.94381585  0.37913045  0.64296405  1
  O  O116  1  0.24198718  0.12865898  0.64388390  1
  O  O117  1  0.73539588  0.12181037  0.63882519  1
  O  O118  1  0.32500610  0.52520280  0.63638684  1
  O  O119  1  0.81800186  0.51392509  0.63725551  1
  O  O120  1  0.44165352  0.52035370  0.14370212  1
  O  O121  1  0.93671501  0.52251897  0.13731630  1
  O  O122  1  0.31932493  0.12191164  0.13722656  1
  O  O123  1  0.82461846  0.12489147  0.13675382  1
  O  O124  1  0.23510285  0.34866717  0.13893737  1
  O  O125  1  0.73898107  0.35461314  0.13826371  1
  O  O126  1  0.22945781  0.30958040  0.03283826  1
  O  O127  1  0.73081075  0.31057097  0.03306836  1
  O  O128  1  0.42156988  0.53187478  0.02534657  1
  O  O129  1  0.92735480  0.54492426  0.03175918  1
  O  O130  1  0.34312485  0.14630915  0.03212981  1
  O  O131  1  0.84460758  0.14564097  0.03078179  1
  O  O132  1  0.22975602  0.15981043  0.52784778  1
  O  O133  1  0.72869256  0.14828678  0.53261661  1
  O  O134  1  0.34777590  0.54923478  0.53019525  1
  O  O135  1  0.84377189  0.53703769  0.53220633  1
  O  O136  1  0.42856580  0.31059781  0.53156095  1
  O  O137  1  0.91747001  0.31169207  0.52872506  1
  O  O138  1  0.27216656  0.69150371  0.96966492  1
  O  O139  1  0.76906761  0.70621804  0.97388276  1
  O  O140  1  0.08237500  0.46398048  0.97513234  1
  O  O141  1  0.57979810  0.46350262  0.97150005  1
  O  O142  1  0.14877893  0.83698994  0.97237804  1
  O  O143  1  0.64806569  0.83274291  0.97184480  1
  O  O144  1  0.26962997  0.83268392  0.47216309  1
  O  O145  1  0.77149904  0.85232702  0.46989398  1
  O  O146  1  0.15338493  0.45845097  0.47715168  1
  O  O147  1  0.64893172  0.46134581  0.47232330  1
  O  O148  1  0.07909604  0.70202760  0.47229441  1
  O  O149  1  0.58180484  0.70209578  0.47491402  1
  O  O150  1  0.06255544  0.64010050  0.35550177  1
  O  O151  1  0.56162352  0.63112033  0.35885006  1
  O  O152  1  0.24898581  0.87584504  0.36083070  1
  O  O153  1  0.76052039  0.87896283  0.36342544  1
  O  O154  1  0.18464193  0.49294201  0.36068571  1
  O  O155  1  0.68256869  0.48844308  0.35669202  1
  O  O156  1  0.06073803  0.49259352  0.85897594  1
  O  O157  1  0.56093011  0.49024064  0.85628853  1
  O  O158  1  0.18264517  0.87711639  0.85695968  1
  O  O159  1  0.68624079  0.88280937  0.85842338  1
  O  O160  1  0.26104168  0.64256459  0.86349158  1
  O  O161  1  0.75181216  0.63115650  0.86027780  1
  O  O162  1  0.01380488  0.84050504  0.40885016  1
  O  O163  1  0.50383166  0.82637408  0.41211415  1
  O  O164  1  0.40833201  0.98463511  0.40886210  1
  O  O165  1  0.89791836  0.97780836  0.41145176  1
  O  O166  1  0.08522880  0.17811602  0.40999016  1
  O  O167  1  0.57909031  0.19153438  0.40797037  1
  O  O168  1  0.00334281  0.18178011  0.91238275  1
  O  O169  1  0.50837554  0.18179425  0.91010147  1
  O  O170  1  0.07950969  0.96810752  0.90788560  1
  O  O171  1  0.57814438  0.96913763  0.91030677  1
  O  O172  1  0.39958354  0.81674405  0.91084406  1
  O  O173  1  0.90733027  0.83177433  0.90932310  1
  O  O174  1  0.48942877  0.17742750  0.59002791  1
  O  O175  1  0.99017190  0.16465555  0.58578260  1
  O  O176  1  0.08801526  0.00796196  0.58997377  1
  O  O177  1  0.59981868  0.02521307  0.58881909  1
  O  O178  1  0.41328289  0.80191653  0.58793183  1
  O  O179  1  0.91254761  0.78698451  0.58958642  1
  O  O180  1  0.48892568  0.81632267  0.08492796  1
  O  O181  1  0.98862604  0.79996286  0.08995104  1
  O  O182  1  0.41304208  0.03390529  0.08965838  1
  O  O183  1  0.91374988  0.02867049  0.08779628  1
  O  O184  1  0.09990299  0.17424695  0.08835617  1
  O  O185  1  0.60082472  0.18349076  0.08921072  1
  O  O186  1  0.34593438  0.16833230  0.74629465  1
  O  O187  1  0.84001810  0.16894572  0.74575126  1
  O  O188  1  0.24254745  0.32426760  0.74486272  1
  O  O189  1  0.73029511  0.30611689  0.74130896  1
  O  O190  1  0.41572877  0.52279588  0.74173929  1
  O  O191  1  0.92226640  0.53329746  0.74475002  1
  O  O192  1  0.33962690  0.51026615  0.24640604  1
  O  O193  1  0.84330044  0.52131396  0.24232640  1
  O  O194  1  0.42295488  0.31100077  0.24433900  1
  O  O195  1  0.91602834  0.30907871  0.24253364  1
  O  O196  1  0.23008880  0.15414691  0.24137284  1
  O  O197  1  0.74147715  0.16470392  0.24185489  1
  O  O198  1  0.32238631  0.51308092  0.92258116  1
  O  O199  1  0.82658568  0.50381302  0.92655991  1
  O  O200  1  0.42750005  0.36431475  0.92383464  1
  O  O201  1  0.92670042  0.35822685  0.92693591  1
  O  O202  1  0.25022419  0.15393203  0.92466168  1
  O  O203  1  0.75232876  0.14367449  0.92712588  1
  O  O204  1  0.32340175  0.14730757  0.42529174  1
  O  O205  1  0.81950972  0.12830031  0.42285053  1
  O  O206  1  0.25296096  0.35888012  0.42454552  1
  O  O207  1  0.74908035  0.34486053  0.42440504  1
  O  O208  1  0.42644955  0.49503544  0.42566401  1
  O  O209  1  0.92475277  0.49618827  0.42347836  1
  O  O210  1  0.17805658  0.48630961  0.07869378  1
  O  O211  1  0.68195426  0.49080583  0.07807432  1
  O  O212  1  0.06602015  0.64538689  0.08010400  1
  O  O213  1  0.57805401  0.65006863  0.07809310  1
  O  O214  1  0.25781999  0.86665878  0.07767494  1
  O  O215  1  0.75875949  0.86966713  0.07873255  1
  O  O216  1  0.17369810  0.84524742  0.57862797  1
  O  O217  1  0.67832386  0.86992459  0.57887350  1
  O  O218  1  0.25754834  0.64154439  0.57838980  1
  O  O219  1  0.75741688  0.64733161  0.57697250  1
  O  O220  1  0.07746776  0.49987907  0.57705221  1
  O  O221  1  0.56748831  0.48654332  0.57960388  1
  O  O222  1  0.14980880  0.84318102  0.25384085  1
  O  O223  1  0.65367679  0.82510573  0.25638859  1
  O  O224  1  0.25581784  0.68218572  0.25417781  1
  O  O225  1  0.75906487  0.69470564  0.25493565  1
  O  O226  1  0.08618502  0.48544635  0.25405647  1
  O  O227  1  0.57759626  0.46302981  0.25484752  1
  O  O228  1  0.15248684  0.48309336  0.75685150  1
  O  O229  1  0.64958384  0.45589811  0.75453274  1
  O  O230  1  0.07723782  0.69147759  0.75469350  1
  O  O231  1  0.58607022  0.68668671  0.75407328  1
  O  O232  1  0.25885116  0.82335086  0.75488342  1
  O  O233  1  0.75540081  0.82980584  0.75378970  1
