# generated using pymatgen
data_NaSn4P5SO24
_symmetry_space_group_name_H-M   'P 1'
_cell_length_a   8.73197748
_cell_length_b   8.74328410
_cell_length_c   22.81318908
_cell_angle_alpha   90.18830032
_cell_angle_beta   89.64388614
_cell_angle_gamma   120.07128545
_symmetry_Int_Tables_number   1
_chemical_formula_structural   NaSn4P5SO24
_chemical_formula_sum   'Na3 Sn12 P15 S3 O72'
_cell_volume   1507.24211616
_cell_formula_units_Z   3
loop_
 _symmetry_equiv_pos_site_id
 _symmetry_equiv_pos_as_xyz
  1  'x, y, z'
loop_
 _atom_site_type_symbol
 _atom_site_label
 _atom_site_symmetry_multiplicity
 _atom_site_fract_x
 _atom_site_fract_y
 _atom_site_fract_z
 _atom_site_occupancy
  Na  Na0  1  0.67003361  0.33726598  0.83412817  1
  Na  Na1  1  0.66662872  0.33340436  0.33145530  1
  Na  Na2  1  0.33347035  0.66682365  0.16708895  1
  Sn  Sn3  1  0.00073811  0.00052727  0.35358784  1
  Sn  Sn4  1  0.99395093  0.00008222  0.85388703  1
  Sn  Sn5  1  0.00581526  0.99973293  0.64889610  1
  Sn  Sn6  1  0.99962677  0.00048067  0.14555245  1
  Sn  Sn7  1  0.66232763  0.32765554  0.68767352  1
  Sn  Sn8  1  0.66684432  0.33285335  0.18593851  1
  Sn  Sn9  1  0.67282882  0.33995061  0.98348260  1
  Sn  Sn10  1  0.65985735  0.32838623  0.47798768  1
  Sn  Sn11  1  0.33494863  0.66097564  0.02094690  1
  Sn  Sn12  1  0.33369633  0.67298363  0.51684231  1
  Sn  Sn13  1  0.33271055  0.66628572  0.31322407  1
  Sn  Sn14  1  0.33215497  0.66070665  0.81174801  1
  P  P15  1  0.28982488  -0.00000197  0.24984859  1
  P  P16  1  0.71061803  0.70988579  0.25004878  1
  P  P17  1  0.99934148  0.28952135  0.25005607  1
  P  P18  1  0.28830966  0.28885786  0.75066344  1
  P  P19  1  0.00103933  0.70930455  0.75061081  1
  P  P20  1  0.70914798  0.99819040  0.74959823  1
  P  P21  1  0.37501833  0.04087945  0.58331543  1
  P  P22  1  0.95931282  0.62654935  0.08401635  1
  P  P23  1  0.66694094  0.04281382  0.08309216  1
  P  P24  1  0.37631719  0.33115026  0.08376599  1
  P  P25  1  0.62335879  0.66515377  0.91624208  1
  P  P26  1  0.04219152  0.37623305  0.91642012  1
  P  P27  1  0.62563812  0.95591795  0.41592018  1
  P  P28  1  0.33057881  0.37683097  0.41681389  1
  P  P29  1  0.04172361  0.66786028  0.41656577  1
  S  S30  1  0.95911759  0.33331111  0.58321776  1
  S  S31  1  0.66624679  0.62552672  0.58339703  1
  S  S32  1  0.33320216  0.95817797  0.91636199  1
  O  O33  1  0.21295591  0.03495191  0.30586926  1
  O  O34  1  0.82205529  0.78742387  0.30571104  1
  O  O35  1  0.96482772  0.17780941  0.30576590  1
  O  O36  1  0.21102928  0.17177053  0.80542024  1
  O  O37  1  0.96266859  0.78806885  0.80543494  1
  O  O38  1  0.82495723  0.03850325  0.80424305  1
  O  O39  1  0.78874063  0.96596194  0.69323402  1
  O  O40  1  0.17803442  0.21305218  0.69452139  1
  O  O41  1  0.03316944  0.81898708  0.69436031  1
  O  O42  1  0.78848782  0.82285314  0.19459534  1
  O  O43  1  0.03499212  0.21190436  0.19453728  1
  O  O44  1  0.17692178  0.96532842  0.19467713  1
  O  O45  1  0.88185262  0.36876710  0.63633402  1
  O  O46  1  0.49251781  0.12314141  0.63796767  1
  O  O47  1  0.63435425  0.51474857  0.63641666  1
  O  O48  1  0.88113617  0.50862026  0.13847460  1
  O  O49  1  0.62765751  0.11985443  0.13822609  1
  O  O50  1  0.49294597  0.37089252  0.13834338  1
  O  O51  1  0.45397172  0.29815965  0.02723315  1
  O  O52  1  0.84895372  0.55074605  0.02807637  1
  O  O53  1  0.69916321  0.15406702  0.02707111  1
  O  O54  1  0.45775285  0.16021573  0.52904518  1
  O  O55  1  0.70251871  0.54807825  0.53075487  1
  O  O56  1  0.84755993  0.30119129  0.53074087  1
  O  O57  1  0.54404063  0.70200276  0.97122313  1
  O  O58  1  0.15556305  0.45814491  0.97136365  1
  O  O59  1  0.30157341  0.84947986  0.96942487  1
  O  O60  1  0.54945236  0.84654085  0.47263660  1
  O  O61  1  0.29982917  0.45597073  0.47380492  1
  O  O62  1  0.15121832  0.69964446  0.47287213  1
  O  O63  1  0.11918038  0.62697891  0.36212907  1
  O  O64  1  0.50699681  0.87848093  0.36201121  1
  O  O65  1  0.37118277  0.49390982  0.36232718  1
  O  O66  1  0.12027214  0.49309053  0.86126663  1
  O  O67  1  0.36790015  0.88212953  0.86303011  1
  O  O68  1  0.50888819  0.63103945  0.86104783  1
  O  O69  1  0.02274135  0.83032367  0.40934585  1
  O  O70  1  0.80798687  0.97592108  0.40920704  1
  O  O71  1  0.16872317  0.19417808  0.40985529  1
  O  O72  1  0.02696867  0.19478568  0.90878960  1
  O  O73  1  0.17462499  0.97479954  0.90936902  1
  O  O74  1  0.80742014  0.82911929  0.90898572  1
  O  O75  1  0.97320806  0.17304078  0.59062675  1
  O  O76  1  0.19177720  0.02435123  0.59092832  1
  O  O77  1  0.82514775  0.80191571  0.59050007  1
  O  O78  1  0.97699559  0.80804337  0.09120219  1
  O  O79  1  0.83034296  0.02418388  0.09058647  1
  O  O80  1  0.19350894  0.16799548  0.09070456  1
  O  O81  1  0.69335521  0.16709643  0.74359322  1
  O  O82  1  0.47500462  0.30880634  0.74423003  1
  O  O83  1  0.83245254  0.52345752  0.74271677  1
  O  O84  1  0.69075543  0.52415967  0.24435985  1
  O  O85  1  0.83326613  0.30913794  0.24446803  1
  O  O86  1  0.47574448  0.16645147  0.24444370  1
  O  O87  1  0.63993346  0.49675024  0.92216152  1
  O  O88  1  0.85456048  0.35488276  0.92207975  1
  O  O89  1  0.49361824  0.13586820  0.92208959  1
  O  O90  1  0.64313277  0.14147386  0.42271933  1
  O  O91  1  0.50028826  0.36145385  0.42291007  1
  O  O92  1  0.85633900  0.49835383  0.42453076  1
  O  O93  1  0.35909550  0.49906801  0.07831166  1
  O  O94  1  0.14465862  0.64417758  0.07668591  1
  O  O95  1  0.49763517  0.85793886  0.07648630  1
  O  O96  1  0.35747991  0.85783550  0.57578331  1
  O  O97  1  0.50649210  0.64014623  0.57640888  1
  O  O98  1  0.13553968  0.49150996  0.57638180  1
  O  O99  1  0.30897188  0.83358779  0.25580783  1
  O  O100  1  0.52466707  0.69083449  0.25581201  1
  O  O101  1  0.16630058  0.47527833  0.25574351  1
  O  O102  1  0.30816260  0.47109103  0.75675154  1
  O  O103  1  0.16493344  0.69189229  0.75832134  1
  O  O104  1  0.52595169  0.83663597  0.75785008  1
