# generated using pymatgen
data_Na4Zr2Nb2Si5SO24
_symmetry_space_group_name_H-M   'P 1'
_cell_length_a   9.04845102
_cell_length_b   9.06732380
_cell_length_c   22.92372656
_cell_angle_alpha   89.78758273
_cell_angle_beta   90.24504159
_cell_angle_gamma   119.89799040
_symmetry_Int_Tables_number   1
_chemical_formula_structural   Na4Zr2Nb2Si5SO24
_chemical_formula_sum   'Na12 Zr6 Nb6 Si15 S3 O72'
_cell_volume   1630.45954700
_cell_formula_units_Z   3
loop_
 _symmetry_equiv_pos_site_id
 _symmetry_equiv_pos_as_xyz
  1  'x, y, z'
loop_
 _atom_site_type_symbol
 _atom_site_label
 _atom_site_symmetry_multiplicity
 _atom_site_fract_x
 _atom_site_fract_y
 _atom_site_fract_z
 _atom_site_occupancy
  Na  Na0  1  0.64540459  0.00011498  0.25109757  1
  Na  Na1  1  0.99212152  0.35828237  0.74928807  1
  Na  Na2  1  0.29595896  0.33614848  0.58114687  1
  Na  Na3  1  0.66768459  0.96649787  0.57980995  1
  Na  Na4  1  0.02482664  0.33140043  0.08533967  1
  Na  Na5  1  0.96033429  0.66532990  0.91255653  1
  Na  Na6  1  0.99842623  0.99975741  0.49222427  1
  Na  Na7  1  0.97415792  0.99056448  0.00200340  1
  Na  Na8  1  0.64796276  0.32963707  0.83228863  1
  Na  Na9  1  0.65850698  0.34180259  0.33508320  1
  Na  Na10  1  0.32661684  0.67835616  0.16744114  1
  Na  Na11  1  0.32914963  0.68053023  0.66418812  1
  Zr  Zr12  1  0.00168129  0.00612219  0.35138516  1
  Zr  Zr13  1  0.99183221  0.00602920  0.85211064  1
  Zr  Zr14  1  0.99353575  0.98817691  0.14979515  1
  Zr  Zr15  1  0.68052560  0.34003809  0.97782304  1
  Zr  Zr16  1  0.34378417  0.67264813  0.02277806  1
  Zr  Zr17  1  0.33389867  0.66459599  0.52062923  1
  Nb  Nb18  1  0.99584031  0.99249279  0.64656538  1
  Nb  Nb19  1  0.66655658  0.33718055  0.68724957  1
  Nb  Nb20  1  0.67734133  0.33338544  0.18985935  1
  Nb  Nb21  1  0.65451078  0.32297468  0.47935749  1
  Nb  Nb22  1  0.34476140  0.66678116  0.31257071  1
  Nb  Nb23  1  0.33704670  0.65347684  0.80830803  1
  Si  Si24  1  0.29333872  0.00005478  0.25094143  1
  Si  Si25  1  0.71083383  0.70304512  0.25171621  1
  Si  Si26  1  0.01090032  0.29842247  0.24763123  1
  Si  Si27  1  0.29056905  0.28144568  0.74883239  1
  Si  Si28  1  0.00163089  0.71064697  0.75245591  1
  Si  Si29  1  0.70267812  0.99751017  0.74734998  1
  Si  Si30  1  0.95297062  0.33341036  0.58449613  1
  Si  Si31  1  0.37542102  0.04516033  0.58506269  1
  Si  Si32  1  0.67415359  0.62207958  0.58167892  1
  Si  Si33  1  0.95922188  0.62877175  0.08255206  1
  Si  Si34  1  0.66704677  0.04205280  0.08466994  1
  Si  Si35  1  0.62423495  0.66499982  0.91649546  1
  Si  Si36  1  0.04945073  0.37690825  0.91746663  1
  Si  Si37  1  0.62819202  0.95988134  0.41825763  1
  Si  Si38  1  0.33412215  0.37331589  0.41893344  1
  S  S39  1  0.37948988  0.33148703  0.08354883  1
  S  S40  1  0.33416034  0.95284367  0.91465702  1
  S  S41  1  0.04026816  0.66154610  0.41644207  1
  O  O42  1  0.20837111  0.03307059  0.30729433  1
  O  O43  1  0.82621947  0.78663846  0.30852303  1
  O  O44  1  0.95893264  0.16486865  0.30144365  1
  O  O45  1  0.20351417  0.16984676  0.80590055  1
  O  O46  1  0.97291386  0.78881609  0.81131202  1
  O  O47  1  0.82992092  0.04128745  0.80281100  1
  O  O48  1  0.79526952  0.97077549  0.68946576  1
  O  O49  1  0.16676224  0.19858972  0.69122893  1
  O  O50  1  0.02342134  0.83632849  0.69610845  1
  O  O51  1  0.78545701  0.83114525  0.19579399  1
  O  O52  1  0.03919157  0.22232676  0.18769005  1
  O  O53  1  0.17477079  0.96698361  0.19383134  1
  O  O54  1  0.86296204  0.35376011  0.64324438  1
  O  O55  1  0.50191415  0.14543557  0.63968014  1
  O  O56  1  0.64657129  0.50166389  0.63863724  1
  O  O57  1  0.84584567  0.49910089  0.13671829  1
  O  O58  1  0.65125724  0.14036279  0.14306418  1
  O  O59  1  0.47897042  0.34760257  0.13623688  1
  O  O60  1  0.46174543  0.31812633  0.03017729  1
  O  O61  1  0.85110904  0.54270077  0.02202394  1
  O  O62  1  0.68413424  0.16179442  0.02840423  1
  O  O63  1  0.46458369  0.16758082  0.52678600  1
  O  O64  1  0.69517892  0.52585130  0.52531409  1
  O  O65  1  0.82552424  0.30134821  0.52873754  1
  O  O66  1  0.53287971  0.69149457  0.97306699  1
  O  O67  1  0.15394586  0.47458207  0.97588921  1
  O  O68  1  0.31267129  0.85063832  0.96819588  1
  O  O69  1  0.53138277  0.85273740  0.47692301  1
  O  O70  1  0.31307753  0.45973622  0.47848160  1
  O  O71  1  0.14161245  0.67933659  0.46996043  1
  O  O72  1  0.12587263  0.64483652  0.36442219  1
  O  O73  1  0.50786248  0.86375734  0.36050736  1
  O  O74  1  0.35091013  0.50017828  0.36381807  1
  O  O75  1  0.14690693  0.49822631  0.85890792  1
  O  O76  1  0.35451861  0.87031869  0.86242230  1
  O  O77  1  0.50587710  0.65571763  0.85868326  1
  O  O78  1  0.02144046  0.81316292  0.41345576  1
  O  O79  1  0.81395816  0.97704578  0.41367551  1
  O  O80  1  0.17286085  0.18395708  0.41265518  1
  O  O81  1  0.03072980  0.19025065  0.91321102  1
  O  O82  1  0.17605469  0.96283304  0.91122624  1
  O  O83  1  0.81881827  0.82470703  0.91225959  1
  O  O84  1  0.96559931  0.15744359  0.59035843  1
  O  O85  1  0.19261450  0.03914866  0.59178900  1
  O  O86  1  0.83953041  0.81353017  0.58947114  1
  O  O87  1  0.98225899  0.81671491  0.08741737  1
  O  O88  1  0.84683723  0.04137337  0.08711096  1
  O  O89  1  0.20559429  0.18257155  0.08631155  1
  O  O90  1  0.68976571  0.16992305  0.74016667  1
  O  O91  1  0.48274856  0.31528641  0.74093299  1
  O  O92  1  0.84013231  0.51814435  0.74128212  1
  O  O93  1  0.67715951  0.51181434  0.23953552  1
  O  O94  1  0.83558080  0.31568135  0.24156659  1
  O  O95  1  0.48881010  0.16292034  0.24073826  1
  O  O96  1  0.63406835  0.49003663  0.91672990  1
  O  O97  1  0.86194286  0.36754666  0.91701406  1
  O  O98  1  0.48397287  0.12437820  0.91973124  1
  O  O99  1  0.64300226  0.15032019  0.42426902  1
  O  O100  1  0.51476091  0.36799923  0.42264379  1
  O  O101  1  0.87076544  0.50466900  0.42095093  1
  O  O102  1  0.35985646  0.48655789  0.08087278  1
  O  O103  1  0.13840903  0.62471551  0.08229266  1
  O  O104  1  0.49822744  0.85422039  0.08264364  1
  O  O105  1  0.36536675  0.86290691  0.58082771  1
  O  O106  1  0.50395365  0.64197677  0.57941062  1
  O  O107  1  0.14512089  0.49399796  0.58064877  1
  O  O108  1  0.32615239  0.83720032  0.26027631  1
  O  O109  1  0.52036968  0.68721701  0.26037197  1
  O  O110  1  0.16832400  0.48888251  0.26127429  1
  O  O111  1  0.30118231  0.47067085  0.75558193  1
  O  O112  1  0.16865443  0.68344184  0.75620338  1
  O  O113  1  0.51490311  0.82994855  0.75596636  1
