# generated using pymatgen
data_MgMnV4O12
_symmetry_space_group_name_H-M   'P 1'
_cell_length_a   5.47422104
_cell_length_b   10.79667355
_cell_length_c   9.46255024
_cell_angle_alpha   28.21791438
_cell_angle_beta   49.09983782
_cell_angle_gamma   55.31764693
_symmetry_Int_Tables_number   1
_chemical_formula_structural   MgMnV4O12
_chemical_formula_sum   'Mg1 Mn1 V4 O12'
_cell_volume   199.82619630
_cell_formula_units_Z   1
loop_
 _symmetry_equiv_pos_site_id
 _symmetry_equiv_pos_as_xyz
  1  'x, y, z'
loop_
 _atom_site_type_symbol
 _atom_site_label
 _atom_site_symmetry_multiplicity
 _atom_site_fract_x
 _atom_site_fract_y
 _atom_site_fract_z
 _atom_site_occupancy
  Mg  Mg0  1  0.78965000  0.00928500  0.77679900  1
  Mn  Mn1  1  0.30663600  0.99980000  0.29720500  1
  V  V2  1  0.02889000  0.02211000  0.96744000  1
  V  V3  1  0.98969600  0.48104900  0.01060700  1
  V  V4  1  0.51711800  0.97249800  0.52741700  1
  V  V5  1  0.49772400  0.51503700  0.48058900  1
  O  O6  1  0.34949400  0.28509500  0.12187600  1
  O  O7  1  0.22324900  0.10323900  0.62655500  1
  O  O8  1  0.12006500  0.30443600  0.73070400  1
  O  O9  1  0.89131200  0.16051200  0.24505500  1
  O  O10  1  0.34356100  0.82360400  0.10295900  1
  O  O11  1  0.73442200  0.37746300  0.35444800  1
  O  O12  1  0.21622300  0.65431300  0.59344000  1
  O  O13  1  0.58864400  0.17114600  0.87851500  1
  O  O14  1  0.11868900  0.82469900  0.71034600  1
  O  O15  1  0.82652700  0.69943000  0.22306200  1
  O  O16  1  0.69962300  0.89170500  0.34299300  1
  O  O17  1  0.60528000  0.69267300  0.85400800  1
