# generated using pymatgen
data_Na5Ca3TiP3(SO8)3
_symmetry_space_group_name_H-M   'P 1'
_cell_length_a   9.21667456
_cell_length_b   9.20595098
_cell_length_c   23.07677153
_cell_angle_alpha   90.40383783
_cell_angle_beta   89.98048989
_cell_angle_gamma   119.69300841
_symmetry_Int_Tables_number   1
_chemical_formula_structural   Na5Ca3TiP3(SO8)3
_chemical_formula_sum   'Na15 Ca9 Ti3 P9 S9 O72'
_cell_volume   1700.86608933
_cell_formula_units_Z   3
loop_
 _symmetry_equiv_pos_site_id
 _symmetry_equiv_pos_as_xyz
  1  'x, y, z'
loop_
 _atom_site_type_symbol
 _atom_site_label
 _atom_site_symmetry_multiplicity
 _atom_site_fract_x
 _atom_site_fract_y
 _atom_site_fract_z
 _atom_site_occupancy
  Na  Na0  1  0.99720621  0.63598719  0.25880870  1
  Na  Na1  1  0.30717878  0.34673895  0.58611403  1
  Na  Na2  1  0.02723967  0.68990368  0.57729284  1
  Na  Na3  1  0.66711629  0.95444299  0.57575284  1
  Na  Na4  1  0.66150370  0.69562831  0.07832124  1
  Na  Na5  1  0.03877645  0.34388990  0.08216381  1
  Na  Na6  1  0.99658007  0.68632685  0.90986723  1
  Na  Na7  1  0.32352421  0.29695067  0.90685482  1
  Na  Na8  1  0.68792574  0.67652253  0.42114955  1
  Na  Na9  1  0.99727998  0.00429315  0.49401962  1
  Na  Na10  1  0.00138380  0.99334165  0.99415856  1
  Na  Na11  1  0.65310513  0.31366221  0.82343538  1
  Na  Na12  1  0.64783718  0.28827644  0.33751839  1
  Na  Na13  1  0.33955004  0.68172470  0.17498113  1
  Na  Na14  1  0.33332758  0.65327999  0.67147609  1
  Ca  Ca15  1  0.00193317  0.01050318  0.35151661  1
  Ca  Ca16  1  0.99362905  0.00228338  0.84655910  1
  Ca  Ca17  1  0.00111408  0.00900312  0.65651687  1
  Ca  Ca18  1  0.00654388  0.99736469  0.14739864  1
  Ca  Ca19  1  0.66659994  0.33977502  0.68762703  1
  Ca  Ca20  1  0.65584188  0.32413973  0.18548708  1
  Ca  Ca21  1  0.33315943  0.67785050  0.01415382  1
  Ca  Ca22  1  0.32936776  0.66708098  0.50992993  1
  Ca  Ca23  1  0.33734456  0.67545532  0.32564190  1
  Ti  Ti24  1  0.67701363  0.33789894  0.97267691  1
  Ti  Ti25  1  0.69215718  0.34345942  0.48149913  1
  Ti  Ti26  1  0.33756599  0.66377547  0.82156593  1
  P  P27  1  0.30969700  0.32205282  0.75648181  1
  P  P28  1  0.95988346  0.33246343  0.58270411  1
  P  P29  1  0.66797913  0.62414581  0.57969538  1
  P  P30  1  0.94560223  0.61581606  0.07930935  1
  P  P31  1  0.62853655  0.65690683  0.92089388  1
  P  P32  1  0.03657844  0.37705305  0.91966534  1
  P  P33  1  0.34522586  0.97025947  0.91654887  1
  P  P34  1  0.64278729  0.98454314  0.42355387  1
  P  P35  1  0.01404331  0.66090542  0.41895530  1
  S  S36  1  0.29928184  0.99234376  0.25064483  1
  S  S37  1  0.69471253  0.69843160  0.24840096  1
  S  S38  1  0.00606490  0.31240120  0.24628078  1
  S  S39  1  0.01917735  0.69285812  0.75533725  1
  S  S40  1  0.67230429  0.98080968  0.75249637  1
  S  S41  1  0.37640451  0.04577045  0.58130807  1
  S  S42  1  0.67344268  0.04821934  0.07765541  1
  S  S43  1  0.37418019  0.33232072  0.07672986  1
  S  S44  1  0.35028364  0.35924705  0.42185889  1
  O  O45  1  0.21080216  0.00116452  0.30220070  1
  O  O46  1  0.79597424  0.79091155  0.29960202  1
  O  O47  1  0.00225175  0.21185358  0.29560634  1
  O  O48  1  0.21785858  0.21327018  0.80822381  1
  O  O49  1  0.00053701  0.77801042  0.80674368  1
  O  O50  1  0.78277745  0.00119363  0.80078489  1
  O  O51  1  0.73920381  0.95658765  0.69659816  1
  O  O52  1  0.21306367  0.25878773  0.69854570  1
  O  O53  1  0.03744478  0.78824317  0.70147867  1
  O  O54  1  0.77584401  0.78996018  0.19375345  1
  O  O55  1  0.01001642  0.23235962  0.19008421  1
  O  O56  1  0.20601955  0.98435386  0.19694177  1
  O  O57  1  0.87511308  0.34921537  0.63611919  1
  O  O58  1  0.46902708  0.11841268  0.63502225  1
  O  O59  1  0.64389175  0.51866743  0.63283110  1
  O  O60  1  0.86150651  0.52319169  0.13462476  1
  O  O61  1  0.65954327  0.12273173  0.13161813  1
  O  O62  1  0.46591888  0.33919268  0.12913134  1
  O  O63  1  0.46152402  0.32175360  0.02350021  1
  O  O64  1  0.82831816  0.50164187  0.02497722  1
  O  O65  1  0.67305789  0.14735611  0.02643106  1
  O  O66  1  0.46813940  0.14839166  0.53036768  1
  O  O67  1  0.67847136  0.52273256  0.52410728  1
  O  O68  1  0.84804877  0.33041266  0.52825980  1
  O  O69  1  0.56452501  0.68060181  0.97870999  1
  O  O70  1  0.12564937  0.44248449  0.97742421  1
  O  O71  1  0.30649075  0.86818175  0.97137967  1
  O  O72  1  0.56795747  0.87881506  0.47849910  1
  O  O73  1  0.32985056  0.43286260  0.47648854  1
  O  O74  1  0.11464089  0.68100667  0.47396558  1
  O  O75  1  0.08807295  0.63363264  0.36305840  1
  O  O76  1  0.53199132  0.90586574  0.37007191  1
  O  O77  1  0.37431674  0.47229788  0.37263738  1
  O  O78  1  0.13587293  0.50897187  0.87058521  1
  O  O79  1  0.36799858  0.87141944  0.86475960  1
  O  O80  1  0.50096700  0.63409149  0.87097773  1
  O  O81  1  0.97222624  0.80337879  0.41508802  1
  O  O82  1  0.81870020  0.00612484  0.41648038  1
  O  O83  1  0.20640724  0.19074013  0.41442935  1
  O  O84  1  0.01152810  0.20306663  0.90886334  1
  O  O85  1  0.19855587  0.00452083  0.90678679  1
  O  O86  1  0.80945073  0.79122582  0.90975634  1
  O  O87  1  0.96573897  0.16662448  0.57956251  1
  O  O88  1  0.20769888  0.03522381  0.58307896  1
  O  O89  1  0.83453283  0.79626698  0.58049879  1
  O  O90  1  0.94673574  0.78457006  0.07355049  1
  O  O91  1  0.83605547  0.04620135  0.07588447  1
  O  O92  1  0.20008474  0.18671989  0.07653155  1
  O  O93  1  0.64474321  0.12511804  0.75021014  1
  O  O94  1  0.48887542  0.35447662  0.75435762  1
  O  O95  1  0.87580113  0.52189638  0.75233151  1
  O  O96  1  0.69014261  0.53363684  0.24825216  1
  O  O97  1  0.85481673  0.33374088  0.24918839  1
  O  O98  1  0.47003803  0.13803727  0.25038136  1
  O  O99  1  0.62896243  0.48032238  0.92309098  1
  O  O100  1  0.85729759  0.36909720  0.92215169  1
  O  O101  1  0.51097571  0.14931935  0.92373801  1
  O  O102  1  0.65858373  0.16263994  0.43245897  1
  O  O103  1  0.50855198  0.34990493  0.42456462  1
  O  O104  1  0.83436490  0.49364725  0.42628407  1
  O  O105  1  0.36157483  0.48904077  0.07685074  1
  O  O106  1  0.11858920  0.63042321  0.07561333  1
  O  O107  1  0.53580389  0.87210654  0.07553820  1
  O  O108  1  0.34836433  0.87105549  0.57671401  1
  O  O109  1  0.51504605  0.65169548  0.57455361  1
  O  O110  1  0.13742408  0.48563586  0.57734314  1
  O  O111  1  0.30607916  0.83286103  0.25139116  1
  O  O112  1  0.52398289  0.67476305  0.25099721  1
  O  O113  1  0.15583175  0.48431526  0.24858660  1
  O  O114  1  0.32059774  0.50011063  0.77079731  1
  O  O115  1  0.17731928  0.68306866  0.76197275  1
  O  O116  1  0.50647460  0.82305483  0.76166919  1
