# generated using pymatgen
data_NaZr2Sc2P3(SO8)3
_symmetry_space_group_name_H-M   'P 1'
_cell_length_a   8.89009993
_cell_length_b   8.90191357
_cell_length_c   23.21813655
_cell_angle_alpha   90.18268475
_cell_angle_beta   89.83494052
_cell_angle_gamma   120.03792260
_symmetry_Int_Tables_number   1
_chemical_formula_structural   NaZr2Sc2P3(SO8)3
_chemical_formula_sum   'Na3 Zr6 Sc6 P9 S9 O72'
_cell_volume   1590.66687762
_cell_formula_units_Z   3
loop_
 _symmetry_equiv_pos_site_id
 _symmetry_equiv_pos_as_xyz
  1  'x, y, z'
loop_
 _atom_site_type_symbol
 _atom_site_label
 _atom_site_symmetry_multiplicity
 _atom_site_fract_x
 _atom_site_fract_y
 _atom_site_fract_z
 _atom_site_occupancy
  Na  Na0  1  0.68067279  0.33561881  0.83478488  1
  Na  Na1  1  0.66238194  0.34150673  0.32948156  1
  Na  Na2  1  0.34747063  0.67648047  0.17193318  1
  Zr  Zr3  1  0.00686523  0.99312060  0.35530175  1
  Zr  Zr4  1  0.99313715  0.00160960  0.85592829  1
  Zr  Zr5  1  0.99475384  0.99273463  0.64767992  1
  Zr  Zr6  1  0.99805802  0.99824054  0.14480570  1
  Zr  Zr7  1  0.33298117  0.65939997  0.02102114  1
  Zr  Zr8  1  0.32704265  0.66198509  0.51854381  1
  Sc  Sc9  1  0.67317836  0.33271772  0.68907041  1
  Sc  Sc10  1  0.65086400  0.32718438  0.18697873  1
  Sc  Sc11  1  0.66662965  0.32287454  0.98358104  1
  Sc  Sc12  1  0.66441943  0.33819524  0.47737632  1
  Sc  Sc13  1  0.33460062  0.66471930  0.31279976  1
  Sc  Sc14  1  0.32395668  0.66654447  0.80925835  1
  P  P15  1  0.29202803  0.99679690  0.24955855  1
  P  P16  1  0.70837294  0.70737658  0.25013241  1
  P  P17  1  0.99597666  0.70861734  0.75121185  1
  P  P18  1  0.70698847  0.99954611  0.75086260  1
  P  P19  1  0.66346854  0.04428962  0.08454360  1
  P  P20  1  0.38011369  0.33266698  0.08322754  1
  P  P21  1  0.04144445  0.38302692  0.91444564  1
  P  P22  1  0.33578746  0.37921750  0.41492316  1
  P  P23  1  0.04155105  0.65904951  0.41531746  1
  S  S24  1  0.99840789  0.29114519  0.25031667  1
  S  S25  1  0.29195390  0.28939267  0.75017793  1
  S  S26  1  0.95275332  0.33158316  0.58329142  1
  S  S27  1  0.38156703  0.04795460  0.58357480  1
  S  S28  1  0.66467869  0.61877384  0.58357396  1
  S  S29  1  0.95450631  0.61901565  0.08374609  1
  S  S30  1  0.61896450  0.65937842  0.91497186  1
  S  S31  1  0.33664487  0.95799277  0.91514354  1
  S  S32  1  0.62195528  0.95893365  0.41635460  1
  O  O33  1  0.20253055  0.02177235  0.30395419  1
  O  O34  1  0.82034547  0.80272201  0.30402623  1
  O  O35  1  0.97697885  0.18554092  0.30211285  1
  O  O36  1  0.20942477  0.17812231  0.80125444  1
  O  O37  1  0.97064820  0.80078485  0.80370803  1
  O  O38  1  0.82837673  0.03260090  0.80331910  1
  O  O39  1  0.80072203  0.97992296  0.69661224  1
  O  O40  1  0.18401926  0.20496496  0.69807202  1
  O  O41  1  0.02017780  0.82163721  0.69658372  1
  O  O42  1  0.79927965  0.82059174  0.19645063  1
  O  O43  1  0.02120005  0.20686297  0.19823894  1
  O  O44  1  0.17999674  0.97866369  0.19635441  1
  O  O45  1  0.87412384  0.36071952  0.63504199  1
  O  O46  1  0.48847113  0.12818886  0.63508736  1
  O  O47  1  0.63759006  0.51286029  0.63501461  1
  O  O48  1  0.87835539  0.51366496  0.13522283  1
  O  O49  1  0.63420033  0.12833257  0.13755079  1
  O  O50  1  0.49328585  0.36860198  0.13679076  1
  O  O51  1  0.46502879  0.31153089  0.02878468  1
  O  O52  1  0.85318036  0.54082239  0.03122905  1
  O  O53  1  0.69184195  0.15187704  0.02969576  1
  O  O54  1  0.46068234  0.15441645  0.53212570  1
  O  O55  1  0.69417673  0.54084569  0.53199859  1
  O  O56  1  0.84637908  0.30369919  0.53206211  1
  O  O57  1  0.54055049  0.68814132  0.96768955  1
  O  O58  1  0.15346846  0.46883918  0.96899359  1
  O  O59  1  0.31250953  0.85383829  0.96749205  1
  O  O60  1  0.53985735  0.85160928  0.46901148  1
  O  O61  1  0.31399022  0.46842854  0.47039618  1
  O  O62  1  0.15403275  0.68705098  0.47062220  1
  O  O63  1  0.13006785  0.63484657  0.36297222  1
  O  O64  1  0.51331944  0.87894290  0.36560506  1
  O  O65  1  0.36785661  0.49580081  0.36307164  1
  O  O66  1  0.13309996  0.49509478  0.86180336  1
  O  O67  1  0.36365882  0.87619582  0.86406874  1
  O  O68  1  0.51331177  0.63832070  0.86415664  1
  O  O69  1  0.02294083  0.82191646  0.40959344  1
  O  O70  1  0.79471023  0.97670169  0.40971285  1
  O  O71  1  0.17051018  0.20157616  0.40768298  1
  O  O72  1  0.02732984  0.20259437  0.90638025  1
  O  O73  1  0.17913286  0.97371301  0.90756775  1
  O  O74  1  0.79384416  0.81862367  0.90920518  1
  O  O75  1  0.97683138  0.17990704  0.59239306  1
  O  O76  1  0.20601315  0.02686437  0.59250382  1
  O  O77  1  0.82071907  0.79478530  0.59141860  1
  O  O78  1  0.97586056  0.79418552  0.09028643  1
  O  O79  1  0.82240104  0.02078511  0.09359781  1
  O  O80  1  0.19827203  0.17441309  0.09303705  1
  O  O81  1  0.68979848  0.16259247  0.74302326  1
  O  O82  1  0.46474725  0.30552922  0.74284380  1
  O  O83  1  0.83161065  0.52917203  0.74319695  1
  O  O84  1  0.69659340  0.52955438  0.24499398  1
  O  O85  1  0.84358670  0.30956185  0.24444103  1
  O  O86  1  0.47275785  0.16108269  0.24590859  1
  O  O87  1  0.64123684  0.50776348  0.92222183  1
  O  O88  1  0.85896321  0.35918886  0.92185172  1
  O  O89  1  0.48952386  0.13403969  0.92132970  1
  O  O90  1  0.64112430  0.13234802  0.42501442  1
  O  O91  1  0.49395969  0.35428405  0.42448060  1
  O  O92  1  0.86066254  0.49863950  0.42475706  1
  O  O93  1  0.35581893  0.49530981  0.07578015  1
  O  O94  1  0.13389234  0.64402959  0.07672001  1
  O  O95  1  0.50081277  0.86008018  0.07505126  1
  O  O96  1  0.36042832  0.87301273  0.57489414  1
  O  O97  1  0.51320568  0.64312030  0.57499917  1
  O  O98  1  0.12839143  0.48721934  0.57569864  1
  O  O99  1  0.30693736  0.83306687  0.25567624  1
  O  O100  1  0.52729889  0.68958093  0.25553572  1
  O  O101  1  0.15703934  0.46397779  0.25484725  1
  O  O102  1  0.30823555  0.45944664  0.75736493  1
  O  O103  1  0.15737268  0.69270144  0.75793653  1
  O  O104  1  0.53318920  0.83741996  0.76029450  1
