# generated using pymatgen
data_DyVO3
_symmetry_space_group_name_H-M   'P 1'
_cell_length_a   5.25263721
_cell_length_b   5.66556438
_cell_length_c   7.54368515
_cell_angle_alpha   90.00000000
_cell_angle_beta   90.00000000
_cell_angle_gamma   90.00000000
_symmetry_Int_Tables_number   1
_chemical_formula_structural   DyVO3
_chemical_formula_sum   'Dy4 V4 O12'
_cell_volume   224.49369020
_cell_formula_units_Z   4
loop_
 _symmetry_equiv_pos_site_id
 _symmetry_equiv_pos_as_xyz
  1  'x, y, z'
loop_
 _atom_site_type_symbol
 _atom_site_label
 _atom_site_symmetry_multiplicity
 _atom_site_fract_x
 _atom_site_fract_y
 _atom_site_fract_z
 _atom_site_occupancy
  Dy  Dy0  1  0.01988119  0.07072232  0.75000000  1
  Dy  Dy1  1  0.51988119  0.42927768  0.25000000  1
  Dy  Dy2  1  0.48011881  0.57072232  0.75000000  1
  Dy  Dy3  1  0.98011881  0.92927768  0.25000000  1
  V  V4  1  0.50000000  0.00000000  0.50000000  1
  V  V5  1  0.00000000  0.50000000  0.50000000  1
  V  V6  1  0.00000000  0.50000000  -0.00000000  1
  V  V7  1  0.50000000  0.00000000  -0.00000000  1
  O  O8  1  0.69436724  0.69019535  0.44296610  1
  O  O9  1  0.19436724  0.80980465  0.55703390  1
  O  O10  1  0.80563276  0.19019535  0.05703390  1
  O  O11  1  0.30563276  0.30980465  0.94296610  1
  O  O12  1  0.30563276  0.30980465  0.55703390  1
  O  O13  1  0.80563276  0.19019535  0.44296610  1
  O  O14  1  0.19436724  0.80980465  0.94296610  1
  O  O15  1  0.69436724  0.69019535  0.05703390  1
  O  O16  1  0.11486917  0.54377162  0.25000000  1
  O  O17  1  0.61486917  0.95622838  0.75000000  1
  O  O18  1  0.38513083  0.04377162  0.25000000  1
  O  O19  1  0.88513083  0.45622838  0.75000000  1
