# generated using pymatgen
data_NaMnCl3
_symmetry_space_group_name_H-M   'P 1'
_cell_length_a   7.24814101
_cell_length_b   7.24814122
_cell_length_c   7.24814100
_cell_angle_alpha   53.94276245
_cell_angle_beta   53.94276057
_cell_angle_gamma   53.94276353
_symmetry_Int_Tables_number   1
_chemical_formula_structural   NaMnCl3
_chemical_formula_sum   'Na2 Mn2 Cl6'
_cell_volume   231.15283364
_cell_formula_units_Z   2
loop_
 _symmetry_equiv_pos_site_id
 _symmetry_equiv_pos_as_xyz
  1  'x, y, z'
loop_
 _atom_site_type_symbol
 _atom_site_label
 _atom_site_symmetry_multiplicity
 _atom_site_fract_x
 _atom_site_fract_y
 _atom_site_fract_z
 _atom_site_occupancy
  Na  Na0  1  0.85370531  0.85370531  0.85370531  1
  Na  Na1  1  0.14629469  0.14629469  0.14629469  1
  Mn  Mn2  1  0.65974494  0.65974494  0.65974494  1
  Mn  Mn3  1  0.34025506  0.34025506  0.34025506  1
  Cl  Cl4  1  0.93273891  0.55024565  0.28328025  1
  Cl  Cl5  1  0.28328025  0.93273891  0.55024565  1
  Cl  Cl6  1  0.44975435  0.71671975  0.06726109  1
  Cl  Cl7  1  0.06726109  0.44975435  0.71671975  1
  Cl  Cl8  1  0.71671975  0.06726109  0.44975435  1
  Cl  Cl9  1  0.55024565  0.28328025  0.93273891  1
