# generated using pymatgen
data_Na3Ti2In2P5SO24
_symmetry_space_group_name_H-M   'P 1'
_cell_length_a   8.82052355
_cell_length_b   8.81028086
_cell_length_c   22.49903183
_cell_angle_alpha   90.13470580
_cell_angle_beta   90.00084363
_cell_angle_gamma   119.77642612
_symmetry_Int_Tables_number   1
_chemical_formula_structural   Na3Ti2In2P5SO24
_chemical_formula_sum   'Na9 Ti6 In6 P15 S3 O72'
_cell_volume   1517.57787547
_cell_formula_units_Z   3
loop_
 _symmetry_equiv_pos_site_id
 _symmetry_equiv_pos_as_xyz
  1  'x, y, z'
loop_
 _atom_site_type_symbol
 _atom_site_label
 _atom_site_symmetry_multiplicity
 _atom_site_fract_x
 _atom_site_fract_y
 _atom_site_fract_z
 _atom_site_occupancy
  Na  Na0  1  0.00310497  0.36382702  0.75096469  1
  Na  Na1  1  0.66853251  0.95999179  0.58392245  1
  Na  Na2  1  0.04231488  0.33239551  0.08387968  1
  Na  Na3  1  0.01224217  0.99571553  0.49894727  1
  Na  Na4  1  0.00484931  0.99103580  0.99825649  1
  Na  Na5  1  0.65640184  0.32696608  0.83472379  1
  Na  Na6  1  0.67405519  0.33427686  0.33324277  1
  Na  Na7  1  0.34618721  0.67353712  0.16877099  1
  Na  Na8  1  0.33374689  0.66908395  0.66802571  1
  Ti  Ti9  1  0.97872318  0.98864130  0.35039592  1
  Ti  Ti10  1  0.00996973  0.00729083  0.84922579  1
  Ti  Ti11  1  0.66203494  0.33647377  0.68747514  1
  Ti  Ti12  1  0.67274891  0.33976350  0.18691836  1
  Ti  Ti13  1  0.66434617  0.32569122  0.98155565  1
  Ti  Ti14  1  0.67502762  0.33655607  0.48134061  1
  In  In15  1  0.00747039  0.99856249  0.64615256  1
  In  In16  1  0.99642784  0.99378065  0.14648903  1
  In  In17  1  0.33355099  0.67176662  0.01796368  1
  In  In18  1  0.32612390  0.66614143  0.51783369  1
  In  In19  1  0.32838395  0.66477883  0.31797970  1
  In  In20  1  0.33575570  0.67663423  0.81904685  1
  P  P21  1  0.70351507  0.70253893  0.24871768  1
  P  P22  1  0.99672284  0.29052858  0.24802529  1
  P  P23  1  0.29587846  0.29315064  0.74976021  1
  P  P24  1  0.99530507  0.70605598  0.74984861  1
  P  P25  1  0.70753750  -0.00010309  0.74776267  1
  P  P26  1  0.95513586  0.33850028  0.58530253  1
  P  P27  1  0.38463961  0.05410345  0.58253872  1
  P  P28  1  0.66416708  0.61604933  0.58295879  1
  P  P29  1  0.94847177  0.61798802  0.08254669  1
  P  P30  1  0.66161598  0.04607369  0.08454291  1
  P  P31  1  0.38549576  0.33483582  0.08399553  1
  P  P32  1  0.03045866  0.36271296  0.91702734  1
  P  P33  1  0.33197469  0.97001702  0.91739386  1
  P  P34  1  0.63093448  0.96680092  0.41810818  1
  P  P35  1  0.03150284  0.66920676  0.41645282  1
  S  S36  1  0.29491935  0.00553645  0.25036814  1
  S  S37  1  0.63809577  0.66824147  0.91674555  1
  S  S38  1  0.33122834  0.36039062  0.41675068  1
  O  O39  1  0.20362988  0.02336173  0.30302258  1
  O  O40  1  0.82370017  0.79941032  0.30417996  1
  O  O41  1  0.97555719  0.16553992  0.30107915  1
  O  O42  1  0.20131283  0.17226634  0.80442152  1
  O  O43  1  0.97657948  0.80388788  0.80457605  1
  O  O44  1  0.83635806  0.02915034  0.80028229  1
  O  O45  1  0.78014750  0.97501679  0.68853313  1
  O  O46  1  0.17994487  0.22105806  0.69469805  1
  O  O47  1  0.02924404  0.80965317  0.69290668  1
  O  O48  1  0.78167401  0.80975172  0.19326910  1
  O  O49  1  0.02725131  0.22061606  0.18932165  1
  O  O50  1  0.19639451  0.97827889  0.19505116  1
  O  O51  1  0.86312492  0.35152167  0.64274879  1
  O  O52  1  0.49616338  0.14799860  0.63909946  1
  O  O53  1  0.65170700  0.50867318  0.63973736  1
  O  O54  1  0.85634057  0.50669336  0.13956494  1
  O  O55  1  0.65055541  0.14388269  0.14050855  1
  O  O56  1  0.49445813  0.35031746  0.14060746  1
  O  O57  1  0.47977758  0.32066292  0.02812753  1
  O  O58  1  0.83994820  0.52092647  0.02724220  1
  O  O59  1  0.67966705  0.15777872  0.02830725  1
  O  O60  1  0.48180205  0.16071967  0.52683863  1
  O  O61  1  0.67802207  0.52052081  0.52735143  1
  O  O62  1  0.84098688  0.32100398  0.52966467  1
  O  O63  1  0.56189473  0.70244913  0.97038109  1
  O  O64  1  0.14392456  0.43723480  0.97343027  1
  O  O65  1  0.29112903  0.85357695  0.97223523  1
  O  O66  1  0.56435541  0.85751161  0.47536294  1
  O  O67  1  0.29685542  0.43653081  0.47028076  1
  O  O68  1  0.14680514  0.71174530  0.47175761  1
  O  O69  1  0.10279177  0.62240940  0.36192689  1
  O  O70  1  0.51374955  0.88606021  0.36441113  1
  O  O71  1  0.36802585  0.47206605  0.36393711  1
  O  O72  1  0.10786551  0.47589355  0.86148119  1
  O  O73  1  0.37956957  0.90122843  0.86256034  1
  O  O74  1  0.52729869  0.63217394  0.86386693  1
  O  O75  1  0.01007068  0.83250422  0.40498744  1
  O  O76  1  0.81786030  0.99032519  0.40627645  1
  O  O77  1  0.17607135  0.18492069  0.40778431  1
  O  O78  1  0.00676762  0.17690963  0.90619378  1
  O  O79  1  0.16795000  0.98988788  0.90642579  1
  O  O80  1  0.81333151  0.82439110  0.90856424  1
  O  O81  1  0.96079103  0.16600025  0.58464477  1
  O  O82  1  0.20452919  0.03843028  0.58312837  1
  O  O83  1  0.82739657  0.79968812  0.58374839  1
  O  O84  1  0.96618863  0.79882608  0.08398016  1
  O  O85  1  0.83357993  0.04014840  0.08427793  1
  O  O86  1  0.20185044  0.17096133  0.08524291  1
  O  O87  1  0.69972969  0.17430534  0.74467316  1
  O  O88  1  0.47532473  0.30336554  0.74378556  1
  O  O89  1  0.82580514  0.52194569  0.74531419  1
  O  O90  1  0.69485400  0.52158416  0.24444212  1
  O  O91  1  0.82483064  0.30083611  0.24411565  1
  O  O92  1  0.46938436  0.16760943  0.24671695  1
  O  O93  1  0.65902630  0.51215149  0.92450011  1
  O  O94  1  0.84526015  0.34059791  0.92611568  1
  O  O95  1  0.49129563  0.15662587  0.92751354  1
  O  O96  1  0.65904150  0.15426483  0.42633584  1
  O  O97  1  0.48769464  0.33999186  0.42465930  1
  O  O98  1  0.84534255  0.50863514  0.42700807  1
  O  O99  1  0.36469022  0.49911218  0.08142278  1
  O  O100  1  0.12636173  0.62346517  0.08174086  1
  O  O101  1  0.49853370  0.86607896  0.08192372  1
  O  O102  1  0.37741479  0.87512064  0.58191758  1
  O  O103  1  0.49930900  0.63459459  0.58126726  1
  O  O104  1  0.13467532  0.50149244  0.58206653  1
  O  O105  1  0.32098209  0.85196075  0.25525923  1
  O  O106  1  0.52090028  0.67813527  0.25743416  1
  O  O107  1  0.15396378  0.47378327  0.25656501  1
  O  O108  1  0.31567215  0.47414023  0.75951098  1
  O  O109  1  0.14756899  0.66823902  0.75650800  1
  O  O110  1  0.52637565  0.84252762  0.75588705  1
