# generated using pymatgen
data_Na3Sc2Ga2P3(SO8)3
_symmetry_space_group_name_H-M   'P 1'
_cell_length_a   8.73039943
_cell_length_b   8.71611646
_cell_length_c   22.58250592
_cell_angle_alpha   88.99376215
_cell_angle_beta   91.01493325
_cell_angle_gamma   120.06477113
_symmetry_Int_Tables_number   1
_chemical_formula_structural   Na3Sc2Ga2P3(SO8)3
_chemical_formula_sum   'Na9 Sc6 Ga6 P9 S9 O72'
_cell_volume   1486.91468275
_cell_formula_units_Z   3
loop_
 _symmetry_equiv_pos_site_id
 _symmetry_equiv_pos_as_xyz
  1  'x, y, z'
loop_
 _atom_site_type_symbol
 _atom_site_label
 _atom_site_symmetry_multiplicity
 _atom_site_fract_x
 _atom_site_fract_y
 _atom_site_fract_z
 _atom_site_occupancy
  Na  Na0  1  0.36218029  0.36239284  0.25156401  1
  Na  Na1  1  0.69127623  0.02358550  0.91749099  1
  Na  Na2  1  0.97311226  0.30598459  0.41648632  1
  Na  Na3  1  0.00542153  0.99500535  0.49853127  1
  Na  Na4  1  0.00456204  0.99309318  0.00260732  1
  Na  Na5  1  0.66075218  0.33779151  0.83420392  1
  Na  Na6  1  0.66637836  0.33312796  0.33319473  1
  Na  Na7  1  0.33196605  0.68228587  0.16769401  1
  Na  Na8  1  0.33313227  0.66671885  0.66664908  1
  Sc  Sc9  1  0.99970986  0.99455144  0.85292623  1
  Sc  Sc10  1  0.99194250  0.00613991  0.64604739  1
  Sc  Sc11  1  0.67362553  0.32861983  0.68569850  1
  Sc  Sc12  1  0.34253664  0.67790167  0.02134771  1
  Sc  Sc13  1  0.32175583  0.65926266  0.51672794  1
  Sc  Sc14  1  0.34694486  0.67637369  0.81674898  1
  Ga  Ga15  1  0.01917823  0.00556177  0.34864804  1
  Ga  Ga16  1  0.99850281  0.00654806  0.15122771  1
  Ga  Ga17  1  0.66983400  0.31228092  0.18585974  1
  Ga  Ga18  1  0.65970159  0.32979398  0.98456732  1
  Ga  Ga19  1  0.66822718  0.34387759  0.48070636  1
  Ga  Ga20  1  0.31329993  0.66224027  0.31643862  1
  P  P21  1  0.28926492  0.99617129  0.24813881  1
  P  P22  1  0.99802503  0.28909822  0.25117629  1
  P  P23  1  0.70472489  0.99855156  0.75073674  1
  P  P24  1  0.95392031  0.33402948  0.57998976  1
  P  P25  1  0.67641342  0.04798226  0.08436364  1
  P  P26  1  0.62686604  0.65579370  0.91979199  1
  P  P27  1  0.33693672  0.96712887  0.91872526  1
  P  P28  1  0.33818470  0.37416086  0.41423241  1
  P  P29  1  0.03531909  0.67115672  0.41479541  1
  S  S30  1  0.71069719  0.71123517  0.24976758  1
  S  S31  1  0.29451316  0.29542895  0.74956082  1
  S  S32  1  0.00082910  0.70642226  0.74932226  1
  S  S33  1  0.37746136  0.04439881  0.58112266  1
  S  S34  1  0.66660640  0.62346787  0.58190194  1
  S  S35  1  0.94928754  0.62142699  0.08550248  1
  S  S36  1  0.37587090  0.32760264  0.08608033  1
  S  S37  1  0.03793177  0.37632513  0.91829335  1
  S  S38  1  0.62484982  0.95690583  0.41484742  1
  O  O39  1  0.21479749  0.04072811  0.30312552  1
  O  O40  1  0.82050063  0.79029944  0.30344685  1
  O  O41  1  0.96621679  0.17577710  0.30859295  1
  O  O42  1  0.21305618  0.18600860  0.80320081  1
  O  O43  1  0.97899088  0.78971934  0.80273329  1
  O  O44  1  0.81254288  0.02341971  0.80839040  1
  O  O45  1  0.79671760  0.97685449  0.69668882  1
  O  O46  1  0.18779564  0.21025931  0.69582404  1
  O  O47  1  0.02563944  0.81458354  0.69567126  1
  O  O48  1  0.78838793  0.81900853  0.19564372  1
  O  O49  1  0.03783406  0.20819182  0.19724849  1
  O  O50  1  0.17116028  0.96398696  0.19278066  1
  O  O51  1  0.86790035  0.35770794  0.63489510  1
  O  O52  1  0.48138146  0.12576643  0.63550095  1
  O  O53  1  0.64059589  0.51693481  0.63590712  1
  O  O54  1  0.86634009  0.51231829  0.13924152  1
  O  O55  1  0.64116023  0.13085837  0.13804545  1
  O  O56  1  0.48597941  0.35802953  0.14062983  1
  O  O57  1  0.45669027  0.30259887  0.03257850  1
  O  O58  1  0.84242055  0.54306204  0.03070388  1
  O  O59  1  0.70439863  0.15817109  0.02600455  1
  O  O60  1  0.45943631  0.15564280  0.52750289  1
  O  O61  1  0.69116127  0.54158947  0.52838217  1
  O  O62  1  0.84134965  0.30715577  0.52246048  1
  O  O63  1  0.54118392  0.69331926  0.97237249  1
  O  O64  1  0.14648971  0.45641410  0.97122331  1
  O  O65  1  0.30605050  0.84992389  0.97344929  1
  O  O66  1  0.54740993  0.85211211  0.46873321  1
  O  O67  1  0.30046760  0.45704486  0.46751409  1
  O  O68  1  0.14986690  0.70412347  0.47030610  1
  O  O69  1  0.11526654  0.62616916  0.36118667  1
  O  O70  1  0.51384019  0.87532262  0.36131436  1
  O  O71  1  0.36881910  0.48789005  0.35669108  1
  O  O72  1  0.11749383  0.48133651  0.86392428  1
  O  O73  1  0.37233756  0.88499672  0.86397875  1
  O  O74  1  0.51572837  0.62629755  0.86289475  1
  O  O75  1  0.01334999  0.83472685  0.40562499  1
  O  O76  1  0.80578790  0.98047239  0.40934433  1
  O  O77  1  0.16420944  0.18943431  0.40797016  1
  O  O78  1  0.01418105  0.19473700  0.91326676  1
  O  O79  1  0.17632381  0.99162410  0.91180450  1
  O  O80  1  0.80962849  0.82876719  0.91291667  1
  O  O81  1  0.97302422  0.16742661  0.58449697  1
  O  O82  1  0.19892791  0.02323368  0.58611644  1
  O  O83  1  0.82966834  0.79928246  0.58631629  1
  O  O84  1  0.96946209  0.80105529  0.09039628  1
  O  O85  1  0.84533244  0.03047339  0.09191748  1
  O  O86  1  0.19853466  0.16475299  0.09089216  1
  O  O87  1  0.68584789  0.16462682  0.74602849  1
  O  O88  1  0.47232665  0.31625034  0.74472424  1
  O  O89  1  0.83766888  0.53114454  0.74530069  1
  O  O90  1  0.68643067  0.52882381  0.24392951  1
  O  O91  1  0.83493528  0.31342403  0.24377762  1
  O  O92  1  0.47467144  0.17119248  0.24117414  1
  O  O93  1  0.64949367  0.49283097  0.92795685  1
  O  O94  1  0.85776504  0.35407607  0.92296026  1
  O  O95  1  0.51124088  0.14976127  0.92544384  1
  O  O96  1  0.64737421  0.13895459  0.41971729  1
  O  O97  1  0.50153973  0.35115722  0.42354883  1
  O  O98  1  0.85190565  0.49664777  0.42216491  1
  O  O99  1  0.35418713  0.48432719  0.07984688  1
  O  O100  1  0.12564372  0.63672928  0.08050822  1
  O  O101  1  0.51023972  0.86209388  0.07977718  1
  O  O102  1  0.36451743  0.86934574  0.57681745  1
  O  O103  1  0.51074668  0.64594948  0.57602489  1
  O  O104  1  0.14014260  0.49960109  0.57702116  1
  O  O105  1  0.31354706  0.83327771  0.25767639  1
  O  O106  1  0.53029903  0.68891895  0.25525261  1
  O  O107  1  0.17133888  0.47473844  0.25734491  1
  O  O108  1  0.30617010  0.46963202  0.75411843  1
  O  O109  1  0.15642203  0.68352809  0.75536502  1
  O  O110  1  0.51993073  0.83156927  0.75328818  1
