# generated using pymatgen
data_Na14Mg4Al4Si5S7O48
_symmetry_space_group_name_H-M   'P 1'
_cell_length_a   17.80287659
_cell_length_b   8.83925988
_cell_length_c   21.83708863
_cell_angle_alpha   89.87690427
_cell_angle_beta   90.17531012
_cell_angle_gamma   119.62847611
_symmetry_Int_Tables_number   1
_chemical_formula_structural   Na14Mg4Al4Si5S7O48
_chemical_formula_sum   'Na42 Mg12 Al12 Si15 S21 O144'
_cell_volume   2987.05374690
_cell_formula_units_Z   3
loop_
 _symmetry_equiv_pos_site_id
 _symmetry_equiv_pos_as_xyz
  1  'x, y, z'
loop_
 _atom_site_type_symbol
 _atom_site_label
 _atom_site_symmetry_multiplicity
 _atom_site_fract_x
 _atom_site_fract_y
 _atom_site_fract_z
 _atom_site_occupancy
  Na  Na0  1  0.80907121  0.99832141  0.24905530  1
  Na  Na1  1  0.18500426  0.35662769  0.25246990  1
  Na  Na2  1  0.68037515  0.35300819  0.25154002  1
  Na  Na3  1  0.00582794  0.64890608  0.24738214  1
  Na  Na4  1  0.50421724  0.64400517  0.24110154  1
  Na  Na5  1  0.31887542  0.62107492  0.75125932  1
  Na  Na6  1  0.00412155  0.36411139  0.74158189  1
  Na  Na7  1  0.50410278  0.37209111  0.74684883  1
  Na  Na8  1  0.18337287  0.01141643  0.75120017  1
  Na  Na9  1  0.67613177  0.00214394  0.75139529  1
  Na  Na10  1  0.14976520  0.32523693  0.58338083  1
  Na  Na11  1  0.65333896  0.32481328  0.58188625  1
  Na  Na12  1  0.32858624  0.97511762  0.58934995  1
  Na  Na13  1  0.83315425  0.98511764  0.58529995  1
  Na  Na14  1  0.15595383  0.98504524  0.07621208  1
  Na  Na15  1  0.64853482  0.97070743  0.07784965  1
  Na  Na16  1  0.33475507  0.68245338  0.08190073  1
  Na  Na17  1  0.82592586  0.67979453  0.08334380  1
  Na  Na18  1  0.48416883  0.67515633  0.91722604  1
  Na  Na19  1  0.98829560  0.67605493  0.91520109  1
  Na  Na20  1  0.34469634  0.03556460  0.91227280  1
  Na  Na21  1  0.84390243  0.02684545  0.91312002  1
  Na  Na22  1  0.16766000  0.27994456  0.91415317  1
  Na  Na23  1  0.66619730  0.27910202  0.91574859  1
  Na  Na24  1  0.48898193  0.30236645  0.41854001  1
  Na  Na25  1  0.98506712  0.29815932  0.42913023  1
  Na  Na26  1  0.16741019  0.05607344  0.42025418  1
  Na  Na27  1  0.66688241  0.05390749  0.41817147  1
  Na  Na28  1  0.34662120  0.66021039  0.41760430  1
  Na  Na29  1  0.84282965  0.65452611  0.41707313  1
  Na  Na30  1  0.00895616  0.01244215  0.50597845  1
  Na  Na31  1  0.51069347  0.00357008  0.50432447  1
  Na  Na32  1  0.01000766  0.01833256  0.00046351  1
  Na  Na33  1  0.50911852  0.00520640  0.00217152  1
  Na  Na34  1  0.32852442  0.33324579  0.82882569  1
  Na  Na35  1  0.82112073  0.32977050  0.82912667  1
  Na  Na36  1  0.32445754  0.31603830  0.33047479  1
  Na  Na37  1  0.81885133  0.32251919  0.33491758  1
  Na  Na38  1  0.17029735  0.67055505  0.16500852  1
  Na  Na39  1  0.65612662  0.64987549  0.16280011  1
  Na  Na40  1  0.15827387  0.66245920  0.66523338  1
  Na  Na41  1  0.66301944  0.66877929  0.66935866  1
  Mg  Mg42  1  0.01286194  0.01792287  0.35122726  1
  Mg  Mg43  1  0.50929994  0.01841869  0.35075587  1
  Mg  Mg44  1  0.00763552  0.99813561  0.85032142  1
  Mg  Mg45  1  0.51312297  0.99815440  0.84723409  1
  Mg  Mg46  1  0.32839106  0.32617885  0.68424904  1
  Mg  Mg47  1  0.82272905  0.32950657  0.17982508  1
  Mg  Mg48  1  0.32698727  0.33179991  0.98684001  1
  Mg  Mg49  1  0.82276810  0.31565195  0.98313683  1
  Mg  Mg50  1  0.32284065  0.33165583  0.48561097  1
  Mg  Mg51  1  0.82644988  0.32291629  0.48857781  1
  Mg  Mg52  1  0.66434365  0.66312282  0.31476858  1
  Mg  Mg53  1  0.16654931  0.66850845  0.81342594  1
  Al  Al54  1  0.01248155  0.02286499  0.64605295  1
  Al  Al55  1  0.52261244  0.00975438  0.65680728  1
  Al  Al56  1  0.01354822  0.00997197  0.15055672  1
  Al  Al57  1  0.51360125  0.00383848  0.14457422  1
  Al  Al58  1  0.82467202  0.31622828  0.67773730  1
  Al  Al59  1  0.32539275  0.32886241  0.17685339  1
  Al  Al60  1  0.16449520  0.65617218  0.01540258  1
  Al  Al61  1  0.64521327  0.64730165  0.02301828  1
  Al  Al62  1  0.15020593  0.64326832  0.52618605  1
  Al  Al63  1  0.66075944  0.66236968  0.51950442  1
  Al  Al64  1  0.17577403  0.68506746  0.31593120  1
  Al  Al65  1  0.66514881  0.67102142  0.80934507  1
  Si  Si66  1  0.15422014  0.00033852  0.24928356  1
  Si  Si67  1  0.64898128  0.99858485  0.25116100  1
  Si  Si68  1  0.14714842  0.29881237  0.75144427  1
  Si  Si69  1  0.65606214  0.30975031  0.74968690  1
  Si  Si70  1  0.49828153  0.69908200  0.75289639  1
  Si  Si71  1  0.97573519  0.32932420  0.58552012  1
  Si  Si72  1  0.18155613  0.02342153  0.58218712  1
  Si  Si73  1  0.68063727  0.02387372  0.58182968  1
  Si  Si74  1  0.47558427  0.62149787  0.08566651  1
  Si  Si75  1  0.18054089  0.33712935  0.08327958  1
  Si  Si76  1  0.68081498  0.34109972  0.08215237  1
  Si  Si77  1  0.16818995  0.95594057  0.91874356  1
  Si  Si78  1  0.66801232  0.94682178  0.91714907  1
  Si  Si79  1  0.16730905  0.38987951  0.41580923  1
  Si  Si80  1  0.66841762  0.38055612  0.41816220  1
  S  S81  1  0.35310341  0.71134283  0.25110786  1
  S  S82  1  0.85978173  0.71727397  0.24871812  1
  S  S83  1  0.99961464  0.29028677  0.24918845  1
  S  S84  1  0.49342337  0.28261683  0.24816349  1
  S  S85  1  0.99378844  0.70479367  0.74805481  1
  S  S86  1  0.35835248  0.99934260  0.74890194  1
  S  S87  1  0.85481480  0.99721948  0.75030939  1
  S  S88  1  0.48137167  0.33535325  0.58175620  1
  S  S89  1  0.33674220  0.63884433  0.58243194  1
  S  S90  1  0.83487275  0.62910235  0.58375539  1
  S  S91  1  0.98148009  0.62796586  0.08445428  1
  S  S92  1  0.33558254  0.04166628  0.08435810  1
  S  S93  1  0.83956527  0.03836344  0.08500799  1
  S  S94  1  0.31110851  0.66892870  0.91774616  1
  S  S95  1  0.81073787  0.66855523  0.91631422  1
  S  S96  1  0.02001944  0.37714665  0.91835034  1
  S  S97  1  0.52225330  0.37809124  0.91564013  1
  S  S98  1  0.31200626  0.95520525  0.41634127  1
  S  S99  1  0.81236533  0.95562140  0.41589497  1
  S  S100  1  0.02359031  0.66639650  0.41485231  1
  S  S101  1  0.51978874  0.66326419  0.41781804  1
  O  O102  1  0.11529400  0.04529397  0.30922983  1
  O  O103  1  0.60911496  0.03284008  0.31268101  1
  O  O104  1  0.40440558  0.79144702  0.30692563  1
  O  O105  1  0.91001076  0.80047794  0.30495364  1
  O  O106  1  0.48192497  0.18807365  0.30665930  1
  O  O107  1  0.98217338  0.18509688  0.30580774  1
  O  O108  1  0.10616380  0.18567876  0.81315046  1
  O  O109  1  0.61777632  0.18708602  0.80985777  1
  O  O110  1  0.47304843  0.76839512  0.81383578  1
  O  O111  1  0.98181644  0.77534917  0.80650859  1
  O  O112  1  0.40886411  0.02144829  0.80569345  1
  O  O113  1  0.90650681  0.02199932  0.80626045  1
  O  O114  1  0.40225357  0.97762871  0.69389234  1
  O  O115  1  0.89609542  0.97340175  0.69506204  1
  O  O116  1  0.08209706  0.20067913  0.69278792  1
  O  O117  1  0.58819615  0.22062615  0.69051038  1
  O  O118  1  0.00490891  0.82252620  0.69589342  1
  O  O119  1  0.51775447  0.83633427  0.69647020  1
  O  O120  1  0.39322675  0.81650625  0.19566280  1
  O  O121  1  0.90313151  0.83001341  0.19386740  1
  O  O122  1  0.01182800  0.19706118  0.19681293  1
  O  O123  1  0.50504363  0.18830607  0.19614337  1
  O  O124  1  0.08434027  0.95309717  0.19158582  1
  O  O125  1  0.58451766  0.96984767  0.19272403  1
  O  O126  1  0.44230281  0.36107978  0.63636179  1
  O  O127  1  0.92590909  0.35538185  0.64426513  1
  O  O128  1  0.24641447  0.10397737  0.64066648  1
  O  O129  1  0.74638343  0.11428038  0.64061772  1
  O  O130  1  0.32224299  0.52624527  0.63592492  1
  O  O131  1  0.81746330  0.50643611  0.63521291  1
  O  O132  1  0.42674057  0.49747740  0.14559746  1
  O  O133  1  0.94187176  0.52384802  0.14011372  1
  O  O134  1  0.31756392  0.12823391  0.13629089  1
  O  O135  1  0.82689489  0.12378433  0.13938316  1
  O  O136  1  0.24544905  0.37713005  0.14296730  1
  O  O137  1  0.74321240  0.39351924  0.14280296  1
  O  O138  1  0.21692908  0.28609066  0.02409463  1
  O  O139  1  0.72217340  0.29120366  0.02453516  1
  O  O140  1  0.41987347  0.54658656  0.02381879  1
  O  O141  1  0.92854946  0.54716222  0.02927224  1
  O  O142  1  0.34994203  0.13936810  0.02738106  1
  O  O143  1  0.85580635  0.14565033  0.02926928  1
  O  O144  1  0.21892253  0.14914668  0.52182650  1
  O  O145  1  0.71727745  0.14401233  0.52156410  1
  O  O146  1  0.35230326  0.56337105  0.52606995  1
  O  O147  1  0.85013806  0.56140393  0.52616667  1
  O  O148  1  0.42950172  0.31435181  0.52551047  1
  O  O149  1  0.92179198  0.29652092  0.52248322  1
  O  O150  1  0.26593138  0.68546156  0.97358502  1
  O  O151  1  0.77269054  0.69348507  0.97261536  1
  O  O152  1  0.07932042  0.46017977  0.97179438  1
  O  O153  1  0.57817972  0.45813863  0.97046413  1
  O  O154  1  0.15514448  0.82621050  0.97907453  1
  O  O155  1  0.65791082  0.82601067  0.97791027  1
  O  O156  1  0.27239915  0.85052365  0.47128859  1
  O  O157  1  0.76970910  0.84818159  0.47124147  1
  O  O158  1  0.15661587  0.49128253  0.47526946  1
  O  O159  1  0.65620702  0.48665619  0.47703746  1
  O  O160  1  0.07927887  0.69655272  0.46931286  1
  O  O161  1  0.57894330  0.69701552  0.47097470  1
  O  O162  1  0.06588117  0.64543772  0.35863459  1
  O  O163  1  0.55729805  0.63829227  0.36120665  1
  O  O164  1  0.25459889  0.87673553  0.36153067  1
  O  O165  1  0.75940766  0.87749846  0.36025435  1
  O  O166  1  0.17864258  0.51042046  0.35426955  1
  O  O167  1  0.68305844  0.49226665  0.35568873  1
  O  O168  1  0.05767013  0.47774718  0.86205071  1
  O  O169  1  0.56439002  0.48413489  0.86023818  1
  O  O170  1  0.18138232  0.86939481  0.85734072  1
  O  O171  1  0.68230525  0.85040002  0.85749015  1
  O  O172  1  0.25797835  0.64129075  0.86259981  1
  O  O173  1  0.75385086  0.63502758  0.86226932  1
  O  O174  1  0.01114372  0.82087771  0.41031859  1
  O  O175  1  0.50587926  0.81564265  0.41438915  1
  O  O176  1  0.39723234  0.96512503  0.40806432  1
  O  O177  1  0.89836377  0.96536063  0.41145866  1
  O  O178  1  0.08013575  0.19636461  0.41536419  1
  O  O179  1  0.57883906  0.18882936  0.41913319  1
  O  O180  1  0.00584183  0.19698231  0.91535796  1
  O  O181  1  0.51024381  0.19972767  0.91144441  1
  O  O182  1  0.07846214  0.96891909  0.91961900  1
  O  O183  1  0.58197379  0.96981645  0.91782120  1
  O  O184  1  0.39510472  0.83210812  0.91638308  1
  O  O185  1  0.89729003  0.82927755  0.90934662  1
  O  O186  1  0.48818625  0.17306124  0.58620687  1
  O  O187  1  0.98364964  0.14900160  0.59318987  1
  O  O188  1  0.08567238  0.00635886  0.59286397  1
  O  O189  1  0.58709782  0.01707191  0.59252419  1
  O  O190  1  0.40997586  0.81800688  0.58956581  1
  O  O191  1  0.90836864  0.80545114  0.59438817  1
  O  O192  1  0.48440488  0.81843941  0.09426955  1
  O  O193  1  0.98646473  0.80473583  0.08970747  1
  O  O194  1  0.40969213  0.01302576  0.09573714  1
  O  O195  1  0.91452346  0.00721378  0.09360901  1
  O  O196  1  0.08557740  0.16040579  0.09540885  1
  O  O197  1  0.58568999  0.16606309  0.09211481  1
  O  O198  1  0.34916391  0.15648348  0.74420730  1
  O  O199  1  0.84664884  0.15908402  0.74555322  1
  O  O200  1  0.24214280  0.31585922  0.74465447  1
  O  O201  1  0.74916407  0.31614524  0.73524491  1
  O  O202  1  0.41894715  0.50372558  0.74143089  1
  O  O203  1  0.91950307  0.52690432  0.74165821  1
  O  O204  1  0.34474975  0.53354624  0.24708289  1
  O  O205  1  0.85493096  0.54479325  0.24433400  1
  O  O206  1  0.41853227  0.31121324  0.24205268  1
  O  O207  1  0.92541334  0.31970798  0.24068121  1
  O  O208  1  0.24816812  0.17624285  0.23567883  1
  O  O209  1  0.74646104  0.17066883  0.24519472  1
  O  O210  1  0.32328011  0.51535587  0.92217829  1
  O  O211  1  0.82631533  0.51680564  0.92093458  1
  O  O212  1  0.43689062  0.36625515  0.92137716  1
  O  O213  1  0.93547802  0.36908300  0.92726174  1
  O  O214  1  0.25498571  0.14959103  0.92258915  1
  O  O215  1  0.75568774  0.14145393  0.91746880  1
  O  O216  1  0.32566318  0.13532360  0.41991481  1
  O  O217  1  0.82486817  0.13399805  0.41977385  1
  O  O218  1  0.25463490  0.36979205  0.41608142  1
  O  O219  1  0.75552836  0.36053977  0.42228235  1
  O  O220  1  0.43473777  0.50307110  0.42571402  1
  O  O221  1  0.93792759  0.50874921  0.41899494  1
  O  O222  1  0.17646939  0.52034396  0.07364481  1
  O  O223  1  0.67671508  0.52110718  0.06944242  1
  O  O224  1  0.07083739  0.65613685  0.07950684  1
  O  O225  1  0.57551595  0.65751917  0.08129619  1
  O  O226  1  0.25534102  0.86420083  0.08040443  1
  O  O227  1  0.76006981  0.86626516  0.07928277  1
  O  O228  1  0.17773933  0.83493438  0.56945703  1
  O  O229  1  0.67667913  0.83284592  0.57256930  1
  O  O230  1  0.25544510  0.65018129  0.57564743  1
  O  O231  1  0.75399193  0.64497697  0.57885739  1
  O  O232  1  0.07597006  0.49244996  0.58159625  1
  O  O233  1  0.57164704  0.48892986  0.57650313  1
  O  O234  1  0.15680229  0.81477874  0.25904479  1
  O  O235  1  0.65752948  0.82102932  0.25212290  1
  O  O236  1  0.26312993  0.68641909  0.25522603  1
  O  O237  1  0.77166435  0.69466868  0.25047429  1
  O  O238  1  0.08022924  0.46305570  0.25301625  1
  O  O239  1  0.57430426  0.45757137  0.25094270  1
  O  O240  1  0.15605447  0.49322526  0.75237800  1
  O  O241  1  0.66113887  0.49912426  0.75940077  1
  O  O242  1  0.07508337  0.69301725  0.75082350  1
  O  O243  1  0.59028250  0.69302158  0.75712404  1
  O  O244  1  0.27081916  0.84241111  0.75133978  1
  O  O245  1  0.76631480  0.84418985  0.75430660  1
