# generated using pymatgen
data_Na2MgSn3P4(SO12)2
_symmetry_space_group_name_H-M   'P 1'
_cell_length_a   8.71180496
_cell_length_b   8.71676037
_cell_length_c   22.86063543
_cell_angle_alpha   89.94889173
_cell_angle_beta   89.85089116
_cell_angle_gamma   119.95708198
_symmetry_Int_Tables_number   1
_chemical_formula_structural   Na2MgSn3P4(SO12)2
_chemical_formula_sum   'Na6 Mg3 Sn9 P12 S6 O72'
_cell_volume   1504.06628945
_cell_formula_units_Z   3
loop_
 _symmetry_equiv_pos_site_id
 _symmetry_equiv_pos_as_xyz
  1  'x, y, z'
loop_
 _atom_site_type_symbol
 _atom_site_label
 _atom_site_symmetry_multiplicity
 _atom_site_fract_x
 _atom_site_fract_y
 _atom_site_fract_z
 _atom_site_occupancy
  Na  Na0  1  0.00070516  0.99482957  0.50401934  1
  Na  Na1  1  0.00518925  0.99919554  0.00214968  1
  Na  Na2  1  0.66263569  0.32852917  0.83183335  1
  Na  Na3  1  0.66698433  0.33341383  0.33786218  1
  Na  Na4  1  0.32931575  0.66191225  0.16880834  1
  Na  Na5  1  0.34229789  0.66968251  0.66483748  1
  Mg  Mg6  1  0.99891923  0.00021232  0.64582042  1
  Mg  Mg7  1  0.00638541  0.99925155  0.14580205  1
  Mg  Mg8  1  0.33353653  0.66755478  0.31973239  1
  Sn  Sn9  1  0.00117614  0.00028728  0.35564889  1
  Sn  Sn10  1  0.00083325  0.00614382  0.85059018  1
  Sn  Sn11  1  0.65248669  0.32377526  0.68400796  1
  Sn  Sn12  1  0.66834915  0.34040465  0.18424663  1
  Sn  Sn13  1  0.66508198  0.33787515  0.97984271  1
  Sn  Sn14  1  0.66133006  0.33487238  0.48032910  1
  Sn  Sn15  1  0.32784916  0.66046452  0.01794104  1
  Sn  Sn16  1  0.34021407  0.67168821  0.51679565  1
  Sn  Sn17  1  0.33890409  0.66703715  0.81386876  1
  P  P18  1  0.28813378  0.28982968  0.74840846  1
  P  P19  1  0.71113069  0.00173772  0.74794128  1
  P  P20  1  0.36830467  0.03713162  0.58256421  1
  P  P21  1  0.66971241  0.62888826  0.58342083  1
  P  P22  1  0.95954946  0.62891645  0.08303254  1
  P  P23  1  0.37096871  0.33095406  0.08314656  1
  P  P24  1  0.62734299  0.67016998  0.91683557  1
  P  P25  1  0.04058385  0.37432850  0.91608762  1
  P  P26  1  0.33186114  0.95704499  0.91659198  1
  P  P27  1  0.62301310  0.95945932  0.41448800  1
  P  P28  1  0.33406608  0.37966913  0.41487423  1
  P  P29  1  0.04345990  0.66331618  0.41541829  1
  S  S30  1  0.29106095  0.99682071  0.24845044  1
  S  S31  1  0.70743702  0.71241506  0.24867357  1
  S  S32  1  0.00236445  0.29231357  0.24806715  1
  S  S33  1  0.99935222  0.70827285  0.74895699  1
  S  S34  1  0.95873733  0.33248903  0.58339774  1
  S  S35  1  0.66851267  0.04078912  0.08336309  1
  O  O36  1  0.21772849  0.03563946  0.30258828  1
  O  O37  1  0.81900558  0.78568737  0.30263477  1
  O  O38  1  0.96479732  0.18142904  0.30246291  1
  O  O39  1  0.21833825  0.18145998  0.80672972  1
  O  O40  1  0.96675722  0.77988787  0.80458917  1
  O  O41  1  0.81505263  0.03336874  0.80672336  1
  O  O42  1  0.79325000  0.96930001  0.69512531  1
  O  O43  1  0.17696015  0.20639704  0.69525308  1
  O  O44  1  0.02886770  0.81700151  0.69759821  1
  O  O45  1  0.79348757  0.81764071  0.19653714  1
  O  O46  1  0.02198244  0.20574526  0.19624470  1
  O  O47  1  0.18483954  0.97649893  0.19684363  1
  O  O48  1  0.88219275  0.36948832  0.63708096  1
  O  O49  1  0.48899223  0.11118753  0.63778115  1
  O  O50  1  0.63148664  0.51025366  0.63920917  1
  O  O51  1  0.88349184  0.50727299  0.13839322  1
  O  O52  1  0.63044032  0.11681312  0.13683588  1
  O  O53  1  0.48998009  0.37085427  0.13855238  1
  O  O54  1  0.45516616  0.29833409  0.02817919  1
  O  O55  1  0.84619405  0.54190054  0.02796366  1
  O  O56  1  0.69753119  0.14987648  0.02997923  1
  O  O57  1  0.45654856  0.15234872  0.52776356  1
  O  O58  1  0.70087464  0.54432321  0.52833743  1
  O  O59  1  0.85003315  0.30429546  0.53014133  1
  O  O60  1  0.54916992  0.70485373  0.97286540  1
  O  O61  1  0.15228726  0.44961495  0.97201462  1
  O  O62  1  0.29949632  0.84579049  0.97293791  1
  O  O63  1  0.55400623  0.85068448  0.47177336  1
  O  O64  1  0.29656476  0.45066312  0.47239330  1
  O  O65  1  0.15212813  0.69950373  0.47261432  1
  O  O66  1  0.12118859  0.63484092  0.36042831  1
  O  O67  1  0.51436918  0.88092999  0.36025047  1
  O  O68  1  0.36383919  0.48729255  0.36025431  1
  O  O69  1  0.11967433  0.49050247  0.86138631  1
  O  O70  1  0.36661150  0.87778658  0.86152317  1
  O  O71  1  0.51235192  0.63177203  0.86224526  1
  O  O72  1  0.02147259  0.83147722  0.41103862  1
  O  O73  1  0.81191107  0.97958966  0.41025103  1
  O  O74  1  0.16676976  0.18970094  0.41096543  1
  O  O75  1  0.02272155  0.18954891  0.91144220  1
  O  O76  1  0.16455346  0.97461542  0.91051207  1
  O  O77  1  0.81314858  0.83503875  0.91047463  1
  O  O78  1  0.97564171  0.17586985  0.58982908  1
  O  O79  1  0.18975830  0.02300247  0.58989934  1
  O  O80  1  0.83127041  0.80986079  0.58984556  1
  O  O81  1  0.97396350  0.80764072  0.09009793  1
  O  O82  1  0.82481176  0.02364356  0.09072658  1
  O  O83  1  0.18943406  0.17036731  0.09007194  1
  O  O84  1  0.69256938  0.17202076  0.74464582  1
  O  O85  1  0.47981234  0.31551513  0.74641659  1
  O  O86  1  0.84027862  0.52712430  0.74449312  1
  O  O87  1  0.69237036  0.52885211  0.24538322  1
  O  O88  1  0.83307020  0.30632354  0.24400522  1
  O  O89  1  0.47475708  0.16418657  0.24375803  1
  O  O90  1  0.64375232  0.50180181  0.92176475  1
  O  O91  1  0.85471353  0.35513936  0.92279286  1
  O  O92  1  0.50077595  0.14175946  0.92295676  1
  O  O93  1  0.64764057  0.14766227  0.42259875  1
  O  O94  1  0.49873323  0.35587251  0.42111551  1
  O  O95  1  0.85562815  0.49811397  0.42286050  1
  O  O96  1  0.36399779  0.50644023  0.07774601  1
  O  O97  1  0.14552757  0.64301361  0.07806726  1
  O  O98  1  0.50376076  0.86400400  0.07781539  1
  O  O99  1  0.35568794  0.85209474  0.57734218  1
  O  O100  1  0.49386484  0.63563315  0.57782029  1
  O  O101  1  0.13586252  0.49688176  0.57777936  1
  O  O102  1  0.31267083  0.84223136  0.25542254  1
  O  O103  1  0.53046577  0.68927466  0.25543505  1
  O  O104  1  0.15639146  0.46879196  0.25491532  1
  O  O105  1  0.30689416  0.47715088  0.75595974  1
  O  O106  1  0.16093152  0.69033408  0.75609098  1
  O  O107  1  0.52091527  0.83650665  0.75557146  1
