# generated using pymatgen
data_Ga3Te3I
_symmetry_space_group_name_H-M   'P 1'
_cell_length_a   4.13590214
_cell_length_b   11.37809035
_cell_length_c   20.13064028
_cell_angle_alpha   90.00000000
_cell_angle_beta   90.00000000
_cell_angle_gamma   90.00000000
_symmetry_Int_Tables_number   1
_chemical_formula_structural   Ga3Te3I
_chemical_formula_sum   'Ga12 Te12 I4'
_cell_volume   947.32112215
_cell_formula_units_Z   4
loop_
 _symmetry_equiv_pos_site_id
 _symmetry_equiv_pos_as_xyz
  1  'x, y, z'
loop_
 _atom_site_type_symbol
 _atom_site_label
 _atom_site_symmetry_multiplicity
 _atom_site_fract_x
 _atom_site_fract_y
 _atom_site_fract_z
 _atom_site_occupancy
  Ga  Ga0  1  0.75000000  0.33556040  0.86806325  1
  Ga  Ga1  1  0.25000000  0.66443960  0.13193675  1
  Ga  Ga2  1  0.75000000  0.83556040  0.63193675  1
  Ga  Ga3  1  0.25000000  0.16443960  0.36806325  1
  Ga  Ga4  1  0.25000000  0.17131057  0.00473958  1
  Ga  Ga5  1  0.75000000  0.82868943  0.99526042  1
  Ga  Ga6  1  0.25000000  0.67131057  0.49526042  1
  Ga  Ga7  1  0.75000000  0.32868943  0.50473958  1
  Ga  Ga8  1  0.25000000  0.05764200  0.90214389  1
  Ga  Ga9  1  0.75000000  0.94235800  0.09785611  1
  Ga  Ga10  1  0.25000000  0.55764200  0.59785611  1
  Ga  Ga11  1  0.75000000  0.44235800  0.40214389  1
  Te  Te12  1  0.25000000  0.22817201  0.81061759  1
  Te  Te13  1  0.75000000  0.77182799  0.18938241  1
  Te  Te14  1  0.25000000  0.72817201  0.68938241  1
  Te  Te15  1  0.75000000  0.27182799  0.31061759  1
  Te  Te16  1  0.75000000  0.91666677  0.87287857  1
  Te  Te17  1  0.25000000  0.08333323  0.12712143  1
  Te  Te18  1  0.75000000  0.41666677  0.62712143  1
  Te  Te19  1  0.25000000  0.58333323  0.37287857  1
  Te  Te20  1  0.75000000  0.32324104  -0.00066166  1
  Te  Te21  1  0.25000000  0.67675896  0.00066166  1
  Te  Te22  1  0.75000000  0.82324104  0.50066166  1
  Te  Te23  1  0.25000000  0.17675896  0.49933834  1
  I  I24  1  0.75000000  0.54953199  0.83114822  1
  I  I25  1  0.25000000  0.45046801  0.16885178  1
  I  I26  1  0.75000000  0.04953199  0.66885178  1
  I  I27  1  0.25000000  0.95046801  0.33114822  1
