# generated using pymatgen
data_Na3TiAlSi(PO6)2
_symmetry_space_group_name_H-M   'P 1'
_cell_length_a   8.74465909
_cell_length_b   8.74465881
_cell_length_c   21.78001705
_cell_angle_alpha   90.14927830
_cell_angle_beta   89.85072170
_cell_angle_gamma   120.12650912
_symmetry_Int_Tables_number   1
_chemical_formula_structural   Na3TiAlSi(PO6)2
_chemical_formula_sum   'Na18 Ti6 Al6 Si6 P12 O72'
_cell_volume   1440.51435413
_cell_formula_units_Z   6
loop_
 _symmetry_equiv_pos_site_id
 _symmetry_equiv_pos_as_xyz
  1  'x, y, z'
loop_
 _atom_site_type_symbol
 _atom_site_label
 _atom_site_symmetry_multiplicity
 _atom_site_fract_x
 _atom_site_fract_y
 _atom_site_fract_z
 _atom_site_occupancy
  Na  Na0  1  0.00098318  0.99743907  0.49819462  1
  Na  Na1  1  0.00256093  0.99901682  0.99819462  1
  Na  Na2  1  0.66697566  0.32960020  0.83168284  1
  Na  Na3  1  0.67039980  0.33302434  0.33168284  1
  Na  Na4  1  0.34798606  0.67521728  0.16491935  1
  Na  Na5  1  0.32478272  0.65201394  0.66491935  1
  Na  Na6  1  0.36298701  0.36516078  0.24881023  1
  Na  Na7  1  0.99528943  0.62893377  0.24774750  1
  Na  Na8  1  0.63483922  0.63701299  0.74881023  1
  Na  Na9  1  0.37106623  0.00471057  0.74774750  1
  Na  Na10  1  0.03568475  0.70088846  0.58154591  1
  Na  Na11  1  0.66073556  0.96527406  0.58397818  1
  Na  Na12  1  0.29911154  0.96431525  0.08154591  1
  Na  Na13  1  0.03472594  0.33926444  0.08397818  1
  Na  Na14  1  0.96982333  0.66851023  0.91741989  1
  Na  Na15  1  0.70013453  0.03193673  0.91424372  1
  Na  Na16  1  0.96806327  0.29986547  0.41424372  1
  Na  Na17  1  0.33148977  0.03017667  0.41741989  1
  Ti  Ti18  1  0.00620512  0.00821906  0.64746885  1
  Ti  Ti19  1  0.99178094  0.99379488  0.14746885  1
  Ti  Ti20  1  0.66235612  0.33664844  0.98050238  1
  Ti  Ti21  1  0.66335156  0.33764388  0.48050238  1
  Ti  Ti22  1  0.32414863  0.66190827  0.31392757  1
  Ti  Ti23  1  0.33809173  0.67585137  0.81392757  1
  Al  Al24  1  0.99152791  0.99307600  0.35273287  1
  Al  Al25  1  0.00692400  0.00847209  0.85273287  1
  Al  Al26  1  0.67150163  0.32702940  0.68587050  1
  Al  Al27  1  0.67297060  0.32849837  0.18587050  1
  Al  Al28  1  0.33021572  0.66863162  0.01896701  1
  Al  Al29  1  0.33136838  0.66978428  0.51896701  1
  Si  Si30  1  0.98803118  0.28010338  0.25212849  1
  Si  Si31  1  0.71989662  0.01196882  0.75212849  1
  Si  Si32  1  0.37722136  0.04255362  0.58453748  1
  Si  Si33  1  0.95744638  0.62277864  0.08453748  1
  Si  Si34  1  0.32702426  0.96041189  0.91832680  1
  Si  Si35  1  0.03958811  0.67297574  0.41832680  1
  P  P36  1  0.29434423  0.00571569  0.25054911  1
  P  P37  1  0.71010033  0.71051629  0.25156341  1
  P  P38  1  0.28948371  0.28989967  0.75156341  1
  P  P39  1  0.99428431  0.70565577  0.75054911  1
  P  P40  1  0.95871613  0.33779318  0.58351788  1
  P  P41  1  0.65773260  0.61600988  0.58576288  1
  P  P42  1  0.66220682  0.04128387  0.08351788  1
  P  P43  1  0.38399012  0.34226740  0.08576288  1
  P  P44  1  0.61836054  0.66636604  0.91776017  1
  P  P45  1  0.05122841  0.37609169  0.91804884  1
  P  P46  1  0.62390831  0.94877159  0.41804884  1
  P  P47  1  0.33363396  0.38163946  0.41776017  1
  O  O48  1  0.20876881  0.03686054  0.30771918  1
  O  O49  1  0.83471630  0.79587288  0.30621034  1
  O  O50  1  0.97281108  0.16630904  0.31231461  1
  O  O51  1  0.20412712  0.16528370  0.80621034  1
  O  O52  1  0.96313946  0.79123119  0.80771918  1
  O  O53  1  0.83369096  0.02718892  0.81231461  1
  O  O54  1  0.80181770  0.96579978  0.69066576  1
  O  O55  1  0.17224683  0.19997225  0.69365614  1
  O  O56  1  0.03496728  0.82724719  0.69288108  1
  O  O57  1  0.80002775  0.82775317  0.19365614  1
  O  O58  1  0.03420022  0.19818230  0.19066576  1
  O  O59  1  0.17275281  0.96503272  0.19288108  1
  O  O60  1  0.87285000  0.37433913  0.63883539  1
  O  O61  1  0.50373092  0.13410176  0.64326666  1
  O  O62  1  0.63691903  0.50741972  0.64324642  1
  O  O63  1  0.86589824  0.49626908  0.14326666  1
  O  O64  1  0.62566087  0.12715000  0.13883539  1
  O  O65  1  0.49258028  0.36308097  0.14324642  1
  O  O66  1  0.46840589  0.30160107  0.02895564  1
  O  O67  1  0.83582670  0.53209027  0.02264270  1
  O  O68  1  0.69987414  0.15921886  0.02527944  1
  O  O69  1  0.46790973  0.16417330  0.52264270  1
  O  O70  1  0.69839893  0.53159411  0.52895564  1
  O  O71  1  0.84078114  0.30012586  0.52527944  1
  O  O72  1  0.52729994  0.69721877  0.97267083  1
  O  O73  1  0.15947997  0.45953831  0.97675802  1
  O  O74  1  0.29462265  0.83265308  0.97677864  1
  O  O75  1  0.54046169  0.84052003  0.47675802  1
  O  O76  1  0.30278123  0.47270006  0.47267083  1
  O  O77  1  0.16734692  0.70537735  0.47677864  1
  O  O78  1  0.13117434  0.63228014  0.35745437  1
  O  O79  1  0.50063136  0.86203408  0.36222485  1
  O  O80  1  0.36405179  0.49114881  0.35809473  1
  O  O81  1  0.13796592  0.49936864  0.86222485  1
  O  O82  1  0.36771986  0.86882566  0.85745437  1
  O  O83  1  0.50885119  0.63594821  0.85809473  1
  O  O84  1  0.03002231  0.85106378  0.40759506  1
  O  O85  1  0.81165488  0.97689094  0.41106215  1
  O  O86  1  0.16788066  0.19479558  0.41209004  1
  O  O87  1  0.02310906  0.18834512  0.91106215  1
  O  O88  1  0.14893622  0.96997769  0.90759506  1
  O  O89  1  0.80520442  0.83211934  0.91209004  1
  O  O90  1  0.96902726  0.16578959  0.58937799  1
  O  O91  1  0.17619781  0.01382270  0.58873791  1
  O  O92  1  0.82780633  0.80390535  0.58850815  1
  O  O93  1  0.98617730  0.82380219  0.08873791  1
  O  O94  1  0.83421041  0.03097274  0.08937799  1
  O  O95  1  0.19609465  0.17219367  0.08850815  1
  O  O96  1  0.68712154  0.17761019  0.74474087  1
  O  O97  1  0.47590689  0.31277254  0.74362417  1
  O  O98  1  0.82570964  0.52535338  0.74163259  1
  O  O99  1  0.68722746  0.52409311  0.24362417  1
  O  O100  1  0.82238981  0.31287846  0.24474087  1
  O  O101  1  0.47464662  0.17429036  0.24163259  1
  O  O102  1  0.64319715  0.50243894  0.92181926  1
  O  O103  1  0.86333992  0.35851086  0.92176561  1
  O  O104  1  0.51184242  0.15056460  0.92254456  1
  O  O105  1  0.64148914  0.13666008  0.42176561  1
  O  O106  1  0.49756106  0.35680285  0.42181926  1
  O  O107  1  0.84943540  0.48815758  0.42254456  1
  O  O108  1  0.36083683  0.50365516  0.07628221  1
  O  O109  1  0.15382588  0.64190479  0.07739258  1
  O  O110  1  0.49817729  0.85656982  0.07579693  1
  O  O111  1  0.35809521  0.84617412  0.57739258  1
  O  O112  1  0.49634484  0.63916317  0.57628221  1
  O  O113  1  0.14343018  0.50182271  0.57579693  1
  O  O114  1  0.30979125  0.83693311  0.25589142  1
  O  O115  1  0.52563197  0.69134430  0.25574392  1
  O  O116  1  0.17254551  0.48105763  0.25553329  1
  O  O117  1  0.30865570  0.47436803  0.75574392  1
  O  O118  1  0.16306689  0.69020875  0.75589142  1
  O  O119  1  0.51894237  0.82745449  0.75553329  1
