# generated using pymatgen
data_Na10Sc4Ta4Si9(SO16)3
_symmetry_space_group_name_H-M   'P 1'
_cell_length_a   18.14085494
_cell_length_b   9.05258002
_cell_length_c   22.69843618
_cell_angle_alpha   90.02062856
_cell_angle_beta   89.52238762
_cell_angle_gamma   119.86083872
_symmetry_Int_Tables_number   1
_chemical_formula_structural   Na10Sc4Ta4Si9(SO16)3
_chemical_formula_sum   'Na30 Sc12 Ta12 Si27 S9 O144'
_cell_volume   3232.54627954
_cell_formula_units_Z   3
loop_
 _symmetry_equiv_pos_site_id
 _symmetry_equiv_pos_as_xyz
  1  'x, y, z'
loop_
 _atom_site_type_symbol
 _atom_site_label
 _atom_site_symmetry_multiplicity
 _atom_site_fract_x
 _atom_site_fract_y
 _atom_site_fract_z
 _atom_site_occupancy
  Na  Na0  1  0.18556636  0.36347162  0.24430040  1
  Na  Na1  1  0.68545002  0.36391755  0.24393181  1
  Na  Na2  1  0.18605199  0.00817952  0.74369367  1
  Na  Na3  1  0.68423290  0.00495540  0.74408511  1
  Na  Na4  1  0.65231083  0.34349140  0.58033269  1
  Na  Na5  1  0.02118019  0.70237758  0.57698389  1
  Na  Na6  1  0.51839439  0.68854564  0.58087657  1
  Na  Na7  1  0.32567110  0.96984662  0.58539409  1
  Na  Na8  1  0.15331236  0.96295403  0.08042931  1
  Na  Na9  1  0.65323570  0.96273628  0.08029983  1
  Na  Na10  1  0.32651640  0.68591907  0.08400454  1
  Na  Na11  1  0.82660094  0.68630096  0.08395721  1
  Na  Na12  1  0.01989772  0.34895816  0.08094067  1
  Na  Na13  1  0.51982344  0.34912279  0.08086390  1
  Na  Na14  1  0.48936959  0.67577737  0.91388201  1
  Na  Na15  1  0.98938014  0.67596960  0.91453437  1
  Na  Na16  1  0.35200299  0.66616839  0.41100363  1
  Na  Na17  1  0.85222480  0.67353654  0.41033665  1
  Na  Na18  1  0.01318953  0.01926442  0.49380069  1
  Na  Na19  1  0.51147802  0.01042033  0.49275351  1
  Na  Na20  1  0.00824662  0.02147771  0.99203934  1
  Na  Na21  1  0.50836161  0.02172613  0.99184625  1
  Na  Na22  1  0.34130313  0.33166050  0.82783166  1
  Na  Na23  1  0.84086898  0.33032663  0.82932785  1
  Na  Na24  1  0.34438970  0.34006511  0.32934648  1
  Na  Na25  1  0.84547314  0.33890129  0.32683388  1
  Na  Na26  1  0.16737893  0.67300026  0.16249305  1
  Na  Na27  1  0.66743759  0.67287956  0.16215765  1
  Na  Na28  1  0.17364781  0.66071776  0.66337798  1
  Na  Na29  1  0.67265130  0.67291784  0.65986235  1
  Sc  Sc30  1  0.00082497  0.00117504  0.35344187  1
  Sc  Sc31  1  0.49995041  0.99908964  0.35310882  1
  Sc  Sc32  1  0.99732640  0.00620972  0.85280336  1
  Sc  Sc33  1  0.49765565  0.00596928  0.85258648  1
  Sc  Sc34  1  0.33917657  0.33860286  0.68551153  1
  Sc  Sc35  1  0.83452078  0.33381753  0.68725784  1
  Sc  Sc36  1  0.33966594  0.34199602  0.18605147  1
  Sc  Sc37  1  0.83967616  0.34208036  0.18576786  1
  Sc  Sc38  1  0.16220533  0.66271061  0.01785625  1
  Sc  Sc39  1  0.66223209  0.66272605  0.01773686  1
  Sc  Sc40  1  0.16432953  0.66125842  0.51762930  1
  Sc  Sc41  1  0.66362324  0.66653286  0.52014014  1
  Ta  Ta42  1  0.99573514  0.98578104  0.64703357  1
  Ta  Ta43  1  0.49352296  0.98442619  0.64404161  1
  Ta  Ta44  1  0.99497214  0.00107052  0.14576030  1
  Ta  Ta45  1  0.49475848  0.00113154  0.14561005  1
  Ta  Ta46  1  0.33351499  0.32231665  0.98031666  1
  Ta  Ta47  1  0.83342006  0.32231963  0.98043360  1
  Ta  Ta48  1  0.33369179  0.33840568  0.48157747  1
  Ta  Ta49  1  0.82966253  0.34120599  0.47790358  1
  Ta  Ta50  1  0.16121634  0.64696981  0.31288408  1
  Ta  Ta51  1  0.66096183  0.64944947  0.31249660  1
  Ta  Ta52  1  0.16319009  0.67692647  0.81279428  1
  Ta  Ta53  1  0.66254943  0.67706546  0.81242509  1
  Si  Si54  1  0.35267992  0.70800355  0.25364776  1
  Si  Si55  1  0.85299927  0.70823996  0.25395171  1
  Si  Si56  1  0.99570790  0.28605181  0.25177493  1
  Si  Si57  1  0.49557786  0.28583332  0.25196976  1
  Si  Si58  1  0.99585497  0.70296982  0.75355679  1
  Si  Si59  1  0.49496676  0.70421346  0.75316780  1
  Si  Si60  1  0.35342087  0.99891565  0.75179448  1
  Si  Si61  1  0.85347582  0.99879036  0.75192181  1
  Si  Si62  1  0.47874436  0.33111276  0.58290752  1
  Si  Si63  1  0.18681035  0.04589645  0.58567472  1
  Si  Si64  1  0.68952352  0.04264738  0.58661216  1
  Si  Si65  1  0.32784542  0.61701372  0.58523208  1
  Si  Si66  1  0.83253801  0.62514997  0.58476019  1
  Si  Si67  1  0.47844274  0.62580322  0.08189302  1
  Si  Si68  1  0.97848156  0.62593571  0.08188363  1
  Si  Si69  1  0.33141247  0.04130478  0.08547701  1
  Si  Si70  1  0.83149421  0.04121127  0.08552729  1
  Si  Si71  1  0.18873978  0.33183150  0.08592967  1
  Si  Si72  1  0.68870810  0.33189807  0.08597990  1
  Si  Si73  1  0.02005737  0.37081139  0.91854661  1
  Si  Si74  1  0.52022021  0.37079491  0.91853782  1
  Si  Si75  1  0.16723607  0.96609952  0.91860879  1
  Si  Si76  1  0.66724851  0.96610360  0.91861975  1
  Si  Si77  1  0.16543870  0.36640109  0.41871695  1
  Si  Si78  1  0.66253874  0.36911914  0.41895828  1
  Si  Si79  1  0.02081286  0.66692993  0.41972171  1
  Si  Si80  1  0.51973073  0.66621173  0.41929882  1
  S  S81  1  0.14374285  0.99291806  0.24959580  1
  S  S82  1  0.64382449  0.99355172  0.24977943  1
  S  S83  1  0.14281804  0.29194244  0.74978802  1
  S  S84  1  0.64417914  0.29437923  0.74987878  1
  S  S85  1  0.97692465  0.32703483  0.58297344  1
  S  S86  1  0.31034965  0.66268854  0.91649346  1
  S  S87  1  0.81013006  0.66234095  0.91646508  1
  S  S88  1  0.30972846  0.95968564  0.41615140  1
  S  S89  1  0.80980522  0.95890523  0.41660818  1
  O  O90  1  0.10259179  0.01786717  0.30141964  1
  O  O91  1  0.60290363  0.01781603  0.30140936  1
  O  O92  1  0.40764230  0.79366512  0.31116402  1
  O  O93  1  0.90766889  0.79341004  0.31167798  1
  O  O94  1  0.49423591  0.17728281  0.30709352  1
  O  O95  1  0.99366401  0.17648272  0.30686966  1
  O  O96  1  0.10372383  0.18605301  0.80227384  1
  O  O97  1  0.60421629  0.18598754  0.80138849  1
  O  O98  1  0.49367204  0.80149695  0.81148751  1
  O  O99  1  0.99095040  0.79688153  0.81156013  1
  O  O100  1  0.41284774  0.02422750  0.80622159  1
  O  O101  1  0.91223016  0.02558852  0.80706803  1
  O  O102  1  0.40207797  0.97491947  0.69100496  1
  O  O103  1  0.90549534  0.97846258  0.69278425  1
  O  O104  1  0.08900254  0.20993212  0.69635878  1
  O  O105  1  0.59267600  0.21671429  0.69506543  1
  O  O106  1  0.01605522  0.83469931  0.69404297  1
  O  O107  1  0.51597506  0.83475317  0.69372095  1
  O  O108  1  0.40404456  0.83202272  0.19374034  1
  O  O109  1  0.90419216  0.83185281  0.19396152  1
  O  O110  1  0.01667546  0.20081136  0.19155010  1
  O  O111  1  0.51686811  0.20088014  0.19172366  1
  O  O112  1  0.09175779  0.96919507  0.19487709  1
  O  O113  1  0.59200929  0.96889657  0.19492258  1
  O  O114  1  0.43656411  0.36819611  0.63873480  1
  O  O115  1  0.93792282  0.35443246  0.63578790  1
  O  O116  1  0.24315446  0.12043610  0.64395670  1
  O  O117  1  0.74151657  0.12850318  0.64534768  1
  O  O118  1  0.31652205  0.50544633  0.64149713  1
  O  O119  1  0.82171311  0.50341168  0.63867826  1
  O  O120  1  0.43574288  0.50194730  0.13709575  1
  O  O121  1  0.93577861  0.50210423  0.13704223  1
  O  O122  1  0.31165365  0.12561181  0.14008148  1
  O  O123  1  0.81168631  0.12565660  0.14006045  1
  O  O124  1  0.24315891  0.36416531  0.14467847  1
  O  O125  1  0.74310312  0.36412905  0.14474581  1
  O  O126  1  0.23813651  0.29951269  0.02858356  1
  O  O127  1  0.73816352  0.29956614  0.02865901  1
  O  O128  1  0.41638835  0.54025477  0.02301369  1
  O  O129  1  0.91648985  0.54022683  0.02298323  1
  O  O130  1  0.35305751  0.17057275  0.02636331  1
  O  O131  1  0.85307840  0.17060314  0.02641191  1
  O  O132  1  0.23746266  0.16922113  0.52726155  1
  O  O133  1  0.74115981  0.17478254  0.52892754  1
  O  O134  1  0.34954176  0.53484720  0.52517523  1
  O  O135  1  0.85234451  0.53634007  0.52428856  1
  O  O136  1  0.41430995  0.29531570  0.52570355  1
  O  O137  1  0.92409627  0.30238957  0.52964849  1
  O  O138  1  0.27246547  0.68300161  0.97123371  1
  O  O139  1  0.77272746  0.68298802  0.97124371  1
  O  O140  1  0.07197445  0.45645553  0.97802044  1
  O  O141  1  0.57202727  0.45633941  0.97810825  1
  O  O142  1  0.15502349  0.85022434  0.97567091  1
  O  O143  1  0.65539239  0.85060890  0.97576431  1
  O  O144  1  0.27180750  0.85947899  0.47065665  1
  O  O145  1  0.77090374  0.85410534  0.46905765  1
  O  O146  1  0.15858778  0.47168150  0.47304578  1
  O  O147  1  0.65944505  0.46493639  0.47684171  1
  O  O148  1  0.07296050  0.68996773  0.47908724  1
  O  O149  1  0.57421277  0.69216546  0.47758846  1
  O  O150  1  0.07430644  0.64711000  0.36199698  1
  O  O151  1  0.57432998  0.64794405  0.36128666  1
  O  O152  1  0.25582532  0.87075930  0.36389527  1
  O  O153  1  0.75706452  0.87959142  0.36312713  1
  O  O154  1  0.18236889  0.49618536  0.35821879  1
  O  O155  1  0.68292086  0.49999193  0.35961048  1
  O  O156  1  0.07363242  0.50503765  0.86187960  1
  O  O157  1  0.57390433  0.50542212  0.86200572  1
  O  O158  1  0.18096632  0.86614360  0.85889355  1
  O  O159  1  0.68112028  0.86692252  0.85884874  1
  O  O160  1  0.25659354  0.64311602  0.86447283  1
  O  O161  1  0.75710086  0.64334271  0.86447561  1
  O  O162  1  0.99861398  0.81820336  0.41307011  1
  O  O163  1  0.49947817  0.82060104  0.41252923  1
  O  O164  1  0.39439854  0.97434921  0.41084347  1
  O  O165  1  0.89490915  0.97693862  0.41063444  1
  O  O166  1  0.08462593  0.18125879  0.41137520  1
  O  O167  1  0.58489238  0.18137282  0.41125098  1
  O  O168  1  0.00532210  0.18240455  0.91218572  1
  O  O169  1  0.50548796  0.18264055  0.91204344  1
  O  O170  1  0.08128791  0.97421628  0.91091853  1
  O  O171  1  0.58145336  0.97484190  0.91143203  1
  O  O172  1  0.39688629  0.80944411  0.91138255  1
  O  O173  1  0.89734378  0.80994966  0.91150290  1
  O  O174  1  0.48612266  0.15534565  0.59024213  1
  O  O175  1  0.98682737  0.17346709  0.58903002  1
  O  O176  1  0.09114193  0.03138802  0.59164266  1
  O  O177  1  0.59516817  0.03786643  0.59093179  1
  O  O178  1  0.42146459  0.80765387  0.59012389  1
  O  O179  1  0.92359686  0.81260189  0.59085194  1
  O  O180  1  0.48632792  0.81645673  0.09101941  1
  O  O181  1  0.98623011  0.81637947  0.09092849  1
  O  O182  1  0.42221636  0.03432938  0.09100898  1
  O  O183  1  0.92221509  0.03412014  0.09107297  1
  O  O184  1  0.09421653  0.15301391  0.09124804  1
  O  O185  1  0.59425551  0.15302800  0.09130214  1
  O  O186  1  0.33060589  0.14947522  0.74660330  1
  O  O187  1  0.83178746  0.15106520  0.74548608  1
  O  O188  1  0.22719063  0.30742905  0.74326127  1
  O  O189  1  0.72904793  0.31045300  0.74422798  1
  O  O190  1  0.41529022  0.51749577  0.74759828  1
  O  O191  1  0.91785439  0.51583576  0.74431046  1
  O  O192  1  0.33147368  0.51285938  0.24679037  1
  O  O193  1  0.83148795  0.51264742  0.24714338  1
  O  O194  1  0.41560411  0.31256130  0.24671591  1
  O  O195  1  0.91567176  0.31252084  0.24644222  1
  O  O196  1  0.22804616  0.14783731  0.24390378  1
  O  O197  1  0.72824143  0.14766824  0.24406174  1
  O  O198  1  0.31830042  0.50429898  0.91958059  1
  O  O199  1  0.81869848  0.50456485  0.91960675  1
  O  O200  1  0.42838902  0.37563744  0.92222198  1
  O  O201  1  0.92831989  0.37573680  0.92203660  1
  O  O202  1  0.25536047  0.15416282  0.92312367  1
  O  O203  1  0.75550083  0.15454282  0.92307539  1
  O  O204  1  0.31749926  0.13045873  0.41979278  1
  O  O205  1  0.81927987  0.13323324  0.42312539  1
  O  O206  1  0.25684937  0.36419038  0.42271953  1
  O  O207  1  0.75609328  0.36513767  0.42295461  1
  O  O208  1  0.42504998  0.48659518  0.42271363  1
  O  O209  1  0.92604870  0.48343853  0.42432343  1
  O  O210  1  0.17507976  0.49416089  0.07709281  1
  O  O211  1  0.67514208  0.49429121  0.07718374  1
  O  O212  1  0.07457034  0.65692774  0.07778000  1
  O  O213  1  0.57455317  0.65690908  0.07778528  1
  O  O214  1  0.25562842  0.84892898  0.07595429  1
  O  O215  1  0.75562569  0.84890939  0.07602996  1
  O  O216  1  0.17086229  0.85235302  0.57760242  1
  O  O217  1  0.66982210  0.85025019  0.57923695  1
  O  O218  1  0.25571596  0.66977751  0.57706480  1
  O  O219  1  0.75138495  0.64668197  0.57686799  1
  O  O220  1  0.06181416  0.48102319  0.57747370  1
  O  O221  1  0.57400017  0.49163564  0.57742421  1
  O  O222  1  0.15265045  0.83894638  0.25524567  1
  O  O223  1  0.65295610  0.83887276  0.25528591  1
  O  O224  1  0.25779554  0.70067975  0.25783399  1
  O  O225  1  0.75800322  0.70062778  0.25813554  1
  O  O226  1  0.08783373  0.47846760  0.25681909  1
  O  O227  1  0.58816218  0.47865830  0.25709151  1
  O  O228  1  0.15139415  0.46452606  0.75575768  1
  O  O229  1  0.65348335  0.46697651  0.75657973  1
  O  O230  1  0.08903097  0.69875648  0.75653518  1
  O  O231  1  0.58835760  0.69768906  0.75690340  1
  O  O232  1  0.25859915  0.81581455  0.75792390  1
  O  O233  1  0.75878403  0.81766177  0.75776292  1
