# generated using pymatgen
data_Na12NbZn5(PO4)9
_symmetry_space_group_name_H-M   'P 1'
_cell_length_a   9.08806455
_cell_length_b   9.08806424
_cell_length_c   22.04045424
_cell_angle_alpha   90.00000000
_cell_angle_beta   90.00000000
_cell_angle_gamma   120.00000117
_symmetry_Int_Tables_number   1
_chemical_formula_structural   Na12NbZn5(PO4)9
_chemical_formula_sum   'Na24 Nb2 Zn10 P18 O72'
_cell_volume   1576.49994038
_cell_formula_units_Z   2
loop_
 _symmetry_equiv_pos_site_id
 _symmetry_equiv_pos_as_xyz
  1  'x, y, z'
loop_
 _atom_site_type_symbol
 _atom_site_label
 _atom_site_symmetry_multiplicity
 _atom_site_fract_x
 _atom_site_fract_y
 _atom_site_fract_z
 _atom_site_occupancy
  Na  Na0  1  0.63252888  0.99941166  0.25018867  1
  Na  Na1  1  0.36688278  0.36747112  0.25018867  1
  Na  Na2  1  0.00058834  0.63311722  0.25018867  1
  Na  Na3  1  0.63252888  0.63311722  0.75018867  1
  Na  Na4  1  0.00058834  0.36747112  0.75018867  1
  Na  Na5  1  0.36688278  0.99941166  0.75018867  1
  Na  Na6  1  0.29264167  0.33355758  0.58757969  1
  Na  Na7  1  0.04091691  0.70735833  0.58757969  1
  Na  Na8  1  0.66644242  0.95908309  0.58757969  1
  Na  Na9  1  0.29264167  0.95908309  0.08757969  1
  Na  Na10  1  0.66644242  0.70735833  0.08757969  1
  Na  Na11  1  0.04091691  0.33355758  0.08757969  1
  Na  Na12  1  0.97966872  0.68287092  0.90805184  1
  Na  Na13  1  0.70320120  0.02033128  0.90805184  1
  Na  Na14  1  0.31712908  0.29679880  0.90805184  1
  Na  Na15  1  0.97966872  0.29679880  0.40805184  1
  Na  Na16  1  0.31712908  0.02033128  0.40805184  1
  Na  Na17  1  0.70320120  0.68287092  0.40805184  1
  Na  Na18  1  -0.00000000  0.00000000  0.50003166  1
  Na  Na19  1  -0.00000000  0.00000000  0.00003166  1
  Na  Na20  1  0.66666700  0.33333300  0.82258539  1
  Na  Na21  1  0.66666700  0.33333300  0.32258539  1
  Na  Na22  1  0.33333300  0.66666700  0.17014438  1
  Na  Na23  1  0.33333300  0.66666700  0.67014438  1
  Nb  Nb24  1  0.66666700  0.33333300  0.98202703  1
  Nb  Nb25  1  0.66666700  0.33333300  0.48202703  1
  Zn  Zn26  1  -0.00000000  0.00000000  0.34135775  1
  Zn  Zn27  1  -0.00000000  0.00000000  0.84135775  1
  Zn  Zn28  1  -0.00000000  0.00000000  0.65762012  1
  Zn  Zn29  1  -0.00000000  0.00000000  0.15762012  1
  Zn  Zn30  1  0.66666700  0.33333300  0.68283827  1
  Zn  Zn31  1  0.66666700  0.33333300  0.18283827  1
  Zn  Zn32  1  0.33333300  0.66666700  0.01281885  1
  Zn  Zn33  1  0.33333300  0.66666700  0.51281885  1
  Zn  Zn34  1  0.33333300  0.66666700  0.31807447  1
  Zn  Zn35  1  0.33333300  0.66666700  0.81807447  1
  P  P36  1  0.29752216  0.99897787  0.24992173  1
  P  P37  1  0.70145571  0.70247784  0.24992173  1
  P  P38  1  0.00102213  0.29854429  0.24992173  1
  P  P39  1  0.29752216  0.29854429  0.74992173  1
  P  P40  1  0.00102213  0.70247784  0.74992173  1
  P  P41  1  0.70145571  0.99897787  0.74992173  1
  P  P42  1  0.96354888  0.33572918  0.58511906  1
  P  P43  1  0.37218130  0.03645112  0.58511906  1
  P  P44  1  0.66427082  0.62781870  0.58511906  1
  P  P45  1  0.96354888  0.62781870  0.08511906  1
  P  P46  1  0.66427082  0.03645112  0.08511906  1
  P  P47  1  0.37218130  0.33572918  0.08511906  1
  P  P48  1  0.62897581  0.66709529  0.91815134  1
  P  P49  1  0.03811848  0.37102419  0.91815134  1
  P  P50  1  0.33290471  0.96188152  0.91815134  1
  P  P51  1  0.62897581  0.96188152  0.41815134  1
  P  P52  1  0.33290471  0.37102419  0.41815134  1
  P  P53  1  0.03811848  0.66709529  0.41815134  1
  O  O54  1  0.21690277  0.02742750  0.30749890  1
  O  O55  1  0.81052473  0.78309723  0.30749890  1
  O  O56  1  0.97257250  0.18947527  0.30749890  1
  O  O57  1  0.21690277  0.18947527  0.80749890  1
  O  O58  1  0.97257250  0.78309723  0.80749890  1
  O  O59  1  0.81052473  0.02742750  0.80749890  1
  O  O60  1  0.78232703  0.97042637  0.69224270  1
  O  O61  1  0.18809934  0.21767297  0.69224270  1
  O  O62  1  0.02957363  0.81190066  0.69224270  1
  O  O63  1  0.78232703  0.81190066  0.19224270  1
  O  O64  1  0.02957363  0.21767297  0.19224270  1
  O  O65  1  0.18809934  0.97042637  0.19224270  1
  O  O66  1  0.88013014  0.36254761  0.64092912  1
  O  O67  1  0.48241847  0.11986986  0.64092912  1
  O  O68  1  0.63745239  0.51758153  0.64092912  1
  O  O69  1  0.88013014  0.51758153  0.14092912  1
  O  O70  1  0.63745239  0.11986986  0.14092912  1
  O  O71  1  0.48241847  0.36254761  0.14092912  1
  O  O72  1  0.47492314  0.31810324  0.02818608  1
  O  O73  1  0.84318110  0.52507686  0.02818608  1
  O  O74  1  0.68189676  0.15681890  0.02818608  1
  O  O75  1  0.47492314  0.15681890  0.52818608  1
  O  O76  1  0.68189676  0.52507686  0.52818608  1
  O  O77  1  0.84318110  0.31810324  0.52818608  1
  O  O78  1  0.55019115  0.69345751  0.97556259  1
  O  O79  1  0.14326537  0.44980885  0.97556259  1
  O  O80  1  0.30654249  0.85673463  0.97556259  1
  O  O81  1  0.55019115  0.85673463  0.47556259  1
  O  O82  1  0.30654249  0.44980885  0.47556259  1
  O  O83  1  0.14326537  0.69345751  0.47556259  1
  O  O84  1  0.10829672  0.62438567  0.36161406  1
  O  O85  1  0.51608794  0.89170328  0.36161406  1
  O  O86  1  0.37561433  0.48391206  0.36161406  1
  O  O87  1  0.10829672  0.48391206  0.86161406  1
  O  O88  1  0.37561433  0.89170328  0.86161406  1
  O  O89  1  0.51608794  0.62438567  0.86161406  1
  O  O90  1  0.00858873  0.81951430  0.41273908  1
  O  O91  1  0.81092557  0.99141127  0.41273908  1
  O  O92  1  0.18048570  0.18907443  0.41273908  1
  O  O93  1  0.00858873  0.18907443  0.91273908  1
  O  O94  1  0.18048570  0.99141127  0.91273908  1
  O  O95  1  0.81092557  0.81951430  0.91273908  1
  O  O96  1  0.96918418  0.16952120  0.58287873  1
  O  O97  1  0.20033701  0.03081582  0.58287873  1
  O  O98  1  0.83047880  0.79966299  0.58287873  1
  O  O99  1  0.96918418  0.79966299  0.08287873  1
  O  O100  1  0.83047880  0.03081582  0.08287873  1
  O  O101  1  0.20033701  0.16952120  0.08287873  1
  O  O102  1  0.68369996  0.16077442  0.74629710  1
  O  O103  1  0.47707547  0.31630004  0.74629710  1
  O  O104  1  0.83922558  0.52292453  0.74629710  1
  O  O105  1  0.68369996  0.52292453  0.24629710  1
  O  O106  1  0.83922558  0.31630004  0.24629710  1
  O  O107  1  0.47707547  0.16077442  0.24629710  1
  O  O108  1  0.64835804  0.50047628  0.92543263  1
  O  O109  1  0.85211924  0.35164196  0.92543263  1
  O  O110  1  0.49952372  0.14788076  0.92543263  1
  O  O111  1  0.64835804  0.14788076  0.42543263  1
  O  O112  1  0.49952372  0.35164196  0.42543263  1
  O  O113  1  0.85211924  0.50047628  0.42543263  1
  O  O114  1  0.35494412  0.49442133  0.07742166  1
  O  O115  1  0.13947620  0.64505588  0.07742166  1
  O  O116  1  0.50557867  0.86052380  0.07742166  1
  O  O117  1  0.35494412  0.86052380  0.57742166  1
  O  O118  1  0.50557867  0.64505588  0.57742166  1
  O  O119  1  0.13947620  0.49442133  0.57742166  1
  O  O120  1  0.31506327  0.83726923  0.25435238  1
  O  O121  1  0.52220496  0.68493673  0.25435238  1
  O  O122  1  0.16273077  0.47779504  0.25435238  1
  O  O123  1  0.31506327  0.47779504  0.75435238  1
  O  O124  1  0.16273077  0.68493673  0.75435238  1
  O  O125  1  0.52220496  0.83726923  0.75435238  1
