# generated using pymatgen
data_GaHO2
_symmetry_space_group_name_H-M   'P 1'
_cell_length_a   2.96465307
_cell_length_b   4.33355558
_cell_length_c   4.90006945
_cell_angle_alpha   90.00000000
_cell_angle_beta   90.00000000
_cell_angle_gamma   90.00000000
_symmetry_Int_Tables_number   1
_chemical_formula_structural   GaHO2
_chemical_formula_sum   'Ga2 H2 O4'
_cell_volume   62.95358764
_cell_formula_units_Z   2
loop_
 _symmetry_equiv_pos_site_id
 _symmetry_equiv_pos_as_xyz
  1  'x, y, z'
loop_
 _atom_site_type_symbol
 _atom_site_label
 _atom_site_symmetry_multiplicity
 _atom_site_fract_x
 _atom_site_fract_y
 _atom_site_fract_z
 _atom_site_occupancy
  Ga  Ga0  1  0.50000000  0.22475452  0.50125106  1
  Ga  Ga1  1  0.00000000  0.77524548  0.00125106  1
  H  H2  1  0.50000000  0.30506504  0.01874755  1
  H  H3  1  0.00000000  0.69493496  0.51874755  1
  O  O4  1  0.00000000  0.50495599  0.64304534  1
  O  O5  1  0.50000000  0.49504401  0.14304534  1
  O  O6  1  -0.00000000  0.99119999  0.35025605  1
  O  O7  1  0.50000000  0.00880001  0.85025605  1
