# generated using pymatgen
data_K3PSe16
_symmetry_space_group_name_H-M   'P 1'
_cell_length_a   11.76736128
_cell_length_b   11.76737028
_cell_length_c   11.76754777
_cell_angle_alpha   59.99991444
_cell_angle_beta   59.99992438
_cell_angle_gamma   59.99968967
_symmetry_Int_Tables_number   1
_chemical_formula_structural   K3PSe16
_chemical_formula_sum   'K6 P2 Se32'
_cell_volume   1152.20016038
_cell_formula_units_Z   2
loop_
 _symmetry_equiv_pos_site_id
 _symmetry_equiv_pos_as_xyz
  1  'x, y, z'
loop_
 _atom_site_type_symbol
 _atom_site_label
 _atom_site_symmetry_multiplicity
 _atom_site_fract_x
 _atom_site_fract_y
 _atom_site_fract_z
 _atom_site_occupancy
  K  K0  1  0.25049084  0.24983243  0.25062035  1
  K  K1  1  0.62505758  0.62497527  0.12496330  1
  K  K2  1  0.12492540  0.62502351  0.62504662  1
  K  K3  1  0.62495644  0.12496771  0.62503197  1
  K  K4  1  0.62494563  0.62503358  0.62497197  1
  K  K5  1  0.99985657  0.00010749  0.99998092  1
  P  P6  1  0.50001132  0.50014128  0.49975496  1
  P  P7  1  0.74998714  0.75000057  0.75000140  1
  Se  Se8  1  0.57155882  0.15652308  0.31878937  1
  Se  Se9  1  0.31871177  0.15654675  0.95321216  1
  Se  Se10  1  0.15657753  0.57141134  0.95326979  1
  Se  Se11  1  0.15656682  0.31872958  0.57151601  1
  Se  Se12  1  0.95324081  0.31879588  0.15654645  1
  Se  Se13  1  0.31871787  0.57148738  0.15665601  1
  Se  Se14  1  0.95323483  0.15657967  0.57147191  1
  Se  Se15  1  0.15653584  0.95322161  0.31871826  1
  Se  Se16  1  0.67791963  0.93140149  0.29698009  1
  Se  Se17  1  0.29690637  0.67786837  0.93155650  1
  Se  Se18  1  0.93144300  0.29693604  0.67795071  1
  Se  Se19  1  0.67794839  0.09359553  0.93148462  1
  Se  Se20  1  0.57142372  0.95318687  0.15663512  1
  Se  Se21  1  0.93143819  0.09374296  0.29690499  1
  Se  Se22  1  0.09359173  0.67798479  0.29692804  1
  Se  Se23  1  0.09364539  0.93146000  0.67795391  1
  Se  Se24  1  0.29685563  0.93149307  0.09365898  1
  Se  Se25  1  0.93147550  0.67791684  0.09365472  1
  Se  Se26  1  0.29691145  0.09365664  0.67795372  1
  Se  Se27  1  0.09365849  0.29692093  0.93148517  1
  Se  Se28  1  0.42356696  0.42337795  0.72926166  1
  Se  Se29  1  0.72957099  0.42395489  0.42318517  1
  Se  Se30  1  0.42295729  0.72969518  0.42352357  1
  Se  Se31  1  0.42395633  0.42319586  0.42318580  1
  Se  Se32  1  0.82652989  0.82653093  0.52041105  1
  Se  Se33  1  0.52040896  0.82653008  0.82653171  1
  Se  Se34  1  0.82653160  0.52040951  0.82653174  1
  Se  Se35  1  0.82652986  0.82653015  0.82652829  1
  Se  Se36  1  0.31872675  0.95317258  0.57150776  1
  Se  Se37  1  0.95315384  0.57149370  0.31873861  1
  Se  Se38  1  0.57153534  0.31866260  0.95322420  1
  Se  Se39  1  0.67794047  0.29690597  0.09366941  1
