# generated using pymatgen
data_Na3LaAl(PO4)3
_symmetry_space_group_name_H-M   'P 1'
_cell_length_a   15.96436162
_cell_length_b   9.08634495
_cell_length_c   9.11941640
_cell_angle_alpha   90.40507300
_cell_angle_beta   125.03337183
_cell_angle_gamma   89.83085600
_symmetry_Int_Tables_number   1
_chemical_formula_structural   Na3LaAl(PO4)3
_chemical_formula_sum   'Na12 La4 Al4 P12 O48'
_cell_volume   1083.13817439
_cell_formula_units_Z   4
loop_
 _symmetry_equiv_pos_site_id
 _symmetry_equiv_pos_as_xyz
  1  'x, y, z'
loop_
 _atom_site_type_symbol
 _atom_site_label
 _atom_site_symmetry_multiplicity
 _atom_site_fract_x
 _atom_site_fract_y
 _atom_site_fract_z
 _atom_site_occupancy
  Na  Na0  1  0.23494018  0.77339642  0.98701118  1
  Na  Na1  1  0.75386622  0.72247527  0.51267994  1
  Na  Na2  1  0.75417386  0.26445602  0.01745339  1
  Na  Na3  1  0.23747665  0.21868713  0.49029578  1
  Na  Na4  1  0.50449663  0.08395536  0.77920501  1
  Na  Na5  1  0.50247828  0.92660756  0.23383776  1
  Na  Na6  1  0.00708109  0.60656996  0.74931765  1
  Na  Na7  1  0.99681722  0.38690732  0.23244653  1
  Na  Na8  1  0.82057616  0.93323111  0.21794131  1
  Na  Na9  1  0.81885897  0.08382716  0.71098608  1
  Na  Na10  1  0.29428423  0.42766719  0.17761083  1
  Na  Na11  1  0.30910383  0.55961396  0.72711677  1
  La  La12  1  0.10366713  0.76993441  0.54078607  1
  La  La13  1  0.59853775  0.26535671  0.55178154  1
  La  La14  1  0.39882460  0.74741137  0.44165206  1
  La  La15  1  0.60950533  0.73562766  0.05657895  1
  Al  Al16  1  0.90520305  0.75363460  0.94290170  1
  Al  Al17  1  0.89990108  0.25294973  0.44822180  1
  Al  Al18  1  0.09668552  0.24886266  0.04243253  1
  Al  Al19  1  0.37564060  0.25909980  0.92748633  1
  P  P20  1  0.99615532  0.96956334  0.75496177  1
  P  P21  1  0.99773047  0.05766322  0.22878870  1
  P  P22  1  0.48207692  0.41967502  0.75094743  1
  P  P23  1  0.47822364  0.55050928  0.21667066  1
  P  P24  1  0.35740090  0.91790702  0.78588689  1
  P  P25  1  0.67570839  0.89184660  0.75974273  1
  P  P26  1  0.66532133  0.11624450  0.25388223  1
  P  P27  1  0.34099977  0.11041600  0.23334866  1
  P  P28  1  0.86987066  0.40711563  0.75570009  1
  P  P29  1  0.14089436  0.37776564  0.74669566  1
  P  P30  1  0.14155620  0.59200572  0.22402062  1
  P  P31  1  0.86524646  0.58503069  0.26589811  1
  O  O32  1  0.15263155  0.54825340  0.74610998  1
  O  O33  1  0.86739513  0.57944774  0.76617617  1
  O  O34  1  0.86120313  0.41312745  0.26795260  1
  O  O35  1  0.14399259  0.42080649  0.20568781  1
  O  O36  1  0.69129128  0.06027910  0.75889005  1
  O  O37  1  0.34556300  0.08693175  0.78700867  1
  O  O38  1  0.33647574  0.94065382  0.21169085  1
  O  O39  1  0.67878989  0.94497494  0.25393602  1
  O  O40  1  0.42101052  0.50805099  0.57374536  1
  O  O41  1  0.53773955  0.52763441  0.90718465  1
  O  O42  1  0.52206725  0.47201192  0.39582412  1
  O  O43  1  0.43159685  0.43745773  0.05937629  1
  O  O44  1  0.92864467  0.06086485  0.57702073  1
  O  O45  1  0.05370577  0.07637189  0.91357911  1
  O  O46  1  0.08058048  0.98862115  0.40946885  1
  O  O47  1  0.93488337  0.93468474  0.08442464  1
  O  O48  1  0.27320860  0.83084368  0.78096743  1
  O  O49  1  0.76471989  0.80512546  0.77497342  1
  O  O50  1  0.76066244  0.18754401  0.27260557  1
  O  O51  1  0.24325002  0.17830102  0.20588172  1
  O  O52  1  0.77943774  0.33937586  0.75070215  1
  O  O53  1  0.23752477  0.31482316  0.76450610  1
  O  O54  1  0.22522460  0.65923343  0.20914230  1
  O  O55  1  0.77567920  0.65606980  0.26160005  1
  O  O56  1  0.35787233  0.87868922  0.61918926  1
  O  O57  1  0.67506184  0.86375426  0.92547438  1
  O  O58  1  0.66933588  0.14567639  0.42566129  1
  O  O59  1  0.36381338  0.17745135  0.10110893  1
  O  O60  1  0.86755054  0.36363588  0.58723233  1
  O  O61  1  0.14087591  0.34303785  0.91242057  1
  O  O62  1  0.16812797  0.61685286  0.41505508  1
  O  O63  1  0.87073966  0.63554568  0.10859992  1
  O  O64  1  0.46148133  0.87506829  0.95462049  1
  O  O65  1  0.57161568  0.84418411  0.58591018  1
  O  O66  1  0.56262274  0.16730206  0.08717005  1
  O  O67  1  0.43402369  0.14656410  0.42680464  1
  O  O68  1  0.96998345  0.34823323  0.92251143  1
  O  O69  1  0.04208186  0.31746424  0.57334619  1
  O  O70  1  0.03683741  0.66402404  0.08109336  1
  O  O71  1  0.96102339  0.63597672  0.44786296  1
  O  O72  1  0.07127217  0.86301983  0.75318968  1
  O  O73  1  0.92238438  0.86939201  0.77496957  1
  O  O74  1  0.92031241  0.14388918  0.25063233  1
  O  O75  1  0.05740332  0.16786143  0.19101398  1
  O  O76  1  0.56310398  0.31241423  0.76846607  1
  O  O77  1  0.39982354  0.33332840  0.75807263  1
  O  O78  1  0.38794960  0.64748077  0.18113270  1
  O  O79  1  0.56412271  0.65165103  0.24572060  1
