# generated using pymatgen
data_Na6Ta4Zn8Si3(S5O24)3
_symmetry_space_group_name_H-M   'P 1'
_cell_length_a   8.79565001
_cell_length_b   8.77134801
_cell_length_c   22.53418987
_cell_angle_alpha   89.81344345
_cell_angle_beta   90.35185222
_cell_angle_gamma   119.89529072
_symmetry_Int_Tables_number   1
_chemical_formula_structural   Na6Ta4Zn8Si3(S5O24)3
_chemical_formula_sum   'Na6 Ta4 Zn8 Si3 S15 O72'
_cell_volume   1507.14809759
_cell_formula_units_Z   1
loop_
 _symmetry_equiv_pos_site_id
 _symmetry_equiv_pos_as_xyz
  1  'x, y, z'
loop_
 _atom_site_type_symbol
 _atom_site_label
 _atom_site_symmetry_multiplicity
 _atom_site_fract_x
 _atom_site_fract_y
 _atom_site_fract_z
 _atom_site_occupancy
  Na  Na0  1  0.97886133  0.97692121  0.48800948  1
  Na  Na1  1  0.00717123  0.02522076  0.99848110  1
  Na  Na2  1  0.67079400  0.32952918  0.82317450  1
  Na  Na3  1  0.67542874  0.33446463  0.32923952  1
  Na  Na4  1  0.33288216  0.65880624  0.16484620  1
  Na  Na5  1  0.33850111  0.67046192  0.64959834  1
  Ta  Ta6  1  0.67369796  0.33527790  0.97987203  1
  Ta  Ta7  1  0.67133089  0.33421629  0.47802006  1
  Ta  Ta8  1  0.33096173  0.67336405  0.31923225  1
  Ta  Ta9  1  0.32252987  0.65863044  0.81369477  1
  Zn  Zn10  1  0.98098853  0.98537727  0.35401982  1
  Zn  Zn11  1  0.00032293  0.01503023  0.84979478  1
  Zn  Zn12  1  0.99480288  0.99693610  0.64223374  1
  Zn  Zn13  1  0.99774300  0.99798466  0.15501360  1
  Zn  Zn14  1  0.66938967  0.33240866  0.67894032  1
  Zn  Zn15  1  0.66741595  0.33001330  0.18592552  1
  Zn  Zn16  1  0.32641363  0.65218573  0.01824815  1
  Zn  Zn17  1  0.34360319  0.69147464  0.51109483  1
  Si  Si18  1  0.04189430  0.36413355  0.92099491  1
  Si  Si19  1  0.63642410  0.96001681  0.42219387  1
  Si  Si20  1  0.04397971  0.67561659  0.42219355  1
  S  S21  1  0.29432238  0.99840743  0.24902622  1
  S  S22  1  0.69715201  0.69957709  0.24776208  1
  S  S23  1  0.00470851  0.29721774  0.24826158  1
  S  S24  1  0.29902973  0.29326325  0.75036420  1
  S  S25  1  0.99682944  0.71178473  0.75199157  1
  S  S26  1  0.70261179  0.00056491  0.75015430  1
  S  S27  1  0.96125115  0.33138458  0.58504448  1
  S  S28  1  0.36988733  0.04323609  0.58648882  1
  S  S29  1  0.66426429  0.62532304  0.58569611  1
  S  S30  1  0.95883470  0.63082772  0.08535535  1
  S  S31  1  0.66446872  0.03581240  0.08359209  1
  S  S32  1  0.37532058  0.33111635  0.08470456  1
  S  S33  1  0.62427883  0.66536083  0.91822191  1
  S  S34  1  0.33518119  0.95730044  0.91843594  1
  S  S35  1  0.33594013  0.37822733  0.41871842  1
  O  O36  1  0.20730544  0.01736681  0.30028619  1
  O  O37  1  0.80342996  0.78642651  0.29966698  1
  O  O38  1  0.98922717  0.19136882  0.29975293  1
  O  O39  1  0.22192178  0.19305064  0.80467054  1
  O  O40  1  0.98010146  0.79409852  0.80594557  1
  O  O41  1  0.80480823  0.02426870  0.80436497  1
  O  O42  1  0.77373558  0.96467196  0.69705594  1
  O  O43  1  0.19072823  0.22541992  0.69743096  1
  O  O44  1  0.02787557  0.81492546  0.69815029  1
  O  O45  1  0.76796289  0.80077880  0.19194646  1
  O  O46  1  0.02764828  0.22448747  0.19158926  1
  O  O47  1  0.19651648  0.96950122  0.19253500  1
  O  O48  1  0.88136691  0.35155120  0.63963293  1
  O  O49  1  0.46487077  0.12429224  0.64228823  1
  O  O50  1  0.65597914  0.53260894  0.64158523  1
  O  O51  1  0.87118783  0.52324679  0.13679925  1
  O  O52  1  0.64609252  0.12101819  0.13596856  1
  O  O53  1  0.47591721  0.33955402  0.13737435  1
  O  O54  1  0.47527217  0.32420174  0.02911771  1
  O  O55  1  0.84743820  0.52601928  0.02881271  1
  O  O56  1  0.67607004  0.15234581  0.02806934  1
  O  O57  1  0.47261210  0.15255450  0.53414319  1
  O  O58  1  0.67196812  0.52172194  0.53335967  1
  O  O59  1  0.84721968  0.32341556  0.53186801  1
  O  O60  1  0.55409758  0.69984969  0.97136095  1
  O  O61  1  0.15202115  0.45367955  0.97850563  1
  O  O62  1  0.32257669  0.86104050  0.97216571  1
  O  O63  1  0.56694593  0.84089579  0.47947736  1
  O  O64  1  0.30697871  0.45192960  0.47185926  1
  O  O65  1  0.13956033  0.68132440  0.48198986  1
  O  O66  1  0.13711199  0.63443137  0.36256572  1
  O  O67  1  0.50102260  0.85720503  0.36328904  1
  O  O68  1  0.36868137  0.49683736  0.36468554  1
  O  O69  1  0.14139670  0.49717284  0.86153287  1
  O  O70  1  0.36883488  0.87325200  0.86492624  1
  O  O71  1  0.50877897  0.64093179  0.86492196  1
  O  O72  1  0.02304549  0.84005275  0.40854283  1
  O  O73  1  0.83543637  0.02928289  0.40703541  1
  O  O74  1  0.19726766  0.20272512  0.40549487  1
  O  O75  1  0.00262108  0.16872649  0.91127134  1
  O  O76  1  0.18249498  0.97643655  0.90890129  1
  O  O77  1  0.80410805  0.79988845  0.90759988  1
  O  O78  1  0.95801369  0.16135473  0.58375204  1
  O  O79  1  0.19841778  0.03688331  0.58463532  1
  O  O80  1  0.82804680  0.79805194  0.58332254  1
  O  O81  1  0.95805054  0.79745505  0.08289315  1
  O  O82  1  0.82856483  0.03135736  0.08186495  1
  O  O83  1  0.20292410  0.17025559  0.08238199  1
  O  O84  1  0.67222469  0.15110998  0.74448662  1
  O  O85  1  0.48015910  0.32960301  0.74525211  1
  O  O86  1  0.85457494  0.52843861  0.74767316  1
  O  O87  1  0.67206273  0.51962509  0.24391419  1
  O  O88  1  0.85251404  0.32737206  0.24478249  1
  O  O89  1  0.47723003  0.14557060  0.24511193  1
  O  O90  1  0.61915213  0.48893839  0.92287309  1
  O  O91  1  0.84684152  0.36101325  0.92479894  1
  O  O92  1  0.49788874  0.13971834  0.92118698  1
  O  O93  1  0.61805064  0.14161758  0.42926764  1
  O  O94  1  0.50755912  0.37694406  0.42342966  1
  O  O95  1  0.84553531  0.49055735  0.42584687  1
  O  O96  1  0.36578856  0.49392436  0.08145367  1
  O  O97  1  0.13398803  0.65272282  0.07945826  1
  O  O98  1  0.50765695  0.86355732  0.07525485  1
  O  O99  1  0.35033445  0.86737520  0.58267774  1
  O  O100  1  0.50611860  0.63961575  0.58119610  1
  O  O101  1  0.13703219  0.48064058  0.57921105  1
  O  O102  1  0.31041376  0.83088627  0.25604893  1
  O  O103  1  0.51540128  0.67897572  0.25474368  1
  O  O104  1  0.16838807  0.47796840  0.25446042  1
  O  O105  1  0.31870507  0.48101204  0.76015414  1
  O  O106  1  0.16834050  0.69827036  0.76042695  1
  O  O107  1  0.52056783  0.83715354  0.76026156  1
