# generated using pymatgen
data_Na14Zr4Si11Sn4SO48
_symmetry_space_group_name_H-M   'P 1'
_cell_length_a   18.31442243
_cell_length_b   9.17616802
_cell_length_c   22.91123371
_cell_angle_alpha   90.14917366
_cell_angle_beta   90.02955298
_cell_angle_gamma   120.00026551
_symmetry_Int_Tables_number   1
_chemical_formula_structural   Na14Zr4Si11Sn4SO48
_chemical_formula_sum   'Na42 Zr12 Si33 Sn12 S3 O144'
_cell_volume   3334.49523332
_cell_formula_units_Z   3
loop_
 _symmetry_equiv_pos_site_id
 _symmetry_equiv_pos_as_xyz
  1  'x, y, z'
loop_
 _atom_site_type_symbol
 _atom_site_label
 _atom_site_symmetry_multiplicity
 _atom_site_fract_x
 _atom_site_fract_y
 _atom_site_fract_z
 _atom_site_occupancy
  Na  Na0  1  0.32007746  0.99989625  0.24996196  1
  Na  Na1  1  0.82004030  0.00005591  0.24999726  1
  Na  Na2  1  0.31985249  0.64076109  0.75057472  1
  Na  Na3  1  0.81753316  0.63366103  0.74975241  1
  Na  Na4  1  0.50090878  0.36514962  0.75108529  1
  Na  Na5  1  0.68432230  0.00173793  0.74972135  1
  Na  Na6  1  0.15021310  0.33446099  0.58146509  1
  Na  Na7  1  0.65076272  0.33323659  0.58322527  1
  Na  Na8  1  0.01593616  0.69523627  0.58369801  1
  Na  Na9  1  0.51769935  0.70170345  0.58262151  1
  Na  Na10  1  0.33317792  0.96658198  0.58352463  1
  Na  Na11  1  0.83217741  0.96775001  0.58307452  1
  Na  Na12  1  0.15042632  0.96642998  0.08146474  1
  Na  Na13  1  0.65056515  0.96736225  0.08131197  1
  Na  Na14  1  0.33204243  0.69665304  0.08315215  1
  Na  Na15  1  0.83216790  0.69680197  0.08320354  1
  Na  Na16  1  0.01725179  0.33730726  0.08312942  1
  Na  Na17  1  0.51749145  0.33727189  0.08331688  1
  Na  Na18  1  0.48349020  0.66721693  0.91666135  1
  Na  Na19  1  0.98346705  0.66349050  0.91700480  1
  Na  Na20  1  0.34955097  0.03285967  0.91635776  1
  Na  Na21  1  0.84920050  0.03535571  0.91683837  1
  Na  Na22  1  0.16678554  0.30199687  0.91859977  1
  Na  Na23  1  0.66698093  0.29904987  0.91702854  1
  Na  Na24  1  0.48440289  0.30350799  0.41637245  1
  Na  Na25  1  0.98320410  0.30294775  0.41694809  1
  Na  Na26  1  0.16673285  0.03188828  0.41801289  1
  Na  Na27  1  0.66717971  0.03386597  0.41879937  1
  Na  Na28  1  0.34888011  0.66341408  0.41615121  1
  Na  Na29  1  0.84855236  0.66258879  0.41672508  1
  Na  Na30  1  0.00036328  0.00078200  0.49994330  1
  Na  Na31  1  0.50105431  0.00001495  0.50064788  1
  Na  Na32  1  0.00091193  0.00095534  0.00012115  1
  Na  Na33  1  0.50063903  0.00023264  0.99929777  1
  Na  Na34  1  0.33346182  0.32806887  0.83419799  1
  Na  Na35  1  0.83676587  0.33413823  0.83150730  1
  Na  Na36  1  0.33676451  0.34485211  0.33160988  1
  Na  Na37  1  0.83652636  0.34458056  0.33217193  1
  Na  Na38  1  0.16425552  0.65526666  0.16778839  1
  Na  Na39  1  0.66428330  0.65521596  0.16788035  1
  Na  Na40  1  0.16384409  0.67261877  0.66803879  1
  Na  Na41  1  0.66731342  0.66772327  0.66688101  1
  Zr  Zr42  1  0.99316556  0.99607713  0.35161261  1
  Zr  Zr43  1  0.49468488  0.99689232  0.35166089  1
  Zr  Zr44  1  0.99418777  0.99036248  0.85277665  1
  Zr  Zr45  1  0.50017941  0.00144406  0.85143323  1
  Zr  Zr46  1  0.99516822  0.98683797  0.64777553  1
  Zr  Zr47  1  0.50021133  -0.00008782  0.64984024  1
  Zr  Zr48  1  0.99529837  0.00304080  0.14809769  1
  Zr  Zr49  1  0.49610164  0.00402516  0.14836986  1
  Zr  Zr50  1  0.33576158  0.32849184  0.68313445  1
  Zr  Zr51  1  0.33344046  0.33493561  0.98151665  1
  Zr  Zr52  1  0.33361672  0.33408930  0.48122428  1
  Zr  Zr53  1  0.16574031  0.66498090  0.51808401  1
  Si  Si54  1  0.34941498  0.69765286  0.24997572  1
  Si  Si55  1  0.84929540  0.69714485  0.24990857  1
  Si  Si56  1  0.00051040  0.30222101  0.24984167  1
  Si  Si57  1  0.50063729  0.30243470  0.25001500  1
  Si  Si58  1  0.64904168  0.29771648  0.75015870  1
  Si  Si59  1  0.00198765  0.70140660  0.74985475  1
  Si  Si60  1  0.50027281  0.70399194  0.75095294  1
  Si  Si61  1  0.34890687  0.99505643  0.75100865  1
  Si  Si62  1  0.85214784  0.00363366  0.75025636  1
  Si  Si63  1  0.48254070  0.33532414  0.58179860  1
  Si  Si64  1  0.97802550  0.33277914  0.58338250  1
  Si  Si65  1  0.18595452  0.03955877  0.58276896  1
  Si  Si66  1  0.68891818  0.04258150  0.58293400  1
  Si  Si67  1  0.33315590  0.62660663  0.58435098  1
  Si  Si68  1  0.83098947  0.61914057  0.58281055  1
  Si  Si69  1  0.48199497  0.62856522  0.08241692  1
  Si  Si70  1  0.98072705  0.62585594  0.08155057  1
  Si  Si71  1  0.33102564  0.04173844  0.08425065  1
  Si  Si72  1  0.83096279  0.04407658  0.08356270  1
  Si  Si73  1  0.18777724  0.33421435  0.08391859  1
  Si  Si74  1  0.68920242  0.33433706  0.08298085  1
  Si  Si75  1  0.31003473  0.66638012  0.91544018  1
  Si  Si76  1  0.81023382  0.66211037  0.91777714  1
  Si  Si77  1  0.02160523  0.37767548  0.91703336  1
  Si  Si78  1  0.52232222  0.37800392  0.91648900  1
  Si  Si79  1  0.16685221  0.95871917  0.91782845  1
  Si  Si80  1  0.66779952  0.95846529  0.91764149  1
  Si  Si81  1  0.31007365  0.95553854  0.41489206  1
  Si  Si82  1  0.80898300  0.95619455  0.41638944  1
  Si  Si83  1  0.16637498  0.37163773  0.41656034  1
  Si  Si84  1  0.66792077  0.37439619  0.41854801  1
  Si  Si85  1  0.02047378  0.66581133  0.41598636  1
  Si  Si86  1  0.52341658  0.66824462  0.41602766  1
  Sn  Sn87  1  0.83592879  0.33471257  0.68598569  1
  Sn  Sn88  1  0.33958406  0.34794357  0.18366605  1
  Sn  Sn89  1  0.83955700  0.34789766  0.18369935  1
  Sn  Sn90  1  0.83356173  0.33363345  0.98161940  1
  Sn  Sn91  1  0.83382322  0.33289079  0.48175919  1
  Sn  Sn92  1  0.16654334  0.66630016  0.01821617  1
  Sn  Sn93  1  0.66692652  0.66659243  0.01865178  1
  Sn  Sn94  1  0.66687047  0.66732539  0.51806315  1
  Sn  Sn95  1  0.16505969  0.65235660  0.31573091  1
  Sn  Sn96  1  0.66614873  0.65211467  0.31608281  1
  Sn  Sn97  1  0.16443367  0.67631989  0.81643896  1
  Sn  Sn98  1  0.66777934  0.66852373  0.81527287  1
  S  S99  1  0.14675818  0.00005208  0.25000833  1
  S  S100  1  0.64702332  -0.00000645  0.24996845  1
  S  S101  1  0.14562530  0.29330954  0.75040288  1
  O  O102  1  0.10714338  0.02447004  0.30264627  1
  O  O103  1  0.60741310  0.02461938  0.30257033  1
  O  O104  1  0.40974483  0.79046661  0.30717725  1
  O  O105  1  0.90938333  0.78970896  0.30703987  1
  O  O106  1  0.48405579  0.17747412  0.30636874  1
  O  O107  1  0.98394154  0.17762550  0.30627101  1
  O  O108  1  0.10677751  0.19032353  0.80286887  1
  O  O109  1  0.60572792  0.17608106  0.80691891  1
  O  O110  1  0.48261085  0.79026668  0.80758623  1
  O  O111  1  0.98534448  0.79321162  0.80646563  1
  O  O112  1  0.41134209  0.03323134  0.80749520  1
  O  O113  1  0.91088801  0.02951193  0.80753331  1
  O  O114  1  0.39361597  0.96419632  0.69343179  1
  O  O115  1  0.89567789  0.96692118  0.69365331  1
  O  O116  1  0.09463909  0.21408164  0.69752084  1
  O  O117  1  0.58764308  0.21244775  0.69323087  1
  O  O118  1  0.01563985  0.82160630  0.69279784  1
  O  O119  1  0.51759929  0.82329170  0.69350832  1
  O  O120  1  0.39553481  0.82281568  0.19367283  1
  O  O121  1  0.89511819  0.82236780  0.19365658  1
  O  O122  1  0.01435797  0.20918205  0.19283588  1
  O  O123  1  0.51453656  0.20988959  0.19288568  1
  O  O124  1  0.09485370  0.97558125  0.19733408  1
  O  O125  1  0.59503894  0.97562601  0.19738884  1
  O  O126  1  0.43981307  0.37069305  0.63945194  1
  O  O127  1  0.93677508  0.37505040  0.63886671  1
  O  O128  1  0.24828052  0.12975836  0.63833765  1
  O  O129  1  0.74804625  0.12280439  0.64100621  1
  O  O130  1  0.31554587  0.50599343  0.64149223  1
  O  O131  1  0.81294512  0.50426001  0.64103658  1
  O  O132  1  0.44168775  0.50335607  0.13798037  1
  O  O133  1  0.94138191  0.50246312  0.13764415  1
  O  O134  1  0.31254938  0.12344293  0.14242762  1
  O  O135  1  0.81241812  0.12412467  0.14209319  1
  O  O136  1  0.25019105  0.37179436  0.13971130  1
  O  O137  1  0.75072082  0.37247508  0.13934641  1
  O  O138  1  0.22775182  0.29767980  0.02546713  1
  O  O139  1  0.72710159  0.29388223  0.02392022  1
  O  O140  1  0.42148974  0.54726633  0.02510595  1
  O  O141  1  0.92021561  0.54858363  0.02364719  1
  O  O142  1  0.35093986  0.16017388  0.02666232  1
  O  O143  1  0.85302997  0.16189342  0.02529852  1
  O  O144  1  0.22776513  0.15787998  0.52528909  1
  O  O145  1  0.72776314  0.16038074  0.52452484  1
  O  O146  1  0.35038212  0.54159070  0.52683769  1
  O  O147  1  0.85337282  0.54532196  0.52451787  1
  O  O148  1  0.42106479  0.29860779  0.52563788  1
  O  O149  1  0.91991627  0.29140500  0.52400166  1
  O  O150  1  0.27138017  0.70537696  0.97450325  1
  O  O151  1  0.77270903  0.70665058  0.97561047  1
  O  O152  1  0.07995896  0.45322220  0.97600645  1
  O  O153  1  0.58118345  0.45650152  0.97496845  1
  O  O154  1  0.14582521  0.84003294  0.97601245  1
  O  O155  1  0.64769142  0.83905685  0.97539367  1
  O  O156  1  0.27093547  0.83888344  0.47298892  1
  O  O157  1  0.77238309  0.83854505  0.47473457  1
  O  O158  1  0.14755261  0.45265699  0.47447364  1
  O  O159  1  0.64593052  0.45177397  0.47633271  1
  O  O160  1  0.07879105  0.70283034  0.47448916  1
  O  O161  1  0.58053782  0.70686544  0.47566113  1
  O  O162  1  0.06400613  0.62819021  0.36028916  1
  O  O163  1  0.56588790  0.62980230  0.36002366  1
  O  O164  1  0.25023474  0.87408651  0.35700523  1
  O  O165  1  0.75044465  0.87610896  0.35784339  1
  O  O166  1  0.18912536  0.49743285  0.36136969  1
  O  O167  1  0.69019138  0.49738557  0.36235571  1
  O  O168  1  0.06359004  0.49980373  0.86075920  1
  O  O169  1  0.56200769  0.49597209  0.85838099  1
  O  O170  1  0.18936785  0.88075388  0.86160976  1
  O  O171  1  0.68717722  0.87932569  0.85916321  1
  O  O172  1  0.24979476  0.62556424  0.85727931  1
  O  O173  1  0.75292084  0.62630314  0.85902002  1
  O  O174  1  0.01237559  0.83570643  0.40968325  1
  O  O175  1  0.51414726  0.83703289  0.40993197  1
  O  O176  1  0.40470800  0.97532288  0.41058844  1
  O  O177  1  0.90364011  0.97600794  0.41106566  1
  O  O178  1  0.08287896  0.18452006  0.40930876  1
  O  O179  1  0.58434546  0.18740936  0.40984507  1
  O  O180  1  0.01307979  0.19104086  0.91015156  1
  O  O181  1  0.51263089  0.19061391  0.91178866  1
  O  O182  1  0.08344798  0.97996052  0.91015162  1
  O  O183  1  0.58338952  0.97672067  0.91193519  1
  O  O184  1  0.40412825  0.83450413  0.91114987  1
  O  O185  1  0.90434510  0.83202355  0.91190737  1
  O  O186  1  0.48950710  0.16566169  0.58841350  1
  O  O187  1  0.98961845  0.16694494  0.59058320  1
  O  O188  1  0.09382463  0.02621329  0.58962450  1
  O  O189  1  0.59488656  0.02283700  0.58858309  1
  O  O190  1  0.41777023  0.81265511  0.58883752  1
  O  O191  1  0.91575244  0.80834646  0.58831249  1
  O  O192  1  0.49172971  0.81497050  0.09070479  1
  O  O193  1  0.99068750  0.81295477  0.09012259  1
  O  O194  1  0.41586396  0.02259640  0.08933548  1
  O  O195  1  0.91554991  0.02358484  0.08887491  1
  O  O196  1  0.09463004  0.16410393  0.09035812  1
  O  O197  1  0.59566674  0.16518289  0.08996604  1
  O  O198  1  0.34569758  0.16994535  0.74499162  1
  O  O199  1  0.83882927  0.16550190  0.74508375  1
  O  O200  1  0.23213023  0.31451503  0.74507285  1
  O  O201  1  0.74139058  0.31211956  0.74421795  1
  O  O202  1  0.41414581  0.51910802  0.74532783  1
  O  O203  1  0.91193724  0.52440603  0.74443981  1
  O  O204  1  0.34123076  0.51229071  0.24503789  1
  O  O205  1  0.84114873  0.51205145  0.24500611  1
  O  O206  1  0.40870922  0.29652520  0.24419755  1
  O  O207  1  0.90864632  0.29642878  0.24413092  1
  O  O208  1  0.23281542  0.15123637  0.24498698  1
  O  O209  1  0.73295041  0.15146963  0.24495150  1
  O  O210  1  0.31998349  0.49861922  0.92081561  1
  O  O211  1  0.82117906  0.49530514  0.92227687  1
  O  O212  1  0.42842873  0.35847425  0.92140489  1
  O  O213  1  0.92708113  0.35805559  0.92226095  1
  O  O214  1  0.25093198  0.14577658  0.92233389  1
  O  O215  1  0.75301669  0.14627596  0.92243432  1
  O  O216  1  0.32134593  0.14321690  0.42072444  1
  O  O217  1  0.82060078  0.14558849  0.42171565  1
  O  O218  1  0.25085291  0.35454692  0.42189597  1
  O  O219  1  0.75304150  0.35686747  0.42322916  1
  O  O220  1  0.42936838  0.50052735  0.42163191  1
  O  O221  1  0.92655742  0.49568906  0.42172586  1
  O  O222  1  0.17872385  0.50381757  0.07822631  1
  O  O223  1  0.67937341  0.50361918  0.07776164  1
  O  O224  1  0.07467556  0.64358189  0.07705495  1
  O  O225  1  0.57542715  0.64452946  0.07748780  1
  O  O226  1  0.24754734  0.85291297  0.07842916  1
  O  O227  1  0.74779807  0.85457038  0.07817724  1
  O  O228  1  0.17768756  0.85440498  0.57838530  1
  O  O229  1  0.67965069  0.85408027  0.57767304  1
  O  O230  1  0.24875360  0.64369102  0.57871982  1
  O  O231  1  0.74772048  0.64239938  0.57761827  1
  O  O232  1  0.07172897  0.50078148  0.57800989  1
  O  O233  1  0.57503666  0.50718487  0.57802463  1
  O  O234  1  0.15691395  0.84865128  0.25497729  1
  O  O235  1  0.65712557  0.84875597  0.25498503  1
  O  O236  1  0.26042616  0.70329341  0.25554940  1
  O  O237  1  0.76048919  0.70347639  0.25570218  1
  O  O238  1  0.08478266  0.48772863  0.25467816  1
  O  O239  1  0.58508232  0.48786789  0.25489312  1
  O  O240  1  0.15644142  0.46511346  0.75525371  1
  O  O241  1  0.65553904  0.48281755  0.75568140  1
  O  O242  1  0.08631191  0.68406498  0.75478961  1
  O  O243  1  0.58561468  0.68823677  0.75557591  1
  O  O244  1  0.25938577  0.81524739  0.75591021  1
  O  O245  1  0.75977065  0.82845264  0.75561065  1
