# generated using pymatgen
data_Na4Nb3GaSi5SO24
_symmetry_space_group_name_H-M   'P 1'
_cell_length_a   8.95345225
_cell_length_b   8.93920703
_cell_length_c   22.65201636
_cell_angle_alpha   89.64233327
_cell_angle_beta   90.88586687
_cell_angle_gamma   119.65367053
_symmetry_Int_Tables_number   1
_chemical_formula_structural   Na4Nb3GaSi5SO24
_chemical_formula_sum   'Na12 Nb9 Ga3 Si15 S3 O72'
_cell_volume   1575.35922832
_cell_formula_units_Z   3
loop_
 _symmetry_equiv_pos_site_id
 _symmetry_equiv_pos_as_xyz
  1  'x, y, z'
loop_
 _atom_site_type_symbol
 _atom_site_label
 _atom_site_symmetry_multiplicity
 _atom_site_fract_x
 _atom_site_fract_y
 _atom_site_fract_z
 _atom_site_occupancy
  Na  Na0  1  0.63466446  0.62715118  0.74634723  1
  Na  Na1  1  0.99214797  0.36312847  0.74815090  1
  Na  Na2  1  0.37361010  0.00720786  0.74652024  1
  Na  Na3  1  0.66338915  0.69137470  0.08427039  1
  Na  Na4  1  0.02776951  0.33816948  0.08359448  1
  Na  Na5  1  0.32645683  0.02865736  0.41576710  1
  Na  Na6  1  0.99165069  0.99621890  0.49551656  1
  Na  Na7  1  0.00663293  0.99719879  0.99573501  1
  Na  Na8  1  0.66688738  0.33296789  0.83367681  1
  Na  Na9  1  0.68186503  0.33843556  0.32811925  1
  Na  Na10  1  0.33110484  0.67204930  0.16804256  1
  Na  Na11  1  0.33818374  0.67040459  0.66255403  1
  Nb  Nb12  1  0.99823397  0.00049132  0.85490731  1
  Nb  Nb13  1  0.00170329  0.99171699  0.64424644  1
  Nb  Nb14  1  0.00838277  0.01179923  0.14523775  1
  Nb  Nb15  1  0.66614665  0.33427720  0.97797403  1
  Nb  Nb16  1  0.66172598  0.34105017  0.47676588  1
  Nb  Nb17  1  0.33265081  0.66949893  0.02037272  1
  Nb  Nb18  1  0.34611163  0.67964823  0.51869254  1
  Nb  Nb19  1  0.32111503  0.65520764  0.31481932  1
  Nb  Nb20  1  0.33368213  0.66657106  0.81441373  1
  Ga  Ga21  1  0.98882247  0.01215497  0.35870152  1
  Ga  Ga22  1  0.64995147  0.32814186  0.68729117  1
  Ga  Ga23  1  0.68428778  0.33224984  0.18035281  1
  Si  Si24  1  0.98864558  0.28772938  0.25224875  1
  Si  Si25  1  0.28817722  0.28748337  0.74950160  1
  Si  Si26  1  0.99535187  0.70479281  0.74994490  1
  Si  Si27  1  0.71126168  0.00352693  0.74738741  1
  Si  Si28  1  0.38175938  0.04803893  0.58504934  1
  Si  Si29  1  0.66398838  0.61823458  0.58636999  1
  Si  Si30  1  0.95560678  0.62249714  0.08505891  1
  Si  Si31  1  0.65953010  0.04572131  0.08551323  1
  Si  Si32  1  0.38927101  0.33223759  0.08670281  1
  Si  Si33  1  0.62591183  0.66830710  0.91778601  1
  Si  Si34  1  0.04190161  0.37615952  0.91686997  1
  Si  Si35  1  0.33406551  0.95913041  0.91611409  1
  Si  Si36  1  0.62886859  0.95770316  0.41398825  1
  Si  Si37  1  0.32428577  0.37450591  0.41758488  1
  Si  Si38  1  0.03909305  0.66949512  0.41584929  1
  S  S39  1  0.29308951  0.00393027  0.25172801  1
  S  S40  1  0.71252712  0.71048993  0.25097196  1
  S  S41  1  0.95605496  0.33517264  0.58442164  1
  O  O42  1  0.21171032  0.02075973  0.30475729  1
  O  O43  1  0.81998270  0.79293367  0.30324921  1
  O  O44  1  0.97224492  0.16661038  0.30703842  1
  O  O45  1  0.19444698  0.16219126  0.80628314  1
  O  O46  1  0.96298742  0.79972976  0.80575614  1
  O  O47  1  0.83513731  0.03448272  0.80579066  1
  O  O48  1  0.80333356  0.96385959  0.69242992  1
  O  O49  1  0.15918983  0.19812748  0.69273463  1
  O  O50  1  0.03767622  0.83627748  0.69306506  1
  O  O51  1  0.79431957  0.81633262  0.19566609  1
  O  O52  1  0.02251252  0.19481715  0.19229564  1
  O  O53  1  0.17826998  0.97643182  0.19758078  1
  O  O54  1  0.88225559  0.36043035  0.63879888  1
  O  O55  1  0.49368272  0.12434375  0.64513871  1
  O  O56  1  0.63837377  0.50957701  0.64610829  1
  O  O57  1  0.88055329  0.49936820  0.14116221  1
  O  O58  1  0.62618180  0.12350938  0.14321645  1
  O  O59  1  0.51283797  0.37519198  0.14353525  1
  O  O60  1  0.47171202  0.30107788  0.02704779  1
  O  O61  1  0.83005565  0.53598634  0.02676077  1
  O  O62  1  0.70816880  0.17138374  0.02765982  1
  O  O63  1  0.47434296  0.16476723  0.52587410  1
  O  O64  1  0.69399505  0.52547158  0.52813202  1
  O  O65  1  0.84663257  0.30972183  0.53135847  1
  O  O66  1  0.53251860  0.69290059  0.97567753  1
  O  O67  1  0.16180011  0.46694739  0.97569276  1
  O  O68  1  0.30715707  0.83389655  0.97306400  1
  O  O69  1  0.53023092  0.83626627  0.47268099  1
  O  O70  1  0.30320890  0.47282338  0.47415372  1
  O  O71  1  0.16931591  0.70253969  0.47233472  1
  O  O72  1  0.13517673  0.63375185  0.35893888  1
  O  O73  1  0.49318547  0.86386020  0.35832235  1
  O  O74  1  0.36310113  0.50071837  0.35942008  1
  O  O75  1  0.13576117  0.49652145  0.85810772  1
  O  O76  1  0.36044168  0.86631688  0.85735062  1
  O  O77  1  0.50513235  0.63979370  0.85823648  1
  O  O78  1  0.03259524  0.84400505  0.40471772  1
  O  O79  1  0.81205784  0.96900101  0.41253505  1
  O  O80  1  0.17059573  0.18017141  0.41050794  1
  O  O81  1  0.02705871  0.18823843  0.90991527  1
  O  O82  1  0.16111785  0.97328439  0.91022490  1
  O  O83  1  0.81262446  0.83907271  0.91031152  1
  O  O84  1  0.97218969  0.17637471  0.58824736  1
  O  O85  1  0.18854549  0.03092953  0.59003506  1
  O  O86  1  0.83473476  0.81376500  0.58985170  1
  O  O87  1  0.96958626  0.81195140  0.09327255  1
  O  O88  1  0.83483359  0.02097587  0.09302562  1
  O  O89  1  0.18920586  0.16509910  0.09237162  1
  O  O90  1  0.69459573  0.17575793  0.74285235  1
  O  O91  1  0.47843162  0.30844359  0.74671267  1
  O  O92  1  0.83029659  0.51532459  0.74254084  1
  O  O93  1  0.68904797  0.53615595  0.24474473  1
  O  O94  1  0.82180872  0.31266857  0.24419449  1
  O  O95  1  0.46188108  0.15731757  0.24419611  1
  O  O96  1  0.63985313  0.49432912  0.92247647  1
  O  O97  1  0.85449619  0.36068964  0.92297062  1
  O  O98  1  0.50582572  0.14518289  0.92294247  1
  O  O99  1  0.63511307  0.14257251  0.42484201  1
  O  O100  1  0.50087535  0.35783420  0.42310367  1
  O  O101  1  0.85539435  0.49380656  0.42469373  1
  O  O102  1  0.35599482  0.49771812  0.07764373  1
  O  O103  1  0.14598398  0.64055168  0.07574537  1
  O  O104  1  0.50271586  0.84703795  0.07695794  1
  O  O105  1  0.35159556  0.85104981  0.57633599  1
  O  O106  1  0.49280853  0.63961394  0.57669861  1
  O  O107  1  0.12970466  0.48854563  0.57773964  1
  O  O108  1  0.30727492  0.84260485  0.25337887  1
  O  O109  1  0.53888678  0.70036836  0.25424170  1
  O  O110  1  0.17063896  0.48085059  0.25604066  1
  O  O111  1  0.30570995  0.47943996  0.75575064  1
  O  O112  1  0.17228759  0.69283907  0.75539124  1
  O  O113  1  0.52140027  0.82971446  0.75554171  1
