# generated using pymatgen
data_Na6Zr8Si7S5O48
_symmetry_space_group_name_H-M   'P 1'
_cell_length_a   18.20626548
_cell_length_b   9.06149249
_cell_length_c   23.50392558
_cell_angle_alpha   89.87316998
_cell_angle_beta   90.11840638
_cell_angle_gamma   119.91174550
_symmetry_Int_Tables_number   1
_chemical_formula_structural   Na6Zr8Si7S5O48
_chemical_formula_sum   'Na18 Zr24 Si21 S15 O144'
_cell_volume   3361.05675239
_cell_formula_units_Z   3
loop_
 _symmetry_equiv_pos_site_id
 _symmetry_equiv_pos_as_xyz
  1  'x, y, z'
loop_
 _atom_site_type_symbol
 _atom_site_label
 _atom_site_symmetry_multiplicity
 _atom_site_fract_x
 _atom_site_fract_y
 _atom_site_fract_z
 _atom_site_occupancy
  Na  Na0  1  0.00054528  0.63228471  0.25280620  1
  Na  Na1  1  0.49773037  0.65045987  0.24403081  1
  Na  Na2  1  0.99873042  0.34472509  0.75298259  1
  Na  Na3  1  0.49995218  0.37097208  0.75530228  1
  Na  Na4  1  0.66429686  0.31567904  0.91801644  1
  Na  Na5  1  0.16589828  0.01801284  0.41384018  1
  Na  Na6  1  0.99869510  0.97928898  0.50360876  1
  Na  Na7  1  0.49202757  0.98599767  0.49271530  1
  Na  Na8  1  0.99235875  0.99804203  0.99532574  1
  Na  Na9  1  0.49727062  0.00543792  0.00869276  1
  Na  Na10  1  0.33451007  0.33728727  0.83248725  1
  Na  Na11  1  0.83325669  0.33090198  0.83651390  1
  Na  Na12  1  0.33201654  0.33631872  0.32790565  1
  Na  Na13  1  0.83341134  0.32716947  0.32630079  1
  Na  Na14  1  0.17913311  0.67845292  0.17315985  1
  Na  Na15  1  0.67009750  0.66508100  0.16000361  1
  Na  Na16  1  0.17937040  0.68851753  0.66681159  1
  Na  Na17  1  0.67594500  0.67797799  0.67559269  1
  Zr  Zr18  1  0.99897130  0.99545990  0.34765677  1
  Zr  Zr19  1  0.49621751  0.97866001  0.35343468  1
  Zr  Zr20  1  0.99602667  0.01402051  0.85531956  1
  Zr  Zr21  1  0.49832596  0.00013005  0.84886185  1
  Zr  Zr22  1  0.99951203  0.00065140  0.64543446  1
  Zr  Zr23  1  0.49697422  0.99342835  0.65324907  1
  Zr  Zr24  1  0.99801550  0.00232034  0.15332682  1
  Zr  Zr25  1  0.49763993  0.98643156  0.14192219  1
  Zr  Zr26  1  0.32515482  0.32540521  0.69119058  1
  Zr  Zr27  1  0.82462389  0.33226971  0.68785713  1
  Zr  Zr28  1  0.33161799  0.32738365  0.18398170  1
  Zr  Zr29  1  0.82530489  0.32358296  0.19063215  1
  Zr  Zr30  1  0.34366883  0.33408362  0.98189525  1
  Zr  Zr31  1  0.83354701  0.33905462  0.97951275  1
  Zr  Zr32  1  0.33380313  0.32870799  0.47855188  1
  Zr  Zr33  1  0.83905237  0.35389740  0.47970257  1
  Zr  Zr34  1  0.16639329  0.66699893  0.02080809  1
  Zr  Zr35  1  0.66376477  0.64575410  0.02050652  1
  Zr  Zr36  1  0.17025945  0.68913979  0.51782592  1
  Zr  Zr37  1  0.66603771  0.66600880  0.52052183  1
  Zr  Zr38  1  0.16907642  0.67616866  0.31029812  1
  Zr  Zr39  1  0.66546641  0.67226637  0.31153919  1
  Zr  Zr40  1  0.16711381  0.66067219  0.81332457  1
  Zr  Zr41  1  0.66903670  0.66348428  0.81198102  1
  Si  Si42  1  0.14860503  0.00723408  0.25047440  1
  Si  Si43  1  0.64230124  0.00242365  0.25138356  1
  Si  Si44  1  0.35355930  0.70552692  0.24842165  1
  Si  Si45  1  0.85148753  0.70626202  0.24962498  1
  Si  Si46  1  0.00064094  0.29435150  0.25091026  1
  Si  Si47  1  0.14220708  0.28463219  0.75099445  1
  Si  Si48  1  0.64501407  0.28968067  0.75085199  1
  Si  Si49  1  0.50084081  0.70683007  0.75055777  1
  Si  Si50  1  0.35144681  0.99577376  0.74971515  1
  Si  Si51  1  0.85449801  0.00030885  0.74771827  1
  Si  Si52  1  0.18757222  0.04436431  0.58290511  1
  Si  Si53  1  0.83276235  0.62995821  0.58384355  1
  Si  Si54  1  0.48215177  0.62437477  0.08431131  1
  Si  Si55  1  0.33155894  0.03700207  0.08396792  1
  Si  Si56  1  0.68831703  0.33109758  0.08314441  1
  Si  Si57  1  0.81362553  0.67116751  0.91744966  1
  Si  Si58  1  0.02082639  0.37844425  0.91711789  1
  Si  Si59  1  0.51867768  0.36981065  0.91345992  1
  Si  Si60  1  0.31562538  0.96067901  0.41585062  1
  Si  Si61  1  0.02045344  0.66945717  0.41423114  1
  Si  Si62  1  0.52142321  0.66586459  0.41723511  1
  S  S63  1  0.50033723  0.28963470  0.25118147  1
  S  S64  1  0.00035623  0.70961917  0.75001762  1
  S  S65  1  0.47954523  0.33190409  0.58330245  1
  S  S66  1  0.97921252  0.33520861  0.58315845  1
  S  S67  1  0.68676742  0.04238732  0.58169901  1
  S  S68  1  0.33392292  0.62531866  0.58262305  1
  S  S69  1  0.97980025  0.62755677  0.08334348  1
  S  S70  1  0.83536092  0.04390714  0.08262280  1
  S  S71  1  0.18598606  0.33000117  0.08120649  1
  S  S72  1  0.31130461  0.66464541  0.91772472  1
  S  S73  1  0.16670369  0.95775986  0.91646464  1
  S  S74  1  0.66608080  0.95625305  0.91766271  1
  S  S75  1  0.81156734  0.95721876  0.41830210  1
  S  S76  1  0.16549268  0.37583448  0.41872596  1
  S  S77  1  0.66697457  0.37650200  0.41749035  1
  O  O78  1  0.10434790  0.02793718  0.30910830  1
  O  O79  1  0.60103723  0.03249561  0.30821685  1
  O  O80  1  0.41460866  0.79210796  0.30519587  1
  O  O81  1  0.91345797  0.79406303  0.30512492  1
  O  O82  1  0.48982206  0.18941955  0.30291167  1
  O  O83  1  0.98503751  0.17458404  0.30692017  1
  O  O84  1  0.09901955  0.16804042  0.80671382  1
  O  O85  1  0.60357089  0.17959364  0.80867829  1
  O  O86  1  0.48516787  0.79501086  0.80617438  1
  O  O87  1  0.98698904  0.78388703  0.80108448  1
  O  O88  1  0.41313861  0.03056876  0.80473324  1
  O  O89  1  0.91595107  0.04079188  0.80399792  1
  O  O90  1  0.39507046  0.96546971  0.69312564  1
  O  O91  1  0.90012768  0.97169814  0.69265823  1
  O  O92  1  0.08203684  0.20139050  0.69527533  1
  O  O93  1  0.58460455  0.19562221  0.69545967  1
  O  O94  1  0.01258622  0.81121477  0.69807125  1
  O  O95  1  0.51336788  0.82468986  0.69378912  1
  O  O96  1  0.39898108  0.82620930  0.19387669  1
  O  O97  1  0.89593320  0.82507822  0.19342120  1
  O  O98  1  0.01312219  0.20206435  0.19449608  1
  O  O99  1  0.51252049  0.21461020  0.19946422  1
  O  O100  1  0.08489914  0.97524067  0.19616041  1
  O  O101  1  0.58183680  0.96279362  0.19649741  1
  O  O102  1  0.44387520  0.35825763  0.63551591  1
  O  O103  1  0.93975077  0.35692729  0.63527615  1
  O  O104  1  0.24902906  0.14234438  0.63688189  1
  O  O105  1  0.73827540  0.12072462  0.63400180  1
  O  O106  1  0.32655504  0.52655704  0.63439986  1
  O  O107  1  0.82080901  0.50686385  0.63829821  1
  O  O108  1  0.43678835  0.51173637  0.14188795  1
  O  O109  1  0.94399540  0.52947185  0.13576498  1
  O  O110  1  0.31508854  0.12608996  0.13902845  1
  O  O111  1  0.82872091  0.12984010  0.13444932  1
  O  O112  1  0.23701405  0.35487067  0.13321526  1
  O  O113  1  0.75029051  0.35334648  0.13673229  1
  O  O114  1  0.22718960  0.31091551  0.03000631  1
  O  O115  1  0.73380203  0.30991268  0.02511826  1
  O  O116  1  0.42099668  0.52550966  0.02899528  1
  O  O117  1  0.92664955  0.53905045  0.03274671  1
  O  O118  1  0.33996088  0.15055523  0.02708116  1
  O  O119  1  0.84692706  0.15052751  0.03145870  1
  O  O120  1  0.23272187  0.15398036  0.52484694  1
  O  O121  1  0.73073323  0.14588252  0.53109260  1
  O  O122  1  0.34493701  0.54302642  0.53144578  1
  O  O123  1  0.84288840  0.53032361  0.52768301  1
  O  O124  1  0.42643548  0.31424754  0.53276168  1
  O  O125  1  0.92458477  0.31457279  0.53240295  1
  O  O126  1  0.27001978  0.68848993  0.96873820  1
  O  O127  1  0.76906475  0.69944061  0.97286400  1
  O  O128  1  0.08200896  0.48188629  0.97089144  1
  O  O129  1  0.58053330  0.46487832  0.96845669  1
  O  O130  1  0.15908404  0.85366887  0.96802867  1
  O  O131  1  0.65666696  0.85708213  0.96902295  1
  O  O132  1  0.27060782  0.84403345  0.47303376  1
  O  O133  1  0.77000096  0.85005789  0.46944930  1
  O  O134  1  0.15643048  0.45742523  0.47050285  1
  O  O135  1  0.66040869  0.46554591  0.46905689  1
  O  O136  1  0.08148188  0.69257911  0.46968847  1
  O  O137  1  0.58231210  0.68407659  0.47200372  1
  O  O138  1  0.06158548  0.64322265  0.35694976  1
  O  O139  1  0.56589817  0.63915553  0.36059089  1
  O  O140  1  0.25145867  0.86958030  0.36274813  1
  O  O141  1  0.76016661  0.87570024  0.36672591  1
  O  O142  1  0.17658148  0.47688925  0.36712356  1
  O  O143  1  0.68252779  0.48291543  0.36658680  1
  O  O144  1  0.06449389  0.49031825  0.85877025  1
  O  O145  1  0.56249847  0.48012798  0.85582729  1
  O  O146  1  0.17966817  0.87586146  0.86541983  1
  O  O147  1  0.67735599  0.87836943  0.86571117  1
  O  O148  1  0.25980087  0.64847198  0.86581613  1
  O  O149  1  0.75208234  0.63528893  0.86205880  1
  O  O150  1  0.01501020  0.84537850  0.41333860  1
  O  O151  1  0.51565316  0.84040406  0.41456106  1
  O  O152  1  0.41086986  0.99331561  0.41032997  1
  O  O153  1  0.89672540  0.97670203  0.41402917  1
  O  O154  1  0.09019932  0.20094716  0.41468468  1
  O  O155  1  0.59017840  0.21080128  0.41380118  1
  O  O156  1  0.01534871  0.19187634  0.91416536  1
  O  O157  1  0.51424447  0.18313711  0.91104412  1
  O  O158  1  0.08800473  0.96488864  0.91182116  1
  O  O159  1  0.59095988  0.98101234  0.91264788  1
  O  O160  1  0.39641340  0.81548653  0.91292918  1
  O  O161  1  0.90987653  0.82828625  0.90931554  1
  O  O162  1  0.48895117  0.17812812  0.58556865  1
  O  O163  1  0.98492280  0.17777106  0.58570391  1
  O  O164  1  0.09386195  0.02449283  0.58974837  1
  O  O165  1  0.60209590  0.02586085  0.58610740  1
  O  O166  1  0.41015886  0.79994220  0.58601948  1
  O  O167  1  0.91683574  0.81537210  0.58820654  1
  O  O168  1  0.48759034  0.80939339  0.08594869  1
  O  O169  1  0.98894702  0.79984658  0.08554819  1
  O  O170  1  0.41618620  0.02328457  0.08896221  1
  O  O171  1  0.91287425  0.02570416  0.08624844  1
  O  O172  1  0.09998565  0.17727388  0.08640058  1
  O  O173  1  0.59470729  0.16733432  0.08977189  1
  O  O174  1  0.34986691  0.17363661  0.74261882  1
  O  O175  1  0.85377779  0.18139758  0.73842186  1
  O  O176  1  0.23821237  0.31788877  0.74445076  1
  O  O177  1  0.73944341  0.31003624  0.74432454  1
  O  O178  1  0.41943395  0.51672984  0.74066503  1
  O  O179  1  0.92638666  0.53214527  0.74266957  1
  O  O180  1  0.35094702  0.52199579  0.24276480  1
  O  O181  1  0.85037336  0.52563258  0.24266062  1
  O  O182  1  0.42496415  0.31500307  0.24657185  1
  O  O183  1  0.91957385  0.32233698  0.24185686  1
  O  O184  1  0.24173541  0.17277487  0.24458958  1
  O  O185  1  0.73889540  0.16109141  0.24559657  1
  O  O186  1  0.31504276  0.50626275  0.92209572  1
  O  O187  1  0.81644074  0.49030761  0.92393865  1
  O  O188  1  0.42397664  0.34943274  0.91962384  1
  O  O189  1  0.92624286  0.35372214  0.92450607  1
  O  O190  1  0.24102477  0.13012537  0.92187077  1
  O  O191  1  0.74286281  0.13240611  0.92167820  1
  O  O192  1  0.31722023  0.14448084  0.42369784  1
  O  O193  1  0.81731185  0.12601974  0.42503630  1
  O  O194  1  0.24211390  0.35411010  0.42340679  1
  O  O195  1  0.74278631  0.35258689  0.42467044  1
  O  O196  1  0.42683965  0.50131765  0.42639780  1
  O  O197  1  0.92543900  0.49863007  0.42349373  1
  O  O198  1  0.17706773  0.48550886  0.07608566  1
  O  O199  1  0.68334538  0.50707034  0.07919699  1
  O  O200  1  0.06586650  0.64643485  0.07567524  1
  O  O201  1  0.57653759  0.64864619  0.07684188  1
  O  O202  1  0.24672479  0.84671988  0.07544544  1
  O  O203  1  0.75855783  0.87678868  0.07810362  1
  O  O204  1  0.17789529  0.85179245  0.57897040  1
  O  O205  1  0.67867011  0.87031463  0.57704702  1
  O  O206  1  0.25561807  0.63775465  0.57799861  1
  O  O207  1  0.74733366  0.64489562  0.57579355  1
  O  O208  1  0.06435642  0.48489804  0.57644583  1
  O  O209  1  0.56602786  0.48538028  0.57556176  1
  O  O210  1  0.15117104  0.82927315  0.25407040  1
  O  O211  1  0.64864080  0.82561382  0.25937510  1
  O  O212  1  0.25959467  0.67996043  0.25771426  1
  O  O213  1  0.75770241  0.68062895  0.25950266  1
  O  O214  1  0.08306887  0.48333296  0.25676006  1
  O  O215  1  0.57619835  0.46562480  0.25719071  1
  O  O216  1  0.14765667  0.47315781  0.75832510  1
  O  O217  1  0.65104248  0.47464204  0.75366123  1
  O  O218  1  0.07667843  0.68781998  0.75527866  1
  O  O219  1  0.58337883  0.68315463  0.75605896  1
  O  O220  1  0.25669456  0.83358063  0.75795888  1
  O  O221  1  0.76014333  0.84086517  0.75632522  1
