# generated using pymatgen
data_Na6Nb6Al2Si9(SO16)3
_symmetry_space_group_name_H-M   'P 1'
_cell_length_a   17.74068849
_cell_length_b   8.87098631
_cell_length_c   22.62511479
_cell_angle_alpha   90.00637982
_cell_angle_beta   90.06719543
_cell_angle_gamma   120.01525949
_symmetry_Int_Tables_number   1
_chemical_formula_structural   Na6Nb6Al2Si9(SO16)3
_chemical_formula_sum   'Na18 Nb18 Al6 Si27 S9 O144'
_cell_volume   3083.16354701
_cell_formula_units_Z   3
loop_
 _symmetry_equiv_pos_site_id
 _symmetry_equiv_pos_as_xyz
  1  'x, y, z'
loop_
 _atom_site_type_symbol
 _atom_site_label
 _atom_site_symmetry_multiplicity
 _atom_site_fract_x
 _atom_site_fract_y
 _atom_site_fract_z
 _atom_site_occupancy
  Na  Na0  1  0.32071587  0.01267037  0.25011224  1
  Na  Na1  1  0.68259292  0.36413194  0.24443771  1
  Na  Na2  1  0.49568002  0.61914980  0.24897898  1
  Na  Na3  1  0.82029480  0.62972769  0.74793983  1
  Na  Na4  1  0.99605745  0.37196068  0.74656253  1
  Na  Na5  1  0.18469851  0.00642021  0.74074326  1
  Na  Na6  1  0.00370631  0.01258535  0.49947970  1
  Na  Na7  1  0.50509313  0.99785417  0.49358212  1
  Na  Na8  1  0.00520160  0.01700719  0.99101547  1
  Na  Na9  1  0.50404040  0.99491486  0.99788478  1
  Na  Na10  1  0.34073610  0.33620904  0.82974460  1
  Na  Na11  1  0.82911276  0.32069009  0.82583224  1
  Na  Na12  1  0.32854721  0.34128154  0.33165746  1
  Na  Na13  1  0.84021322  0.34427557  0.33473090  1
  Na  Na14  1  0.16705867  0.65511689  0.16586600  1
  Na  Na15  1  0.67363499  0.67254773  0.16586045  1
  Na  Na16  1  0.17552597  0.67497621  0.66412703  1
  Na  Na17  1  0.65981370  0.67033201  0.66051778  1
  Nb  Nb18  1  0.00255414  0.98513433  0.35741790  1
  Nb  Nb19  1  0.50294416  0.02040626  0.85585177  1
  Nb  Nb20  1  0.99724264  0.99079605  0.64331761  1
  Nb  Nb21  1  0.49912586  0.01362876  0.63839296  1
  Nb  Nb22  1  0.99975479  0.99630145  0.14324935  1
  Nb  Nb23  1  0.49750209  0.00343806  0.14352864  1
  Nb  Nb24  1  0.32829884  0.34102926  0.97567698  1
  Nb  Nb25  1  0.82937068  0.31300777  0.97621212  1
  Nb  Nb26  1  0.33545545  0.34702487  0.48046497  1
  Nb  Nb27  1  0.82772470  0.31367101  0.47626328  1
  Nb  Nb28  1  0.16519956  0.65195370  0.01544677  1
  Nb  Nb29  1  0.65957655  0.66677606  0.02930724  1
  Nb  Nb30  1  0.15984069  0.65061587  0.52909591  1
  Nb  Nb31  1  0.65855694  0.66971739  0.51743808  1
  Nb  Nb32  1  0.16464363  0.66084276  0.31127412  1
  Nb  Nb33  1  0.66880873  0.65717316  0.31540056  1
  Nb  Nb34  1  0.16852601  0.68047415  0.81407428  1
  Nb  Nb35  1  0.66222098  0.66567389  0.80866379  1
  Al  Al36  1  0.49472979  0.99977087  0.35586214  1
  Al  Al37  1  0.99642991  0.99355323  0.85463602  1
  Al  Al38  1  0.33638557  0.31986190  0.67815086  1
  Al  Al39  1  0.83238067  0.31034369  0.69331224  1
  Al  Al40  1  0.33192451  0.35478860  0.19417847  1
  Al  Al41  1  0.83027851  0.34094180  0.18230685  1
  Si  Si42  1  0.14920060  0.01104866  0.24827560  1
  Si  Si43  1  0.35979426  0.71532425  0.25444825  1
  Si  Si44  1  0.85660980  0.69871995  0.24775941  1
  Si  Si45  1  0.49677530  0.28355260  0.25270876  1
  Si  Si46  1  0.64897079  0.28444506  0.74721212  1
  Si  Si47  1  0.99680033  0.71195583  0.75309529  1
  Si  Si48  1  0.35710187  0.01435249  0.74701895  1
  Si  Si49  1  0.86030073  0.00456599  0.75469474  1
  Si  Si50  1  0.47683948  0.34180189  0.58435007  1
  Si  Si51  1  0.96789438  0.32790717  0.58989810  1
  Si  Si52  1  0.19257800  0.05094369  0.58539304  1
  Si  Si53  1  0.69479943  0.05015939  0.58897321  1
  Si  Si54  1  0.33299969  0.61000487  0.59083584  1
  Si  Si55  1  0.46764019  0.60760905  0.08985670  1
  Si  Si56  1  0.83366537  0.05570658  0.08938019  1
  Si  Si57  1  0.19389416  0.33847170  0.08845093  1
  Si  Si58  1  0.69270999  0.33477856  0.08596870  1
  Si  Si59  1  0.31340885  0.67232451  0.91387391  1
  Si  Si60  1  0.01945137  0.36188849  0.91144989  1
  Si  Si61  1  0.52350826  0.38602108  0.91931227  1
  Si  Si62  1  0.15759955  0.95464251  0.91842727  1
  Si  Si63  1  0.66385361  0.94706467  0.91582979  1
  Si  Si64  1  0.81152250  0.94935678  0.41641899  1
  Si  Si65  1  0.16760621  0.37762351  0.41646967  1
  Si  Si66  1  0.65821472  0.36032064  0.41819898  1
  Si  Si67  1  0.02303309  0.65938945  0.41948598  1
  Si  Si68  1  0.51755620  0.67639435  0.41108172  1
  S  S69  1  0.64678616  0.00502160  0.24950909  1
  S  S70  1  0.99504946  0.28672660  0.24856852  1
  S  S71  1  0.14474507  0.28707533  0.75128491  1
  S  S72  1  0.49417296  0.70593938  0.74981474  1
  S  S73  1  0.83111722  0.61493144  0.58512063  1
  S  S74  1  0.97568967  0.61597066  0.08491573  1
  S  S75  1  0.33010613  0.04488174  0.08496395  1
  S  S76  1  0.81245078  0.67116059  0.91671402  1
  S  S77  1  0.31219129  0.95351564  0.41586742  1
  O  O78  1  0.09965105  0.03465058  0.30589556  1
  O  O79  1  0.60767782  0.03389636  0.30202398  1
  O  O80  1  0.42349560  0.81395075  0.30839542  1
  O  O81  1  0.91723831  0.80121366  0.30550745  1
  O  O82  1  0.48513426  0.15795447  0.30691855  1
  O  O83  1  0.98419883  0.18554152  0.30230433  1
  O  O84  1  0.10355746  0.17941653  0.80376919  1
  O  O85  1  0.60103938  0.16628696  0.80677406  1
  O  O86  1  0.48799652  0.79139626  0.80440178  1
  O  O87  1  0.98513895  0.81238699  0.80792055  1
  O  O88  1  0.41728515  0.03163942  0.80603636  1
  O  O89  1  0.92340151  0.03494991  0.80932476  1
  O  O90  1  0.40226496  0.97760384  0.69085929  1
  O  O91  1  0.90399951  0.96525675  0.69516523  1
  O  O92  1  0.09028690  0.20765142  0.69684655  1
  O  O93  1  0.58331539  0.19203117  0.69235412  1
  O  O94  1  0.01967585  0.84029993  0.69384082  1
  O  O95  1  0.51105552  0.81326285  0.69695470  1
  O  O96  1  0.40474434  0.84215832  0.19446613  1
  O  O97  1  0.90283994  0.82587922  0.19040796  1
  O  O98  1  0.01091639  0.20737242  0.19551183  1
  O  O99  1  0.51925803  0.19879634  0.19305510  1
  O  O100  1  0.08322261  0.97674347  0.19247421  1
  O  O101  1  0.59183806  0.97580365  0.19535227  1
  O  O102  1  0.43428673  0.36547019  0.64291702  1
  O  O103  1  0.93034885  0.36071820  0.64957218  1
  O  O104  1  0.24421849  0.12707674  0.64667935  1
  O  O105  1  0.75451102  0.14784127  0.64436306  1
  O  O106  1  0.31733960  0.48548008  0.64578880  1
  O  O107  1  0.82483363  0.52381832  0.64021026  1
  O  O108  1  0.42925754  0.49872993  0.14913048  1
  O  O109  1  0.93405995  0.51608715  0.13845223  1
  O  O110  1  0.32260460  0.12154498  0.13967327  1
  O  O111  1  0.82454940  0.15858187  0.14402286  1
  O  O112  1  0.25341917  0.36283711  0.14410292  1
  O  O113  1  0.74565901  0.36164338  0.14638357  1
  O  O114  1  0.23411063  0.30855347  0.02648405  1
  O  O115  1  0.74221928  0.31289794  0.02758065  1
  O  O116  1  0.41289603  0.51818349  0.02914422  1
  O  O117  1  0.92634085  0.53878967  0.03034560  1
  O  O118  1  0.34201542  0.14714363  0.03116310  1
  O  O119  1  0.84819796  0.16754249  0.02673441  1
  O  O120  1  0.23735377  0.17073145  0.52663898  1
  O  O121  1  0.73473352  0.16388075  0.52700399  1
  O  O122  1  0.34808458  0.53152222  0.52764950  1
  O  O123  1  0.84369051  0.53670581  0.53147583  1
  O  O124  1  0.41908412  0.31231992  0.52442696  1
  O  O125  1  0.91350939  0.30759121  0.52909278  1
  O  O126  1  0.26543132  0.69450273  0.97309552  1
  O  O127  1  0.77020073  0.69284275  0.96919037  1
  O  O128  1  0.08295261  0.46437027  0.97058203  1
  O  O129  1  0.58491856  0.47654233  0.97647181  1
  O  O130  1  0.14829358  0.82762172  0.97522203  1
  O  O131  1  0.65710000  0.83573053  0.97450202  1
  O  O132  1  0.27031600  0.84732387  0.46829441  1
  O  O133  1  0.76589168  0.83246805  0.47429332  1
  O  O134  1  0.15739675  0.47759463  0.47379475  1
  O  O135  1  0.64835794  0.46846207  0.47343202  1
  O  O136  1  0.08505093  0.69308510  0.47598592  1
  O  O137  1  0.58010803  0.69991200  0.47010916  1
  O  O138  1  0.07119052  0.64197138  0.35957172  1
  O  O139  1  0.56754285  0.64436400  0.35401604  1
  O  O140  1  0.25868675  0.87018718  0.36025417  1
  O  O141  1  0.75122665  0.85949995  0.35765988  1
  O  O142  1  0.18004173  0.49963538  0.35756963  1
  O  O143  1  0.67894198  0.48746211  0.35789578  1
  O  O144  1  0.06627395  0.49075153  0.85454666  1
  O  O145  1  0.57112102  0.50134531  0.86019338  1
  O  O146  1  0.17806895  0.86718445  0.85931398  1
  O  O147  1  0.68056992  0.85990401  0.85739935  1
  O  O148  1  0.25068339  0.64088071  0.85755558  1
  O  O149  1  0.75926878  0.63975600  0.86154169  1
  O  O150  1  0.01555874  0.83674409  0.41221510  1
  O  O151  1  0.50942088  0.84675280  0.40560230  1
  O  O152  1  0.39840085  0.96950979  0.40900258  1
  O  O153  1  0.90764088  0.97504126  0.40703099  1
  O  O154  1  0.07889775  0.19053458  0.40754180  1
  O  O155  1  0.57380567  0.17593324  0.40625728  1
  O  O156  1  0.00848983  0.17316378  0.90708232  1
  O  O157  1  0.51580612  0.19414055  0.91210357  1
  O  O158  1  0.07359468  0.97167188  0.90755555  1
  O  O159  1  0.57874666  0.96721913  0.90919816  1
  O  O160  1  0.40837935  0.84073701  0.90882999  1
  O  O161  1  0.89881199  0.82670869  0.91033775  1
  O  O162  1  0.48686748  0.16540635  0.58528406  1
  O  O163  1  0.98314513  0.15883930  0.59339740  1
  O  O164  1  0.09344011  0.02655010  0.59036139  1
  O  O165  1  0.59572550  0.02116415  0.59339468  1
  O  O166  1  0.41978799  0.80364654  0.59420128  1
  O  O167  1  0.91293022  0.79632991  0.58715053  1
  O  O168  1  0.48353924  0.80762733  0.09299469  1
  O  O169  1  0.98552199  0.79473589  0.08784812  1
  O  O170  1  0.41061011  0.02429558  0.08672382  1
  O  O171  1  0.91981693  0.03240068  0.09302639  1
  O  O172  1  0.09453302  0.16649479  0.09293464  1
  O  O173  1  0.59463006  0.16070270  0.08915178  1
  O  O174  1  0.34132131  0.17979413  0.74222998  1
  O  O175  1  0.84932428  0.17354175  0.74770477  1
  O  O176  1  0.23186604  0.30896684  0.74573079  1
  O  O177  1  0.74701096  0.32224286  0.74063632  1
  O  O178  1  0.41867657  0.53155756  0.74636569  1
  O  O179  1  0.91295181  0.51992857  0.74421059  1
  O  O180  1  0.34914639  0.52486940  0.24766965  1
  O  O181  1  0.84409833  0.50404304  0.24064258  1
  O  O182  1  0.41242415  0.30576265  0.24321741  1
  O  O183  1  0.92013161  0.31272088  0.24119397  1
  O  O184  1  0.24635410  0.17064450  0.23977593  1
  O  O185  1  0.73466697  0.16003484  0.24249925  1
  O  O186  1  0.31903754  0.49523401  0.91982656  1
  O  O187  1  0.82211704  0.51304989  0.92249594  1
  O  O188  1  0.42619512  0.35670037  0.92476589  1
  O  O189  1  0.92870409  0.36489862  0.92431691  1
  O  O190  1  0.24851763  0.13951476  0.92655353  1
  O  O191  1  0.75070504  0.14436018  0.92093498  1
  O  O192  1  0.31893454  0.12606865  0.41824395  1
  O  O193  1  0.81887748  0.14060248  0.42052025  1
  O  O194  1  0.25172530  0.35228540  0.41987091  1
  O  O195  1  0.74906491  0.35595034  0.42506550  1
  O  O196  1  0.42609151  0.49363428  0.41966568  1
  O  O197  1  0.92621286  0.49414234  0.42365983  1
  O  O198  1  0.17872977  0.50885431  0.07806861  1
  O  O199  1  0.68243077  0.50731118  0.07656701  1
  O  O200  1  0.06470375  0.63777465  0.08160083  1
  O  O201  1  0.56792388  0.63763294  0.08049960  1
  O  O202  1  0.25235901  0.86586506  0.07928152  1
  O  O203  1  0.74919699  0.86126864  0.07935445  1
  O  O204  1  0.18178113  0.85661046  0.57570990  1
  O  O205  1  0.68388584  0.85636397  0.57724748  1
  O  O206  1  0.24920243  0.63903923  0.57886660  1
  O  O207  1  0.75482355  0.63972746  0.57989987  1
  O  O208  1  0.06811221  0.49765954  0.58068668  1
  O  O209  1  0.57565168  0.50882209  0.57754141  1
  O  O210  1  0.15706128  0.83361078  0.25697509  1
  O  O211  1  0.65262703  0.84278038  0.25245196  1
  O  O212  1  0.26334816  0.70445302  0.25732046  1
  O  O213  1  0.75823827  0.67578555  0.25400716  1
  O  O214  1  0.07699946  0.46462318  0.25248965  1
  O  O215  1  0.58487284  0.48161610  0.25481710  1
  O  O216  1  0.14954158  0.46127472  0.75424556  1
  O  O217  1  0.65738977  0.47853319  0.75837799  1
  O  O218  1  0.08507987  0.68986580  0.75568880  1
  O  O219  1  0.57658144  0.68754780  0.75452705  1
  O  O220  1  0.25845999  0.83845825  0.75559731  1
  O  O221  1  0.76371505  0.82201822  0.75884399  1
