# generated using pymatgen
data_Na4Ti2Ga2Si3(SO8)3
_symmetry_space_group_name_H-M   'P 1'
_cell_length_a   8.78756494
_cell_length_b   8.75710141
_cell_length_c   22.31117235
_cell_angle_alpha   89.98400977
_cell_angle_beta   88.69064836
_cell_angle_gamma   119.72835754
_symmetry_Int_Tables_number   1
_chemical_formula_structural   Na4Ti2Ga2Si3(SO8)3
_chemical_formula_sum   'Na12 Ti6 Ga6 Si9 S9 O72'
_cell_volume   1490.43133505
_cell_formula_units_Z   3
loop_
 _symmetry_equiv_pos_site_id
 _symmetry_equiv_pos_as_xyz
  1  'x, y, z'
loop_
 _atom_site_type_symbol
 _atom_site_label
 _atom_site_symmetry_multiplicity
 _atom_site_fract_x
 _atom_site_fract_y
 _atom_site_fract_z
 _atom_site_occupancy
  Na  Na0  1  0.99606365  0.63718081  0.25158912  1
  Na  Na1  1  0.99458421  0.36050995  0.74598216  1
  Na  Na2  1  0.66379137  0.97046199  0.58658145  1
  Na  Na3  1  0.66729158  0.69970191  0.08228190  1
  Na  Na4  1  0.33216580  0.30056659  0.91063410  1
  Na  Na5  1  0.32674902  0.02819655  0.41873630  1
  Na  Na6  1  0.00521513  0.99831772  0.50122437  1
  Na  Na7  1  0.99411829  0.99224275  0.99732618  1
  Na  Na8  1  0.66058055  0.32814179  0.82609712  1
  Na  Na9  1  0.66455850  0.33868906  0.33305803  1
  Na  Na10  1  0.33261283  0.66972666  0.16785515  1
  Na  Na11  1  0.33013227  0.66784106  0.66259076  1
  Ti  Ti12  1  0.01399200  0.02566717  0.64542213  1
  Ti  Ti13  1  0.99925235  0.97932327  0.15100493  1
  Ti  Ti14  1  0.68138795  0.35747398  0.97976431  1
  Ti  Ti15  1  0.67951827  0.33767978  0.48579649  1
  Ti  Ti16  1  0.33228717  0.67272017  0.31259684  1
  Ti  Ti17  1  0.35700873  0.66501904  0.80765592  1
  Ga  Ga18  1  0.99938097  0.97661850  0.34969510  1
  Ga  Ga19  1  0.98320584  0.98914691  0.84392612  1
  Ga  Ga20  1  0.64973611  0.30528178  0.68501662  1
  Ga  Ga21  1  0.66783796  0.34044390  0.18864785  1
  Ga  Ga22  1  0.32996219  0.67435518  0.01520461  1
  Ga  Ga23  1  0.30180478  0.66601619  0.52209115  1
  Si  Si24  1  0.30084439  0.01073489  0.25114639  1
  Si  Si25  1  0.70246454  0.70582016  0.25198927  1
  Si  Si26  1  0.29571563  0.28192526  0.75253511  1
  Si  Si27  1  0.71522381  0.00482492  0.74888740  1
  Si  Si28  1  0.95965515  0.34132410  0.58678866  1
  Si  Si29  1  0.37383601  0.04112592  0.58213033  1
  Si  Si30  1  0.96751989  0.62138440  0.08482059  1
  Si  Si31  1  0.63100325  0.68187509  0.91792496  1
  Si  Si32  1  0.03487971  0.66279976  0.41708653  1
  S  S33  1  0.00003766  0.28348575  0.25059179  1
  S  S34  1  0.00037440  0.71070101  0.75030655  1
  S  S35  1  0.66549426  0.62140275  0.58400179  1
  S  S36  1  0.66727335  0.04813283  0.08317238  1
  S  S37  1  0.37357149  0.33161616  0.08312773  1
  S  S38  1  0.04262072  0.37715143  0.91748177  1
  S  S39  1  0.33385238  0.95675247  0.91674976  1
  S  S40  1  0.62722664  0.95486333  0.41635740  1
  S  S41  1  0.33110035  0.37955530  0.41661993  1
  O  O42  1  0.21528976  0.04428217  0.31077088  1
  O  O43  1  0.83361392  0.79530597  0.30618868  1
  O  O44  1  0.97137066  0.17784428  0.30531693  1
  O  O45  1  0.20608667  0.17065922  0.81470070  1
  O  O46  1  0.97048733  0.78594342  0.80645091  1
  O  O47  1  0.83144433  0.04215914  0.80801381  1
  O  O48  1  0.79728505  0.96105272  0.68918361  1
  O  O49  1  0.16127332  0.19900873  0.69554005  1
  O  O50  1  0.03320170  0.82293543  0.69690690  1
  O  O51  1  0.79514214  0.83099417  0.18976331  1
  O  O52  1  0.02889930  0.20383955  0.19536320  1
  O  O53  1  0.16196375  0.96455816  0.19385289  1
  O  O54  1  0.87113373  0.37233669  0.64603300  1
  O  O55  1  0.49852182  0.12308449  0.63853436  1
  O  O56  1  0.63500647  0.51366516  0.63794118  1
  O  O57  1  0.86918054  0.50017371  0.14290365  1
  O  O58  1  0.63620022  0.12454482  0.13763324  1
  O  O59  1  0.48635182  0.36382133  0.13508561  1
  O  O60  1  0.45493150  0.30195404  0.02735708  1
  O  O61  1  0.83028537  0.52850760  0.02702485  1
  O  O62  1  0.68986274  0.15554742  0.02856221  1
  O  O63  1  0.46478009  0.16568331  0.52077778  1
  O  O64  1  0.69607236  0.53823020  0.52879897  1
  O  O65  1  0.82954451  0.29997013  0.52809108  1
  O  O66  1  0.53412891  0.69515405  0.97958590  1
  O  O67  1  0.15301658  0.45891951  0.97064398  1
  O  O68  1  0.30135422  0.84857259  0.97229886  1
  O  O69  1  0.55068454  0.84814452  0.47158659  1
  O  O70  1  0.30848600  0.46232144  0.47124456  1
  O  O71  1  0.17190542  0.71190228  0.47051420  1
  O  O72  1  0.13522259  0.63659149  0.35665044  1
  O  O73  1  0.51088787  0.87039781  0.36359804  1
  O  O74  1  0.36033841  0.49075135  0.36174457  1
  O  O75  1  0.11675580  0.48565493  0.86272232  1
  O  O76  1  0.36097241  0.87321123  0.86353687  1
  O  O77  1  0.49345036  0.62891524  0.86201464  1
  O  O78  1  0.02617572  0.84566922  0.41182833  1
  O  O79  1  0.80551532  0.98166361  0.40751176  1
  O  O80  1  0.17214974  0.20250609  0.41121224  1
  O  O81  1  0.02730791  0.20143460  0.91385122  1
  O  O82  1  0.17969237  0.98237044  0.91326294  1
  O  O83  1  0.82839918  0.84412288  0.90978257  1
  O  O84  1  0.96424930  0.15359515  0.58888367  1
  O  O85  1  0.17703245  0.01569110  0.59091972  1
  O  O86  1  0.82516191  0.79813843  0.58682840  1
  O  O87  1  0.97183569  0.81414648  0.08854020  1
  O  O88  1  0.82779078  0.02934023  0.08680692  1
  O  O89  1  0.19674639  0.17512641  0.08942773  1
  O  O90  1  0.69824420  0.18027792  0.74573791  1
  O  O91  1  0.49333058  0.32292481  0.74289957  1
  O  O92  1  0.84568316  0.53476580  0.74597926  1
  O  O93  1  0.69746525  0.51973036  0.24275510  1
  O  O94  1  0.84584566  0.30954536  0.24505139  1
  O  O95  1  0.49321269  0.17338560  0.23874193  1
  O  O96  1  0.63623890  0.49044258  0.92635407  1
  O  O97  1  0.86247532  0.35516582  0.92576874  1
  O  O98  1  0.49368916  0.13499487  0.92384122  1
  O  O99  1  0.63432375  0.12983817  0.42020629  1
  O  O100  1  0.48789745  0.35523331  0.41963993  1
  O  O101  1  0.84083775  0.48680466  0.42339419  1
  O  O102  1  0.36047325  0.49398812  0.07675912  1
  O  O103  1  0.16004823  0.64444247  0.07346394  1
  O  O104  1  0.51271578  0.86571561  0.07846198  1
  O  O105  1  0.37242967  0.85417373  0.57506179  1
  O  O106  1  0.51206420  0.64532596  0.57504553  1
  O  O107  1  0.15686036  0.50030984  0.57813625  1
  O  O108  1  0.30276181  0.82230703  0.25666846  1
  O  O109  1  0.50910947  0.68600489  0.25826607  1
  O  O110  1  0.15902311  0.46419966  0.25417685  1
  O  O111  1  0.29652520  0.47482739  0.75917895  1
  O  O112  1  0.15894830  0.68910767  0.75795892  1
  O  O113  1  0.51667669  0.82924720  0.75816398  1
