# generated using pymatgen
data_Na6In4Ga4Si3(S3O16)3
_symmetry_space_group_name_H-M   'P 1'
_cell_length_a   17.60416582
_cell_length_b   8.80713191
_cell_length_c   22.75473000
_cell_angle_alpha   90.26963484
_cell_angle_beta   89.28516302
_cell_angle_gamma   119.93905980
_symmetry_Int_Tables_number   1
_chemical_formula_structural   Na6In4Ga4Si3(S3O16)3
_chemical_formula_sum   'Na18 In12 Ga12 Si9 S27 O144'
_cell_volume   3056.92061941
_cell_formula_units_Z   3
loop_
 _symmetry_equiv_pos_site_id
 _symmetry_equiv_pos_as_xyz
  1  'x, y, z'
loop_
 _atom_site_type_symbol
 _atom_site_label
 _atom_site_symmetry_multiplicity
 _atom_site_fract_x
 _atom_site_fract_y
 _atom_site_fract_z
 _atom_site_occupancy
  Na  Na0  1  0.00495995  0.64305444  0.25448889  1
  Na  Na1  1  0.50294942  0.36818746  0.74144659  1
  Na  Na2  1  0.16195950  0.30685447  0.91139620  1
  Na  Na3  1  0.66166547  0.30264069  0.91054833  1
  Na  Na4  1  0.16346589  0.02453699  0.41771981  1
  Na  Na5  1  0.66078663  0.01373866  0.41737139  1
  Na  Na6  1  0.99510390  0.98747412  0.49727469  1
  Na  Na7  1  0.49067770  0.00096575  0.50049528  1
  Na  Na8  1  0.99278511  0.99907874  0.99377304  1
  Na  Na9  1  0.49450034  0.00202347  0.99420877  1
  Na  Na10  1  0.33291014  0.33307578  0.82826869  1
  Na  Na11  1  0.84107392  0.33580217  0.83283831  1
  Na  Na12  1  0.34189753  0.34773742  0.33680698  1
  Na  Na13  1  0.83110172  0.32911513  0.33455770  1
  Na  Na14  1  0.17453111  0.68162743  0.17295464  1
  Na  Na15  1  0.66380408  0.68057911  0.17212187  1
  Na  Na16  1  0.16779995  0.65052876  0.67018043  1
  Na  Na17  1  0.66483292  0.65281342  0.66585072  1
  In  In18  1  0.00147357  0.00663577  0.64899911  1
  In  In19  1  0.50564630  0.01710787  0.64824295  1
  In  In20  1  0.00645807  0.00081092  0.15092869  1
  In  In21  1  0.50075794  0.99297282  0.15076367  1
  In  In22  1  0.83121008  0.33767957  0.68892867  1
  In  In23  1  0.33131105  0.32657441  0.18975233  1
  In  In24  1  0.16067789  0.65437610  0.01360832  1
  In  In25  1  0.66434458  0.65717437  0.01367220  1
  In  In26  1  0.16636420  0.67235815  0.51467567  1
  In  In27  1  0.64838120  0.64908717  0.51906720  1
  In  In28  1  0.65983329  0.67074229  0.31768275  1
  In  In29  1  0.15965704  0.64688986  0.81569282  1
  Ga  Ga30  1  0.00267201  0.99150738  0.35194939  1
  Ga  Ga31  1  0.50589382  0.98921213  0.34756532  1
  Ga  Ga32  1  0.00789096  0.03033222  0.84368314  1
  Ga  Ga33  1  0.50299013  0.01828922  0.84721642  1
  Ga  Ga34  1  0.32667301  0.33148557  0.68081774  1
  Ga  Ga35  1  0.82385635  0.31578530  0.18660978  1
  Ga  Ga36  1  0.34189941  0.33328386  0.97951726  1
  Ga  Ga37  1  0.83757042  0.33145286  0.98207260  1
  Ga  Ga38  1  0.35135787  0.35585962  0.48662109  1
  Ga  Ga39  1  0.84188388  0.34962825  0.48098735  1
  Ga  Ga40  1  0.16201298  0.67470929  0.31998534  1
  Ga  Ga41  1  0.65940356  0.65080368  0.81667156  1
  Si  Si42  1  0.14855928  0.99582932  0.25429051  1
  Si  Si43  1  0.65106878  0.00410968  0.24903302  1
  Si  Si44  1  0.15479755  0.29768688  0.74742931  1
  Si  Si45  1  0.65039861  0.30295306  0.75555911  1
  Si  Si46  1  0.47344386  0.32721894  0.58866259  1
  Si  Si47  1  0.01053419  0.35645298  0.91754019  1
  Si  Si48  1  0.51524840  0.36329864  0.91480899  1
  Si  Si49  1  0.01485932  0.66439400  0.41531447  1
  Si  Si50  1  0.50998208  0.66668623  0.41576753  1
  S  S51  1  0.34899584  0.70912227  0.25328535  1
  S  S52  1  0.85233366  0.70390173  0.24916011  1
  S  S53  1  0.00017989  0.29258588  0.25108336  1
  S  S54  1  0.50136541  0.28783992  0.25150674  1
  S  S55  1  0.00093427  0.71579783  0.75217956  1
  S  S56  1  0.50211947  0.71790975  0.75352614  1
  S  S57  1  0.35141739  0.99606116  0.75276953  1
  S  S58  1  0.84921360  0.98914113  0.75354064  1
  S  S59  1  0.97705107  0.33154622  0.58222026  1
  S  S60  1  0.18943345  0.04575325  0.57959463  1
  S  S61  1  0.69392447  0.04899257  0.57889226  1
  S  S62  1  0.33032426  0.62091045  0.58295460  1
  S  S63  1  0.83473054  0.63084754  0.58100588  1
  S  S64  1  0.47679557  0.62209247  0.08211665  1
  S  S65  1  0.97294299  0.61502268  0.08555819  1
  S  S66  1  0.33278794  0.03685672  0.08089311  1
  S  S67  1  0.83327320  0.04342202  0.08372127  1
  S  S68  1  0.19036868  0.33546809  0.07986898  1
  S  S69  1  0.69308752  0.33571154  0.08102799  1
  S  S70  1  0.32114861  0.67043993  0.91843950  1
  S  S71  1  0.81786355  0.67105129  0.91597844  1
  S  S72  1  0.16713116  0.96738899  0.91813971  1
  S  S73  1  0.66576367  0.95963943  0.91611079  1
  S  S74  1  0.31825297  0.96433128  0.41362180  1
  S  S75  1  0.81949986  0.96658703  0.41818880  1
  S  S76  1  0.16399410  0.37214310  0.41368753  1
  S  S77  1  0.66772917  0.36769239  0.41626206  1
  O  O78  1  0.10016725  0.02512288  0.31111915  1
  O  O79  1  0.60743741  0.03242465  0.30912725  1
  O  O80  1  0.40586126  0.80281884  0.30280400  1
  O  O81  1  0.90892874  0.79028667  0.30066365  1
  O  O82  1  0.48929741  0.17477756  0.30214107  1
  O  O83  1  0.98255004  0.17645340  0.30168682  1
  O  O84  1  0.11414379  0.18749264  0.80986311  1
  O  O85  1  0.60717615  0.18610216  0.81502093  1
  O  O86  1  0.48879661  0.80457436  0.80568698  1
  O  O87  1  0.98883922  0.80563191  0.80370437  1
  O  O88  1  0.40627743  0.01699070  0.80522131  1
  O  O89  1  0.90571961  0.01145768  0.80449254  1
  O  O90  1  0.38635903  0.95864143  0.69878125  1
  O  O91  1  0.88213459  0.95280346  0.69791764  1
  O  O92  1  0.09095071  0.21454214  0.69169939  1
  O  O93  1  0.58700430  0.22353965  0.69918913  1
  O  O94  1  0.00454015  0.80003011  0.69533384  1
  O  O95  1  0.51164237  0.81275790  0.69795001  1
  O  O96  1  0.38023964  0.80750826  0.19652977  1
  O  O97  1  0.88612062  0.81123684  0.19475483  1
  O  O98  1  0.01172195  0.21985075  0.19452391  1
  O  O99  1  0.50552647  0.21127108  0.19372707  1
  O  O100  1  0.08683609  0.94090237  0.19535891  1
  O  O101  1  0.59413666  0.96730784  0.18956372  1
  O  O102  1  0.42636585  0.34869414  0.64933581  1
  O  O103  1  0.93743581  0.35126405  0.63745364  1
  O  O104  1  0.23782801  0.13299211  0.63317654  1
  O  O105  1  0.74187261  0.13319998  0.63313630  1
  O  O106  1  0.31614820  0.51535832  0.63662402  1
  O  O107  1  0.82357715  0.53159734  0.63575407  1
  O  O108  1  0.43710404  0.52363128  0.13708189  1
  O  O109  1  0.93074677  0.51368715  0.14049092  1
  O  O110  1  0.32140850  0.11400706  0.13566649  1
  O  O111  1  0.82385058  0.12811572  0.13793774  1
  O  O112  1  0.23876333  0.34959112  0.13379654  1
  O  O113  1  0.74510186  0.35141785  0.13372298  1
  O  O114  1  0.23474107  0.32011311  0.02568197  1
  O  O115  1  0.73554251  0.31805899  0.02555875  1
  O  O116  1  0.42461706  0.53159146  0.02952039  1
  O  O117  1  0.92214573  0.52790839  0.03221854  1
  O  O118  1  0.34289008  0.14521053  0.02831233  1
  O  O119  1  0.84281140  0.14719180  0.03014940  1
  O  O120  1  0.23073947  0.14557410  0.52435910  1
  O  O121  1  0.73758887  0.15809851  0.52506461  1
  O  O122  1  0.33548344  0.53393887  0.52823214  1
  O  O123  1  0.84633810  0.54272758  0.52834296  1
  O  O124  1  0.41884884  0.30542258  0.52936263  1
  O  O125  1  0.92497959  0.31727522  0.52965406  1
  O  O126  1  0.28561179  0.71219942  0.97212282  1
  O  O127  1  0.78617242  0.71463175  0.97158927  1
  O  O128  1  0.07761206  0.42560366  0.97397133  1
  O  O129  1  0.58076309  0.43283245  0.97177615  1
  O  O130  1  0.15596573  0.86747507  0.97323853  1
  O  O131  1  0.65532625  0.86355060  0.97205553  1
  O  O132  1  0.28578713  0.85726421  0.46835844  1
  O  O133  1  0.78187831  0.85327179  0.47009352  1
  O  O134  1  0.15201435  0.44667935  0.46934041  1
  O  O135  1  0.65859205  0.44958729  0.47037649  1
  O  O136  1  0.08266626  0.72372646  0.47021168  1
  O  O137  1  0.58065198  0.73105903  0.46961848  1
  O  O138  1  0.05705697  0.62845840  0.35570837  1
  O  O139  1  0.54705278  0.61502135  0.35821590  1
  O  O140  1  0.25727369  0.87229216  0.36371578  1
  O  O141  1  0.76487559  0.89199918  0.36501492  1
  O  O142  1  0.17964278  0.48861696  0.36239696  1
  O  O143  1  0.68774787  0.47954437  0.36380518  1
  O  O144  1  0.05130064  0.48556099  0.86190033  1
  O  O145  1  0.56039522  0.49082838  0.85793104  1
  O  O146  1  0.18686029  0.89143513  0.86672469  1
  O  O147  1  0.68345666  0.87745166  0.86497857  1
  O  O148  1  0.26297821  0.63435943  0.86746829  1
  O  O149  1  0.75652033  0.63716692  0.86677943  1
  O  O150  1  0.00459211  0.84069708  0.40919867  1
  O  O151  1  0.50351774  0.84649981  0.40805420  1
  O  O152  1  0.40702424  0.99764594  0.40224336  1
  O  O153  1  0.90997079  0.99912002  0.40778305  1
  O  O154  1  0.08154459  0.19827558  0.40815592  1
  O  O155  1  0.58597953  0.19512562  0.41013954  1
  O  O156  1  0.00371641  0.16365544  0.90700453  1
  O  O157  1  0.50322107  0.16543797  0.90784719  1
  O  O158  1  0.08642993  0.97940837  0.91196447  1
  O  O159  1  0.58511729  0.97174930  0.91065152  1
  O  O160  1  0.41036070  0.81584577  0.90851921  1
  O  O161  1  0.90700722  0.81397966  0.90527048  1
  O  O162  1  0.48217753  0.15113830  0.58565549  1
  O  O163  1  0.98155984  0.16721346  0.58294733  1
  O  O164  1  0.09882488  0.01973765  0.58168337  1
  O  O165  1  0.60416324  0.02350208  0.58101080  1
  O  O166  1  0.41204260  0.79148533  0.58687756  1
  O  O167  1  0.91689681  0.80614489  0.58414505  1
  O  O168  1  0.48179316  0.79603632  0.08303397  1
  O  O169  1  0.97942093  0.79042574  0.08647596  1
  O  O170  1  0.41360814  0.02166194  0.08379973  1
  O  O171  1  0.91362009  0.02745709  0.08709038  1
  O  O172  1  0.10100053  0.17611481  0.08167775  1
  O  O173  1  0.60430421  0.17963462  0.08321661  1
  O  O174  1  0.35112512  0.16382933  0.74869352  1
  O  O175  1  0.84694043  0.15551303  0.74888281  1
  O  O176  1  0.25055487  0.30687165  0.73992011  1
  O  O177  1  0.74636378  0.31886302  0.75236816  1
  O  O178  1  0.42615931  0.53702894  0.75113774  1
  O  O179  1  0.92486390  0.53344917  0.75189415  1
  O  O180  1  0.34679235  0.53802197  0.24859912  1
  O  O181  1  0.85418827  0.53566469  0.24177604  1
  O  O182  1  0.42466584  0.31690608  0.25077692  1
  O  O183  1  0.92447566  0.32590255  0.24504711  1
  O  O184  1  0.24363378  0.17225089  0.25092954  1
  O  O185  1  0.74727198  0.18886204  0.24446752  1
  O  O186  1  0.32119481  0.50113009  0.92704183  1
  O  O187  1  0.81670377  0.49954349  0.92425274  1
  O  O188  1  0.41952544  0.34927672  0.92320412  1
  O  O189  1  0.91457569  0.33927813  0.92756611  1
  O  O190  1  0.24234742  0.15247550  0.92514880  1
  O  O191  1  0.74151325  0.14380522  0.92192342  1
  O  O192  1  0.31690927  0.13206350  0.42039386  1
  O  O193  1  0.82249756  0.13930367  0.42632052  1
  O  O194  1  0.23827052  0.33891295  0.41825463  1
  O  O195  1  0.74222225  0.33024693  0.42289144  1
  O  O196  1  0.41245170  0.49627338  0.42541992  1
  O  O197  1  0.91907879  0.48773638  0.42371439  1
  O  O198  1  0.18296865  0.49668271  0.07868235  1
  O  O199  1  0.68787044  0.49920327  0.07967467  1
  O  O200  1  0.06231433  0.63629758  0.08237139  1
  O  O201  1  0.56645892  0.64542402  0.07847366  1
  O  O202  1  0.25350834  0.85978748  0.07604020  1
  O  O203  1  0.75340221  0.86708172  0.07982443  1
  O  O204  1  0.18389796  0.87063059  0.57969150  1
  O  O205  1  0.69199602  0.87980858  0.57603469  1
  O  O206  1  0.25197941  0.64512782  0.57907017  1
  O  O207  1  0.75787861  0.65285179  0.57532355  1
  O  O208  1  0.06635059  0.48675858  0.57856866  1
  O  O209  1  0.57084324  0.50487152  0.58839497  1
  O  O210  1  0.15802938  0.81856757  0.26025034  1
  O  O211  1  0.66828363  0.83903937  0.25247535  1
  O  O212  1  0.25877403  0.67754524  0.26244328  1
  O  O213  1  0.76200984  0.66585912  0.25779442  1
  O  O214  1  0.08131318  0.46682551  0.25705467  1
  O  O215  1  0.58377807  0.45808164  0.25400432  1
  O  O216  1  0.17001162  0.49570035  0.75165900  1
  O  O217  1  0.65782819  0.49814969  0.75940065  1
  O  O218  1  0.08347259  0.71052273  0.75496353  1
  O  O219  1  0.58415353  0.70636748  0.75848559  1
  O  O220  1  0.26133406  0.85039017  0.76069360  1
  O  O221  1  0.75987370  0.84060375  0.76358241  1
