# generated using pymatgen
data_Na7Sc2Al2SiP5O24
_symmetry_space_group_name_H-M   'P 1'
_cell_length_a   8.86853546
_cell_length_b   8.85904198
_cell_length_c   21.98362834
_cell_angle_alpha   90.14129907
_cell_angle_beta   89.76065568
_cell_angle_gamma   119.94354750
_symmetry_Int_Tables_number   1
_chemical_formula_structural   Na7Sc2Al2SiP5O24
_chemical_formula_sum   'Na21 Sc6 Al6 Si3 P15 O72'
_cell_volume   1496.62021990
_cell_formula_units_Z   3
loop_
 _symmetry_equiv_pos_site_id
 _symmetry_equiv_pos_as_xyz
  1  'x, y, z'
loop_
 _atom_site_type_symbol
 _atom_site_label
 _atom_site_symmetry_multiplicity
 _atom_site_fract_x
 _atom_site_fract_y
 _atom_site_fract_z
 _atom_site_occupancy
  Na  Na0  1  0.36826744  0.36881275  0.25122754  1
  Na  Na1  1  0.99803536  0.63101215  0.24963964  1
  Na  Na2  1  0.63787823  0.64129431  0.75014090  1
  Na  Na3  1  0.99510855  0.35839610  0.75244826  1
  Na  Na4  1  0.36596316  0.99952537  0.75011594  1
  Na  Na5  1  0.30392529  0.32807633  0.58092996  1
  Na  Na6  1  0.03238465  0.69890784  0.58149715  1
  Na  Na7  1  0.66307003  0.96956877  0.58422207  1
  Na  Na8  1  0.30343393  0.97010450  0.08350501  1
  Na  Na9  1  0.67109760  0.69533853  0.08300695  1
  Na  Na10  1  0.02871628  0.33773874  0.08419079  1
  Na  Na11  1  0.96304947  0.66558914  0.91831816  1
  Na  Na12  1  0.70357266  0.03571933  0.91535822  1
  Na  Na13  1  0.96528507  0.29791392  0.41503861  1
  Na  Na14  1  0.33538638  0.03554272  0.41698436  1
  Na  Na15  1  0.99455503  0.99031230  0.49772932  1
  Na  Na16  1  0.00933219  0.00582143  0.00092664  1
  Na  Na17  1  0.65727008  0.32950964  0.83424271  1
  Na  Na18  1  0.66662378  0.33323003  0.33288813  1
  Na  Na19  1  0.33916228  0.67594751  0.16789473  1
  Na  Na20  1  0.33797267  0.67298390  0.66644569  1
  Sc  Sc21  1  0.00384852  0.00731744  0.85433349  1
  Sc  Sc22  1  0.99836664  0.99917834  0.65084714  1
  Sc  Sc23  1  0.66311313  0.32448410  0.68220461  1
  Sc  Sc24  1  0.67141563  0.32982502  0.18575270  1
  Sc  Sc25  1  0.66353588  0.33800340  0.98209037  1
  Sc  Sc26  1  0.66254067  0.33699671  0.47815284  1
  Al  Al27  1  0.99248970  0.99324949  0.35141179  1
  Al  Al28  1  0.99673675  0.99416682  0.15113970  1
  Al  Al29  1  0.32968489  0.66522255  0.01804533  1
  Al  Al30  1  0.33748448  0.67203834  0.51497636  1
  Al  Al31  1  0.34092550  0.67363732  0.31495915  1
  Al  Al32  1  0.33681804  0.66841411  0.81621315  1
  Si  Si33  1  0.69486209  0.99343193  0.75270620  1
  Si  Si34  1  0.36653336  0.02669662  0.57999439  1
  Si  Si35  1  0.97154735  0.63862588  0.08372492  1
  P  P36  1  0.28229440  0.99402565  0.25269628  1
  P  P37  1  0.71020625  0.72098635  0.25170266  1
  P  P38  1  0.00344174  0.28423613  0.25237990  1
  P  P39  1  0.29624686  0.30330133  0.75145031  1
  P  P40  1  0.00543138  0.70286584  0.75271462  1
  P  P41  1  0.96962304  0.34027011  0.58002374  1
  P  P42  1  0.65995368  0.62848416  0.58170865  1
  P  P43  1  0.66773883  0.03228814  0.08241492  1
  P  P44  1  0.36510634  0.33330705  0.08504268  1
  P  P45  1  0.61074816  0.66235767  0.91700508  1
  P  P46  1  0.05516681  0.38595032  0.91735221  1
  P  P47  1  0.33400110  0.94865161  0.91722292  1
  P  P48  1  0.62367657  0.94527893  0.41446736  1
  P  P49  1  0.32906732  0.38200890  0.41372736  1
  P  P50  1  0.05182696  0.67337432  0.41351828  1
  O  O51  1  0.19424521  0.02465846  0.30923745  1
  O  O52  1  0.83311447  0.80752499  0.30611060  1
  O  O53  1  0.98119883  0.17396347  0.30969576  1
  O  O54  1  0.21168252  0.17682363  0.80465867  1
  O  O55  1  0.97221393  0.78762544  0.80848399  1
  O  O56  1  0.82324369  0.03334626  0.81067689  1
  O  O57  1  0.77801439  0.95650701  0.69171261  1
  O  O58  1  0.18664973  0.22698225  0.69295190  1
  O  O59  1  0.04174417  0.81709548  0.69513767  1
  O  O60  1  0.79283067  0.82520743  0.19240372  1
  O  O61  1  0.03067425  0.19852814  0.19445161  1
  O  O62  1  0.16913135  0.96540378  0.19492905  1
  O  O63  1  0.89282574  0.37692901  0.63812257  1
  O  O64  1  0.48677400  0.10929483  0.64090496  1
  O  O65  1  0.62790629  0.52053214  0.64057781  1
  O  O66  1  0.88546587  0.50835454  0.14230758  1
  O  O67  1  0.62318592  0.11467793  0.13657267  1
  O  O68  1  0.48181512  0.37161873  0.14181246  1
  O  O69  1  0.44660718  0.28913391  0.03046879  1
  O  O70  1  0.84296259  0.55427748  0.02475964  1
  O  O71  1  0.70597222  0.14806862  0.02520174  1
  O  O72  1  0.45562696  0.15686628  0.52232007  1
  O  O73  1  0.69995263  0.54228007  0.52835812  1
  O  O74  1  0.85083151  0.30627809  0.52481871  1
  O  O75  1  0.52461007  0.68802512  0.97455868  1
  O  O76  1  0.16014102  0.47415839  0.97526387  1
  O  O77  1  0.31156086  0.83809191  0.97471900  1
  O  O78  1  0.54127929  0.84124956  0.47382223  1
  O  O79  1  0.30154565  0.46707670  0.47186626  1
  O  O80  1  0.16448454  0.70180622  0.47145912  1
  O  O81  1  0.14025898  0.64285009  0.35714959  1
  O  O82  1  0.50017611  0.85852842  0.36029817  1
  O  O83  1  0.35124286  0.49305584  0.35672085  1
  O  O84  1  0.14017355  0.49673438  0.85946862  1
  O  O85  1  0.35652692  0.86094840  0.85927320  1
  O  O86  1  0.50676873  0.64534529  0.85871980  1
  O  O87  1  0.03481569  0.84015118  0.40761012  1
  O  O88  1  0.81150420  0.97341641  0.40772528  1
  O  O89  1  0.16231089  0.19443074  0.40995839  1
  O  O90  1  0.02837472  0.19992491  0.91556062  1
  O  O91  1  0.16776207  0.96301429  0.91440695  1
  O  O92  1  0.79712989  0.82749098  0.91525512  1
  O  O93  1  0.98536840  0.17508500  0.58689201  1
  O  O94  1  0.17453373  0.00860512  0.58640783  1
  O  O95  1  0.82227810  0.81214554  0.58656190  1
  O  O96  1  0.98841730  0.83115418  0.09360961  1
  O  O97  1  0.83409909  0.01907280  0.09296668  1
  O  O98  1  0.18059162  0.17137278  0.09388663  1
  O  O99  1  0.67956108  0.16990734  0.74806037  1
  O  O100  1  0.48089789  0.32796609  0.74547679  1
  O  O101  1  0.84008117  0.52282797  0.74582352  1
  O  O102  1  0.68959965  0.53426273  0.24725244  1
  O  O103  1  0.84380605  0.31125534  0.24863866  1
  O  O104  1  0.46264187  0.16111661  0.24733231  1
  O  O105  1  0.63780455  0.50277332  0.91918771  1
  O  O106  1  0.86893148  0.36560521  0.91950885  1
  O  O107  1  0.50065446  0.12983036  0.92047319  1
  O  O108  1  0.64520577  0.13216807  0.41833533  1
  O  O109  1  0.48829316  0.35498970  0.41681551  1
  O  O110  1  0.87176222  0.50661856  0.41818480  1
  O  O111  1  0.35046087  0.49909043  0.07470379  1
  O  O112  1  0.16431706  0.65619748  0.07471065  1
  O  O113  1  0.50630639  0.84730650  0.07423685  1
  O  O114  1  0.35085763  0.83521573  0.57218655  1
  O  O115  1  0.49344003  0.64172601  0.57246274  1
  O  O116  1  0.15330078  0.50240349  0.57191491  1
  O  O117  1  0.29896278  0.82713245  0.25878930  1
  O  O118  1  0.52238036  0.69286340  0.25868744  1
  O  O119  1  0.17016319  0.47187561  0.25643322  1
  O  O120  1  0.30918841  0.48295198  0.76033710  1
  O  O121  1  0.16742659  0.68087419  0.75985650  1
  O  O122  1  0.50214482  0.81927529  0.75969196  1
