# generated using pymatgen
data_Na14La4Al4Si7S5O48
_symmetry_space_group_name_H-M   'P 1'
_cell_length_a   18.45981308
_cell_length_b   9.19031089
_cell_length_c   22.74774386
_cell_angle_alpha   89.91786070
_cell_angle_beta   90.10438645
_cell_angle_gamma   119.93756024
_symmetry_Int_Tables_number   1
_chemical_formula_structural   Na14La4Al4Si7S5O48
_chemical_formula_sum   'Na42 La12 Al12 Si21 S15 O144'
_cell_volume   3344.24872778
_cell_formula_units_Z   3
loop_
 _symmetry_equiv_pos_site_id
 _symmetry_equiv_pos_as_xyz
  1  'x, y, z'
loop_
 _atom_site_type_symbol
 _atom_site_label
 _atom_site_symmetry_multiplicity
 _atom_site_fract_x
 _atom_site_fract_y
 _atom_site_fract_z
 _atom_site_occupancy
  Na  Na0  1  0.81225944  0.99189408  0.23960515  1
  Na  Na1  1  0.18522329  0.36595635  0.26429294  1
  Na  Na2  1  0.69122677  0.36673398  0.25741349  1
  Na  Na3  1  0.99354400  0.64037822  0.23926298  1
  Na  Na4  1  0.50967890  0.66022588  0.24989640  1
  Na  Na5  1  0.31424673  0.63937253  0.75203190  1
  Na  Na6  1  0.00840428  0.35547740  0.75435637  1
  Na  Na7  1  0.49698636  0.34971077  0.74708259  1
  Na  Na8  1  0.18541204  0.00806010  0.76355269  1
  Na  Na9  1  0.68746158  0.00634740  0.76687033  1
  Na  Na10  1  0.14043779  0.33528944  0.58296621  1
  Na  Na11  1  0.63671308  0.33457912  0.58424262  1
  Na  Na12  1  0.33577456  0.97043131  0.57736647  1
  Na  Na13  1  0.83755467  0.97541577  0.57822441  1
  Na  Na14  1  0.13251305  0.93721300  0.08626637  1
  Na  Na15  1  0.64862155  0.95372043  0.08609040  1
  Na  Na16  1  0.33686103  0.69949765  0.07847179  1
  Na  Na17  1  0.83691552  0.71906966  0.07686996  1
  Na  Na18  1  0.49101468  0.69424349  0.92433567  1
  Na  Na19  1  0.99129631  0.67901191  0.92589445  1
  Na  Na20  1  0.33798346  0.00845090  0.91347859  1
  Na  Na21  1  0.84383867  0.02712862  0.92208504  1
  Na  Na22  1  0.16722797  0.30051102  0.90546616  1
  Na  Na23  1  0.67800394  0.32233612  0.90857868  1
  Na  Na24  1  0.49364468  0.30226892  0.41801371  1
  Na  Na25  1  0.98868339  0.28556243  0.42002656  1
  Na  Na26  1  0.17196380  0.02952108  0.40078693  1
  Na  Na27  1  0.66895163  0.03505244  0.40196442  1
  Na  Na28  1  0.34520720  0.66848140  0.40771196  1
  Na  Na29  1  0.83836104  0.66858481  0.40860295  1
  Na  Na30  1  0.99594910  0.01194465  0.49086346  1
  Na  Na31  1  0.49815809  0.01690840  0.49019628  1
  Na  Na32  1  0.98582364  0.97998480  0.99816423  1
  Na  Na33  1  0.49990666  0.98344281  0.99287074  1
  Na  Na34  1  0.32573537  0.32626715  0.83428162  1
  Na  Na35  1  0.82286954  0.32954725  0.84229385  1
  Na  Na36  1  0.32479587  0.31982291  0.33813632  1
  Na  Na37  1  0.82566312  0.32617803  0.32761390  1
  Na  Na38  1  0.16333363  0.68339368  0.17280751  1
  Na  Na39  1  0.66620878  0.68785891  0.16610543  1
  Na  Na40  1  0.15594501  0.64246532  0.67430548  1
  Na  Na41  1  0.66615268  0.64717335  0.67501654  1
  La  La42  1  0.00086311  0.01539405  0.65286519  1
  La  La43  1  0.49291760  0.00458815  0.64970087  1
  La  La44  1  0.98881665  0.98858144  0.14619366  1
  La  La45  1  0.50196348  0.98617479  0.15183339  1
  La  La46  1  0.83624459  0.33881393  0.69352184  1
  La  La47  1  0.33615045  0.33093170  0.19316097  1
  La  La48  1  0.15674808  0.66477376  0.00833156  1
  La  La49  1  0.67260781  0.68994633  0.01313529  1
  La  La50  1  0.16802415  0.66123849  0.50897327  1
  La  La51  1  0.65861625  0.65003073  0.50719560  1
  La  La52  1  0.18026423  0.68828408  0.32211820  1
  La  La53  1  0.68169130  0.67218902  0.82517772  1
  Al  Al54  1  0.99401777  0.98704075  0.34847552  1
  Al  Al55  1  0.50459770  0.00688905  0.34698952  1
  Al  Al56  1  0.00479246  0.00002538  0.84728095  1
  Al  Al57  1  0.49540916  0.01031824  0.85096347  1
  Al  Al58  1  0.33302563  0.31806739  0.69209153  1
  Al  Al59  1  0.83378305  0.33527646  0.18400774  1
  Al  Al60  1  0.33194856  0.34948044  0.97473853  1
  Al  Al61  1  0.83215861  0.33672104  0.98637032  1
  Al  Al62  1  0.33291051  0.31924281  0.48289825  1
  Al  Al63  1  0.83238955  0.31550048  0.47420896  1
  Al  Al64  1  0.68998221  0.68808249  0.32017237  1
  Al  Al65  1  0.18796820  0.68933563  0.82049289  1
  Si  Si66  1  0.13897610  0.99791776  0.25355838  1
  Si  Si67  1  0.65348624  0.99027386  0.25566938  1
  Si  Si68  1  0.35629942  0.71025540  0.25443796  1
  Si  Si69  1  0.84745102  0.69343507  0.25461777  1
  Si  Si70  1  0.15619453  0.31686084  0.75189948  1
  Si  Si71  1  0.64099856  0.28520804  0.75433808  1
  Si  Si72  1  0.34645208  0.99817042  0.75409605  1
  Si  Si73  1  0.85615173  0.00036642  0.75409009  1
  Si  Si74  1  0.46840782  0.34374497  0.58573849  1
  Si  Si75  1  0.97683520  0.33650630  0.57619872  1
  Si  Si76  1  0.47509155  0.61669223  0.07622234  1
  Si  Si77  1  0.97100320  0.59911436  0.08519616  1
  Si  Si78  1  0.83454744  0.06872544  0.08227283  1
  Si  Si79  1  0.32382110  0.67502854  0.91464031  1
  Si  Si80  1  0.83594321  0.66807859  0.92070038  1
  Si  Si81  1  0.16663692  0.97905597  0.91332161  1
  Si  Si82  1  0.66376123  0.99924061  0.91558767  1
  Si  Si83  1  0.33517216  0.99660431  0.42255216  1
  Si  Si84  1  0.82392242  0.97318159  0.41566469  1
  Si  Si85  1  0.16688798  0.33234584  0.41872755  1
  Si  Si86  1  0.66679105  0.35396539  0.41483125  1
  S  S87  1  0.99392820  0.29343331  0.25503691  1
  S  S88  1  0.51167629  0.30885088  0.26186119  1
  S  S89  1  0.01207401  0.71290729  0.76078640  1
  S  S90  1  0.49177256  0.68795849  0.75199568  1
  S  S91  1  0.20036892  0.06351425  0.58553432  1
  S  S92  1  0.68989439  0.05061134  0.57487519  1
  S  S93  1  0.33254779  0.59961073  0.58328313  1
  S  S94  1  0.83432157  0.62507701  0.57474725  1
  S  S95  1  0.33411468  0.04408438  0.07406660  1
  S  S96  1  0.19158626  0.33039310  0.07457067  1
  S  S97  1  0.69941374  0.33786942  0.08477756  1
  S  S98  1  0.01386991  0.35034604  0.90678548  1
  S  S99  1  0.50245739  0.34368177  0.91621954  1
  S  S100  1  0.00134779  0.66149505  0.41677265  1
  S  S101  1  0.50969934  0.67155862  0.41059464  1
  O  O102  1  0.07909953  0.00051039  0.30614800  1
  O  O103  1  0.59798861  0.01851018  0.30591030  1
  O  O104  1  0.41588098  0.84060820  0.30552712  1
  O  O105  1  0.91138851  0.79722866  0.30851781  1
  O  O106  1  0.50511511  0.19836445  0.31050420  1
  O  O107  1  0.98725997  0.18784292  0.30653376  1
  O  O108  1  0.10320685  0.17587697  0.80211837  1
  O  O109  1  0.57760166  0.15828712  0.80404260  1
  O  O110  1  0.48199059  0.77357689  0.80285640  1
  O  O111  1  0.00696599  0.81241283  0.80877909  1
  O  O112  1  0.41247046  0.02763602  0.80648270  1
  O  O113  1  0.91989159  0.99416180  0.80267900  1
  O  O114  1  0.37164294  0.94281351  0.69231645  1
  O  O115  1  0.88616293  0.98485809  0.68751457  1
  O  O116  1  0.10409136  0.26430463  0.68944172  1
  O  O117  1  0.60538414  0.21812335  0.68717040  1
  O  O118  1  0.02187010  0.79796669  0.70345485  1
  O  O119  1  0.50591167  0.78573438  0.69745769  1
  O  O120  1  0.38772763  0.79081764  0.18898842  1
  O  O121  1  0.87287069  0.80360021  0.19414521  1
  O  O122  1  0.01003559  0.22806953  0.20099542  1
  O  O123  1  0.52067230  0.24153040  0.20492933  1
  O  O124  1  0.10368667  0.99865886  0.18754244  1
  O  O125  1  0.60009914  0.93764173  0.19365711  1
  O  O126  1  0.41750244  0.33187034  0.64711010  1
  O  O127  1  0.93748619  0.33818253  0.64017758  1
  O  O128  1  0.24304264  0.15311604  0.64029006  1
  O  O129  1  0.73072375  0.12647524  0.63105968  1
  O  O130  1  0.33122744  0.51108087  0.63795550  1
  O  O131  1  0.83050024  0.54017252  0.63056641  1
  O  O132  1  0.43425768  0.53670784  0.14024214  1
  O  O133  1  0.92116548  0.51167171  0.14712101  1
  O  O134  1  0.33029561  0.12077651  0.13005067  1
  O  O135  1  0.82990203  0.15988381  0.14396038  1
  O  O136  1  0.23336451  0.33801894  0.13061868  1
  O  O137  1  0.74196325  0.33613328  0.14021180  1
  O  O138  1  0.24058418  0.32706789  0.02322710  1
  O  O139  1  0.74356792  0.33838659  0.03105503  1
  O  O140  1  0.41540184  0.50239880  0.02109826  1
  O  O141  1  0.92286840  0.49578945  0.02658563  1
  O  O142  1  0.32968871  0.13590680  0.02263495  1
  O  O143  1  0.82697944  0.15521612  0.02145664  1
  O  O144  1  0.24473867  0.15369662  0.53177040  1
  O  O145  1  0.73935658  0.15357481  0.52390080  1
  O  O146  1  0.32813147  0.50838367  0.52866327  1
  O  O147  1  0.83008177  0.52516896  0.52314864  1
  O  O148  1  0.41852155  0.35241086  0.52818665  1
  O  O149  1  0.91673073  0.33130100  0.52118178  1
  O  O150  1  0.29159646  0.72278525  0.97446244  1
  O  O151  1  0.80046287  0.72707484  0.97665339  1
  O  O152  1  0.06334032  0.40800626  0.96181998  1
  O  O153  1  0.56185622  0.42320735  0.96510329  1
  O  O154  1  0.13597520  0.87032381  0.97453354  1
  O  O155  1  0.63343057  0.86194862  0.96939424  1
  O  O156  1  0.30201447  0.87421725  0.48095836  1
  O  O157  1  0.79326054  0.86375779  0.47636207  1
  O  O158  1  0.13946218  0.40927384  0.47394864  1
  O  O159  1  0.63529931  0.39719824  0.47674324  1
  O  O160  1  0.05913716  0.70060096  0.46696385  1
  O  O161  1  0.55964221  0.71234057  0.46543872  1
  O  O162  1  0.03585444  0.62135563  0.36479305  1
  O  O163  1  0.55242357  0.63705357  0.36293133  1
  O  O164  1  0.25883347  0.91700939  0.37464465  1
  O  O165  1  0.75314074  0.86830018  0.36566793  1
  O  O166  1  0.19606055  0.46534298  0.36393895  1
  O  O167  1  0.68569357  0.50917127  0.36850259  1
  O  O168  1  0.06022778  0.47170222  0.85900567  1
  O  O169  1  0.53480045  0.44708494  0.86255759  1
  O  O170  1  0.18604225  0.86479969  0.86574923  1
  O  O171  1  0.68953966  0.92098185  0.86018594  1
  O  O172  1  0.25457150  0.63816022  0.86295697  1
  O  O173  1  0.76312041  0.59379264  0.86995474  1
  O  O174  1  0.99104508  0.81044315  0.40939533  1
  O  O175  1  0.49994336  0.82194274  0.40061272  1
  O  O176  1  0.42361202  0.00674706  0.40425365  1
  O  O177  1  0.91665722  0.99857308  0.39961088  1
  O  O178  1  0.08315935  0.14909273  0.40537224  1
  O  O179  1  0.58838900  0.16818670  0.39852123  1
  O  O180  1  0.00360813  0.18011773  0.89698462  1
  O  O181  1  0.49108483  0.17213335  0.90951035  1
  O  O182  1  0.08952940  0.00996830  0.89645869  1
  O  O183  1  0.58055298  0.01864594  0.90330861  1
  O  O184  1  0.41623854  0.83520376  0.89847179  1
  O  O185  1  0.92508892  0.83651357  0.90328671  1
  O  O186  1  0.47397889  0.16690218  0.57884293  1
  O  O187  1  0.98455687  0.16303757  0.57078755  1
  O  O188  1  0.11637149  0.04636026  0.58281040  1
  O  O189  1  0.60650701  0.03720195  0.57129850  1
  O  O190  1  0.40712635  0.76983399  0.57981719  1
  O  O191  1  0.91055716  0.79326025  0.57255490  1
  O  O192  1  0.48239594  0.80547231  0.07077968  1
  O  O193  1  0.97898381  0.78804576  0.07849012  1
  O  O194  1  0.41053103  0.02940632  0.07189856  1
  O  O195  1  0.91501755  0.03970414  0.07561530  1
  O  O196  1  0.10889503  0.17736014  0.07124194  1
  O  O197  1  0.61607070  0.18328153  0.08240769  1
  O  O198  1  0.33830242  0.17030964  0.74696533  1
  O  O199  1  0.85862063  0.18106597  0.76306544  1
  O  O200  1  0.24914545  0.32780744  0.74204434  1
  O  O201  1  0.73098435  0.29292086  0.76260203  1
  O  O202  1  0.41226401  0.52016762  0.74658091  1
  O  O203  1  0.93662466  0.54505942  0.76259250  1
  O  O204  1  0.35964975  0.53563275  0.26364176  1
  O  O205  1  0.84022040  0.50564632  0.24634283  1
  O  O206  1  0.43592548  0.32533934  0.26340680  1
  O  O207  1  0.91491410  0.29976275  0.25116503  1
  O  O208  1  0.23037592  0.16862055  0.26319467  1
  O  O209  1  0.74483667  0.16487223  0.24698186  1
  O  O210  1  0.33117929  0.50246326  0.92059392  1
  O  O211  1  0.84739479  0.50513960  0.93310616  1
  O  O212  1  0.41795810  0.32200942  0.92682436  1
  O  O213  1  0.93070195  0.33359754  0.91305641  1
  O  O214  1  0.25312295  0.16567465  0.92219261  1
  O  O215  1  0.74738819  0.18162195  0.92990375  1
  O  O216  1  0.34955860  0.18617146  0.43149878  1
  O  O217  1  0.83165567  0.16074272  0.42109884  1
  O  O218  1  0.25048780  0.31592165  0.43412677  1
  O  O219  1  0.75304327  0.34043089  0.42326206  1
  O  O220  1  0.42445386  0.52330635  0.41881702  1
  O  O221  1  0.91685944  0.51327587  0.42705081  1
  O  O222  1  0.18549278  0.48499044  0.07283124  1
  O  O223  1  0.69190260  0.49086772  0.08572737  1
  O  O224  1  0.06940404  0.63852013  0.08863843  1
  O  O225  1  0.57038632  0.64772428  0.07748502  1
  O  O226  1  0.25869405  0.87051768  0.07629122  1
  O  O227  1  0.75061270  0.87558078  0.08691678  1
  O  O228  1  0.19475797  0.89648546  0.58637562  1
  O  O229  1  0.68353160  0.88367678  0.57316202  1
  O  O230  1  0.25615267  0.61984449  0.58574640  1
  O  O231  1  0.75861238  0.64691291  0.57690172  1
  O  O232  1  0.07366951  0.49673388  0.57704121  1
  O  O233  1  0.56677720  0.49722375  0.58736799  1
  O  O234  1  0.14016351  0.82037865  0.25585151  1
  O  O235  1  0.66358198  0.82335633  0.27059335  1
  O  O236  1  0.25666588  0.65677505  0.25271021  1
  O  O237  1  0.75335446  0.66448252  0.26675493  1
  O  O238  1  0.06510794  0.46640327  0.26217087  1
  O  O239  1  0.58649035  0.47905422  0.26860494  1
  O  O240  1  0.16688569  0.50409302  0.76697493  1
  O  O241  1  0.64237097  0.46449734  0.75629606  1
  O  O242  1  0.08708387  0.69164704  0.76704680  1
  O  O243  1  0.56324604  0.65796357  0.75852342  1
  O  O244  1  0.25265634  0.83878909  0.76583050  1
  O  O245  1  0.75696747  0.85323500  0.75349267  1
