# generated using pymatgen
data_Na3YNb3Si3(PO8)3
_symmetry_space_group_name_H-M   'P 1'
_cell_length_a   9.00251379
_cell_length_b   9.00942827
_cell_length_c   22.88434899
_cell_angle_alpha   90.00099631
_cell_angle_beta   89.90128761
_cell_angle_gamma   119.83322906
_symmetry_Int_Tables_number   1
_chemical_formula_structural   Na3YNb3Si3(PO8)3
_chemical_formula_sum   'Na9 Y3 Nb9 Si9 P9 O72'
_cell_volume   1610.11446598
_cell_formula_units_Z   3
loop_
 _symmetry_equiv_pos_site_id
 _symmetry_equiv_pos_as_xyz
  1  'x, y, z'
loop_
 _atom_site_type_symbol
 _atom_site_label
 _atom_site_symmetry_multiplicity
 _atom_site_fract_x
 _atom_site_fract_y
 _atom_site_fract_z
 _atom_site_occupancy
  Na  Na0  1  0.64366806  0.00478260  0.24710682  1
  Na  Na1  1  0.36491819  0.35529667  0.24483934  1
  Na  Na2  1  0.70869148  0.67587315  0.41442570  1
  Na  Na3  1  0.01350300  0.01421004  0.49600115  1
  Na  Na4  1  0.00046795  0.00088904  0.00055456  1
  Na  Na5  1  0.66825378  0.33300921  0.83104117  1
  Na  Na6  1  0.68381306  0.34494684  0.33194704  1
  Na  Na7  1  0.32099201  0.66133132  0.16271601  1
  Na  Na8  1  0.33883852  0.66485069  0.66523826  1
  Y  Y9  1  0.00752868  0.00289629  0.35789917  1
  Y  Y10  1  0.66448894  0.33457015  0.68958452  1
  Y  Y11  1  0.67197058  0.34614138  0.17764775  1
  Nb  Nb12  1  0.00113735  0.00156252  0.85853432  1
  Nb  Nb13  1  0.99772646  0.99753281  0.64390685  1
  Nb  Nb14  1  0.99652826  0.99466451  0.14468701  1
  Nb  Nb15  1  0.66020463  0.33167282  0.97824117  1
  Nb  Nb16  1  0.66849998  0.33421839  0.48003885  1
  Nb  Nb17  1  0.33526613  0.66440851  0.01592312  1
  Nb  Nb18  1  0.33489640  0.66796993  0.52120908  1
  Nb  Nb19  1  0.33282314  0.66796175  0.31547082  1
  Nb  Nb20  1  0.33319027  0.66594488  0.81282188  1
  Si  Si21  1  0.70170349  0.70310521  0.25352363  1
  Si  Si22  1  0.66461900  0.62645670  0.58447773  1
  Si  Si23  1  0.36324778  0.33208828  0.08391634  1
  Si  Si24  1  0.62166402  0.66399322  0.91481411  1
  Si  Si25  1  0.04179956  0.38063145  0.91533888  1
  Si  Si26  1  0.33704212  0.95591997  0.91544669  1
  Si  Si27  1  0.61534979  0.96211501  0.41827830  1
  Si  Si28  1  0.33985241  0.38064181  0.41929424  1
  Si  Si29  1  0.04072275  0.65592494  0.42000038  1
  P  P30  1  0.28870455  0.98995772  0.24710547  1
  P  P31  1  0.00559359  0.29405008  0.24840547  1
  P  P32  1  0.27731374  0.28718243  0.75182166  1
  P  P33  1  0.01132045  0.72325531  0.75194920  1
  P  P34  1  0.71248278  0.98972601  0.75214053  1
  P  P35  1  0.95946125  0.33235166  0.58412108  1
  P  P36  1  0.37325242  0.04155443  0.58406317  1
  P  P37  1  0.96741289  0.63379699  0.07946522  1
  P  P38  1  0.66594131  0.03481751  0.08226844  1
  O  O39  1  0.21836046  0.03140547  0.30113869  1
  O  O40  1  0.79686954  0.78590291  0.31344558  1
  O  O41  1  0.98173179  0.18929512  0.30296534  1
  O  O42  1  0.17738177  0.18107551  0.80636374  1
  O  O43  1  0.00238816  0.82169846  0.80627105  1
  O  O44  1  0.81929689  0.99771308  0.80639510  1
  O  O45  1  0.80729925  0.97850364  0.69584747  1
  O  O46  1  0.17272759  0.19554370  0.69588960  1
  O  O47  1  0.02399511  0.82993324  0.69577830  1
  O  O48  1  0.81340600  0.83238402  0.19616508  1
  O  O49  1  0.02714985  0.19689262  0.19365612  1
  O  O50  1  0.17581501  0.97763716  0.19237570  1
  O  O51  1  0.88589672  0.36240465  0.63922175  1
  O  O52  1  0.47845735  0.10953695  0.63906148  1
  O  O53  1  0.62984924  0.51524912  0.64169667  1
  O  O54  1  0.90736673  0.53511738  0.13671944  1
  O  O55  1  0.63703551  0.09851847  0.14074246  1
  O  O56  1  0.45858945  0.36785165  0.14562652  1
  O  O57  1  0.47895599  0.31196210  0.03057514  1
  O  O58  1  0.84435034  0.53601355  0.02841627  1
  O  O59  1  0.69224748  0.16110476  0.03167863  1
  O  O60  1  0.46600540  0.16079799  0.53063898  1
  O  O61  1  0.69558508  0.53223517  0.52655986  1
  O  O62  1  0.83953212  0.30284708  0.53051969  1
  O  O63  1  0.53091274  0.69604962  0.97119449  1
  O  O64  1  0.16771412  0.47343199  0.97071792  1
  O  O65  1  0.30631532  0.83491397  0.97150295  1
  O  O66  1  0.50643951  0.84161260  0.47299468  1
  O  O67  1  0.33469978  0.49182704  0.47440658  1
  O  O68  1  0.15425497  0.66791772  0.47597609  1
  O  O69  1  0.13879812  0.64031450  0.35975551  1
  O  O70  1  0.50194652  0.86744658  0.35677372  1
  O  O71  1  0.36310771  0.49792938  0.35821139  1
  O  O72  1  0.13629882  0.50258624  0.85763553  1
  O  O73  1  0.36544540  0.86229391  0.85778703  1
  O  O74  1  0.49851740  0.63427299  0.85766884  1
  O  O75  1  0.00647139  0.81333515  0.41951134  1
  O  O76  1  0.79531077  0.96818963  0.41821620  1
  O  O77  1  0.17626923  0.19694216  0.42048305  1
  O  O78  1  0.02098281  0.18975132  0.90802513  1
  O  O79  1  0.16998091  0.98133924  0.90754641  1
  O  O80  1  0.81227637  0.83221943  0.90797499  1
  O  O81  1  0.97624387  0.16662092  0.59031774  1
  O  O82  1  0.19359282  0.03133980  0.59074048  1
  O  O83  1  0.84287608  0.81852476  0.59259507  1
  O  O84  1  0.97538733  0.81150087  0.08641670  1
  O  O85  1  0.83102989  0.01745565  0.08711941  1
  O  O86  1  0.17428355  0.15548573  0.08813326  1
  O  O87  1  0.69536918  0.14925324  0.75203324  1
  O  O88  1  0.45332660  0.30197926  0.75320062  1
  O  O89  1  0.85225735  0.54657959  0.75182522  1
  O  O90  1  0.66136519  0.50799097  0.24791487  1
  O  O91  1  0.84628837  0.31098001  0.24121902  1
  O  O92  1  0.47376120  0.13723785  0.23914074  1
  O  O93  1  0.63963946  0.49372629  0.92521811  1
  O  O94  1  0.85384949  0.36001188  0.92644711  1
  O  O95  1  0.50728203  0.14451872  0.92565796  1
  O  O96  1  0.62441785  0.14606661  0.42479359  1
  O  O97  1  0.52245585  0.38055756  0.42372259  1
  O  O98  1  0.85444479  0.47739238  0.42448132  1
  O  O99  1  0.33708509  0.49678640  0.07066862  1
  O  O100  1  0.15092206  0.66780732  0.06911070  1
  O  O101  1  0.51132620  0.85485166  0.07101162  1
  O  O102  1  0.33493982  0.85597596  0.57397481  1
  O  O103  1  0.50801826  0.66772802  0.57520388  1
  O  O104  1  0.14283167  0.48407545  0.57459918  1
  O  O105  1  0.29162858  0.81885460  0.25175417  1
  O  O106  1  0.51358928  0.70141601  0.25288553  1
  O  O107  1  0.17554900  0.46964195  0.25162538  1
  O  O108  1  0.28963157  0.46671345  0.75518577  1
  O  O109  1  0.17953511  0.71284806  0.75455179  1
  O  O110  1  0.53478000  0.82174646  0.75472282  1
