# generated using pymatgen
data_Na2Y2Ta6Si7S5O48
_symmetry_space_group_name_H-M   'P 1'
_cell_length_a   17.84263627
_cell_length_b   8.96366840
_cell_length_c   23.25627856
_cell_angle_alpha   90.03896629
_cell_angle_beta   90.00142993
_cell_angle_gamma   120.18209129
_symmetry_Int_Tables_number   1
_chemical_formula_structural   Na2Y2Ta6Si7S5O48
_chemical_formula_sum   'Na6 Y6 Ta18 Si21 S15 O144'
_cell_volume   3215.25715805
_cell_formula_units_Z   3
loop_
 _symmetry_equiv_pos_site_id
 _symmetry_equiv_pos_as_xyz
  1  'x, y, z'
loop_
 _atom_site_type_symbol
 _atom_site_label
 _atom_site_symmetry_multiplicity
 _atom_site_fract_x
 _atom_site_fract_y
 _atom_site_fract_z
 _atom_site_occupancy
  Na  Na0  1  0.99497214  0.00111870  0.49634183  1
  Na  Na1  1  0.49625984  0.00299074  0.99219233  1
  Na  Na2  1  0.33627439  0.32239737  0.83205399  1
  Na  Na3  1  0.82398427  0.33732184  0.83120460  1
  Na  Na4  1  0.32488557  0.31224243  0.33707893  1
  Na  Na5  1  0.83465204  0.35017517  0.33979513  1
  Y  Y6  1  -0.00003086  0.98085137  0.35597052  1
  Y  Y7  1  0.50060235  0.01972010  0.85403914  1
  Y  Y8  1  0.99330944  0.01313002  0.64750555  1
  Y  Y9  1  0.49514980  0.98493828  0.15156460  1
  Y  Y10  1  0.83672859  0.33448947  0.97801509  1
  Y  Y11  1  0.33545277  0.33731579  0.47829459  1
  Ta  Ta12  1  0.50079803  0.99449568  0.35806616  1
  Ta  Ta13  1  0.00126650  0.00483085  0.85548514  1
  Ta  Ta14  1  0.50152786  0.00674739  0.64486703  1
  Ta  Ta15  1  0.00055994  0.99663933  0.14537628  1
  Ta  Ta16  1  0.32403053  0.33479409  0.68808837  1
  Ta  Ta17  1  0.83326651  0.31072436  0.68620828  1
  Ta  Ta18  1  0.33096365  0.34603508  0.18899294  1
  Ta  Ta19  1  0.82450489  0.31247551  0.18968130  1
  Ta  Ta20  1  0.32466049  0.32761068  0.97284648  1
  Ta  Ta21  1  0.82879547  0.31993578  0.47480354  1
  Ta  Ta22  1  0.16828958  0.66834744  0.02148724  1
  Ta  Ta23  1  0.67827200  0.67407131  0.01980956  1
  Ta  Ta24  1  0.17138725  0.67246790  0.52400684  1
  Ta  Ta25  1  0.67040744  0.66783825  0.52228987  1
  Ta  Ta26  1  0.16461897  0.68127511  0.31171753  1
  Ta  Ta27  1  0.68093223  0.67818073  0.31044813  1
  Ta  Ta28  1  0.18040293  0.68310634  0.80919825  1
  Ta  Ta29  1  0.66328661  0.64640493  0.80994411  1
  Si  Si30  1  0.14564791  0.00333004  0.24942748  1
  Si  Si31  1  0.64208317  0.99181489  0.25265501  1
  Si  Si32  1  0.35128937  0.70768929  0.25397172  1
  Si  Si33  1  0.85745392  0.70552871  0.24723852  1
  Si  Si34  1  0.14335862  0.29210595  0.75220661  1
  Si  Si35  1  0.64931661  0.28815895  0.74882812  1
  Si  Si36  1  0.35805521  0.01087782  0.74726495  1
  Si  Si37  1  0.85109466  0.99560491  0.75393025  1
  Si  Si38  1  0.97763848  0.33985505  0.57910444  1
  Si  Si39  1  0.68832435  0.04250316  0.58189073  1
  Si  Si40  1  0.33580334  0.62820103  0.58258872  1
  Si  Si41  1  0.83402663  0.04189036  0.08314987  1
  Si  Si42  1  0.18922949  0.33488005  0.08312989  1
  Si  Si43  1  0.31169523  0.67137268  0.91826875  1
  Si  Si44  1  0.81213765  0.66647728  0.91237902  1
  Si  Si45  1  0.52437106  0.38806463  0.92064025  1
  Si  Si46  1  0.16178788  0.94157318  0.91677645  1
  Si  Si47  1  0.31025293  0.95428009  0.41557583  1
  Si  Si48  1  0.81181934  0.95415579  0.41863332  1
  Si  Si49  1  0.66418902  0.38245702  0.41711445  1
  Si  Si50  1  0.02383741  0.66080831  0.42007931  1
  S  S51  1  0.99938712  0.29206237  0.24723770  1
  S  S52  1  0.49986552  0.29484453  0.25278551  1
  S  S53  1  0.00029428  0.70718973  0.75362018  1
  S  S54  1  0.49879690  0.70534882  0.74767889  1
  S  S55  1  0.48006806  0.33527809  0.58530276  1
  S  S56  1  0.18871919  0.03808507  0.58384016  1
  S  S57  1  0.83066664  0.61081894  0.58002368  1
  S  S58  1  0.47653614  0.61038930  0.07967160  1
  S  S59  1  0.98017247  0.62552762  0.08539959  1
  S  S60  1  0.33130427  0.04930222  0.07970548  1
  S  S61  1  0.68796805  0.33842932  0.08324102  1
  S  S62  1  0.02922363  0.38449476  0.91430869  1
  S  S63  1  0.66586507  0.94295580  0.91715565  1
  S  S64  1  0.16642788  0.39078435  0.41692364  1
  S  S65  1  0.52895334  0.67250243  0.41434572  1
  O  O66  1  0.11909321  0.06410298  0.30585185  1
  O  O67  1  0.59695510  0.03253124  0.30692173  1
  O  O68  1  0.42069704  0.80874054  0.30614204  1
  O  O69  1  0.90972375  0.76412255  0.30571086  1
  O  O70  1  0.48119835  0.17725498  0.30235381  1
  O  O71  1  0.97641322  0.18658740  0.29903052  1
  O  O72  1  0.09881562  0.16451748  0.80795727  1
  O  O73  1  0.61960962  0.17595447  0.80627721  1
  O  O74  1  0.47655395  0.76528407  0.79972856  1
  O  O75  1  0.98558514  0.79568043  0.80386604  1
  O  O76  1  0.40835676  0.05402763  0.80685186  1
  O  O77  1  0.92018602  0.03173468  0.80709300  1
  O  O78  1  0.40718024  0.98001352  0.69384874  1
  O  O79  1  0.88155704  0.94787883  0.69636790  1
  O  O80  1  0.09405060  0.21954251  0.69358755  1
  O  O81  1  0.58462220  0.18698210  0.69501067  1
  O  O82  1  0.01831720  0.80784866  0.70122533  1
  O  O83  1  0.51259056  0.81604819  0.69732618  1
  O  O84  1  0.38254813  0.81263141  0.19512886  1
  O  O85  1  0.90663336  0.83385953  0.19315921  1
  O  O86  1  0.01173387  0.20644956  0.19654233  1
  O  O87  1  0.51791237  0.22892520  0.20010256  1
  O  O88  1  0.08374404  0.97972383  0.19444995  1
  O  O89  1  0.59388089  0.96681374  0.19291270  1
  O  O90  1  0.43662218  0.36063610  0.63515022  1
  O  O91  1  0.93170856  0.36422771  0.63857891  1
  O  O92  1  0.24292693  0.13114697  0.63611775  1
  O  O93  1  0.75296889  0.13197136  0.63886975  1
  O  O94  1  0.31951675  0.49569989  0.63854058  1
  O  O95  1  0.81808057  0.50905658  0.63237297  1
  O  O96  1  0.43683925  0.50948035  0.13392647  1
  O  O97  1  0.93715918  0.51274893  0.13499089  1
  O  O98  1  0.32225605  0.13076078  0.13225152  1
  O  O99  1  0.81805106  0.14219110  0.13844862  1
  O  O100  1  0.25604462  0.37240594  0.13868269  1
  O  O101  1  0.74111810  0.35656989  0.13550770  1
  O  O102  1  0.23863936  0.30723624  0.02838796  1
  O  O103  1  0.72749797  0.31463703  0.03188124  1
  O  O104  1  0.41946029  0.51677925  0.03029766  1
  O  O105  1  0.92913420  0.56148766  0.03290248  1
  O  O106  1  0.34011109  0.15262599  0.02809850  1
  O  O107  1  0.85314874  0.15552702  0.02700637  1
  O  O108  1  0.22794789  0.14248478  0.53270560  1
  O  O109  1  0.73336708  0.16550967  0.52645655  1
  O  O110  1  0.35659017  0.55142057  0.52744154  1
  O  O111  1  0.83719081  0.52675395  0.52760282  1
  O  O112  1  0.42913622  0.29720805  0.53285320  1
  O  O113  1  0.91156459  0.32088940  0.52639977  1
  O  O114  1  0.25557297  0.68314765  0.97380879  1
  O  O115  1  0.76733442  0.69175951  0.97300285  1
  O  O116  1  0.07664975  0.46349705  0.96958397  1
  O  O117  1  0.58582533  0.49792173  0.97589810  1
  O  O118  1  0.14884372  0.82472362  0.97461308  1
  O  O119  1  0.66436252  0.84845083  0.97167061  1
  O  O120  1  0.26583662  0.84143765  0.47380900  1
  O  O121  1  0.75545744  0.82817684  0.47355797  1
  O  O122  1  0.16444750  0.47816489  0.47108862  1
  O  O123  1  0.64825420  0.47246536  0.47426965  1
  O  O124  1  0.08763584  0.67743129  0.47327256  1
  O  O125  1  0.57591356  0.68935074  0.46891159  1
  O  O126  1  0.06623433  0.63395161  0.35977049  1
  O  O127  1  0.57265421  0.65368909  0.36391069  1
  O  O128  1  0.24657852  0.85042083  0.35977554  1
  O  O129  1  0.75614106  0.85814168  0.36011395  1
  O  O130  1  0.17094630  0.48867908  0.36498652  1
  O  O131  1  0.67805251  0.50375636  0.36084770  1
  O  O132  1  0.07314168  0.49341971  0.86461075  1
  O  O133  1  0.56513956  0.49912985  0.86116988  1
  O  O134  1  0.17968038  0.85425765  0.86134400  1
  O  O135  1  0.67010019  0.85416041  0.86560764  1
  O  O136  1  0.25567389  0.65155367  0.86032292  1
  O  O137  1  0.74486158  0.64180972  0.86023813  1
  O  O138  1  0.01901756  0.83435014  0.42103185  1
  O  O139  1  0.52336297  0.83412055  0.40923510  1
  O  O140  1  0.40378299  0.96362092  0.40260657  1
  O  O141  1  0.90610672  0.98126597  0.41913905  1
  O  O142  1  0.08771713  0.22058180  0.41640172  1
  O  O143  1  0.57978235  0.19282044  0.40323069  1
  O  O144  1  0.02420596  0.21372339  0.90933199  1
  O  O145  1  0.51866143  0.20463119  0.92123541  1
  O  O146  1  0.07987754  0.96769808  0.90444750  1
  O  O147  1  0.58671741  0.95377723  0.91858324  1
  O  O148  1  0.40659587  0.83109454  0.91937647  1
  O  O149  1  0.90417167  0.84436339  0.90297767  1
  O  O150  1  0.49419149  0.18591933  0.59504066  1
  O  O151  1  0.98418097  0.16758719  0.57954821  1
  O  O152  1  0.10077082  0.00549526  0.59099288  1
  O  O153  1  0.59493757  0.02185627  0.59742831  1
  O  O154  1  0.41729659  0.81563745  0.60111307  1
  O  O155  1  0.90668388  0.78328395  0.58333314  1
  O  O156  1  0.48255523  0.78073608  0.08263168  1
  O  O157  1  0.99452546  0.80309438  0.09502321  1
  O  O158  1  0.40696959  0.02616654  0.08235399  1
  O  O159  1  0.91501796  0.01475631  0.10062355  1
  O  O160  1  0.09607654  0.16822083  0.09720825  1
  O  O161  1  0.59941972  0.19312175  0.08940528  1
  O  O162  1  0.34221455  0.17099790  0.73024829  1
  O  O163  1  0.84650339  0.17721331  0.74490861  1
  O  O164  1  0.24440210  0.32031286  0.74511048  1
  O  O165  1  0.74845316  0.33545409  0.73131943  1
  O  O166  1  0.42353257  0.52382531  0.73578891  1
  O  O167  1  0.92111630  0.53384113  0.74816700  1
  O  O168  1  0.34744923  0.51545197  0.24311967  1
  O  O169  1  0.84128865  0.51364629  0.22893992  1
  O  O170  1  0.42105339  0.31244384  0.24313006  1
  O  O171  1  0.92320040  0.32144426  0.23496088  1
  O  O172  1  0.24595092  0.16077440  0.23040307  1
  O  O173  1  0.74314639  0.16695212  0.24471239  1
  O  O174  1  0.31128593  0.48645335  0.92597636  1
  O  O175  1  0.82191208  0.49932075  0.91497636  1
  O  O176  1  0.42678961  0.36710518  0.93008160  1
  O  O177  1  0.94204142  0.36062060  0.91703716  1
  O  O178  1  0.24973910  0.13387187  0.92668032  1
  O  O179  1  0.74441652  0.11485888  0.91900076  1
  O  O180  1  0.32315609  0.14470578  0.41486576  1
  O  O181  1  0.80967200  0.13499104  0.42343367  1
  O  O182  1  0.24540114  0.37576662  0.41753728  1
  O  O183  1  0.75068899  0.36767599  0.42591171  1
  O  O184  1  0.44124622  0.52232551  0.41594041  1
  O  O185  1  0.92605576  0.48741770  0.42582706  1
  O  O186  1  0.17668835  0.50153369  0.07023773  1
  O  O187  1  0.68522905  0.50243123  0.07776787  1
  O  O188  1  0.06686916  0.64110656  0.07717539  1
  O  O189  1  0.56286089  0.62955655  0.07361863  1
  O  O190  1  0.25019609  0.87399781  0.07344285  1
  O  O191  1  0.74512555  0.85217200  0.07484498  1
  O  O192  1  0.18895619  0.87304138  0.57979681  1
  O  O193  1  0.67501784  0.84938861  0.56972275  1
  O  O194  1  0.24898766  0.64253249  0.57437856  1
  O  O195  1  0.75009974  0.62942258  0.57379495  1
  O  O196  1  0.07293370  0.51195517  0.57010092  1
  O  O197  1  0.56657326  0.49280588  0.57764538  1
  O  O198  1  0.15360962  0.82954536  0.25817457  1
  O  O199  1  0.65448680  0.82898099  0.26761552  1
  O  O200  1  0.25333339  0.65856599  0.27035949  1
  O  O201  1  0.75986353  0.68194708  0.25601357  1
  O  O202  1  0.07593490  0.46307175  0.25386252  1
  O  O203  1  0.57292098  0.46957519  0.26516878  1
  O  O204  1  0.15560858  0.48025576  0.76802205  1
  O  O205  1  0.65319191  0.47665357  0.75839234  1
  O  O206  1  0.07434304  0.68062268  0.76730525  1
  O  O207  1  0.57570722  0.68673835  0.75530414  1
  O  O208  1  0.26023215  0.83773141  0.75609213  1
  O  O209  1  0.75297213  0.84578405  0.77154729  1
