# generated using pymatgen
data_Na6Mg3Si2Sn(SO6)4
_symmetry_space_group_name_H-M   'P 1'
_cell_length_a   9.02610733
_cell_length_b   9.02534908
_cell_length_c   22.25700063
_cell_angle_alpha   90.20830339
_cell_angle_beta   89.44083790
_cell_angle_gamma   120.19381893
_symmetry_Int_Tables_number   1
_chemical_formula_structural   Na6Mg3Si2Sn(SO6)4
_chemical_formula_sum   'Na18 Mg9 Si6 Sn3 S12 O72'
_cell_volume   1567.07255199
_cell_formula_units_Z   3
loop_
 _symmetry_equiv_pos_site_id
 _symmetry_equiv_pos_as_xyz
  1  'x, y, z'
loop_
 _atom_site_type_symbol
 _atom_site_label
 _atom_site_symmetry_multiplicity
 _atom_site_fract_x
 _atom_site_fract_y
 _atom_site_fract_z
 _atom_site_occupancy
  Na  Na0  1  0.63154709  0.99533040  0.25854370  1
  Na  Na1  1  0.36858691  0.36458620  0.24355598  1
  Na  Na2  1  0.64379895  0.64918121  0.74022912  1
  Na  Na3  1  0.31294834  0.34312157  0.58882747  1
  Na  Na4  1  0.02089501  0.69913240  0.58408872  1
  Na  Na5  1  0.66743947  0.94701760  0.58565319  1
  Na  Na6  1  0.29883098  0.97755662  0.07648875  1
  Na  Na7  1  0.05261395  0.33657742  0.07678002  1
  Na  Na8  1  0.98648708  0.67432779  0.91415628  1
  Na  Na9  1  0.70448608  0.03625562  0.90349505  1
  Na  Na10  1  0.31228951  0.28383269  0.91878103  1
  Na  Na11  1  0.69704782  0.68455387  0.42084191  1
  Na  Na12  1  0.98311722  0.99513188  0.49592873  1
  Na  Na13  1  0.01528130  0.01342201  0.99668142  1
  Na  Na14  1  0.66876327  0.30371294  0.82573000  1
  Na  Na15  1  0.67406765  0.32251834  0.33488464  1
  Na  Na16  1  0.33715401  0.65629303  0.16293616  1
  Na  Na17  1  0.34865793  0.67507851  0.66832027  1
  Mg  Mg18  1  0.99704929  0.00498078  0.35241868  1
  Mg  Mg19  1  0.00022228  0.01332132  0.84985482  1
  Mg  Mg20  1  0.97932797  0.98569043  0.65354029  1
  Mg  Mg21  1  0.00650041  0.00246416  0.14876560  1
  Mg  Mg22  1  0.66276062  0.32538508  0.68755105  1
  Mg  Mg23  1  0.66462119  0.34296950  0.18254983  1
  Mg  Mg24  1  0.33094886  0.65922325  0.01713718  1
  Mg  Mg25  1  0.35068581  0.67137224  0.51465767  1
  Mg  Mg26  1  0.33680184  0.68202192  0.32135023  1
  Si  Si27  1  0.70082596  0.00254238  0.75097623  1
  Si  Si28  1  0.66563380  0.62527093  0.58525775  1
  Si  Si29  1  0.36870144  0.33968832  0.08812363  1
  Si  Si30  1  0.03972318  0.37241674  0.91989493  1
  Si  Si31  1  0.32934796  0.96051378  0.92164378  1
  Si  Si32  1  0.63527501  0.96753501  0.41603805  1
  Sn  Sn33  1  0.65927644  0.32526393  0.98322054  1
  Sn  Sn34  1  0.66922939  0.32899724  0.48168159  1
  Sn  Sn35  1  0.32720056  0.67805924  0.81593884  1
  S  S36  1  0.29072447  0.99577405  0.24977166  1
  S  S37  1  0.71005878  0.70595424  0.25066916  1
  S  S38  1  0.00014789  0.29551798  0.24941919  1
  S  S39  1  0.29360410  0.29334873  0.74968585  1
  S  S40  1  -0.00009858  0.70669333  0.74924557  1
  S  S41  1  0.96480062  0.33624207  0.58401025  1
  S  S42  1  0.36865218  0.03820941  0.58489623  1
  S  S43  1  0.95822435  0.62788138  0.08532182  1
  S  S44  1  0.66861221  0.03651830  0.08701022  1
  S  S45  1  0.62759493  0.66695464  0.91738282  1
  S  S46  1  0.32904985  0.36965998  0.41546341  1
  S  S47  1  0.04240876  0.66857348  0.41715976  1
  O  O48  1  0.20572856  0.02275729  0.30180693  1
  O  O49  1  0.80782540  0.78617291  0.30563686  1
  O  O50  1  0.97206342  0.18412210  0.30160327  1
  O  O51  1  0.21339600  0.19323566  0.80419398  1
  O  O52  1  0.98385620  0.78977246  0.80413883  1
  O  O53  1  0.80291851  0.01096304  0.81137333  1
  O  O54  1  0.77259457  0.95710592  0.68984262  1
  O  O55  1  0.19462035  0.21170039  0.69485957  1
  O  O56  1  0.02652842  0.81102846  0.69473387  1
  O  O57  1  0.79401600  0.81671401  0.19791155  1
  O  O58  1  0.02729609  0.21823191  0.19387510  1
  O  O59  1  0.19416984  0.97776286  0.19406397  1
  O  O60  1  0.87975482  0.36323979  0.63580012  1
  O  O61  1  0.48571443  0.11870265  0.63506848  1
  O  O62  1  0.63672079  0.49975665  0.64089791  1
  O  O63  1  0.87076368  0.50951177  0.13528561  1
  O  O64  1  0.64472855  0.12395311  0.13937075  1
  O  O65  1  0.47986613  0.35566995  0.14638011  1
  O  O66  1  0.45421581  0.29787164  0.02579326  1
  O  O67  1  0.86027909  0.55388701  0.02764068  1
  O  O68  1  0.70872541  0.14829043  0.03081052  1
  O  O69  1  0.44267620  0.14557644  0.52854338  1
  O  O70  1  0.70335593  0.53907182  0.52180567  1
  O  O71  1  0.85238412  0.29184841  0.52899468  1
  O  O72  1  0.54555805  0.69486363  0.96960854  1
  O  O73  1  0.15369405  0.45339384  0.97841080  1
  O  O74  1  0.30603951  0.85232492  0.98190557  1
  O  O75  1  0.54821019  0.85477302  0.47621624  1
  O  O76  1  0.30519300  0.44640485  0.47073082  1
  O  O77  1  0.13288629  0.68039278  0.47329329  1
  O  O78  1  0.12323086  0.63992015  0.36433207  1
  O  O79  1  0.52678742  0.89147849  0.35435049  1
  O  O80  1  0.35612859  0.47824969  0.36162418  1
  O  O81  1  0.12221884  0.49966995  0.85979226  1
  O  O82  1  0.38467709  0.88476274  0.86321649  1
  O  O83  1  0.52016383  0.62737844  0.86222708  1
  O  O84  1  0.02302115  0.82090202  0.41116755  1
  O  O85  1  0.82265053  0.98019388  0.41163480  1
  O  O86  1  0.18518381  0.19569746  0.40897880  1
  O  O87  1  0.00849756  0.18054905  0.91295451  1
  O  O88  1  0.15916365  0.97532998  0.91134030  1
  O  O89  1  0.80079941  0.81505645  0.91042669  1
  O  O90  1  0.99382109  0.18937707  0.58996713  1
  O  O91  1  0.20060555  0.02818619  0.59252094  1
  O  O92  1  0.84122631  0.81455999  0.58440615  1
  O  O93  1  0.97364777  0.79776305  0.09207280  1
  O  O94  1  0.82094784  0.01823188  0.09247116  1
  O  O95  1  0.17832541  0.16087278  0.08745284  1
  O  O96  1  0.67657887  0.16703178  0.74493042  1
  O  O97  1  0.47087584  0.32317048  0.74566027  1
  O  O98  1  0.84054320  0.53773345  0.74451100  1
  O  O99  1  0.68902859  0.53163320  0.24581550  1
  O  O100  1  0.84290217  0.30961092  0.24373857  1
  O  O101  1  0.46912865  0.15148866  0.24634067  1
  O  O102  1  0.64587685  0.51030823  0.92317238  1
  O  O103  1  0.84883584  0.36554946  0.92413545  1
  O  O104  1  0.50479892  0.15744915  0.92067113  1
  O  O105  1  0.65088510  0.16394515  0.42084750  1
  O  O106  1  0.49671187  0.36688894  0.41940725  1
  O  O107  1  0.86035612  0.51298334  0.41863066  1
  O  O108  1  0.34581188  0.50635841  0.08239493  1
  O  O109  1  0.13193047  0.64951423  0.08103504  1
  O  O110  1  0.51018997  0.87179563  0.07938938  1
  O  O111  1  0.34045143  0.86239480  0.57704468  1
  O  O112  1  0.49141706  0.63943831  0.57996127  1
  O  O113  1  0.13174590  0.49575446  0.57452001  1
  O  O114  1  0.31064903  0.84184210  0.25409679  1
  O  O115  1  0.53168910  0.68261273  0.25439509  1
  O  O116  1  0.15782964  0.46694207  0.25636340  1
  O  O117  1  0.31033254  0.46930180  0.75363079  1
  O  O118  1  0.15315632  0.68304269  0.75067653  1
  O  O119  1  0.50614134  0.80729012  0.75387265  1
