# generated using pymatgen
data_Ca3Ga4O9
_symmetry_space_group_name_H-M   'P 1'
_cell_length_a   11.05868684
_cell_length_b   11.05868684
_cell_length_c   5.32453866
_cell_angle_alpha   90.00000000
_cell_angle_beta   90.00000000
_cell_angle_gamma   98.92564392
_symmetry_Int_Tables_number   1
_chemical_formula_structural   Ca3Ga4O9
_chemical_formula_sum   'Ca9 Ga12 O27'
_cell_volume   643.27685217
_cell_formula_units_Z   3
loop_
 _symmetry_equiv_pos_site_id
 _symmetry_equiv_pos_as_xyz
  1  'x, y, z'
loop_
 _atom_site_type_symbol
 _atom_site_label
 _atom_site_symmetry_multiplicity
 _atom_site_fract_x
 _atom_site_fract_y
 _atom_site_fract_z
 _atom_site_occupancy
  Ca  Ca0  1  -0.00000000  0.00000000  0.99648114  1
  Ca  Ca1  1  0.59791360  0.40208640  0.09077545  1
  Ca  Ca2  1  0.40208640  0.59791360  0.09077545  1
  Ca  Ca3  1  0.66052229  0.08029592  0.03384515  1
  Ca  Ca4  1  0.33947771  0.91970408  0.03384515  1
  Ca  Ca5  1  0.91970408  0.33947771  0.03384515  1
  Ca  Ca6  1  0.08029592  0.66052229  0.03384515  1
  Ca  Ca7  1  0.76005609  0.76005609  0.04802147  1
  Ca  Ca8  1  0.23994391  0.23994391  0.04802147  1
  Ga  Ga9  1  0.01452625  0.20296683  0.51099411  1
  Ga  Ga10  1  0.20296683  0.01452625  0.51099411  1
  Ga  Ga11  1  0.79703317  0.98547375  0.51099411  1
  Ga  Ga12  1  0.98547375  0.79703317  0.51099411  1
  Ga  Ga13  1  0.46492351  0.13425731  0.56017981  1
  Ga  Ga14  1  0.53507649  0.86574269  0.56017981  1
  Ga  Ga15  1  0.86574269  0.53507649  0.56017981  1
  Ga  Ga16  1  0.13425731  0.46492351  0.56017981  1
  Ga  Ga17  1  0.61210268  0.61210268  0.60745548  1
  Ga  Ga18  1  0.38789732  0.38789732  0.60745548  1
  Ga  Ga19  1  0.73763144  0.26236856  0.52754177  1
  Ga  Ga20  1  0.26236856  0.73763144  0.52754177  1
  O  O21  1  -0.00000000  0.50000000  0.75626903  1
  O  O22  1  0.50000000  0.00000000  0.75626903  1
  O  O23  1  0.24532583  0.41576057  0.77445076  1
  O  O24  1  0.75467417  0.58423943  0.77445076  1
  O  O25  1  0.58423943  0.75467417  0.77445076  1
  O  O26  1  0.41576057  0.24532583  0.77445076  1
  O  O27  1  0.27172336  0.72827664  0.86456138  1
  O  O28  1  0.72827664  0.27172336  0.86456138  1
  O  O29  1  0.97645948  0.79671483  0.84686361  1
  O  O30  1  0.02354052  0.20328517  0.84686361  1
  O  O31  1  0.20328517  0.02354052  0.84686361  1
  O  O32  1  0.79671483  0.97645948  0.84686361  1
  O  O33  1  0.50000000  0.50000000  0.77585132  1
  O  O34  1  0.06767905  0.34631324  0.33651489  1
  O  O35  1  0.93232095  0.65368676  0.33651489  1
  O  O36  1  0.65368676  0.93232095  0.33651489  1
  O  O37  1  0.34631324  0.06767905  0.33651489  1
  O  O38  1  0.15424864  0.84575136  0.39951777  1
  O  O39  1  0.84575136  0.15424864  0.39951777  1
  O  O40  1  0.20419306  0.59467479  0.35924014  1
  O  O41  1  0.79580694  0.40532521  0.35924014  1
  O  O42  1  0.60885667  0.60885667  0.26790175  1
  O  O43  1  0.39114333  0.39114333  0.26790175  1
  O  O44  1  0.89789792  0.89789792  0.33915272  1
  O  O45  1  0.10210208  0.10210208  0.33915272  1
  O  O46  1  0.59467479  0.20419306  0.35924014  1
  O  O47  1  0.40532521  0.79580694  0.35924014  1
