# generated using pymatgen
data_Cd4P2Cl3
_symmetry_space_group_name_H-M   'P 1'
_cell_length_a   12.24512293
_cell_length_b   12.24512293
_cell_length_c   12.24512293
_cell_angle_alpha   90.00000000
_cell_angle_beta   90.00000000
_cell_angle_gamma   90.00000000
_symmetry_Int_Tables_number   1
_chemical_formula_structural   Cd4P2Cl3
_chemical_formula_sum   'Cd32 P16 Cl24'
_cell_volume   1836.07090306
_cell_formula_units_Z   8
loop_
 _symmetry_equiv_pos_site_id
 _symmetry_equiv_pos_as_xyz
  1  'x, y, z'
loop_
 _atom_site_type_symbol
 _atom_site_label
 _atom_site_symmetry_multiplicity
 _atom_site_fract_x
 _atom_site_fract_y
 _atom_site_fract_z
 _atom_site_occupancy
  Cd  Cd0  1  0.72296901  0.22296901  0.27703099  1
  Cd  Cd1  1  0.27703099  0.72296901  0.22296901  1
  Cd  Cd2  1  0.22296901  0.27703099  0.72296901  1
  Cd  Cd3  1  0.77703099  0.77703099  0.77703099  1
  Cd  Cd4  1  0.27703099  0.77703099  0.72296901  1
  Cd  Cd5  1  0.72296901  0.27703099  0.77703099  1
  Cd  Cd6  1  0.77703099  0.72296901  0.27703099  1
  Cd  Cd7  1  0.22296901  0.22296901  0.22296901  1
  Cd  Cd8  1  0.74982796  0.02884480  0.51259832  1
  Cd  Cd9  1  0.51259832  0.74982796  0.02884480  1
  Cd  Cd10  1  0.02884480  0.51259832  0.74982796  1
  Cd  Cd11  1  0.47115520  0.48740168  0.24982796  1
  Cd  Cd12  1  0.01259832  0.75017204  0.97115520  1
  Cd  Cd13  1  0.97115520  0.01259832  0.75017204  1
  Cd  Cd14  1  0.98740168  0.25017204  0.52884480  1
  Cd  Cd15  1  0.48740168  0.24982796  0.47115520  1
  Cd  Cd16  1  0.52884480  0.98740168  0.25017204  1
  Cd  Cd17  1  0.24982796  0.47115520  0.48740168  1
  Cd  Cd18  1  0.25017204  0.52884480  0.98740168  1
  Cd  Cd19  1  0.75017204  0.97115520  0.01259832  1
  Cd  Cd20  1  0.25017204  0.97115520  0.48740168  1
  Cd  Cd21  1  0.48740168  0.25017204  0.97115520  1
  Cd  Cd22  1  0.97115520  0.48740168  0.25017204  1
  Cd  Cd23  1  0.52884480  0.51259832  0.75017204  1
  Cd  Cd24  1  0.98740168  0.24982796  0.02884480  1
  Cd  Cd25  1  0.02884480  0.98740168  0.24982796  1
  Cd  Cd26  1  0.01259832  0.74982796  0.47115520  1
  Cd  Cd27  1  0.51259832  0.75017204  0.52884480  1
  Cd  Cd28  1  0.47115520  0.01259832  0.74982796  1
  Cd  Cd29  1  0.75017204  0.52884480  0.51259832  1
  Cd  Cd30  1  0.74982796  0.47115520  0.01259832  1
  Cd  Cd31  1  0.24982796  0.02884480  0.98740168  1
  P  P32  1  0.94883278  0.05116722  0.55116722  1
  P  P33  1  0.55116722  0.94883278  0.05116722  1
  P  P34  1  0.05116722  0.55116722  0.94883278  1
  P  P35  1  0.44883278  0.44883278  0.44883278  1
  P  P36  1  0.05116722  0.94883278  0.44883278  1
  P  P37  1  0.44883278  0.05116722  0.94883278  1
  P  P38  1  0.94883278  0.44883278  0.05116722  1
  P  P39  1  0.55116722  0.55116722  0.55116722  1
  P  P40  1  0.60591405  0.10591405  0.39408595  1
  P  P41  1  0.39408595  0.60591405  0.10591405  1
  P  P42  1  0.10591405  0.39408595  0.60591405  1
  P  P43  1  0.89408595  0.89408595  0.89408595  1
  P  P44  1  0.39408595  0.89408595  0.60591405  1
  P  P45  1  0.60591405  0.39408595  0.89408595  1
  P  P46  1  0.89408595  0.60591405  0.39408595  1
  P  P47  1  0.10591405  0.10591405  0.10591405  1
  Cl  Cl48  1  0.68432428  0.07098128  0.73009712  1
  Cl  Cl49  1  0.73009712  0.68432428  0.07098128  1
  Cl  Cl50  1  0.07098128  0.73009712  0.68432428  1
  Cl  Cl51  1  0.42901872  0.26990288  0.18432428  1
  Cl  Cl52  1  0.23009712  0.81567572  0.92901872  1
  Cl  Cl53  1  0.92901872  0.23009712  0.81567572  1
  Cl  Cl54  1  0.76990288  0.31567572  0.57098128  1
  Cl  Cl55  1  0.26990288  0.18432428  0.42901872  1
  Cl  Cl56  1  0.57098128  0.76990288  0.31567572  1
  Cl  Cl57  1  0.18432428  0.42901872  0.26990288  1
  Cl  Cl58  1  0.31567572  0.57098128  0.76990288  1
  Cl  Cl59  1  0.81567572  0.92901872  0.23009712  1
  Cl  Cl60  1  0.31567572  0.92901872  0.26990288  1
  Cl  Cl61  1  0.26990288  0.31567572  0.92901872  1
  Cl  Cl62  1  0.92901872  0.26990288  0.31567572  1
  Cl  Cl63  1  0.57098128  0.73009712  0.81567572  1
  Cl  Cl64  1  0.76990288  0.18432428  0.07098128  1
  Cl  Cl65  1  0.07098128  0.76990288  0.18432428  1
  Cl  Cl66  1  0.23009712  0.68432428  0.42901872  1
  Cl  Cl67  1  0.73009712  0.81567572  0.57098128  1
  Cl  Cl68  1  0.42901872  0.23009712  0.68432428  1
  Cl  Cl69  1  0.81567572  0.57098128  0.73009712  1
  Cl  Cl70  1  0.68432428  0.42901872  0.23009712  1
  Cl  Cl71  1  0.18432428  0.07098128  0.76990288  1
