# generated using pymatgen
data_MgV8(PO4)12
_symmetry_space_group_name_H-M   'P 1'
_cell_length_a   8.52579169
_cell_length_b   8.62266551
_cell_length_c   11.90681363
_cell_angle_alpha   90.01188419
_cell_angle_beta   89.70802836
_cell_angle_gamma   90.03725378
_symmetry_Int_Tables_number   1
_chemical_formula_structural   MgV8(PO4)12
_chemical_formula_sum   'Mg1 V8 P12 O48'
_cell_volume   875.31842976
_cell_formula_units_Z   1
loop_
 _symmetry_equiv_pos_site_id
 _symmetry_equiv_pos_as_xyz
  1  'x, y, z'
loop_
 _atom_site_type_symbol
 _atom_site_label
 _atom_site_symmetry_multiplicity
 _atom_site_fract_x
 _atom_site_fract_y
 _atom_site_fract_z
 _atom_site_occupancy
  Mg  Mg0  1  0.91091800  0.28189800  0.25516500  1
  V  V1  1  0.25410500  0.96676300  0.38294600  1
  V  V2  1  0.25441200  0.47129700  0.11472900  1
  V  V3  1  0.25274900  0.03109400  0.87969400  1
  V  V4  1  0.24875300  0.53208300  0.62053000  1
  V  V5  1  0.73950700  0.48425800  0.39166400  1
  V  V6  1  0.74529200  0.96394300  0.11657200  1
  V  V7  1  0.74372200  0.53517800  0.88243100  1
  V  V8  1  0.75263500  0.03420500  0.61796900  1
  P  P9  1  0.03490700  0.25125900  0.50244200  1
  P  P10  1  0.11474700  0.10581000  0.14379900  1
  P  P11  1  0.10808100  0.38474400  0.85708900  1
  P  P12  1  0.38629200  0.61230100  0.35613900  1
  P  P13  1  0.39340500  0.88372200  0.64366900  1
  P  P14  1  0.46571200  0.75290100  0.99473900  1
  P  P15  1  0.52912700  0.25006000  0.00778400  1
  P  P16  1  0.61292400  0.10940800  0.35618600  1
  P  P17  1  0.60085500  0.38147500  0.64986100  1
  P  P18  1  0.88983300  0.61377200  0.14004000  1
  P  P19  1  0.97622500  0.75424300  0.49527900  1
  P  P20  1  0.89437200  0.88764600  0.85460400  1
  O  O21  1  0.06814900  0.59449000  0.12066300  1
  O  O22  1  0.07131500  0.82262200  0.39829100  1
  O  O23  1  0.07298300  0.64083600  0.56839200  1
  O  O24  1  0.07150000  0.92272100  0.83735100  1
  O  O25  1  0.11386800  0.12956500  0.42373200  1
  O  O26  1  0.12354000  0.28450500  0.17066900  1
  O  O27  1  0.14960200  0.07186000  0.02117900  1
  O  O28  1  0.16144700  0.21805400  0.82445600  1
  O  O29  1  0.15164300  0.49211600  0.75448700  1
  O  O30  1  0.16627000  0.34620800  0.55801900  1
  O  O31  1  0.21567500  0.00904300  0.22181800  1
  O  O32  1  0.20612200  0.44125800  0.95554300  1
  O  O33  1  0.28486700  0.51689600  0.27630900  1
  O  O34  1  0.30031600  0.93655600  0.54171300  1
  O  O35  1  0.33052900  0.84388900  0.93724100  1
  O  O36  1  0.34903300  0.57163400  0.47899200  1
  O  O37  1  0.34523700  0.99391700  0.74304800  1
  O  O38  1  0.93131500  0.39156800  0.87561800  1
  O  O39  1  0.33960900  0.71715500  0.67682100  1
  O  O40  1  0.39174300  0.63724600  0.07753200  1
  O  O41  1  0.41899200  0.32520500  0.09813900  1
  O  O42  1  0.43537600  0.11224000  0.37040800  1
  O  O43  1  0.42426700  0.41924100  0.66675800  1
  O  O44  1  0.42896200  0.13699900  0.93501800  1
  O  O45  1  0.55933800  0.86739200  0.06735300  1
  O  O46  1  0.56163300  0.57689800  0.33142000  1
  O  O47  1  0.57090400  0.88692000  0.62884600  1
  O  O48  1  0.56751300  0.68082800  0.90195000  1
  O  O49  1  0.60011900  0.36921800  0.92858400  1
  O  O50  1  0.68127900  0.27138900  0.32092700  1
  O  O51  1  0.62151300  0.20769000  0.66949100  1
  O  O52  1  0.66337400  0.99162000  0.26505600  1
  O  O53  1  0.64857300  0.42768400  0.53002400  1
  O  O54  1  0.65915700  0.16460300  0.07174100  1
  O  O55  1  0.69535800  0.06336000  0.46689800  1
  O  O56  1  0.69574500  0.48368700  0.73212000  1
  O  O57  1  0.79801900  0.56549900  0.03481300  1
  O  O58  1  0.80406100  0.98785700  0.76813900  1
  O  O59  1  0.84244200  0.65399500  0.44004300  1
  O  O60  1  0.84256200  0.49915800  0.23558000  1
  O  O61  1  0.85091100  0.77941700  0.17387400  1
  O  O62  1  0.84396400  0.93914600  0.97311800  1
  O  O63  1  0.87256000  0.71315000  0.83600500  1
  O  O64  1  0.89837900  0.86983800  0.57278100  1
  O  O65  1  0.93508500  0.08261600  0.17063700  1
  O  O66  1  0.94131900  0.35337900  0.41769500  1
  O  O67  1  0.92911400  0.18318000  0.59364600  1
  O  O68  1  0.37020200  0.79102200  0.34039200  1
