# generated using pymatgen
data_Ge(Bi3O5)4
_symmetry_space_group_name_H-M   'P 1'
_cell_length_a   8.79248957
_cell_length_b   8.79249264
_cell_length_c   8.79249604
_cell_angle_alpha   109.47122138
_cell_angle_beta   109.47121196
_cell_angle_gamma   109.47121202
_symmetry_Int_Tables_number   1
_chemical_formula_structural   Ge(Bi3O5)4
_chemical_formula_sum   'Ge1 Bi12 O20'
_cell_volume   523.25604485
_cell_formula_units_Z   1
loop_
 _symmetry_equiv_pos_site_id
 _symmetry_equiv_pos_as_xyz
  1  'x, y, z'
loop_
 _atom_site_type_symbol
 _atom_site_label
 _atom_site_symmetry_multiplicity
 _atom_site_fract_x
 _atom_site_fract_y
 _atom_site_fract_z
 _atom_site_occupancy
  Ge  Ge0  1  -0.00000045  -0.00000073  -0.00000059  1
  Bi  Bi1  1  0.19148223  0.69623130  0.85650232  1
  Bi  Bi2  1  0.83973025  0.33498053  0.14349958  1
  Bi  Bi3  1  0.80851723  0.66502048  0.50474896  1
  Bi  Bi4  1  0.14349686  0.83972902  0.33497962  1
  Bi  Bi5  1  0.69623104  0.85650268  0.19148198  1
  Bi  Bi6  1  0.30376863  0.49525076  0.16027109  1
  Bi  Bi7  1  0.49525092  0.16027112  0.30376861  1
  Bi  Bi8  1  0.33498020  0.14349754  0.83972912  1
  Bi  Bi9  1  0.50474907  0.80851804  0.66501879  1
  Bi  Bi10  1  0.66502035  0.50474913  0.80851821  1
  Bi  Bi11  1  0.85650266  0.19148265  0.69623207  1
  Bi  Bi12  1  0.16027151  0.30376868  0.49525105  1
  O  O13  1  0.79820927  -0.00000000  0.00000001  1
  O  O14  1  0.20178927  0.20178922  0.20178948  1
  O  O15  1  -0.00000007  0.79820939  -0.00000020  1
  O  O16  1  -0.00000031  -0.00000031  0.79820952  1
  O  O17  1  0.39194066  -0.00000034  0.00000003  1
  O  O18  1  0.60805884  0.60805876  0.60805904  1
  O  O19  1  0.00000011  0.39194111  -0.00000001  1
  O  O20  1  -0.00000014  0.00000010  0.39194101  1
  O  O21  1  0.62099593  0.23617242  0.87994704  1
  O  O22  1  0.35622581  0.74105032  0.12005517  1
  O  O23  1  0.37900532  0.25894958  0.61517585  1
  O  O24  1  0.12005554  0.35622605  0.74105049  1
  O  O25  1  0.23617091  0.87994495  0.62099502  1
  O  O26  1  0.64377352  0.76382935  0.38482430  1
  O  O27  1  0.87994454  0.62099534  0.23617066  1
  O  O28  1  0.25894937  0.61517487  0.37900468  1
  O  O29  1  0.61517549  0.37900480  0.25894967  1
  O  O30  1  0.74104981  0.12005509  0.35622551  1
  O  O31  1  0.38482328  0.64377406  0.76382771  1
  O  O32  1  0.76382934  0.38482403  0.64377420  1
