# generated using pymatgen
data_Na2LaMgP(SO6)2
_symmetry_space_group_name_H-M   'P 1'
_cell_length_a   9.38036955
_cell_length_b   9.28053306
_cell_length_c   23.66281838
_cell_angle_alpha   89.60947470
_cell_angle_beta   90.00000000
_cell_angle_gamma   120.35650203
_symmetry_Int_Tables_number   1
_chemical_formula_structural   Na2LaMgP(SO6)2
_chemical_formula_sum   'Na12 La6 Mg6 P6 S12 O72'
_cell_volume   1777.48133745
_cell_formula_units_Z   6
loop_
 _symmetry_equiv_pos_site_id
 _symmetry_equiv_pos_as_xyz
  1  'x, y, z'
loop_
 _atom_site_type_symbol
 _atom_site_label
 _atom_site_symmetry_multiplicity
 _atom_site_fract_x
 _atom_site_fract_y
 _atom_site_fract_z
 _atom_site_occupancy
  Na  Na0  1  0.00702921  0.64372426  0.24033464  1
  Na  Na1  1  0.63669505  0.64372426  0.74033464  1
  Na  Na2  1  0.65859082  0.95733996  0.57800043  1
  Na  Na3  1  0.29875014  0.95733996  0.07800043  1
  Na  Na4  1  0.68758276  0.02698965  0.90830791  1
  Na  Na5  1  0.33940590  0.02698965  0.40830791  1
  Na  Na6  1  0.97256854  0.98307512  0.48850346  1
  Na  Na7  1  0.01050658  0.98307512  0.98850346  1
  Na  Na8  1  0.65319044  0.30616499  0.82185190  1
  Na  Na9  1  0.65297555  0.30616499  0.32185190  1
  Na  Na10  1  0.33309299  0.65570305  0.15556680  1
  Na  Na11  1  0.32260905  0.65570305  0.65556680  1
  La  La12  1  0.00539936  0.00124532  0.64909961  1
  La  La13  1  0.99584596  0.00124532  0.14909961  1
  La  La14  1  0.67580803  0.35289306  0.98261634  1
  La  La15  1  0.67708603  0.35289306  0.48261634  1
  La  La16  1  0.35022527  0.67747093  0.31528821  1
  La  La17  1  0.32724466  0.67747093  0.81528821  1
  Mg  Mg18  1  0.99317255  0.00774333  0.34960711  1
  Mg  Mg19  1  0.01457078  0.00774333  0.84960711  1
  Mg  Mg20  1  0.66768068  0.32743823  0.68280470  1
  Mg  Mg21  1  0.65975855  0.32743823  0.18280470  1
  Mg  Mg22  1  0.30200415  0.66009110  0.01531130  1
  Mg  Mg23  1  0.35808595  0.66009110  0.51531130  1
  P  P24  1  0.30393230  0.01676064  0.25203327  1
  P  P25  1  0.71282833  0.01676064  0.75203327  1
  P  P26  1  0.64807029  0.62750698  0.58939753  1
  P  P27  1  0.97943769  0.62750698  0.08939753  1
  P  P28  1  0.32013630  0.96378368  0.92182525  1
  P  P29  1  0.64364638  0.96378368  0.42182525  1
  S  S30  1  0.71183036  0.68956795  0.25249714  1
  S  S31  1  0.98121185  0.29418829  0.25240434  1
  S  S32  1  0.31297644  0.29418829  0.75240434  1
  S  S33  1  0.97773759  0.68956795  0.75249714  1
  S  S34  1  0.97221178  0.35141696  0.58547872  1
  S  S35  1  0.37986772  0.02807430  0.58285843  1
  S  S36  1  0.64820758  0.02807430  0.08285843  1
  S  S37  1  0.37920618  0.35141696  0.08547872  1
  S  S38  1  0.63746526  0.68693637  0.91553693  1
  S  S39  1  0.04063150  0.35318437  0.91868720  1
  S  S40  1  0.31255187  0.35318437  0.41868720  1
  S  S41  1  0.04947011  0.68693637  0.41553693  1
  O  O42  1  0.21488257  0.02881678  0.30559762  1
  O  O43  1  0.81240147  0.78586036  0.30129047  1
  O  O44  1  0.97256022  0.19257655  0.30171604  1
  O  O45  1  0.22001633  0.19257655  0.80171604  1
  O  O46  1  0.97345889  0.78586036  0.80129047  1
  O  O47  1  0.81393421  0.02881678  0.80559762  1
  O  O48  1  0.79324094  0.99054500  0.69826115  1
  O  O49  1  0.22149449  0.22275478  0.69955682  1
  O  O50  1  0.00442190  0.78534864  0.69948472  1
  O  O51  1  0.78092674  0.78534864  0.19948472  1
  O  O52  1  0.00126030  0.22275478  0.19955682  1
  O  O53  1  0.19730406  0.99054500  0.19826115  1
  O  O54  1  0.88315613  0.36247094  0.63514926  1
  O  O55  1  0.48900957  0.12539554  0.63022335  1
  O  O56  1  0.64283402  0.53156350  0.64375151  1
  O  O57  1  0.88873048  0.53156350  0.14375151  1
  O  O58  1  0.63638697  0.12539554  0.13022335  1
  O  O59  1  0.47931581  0.36247094  0.13514926  1
  O  O60  1  0.44999394  0.32245541  0.03350201  1
  O  O61  1  0.87582185  0.54354743  0.03643205  1
  O  O62  1  0.66881811  0.11661258  0.02829280  1
  O  O63  1  0.44779548  0.11661258  0.52829280  1
  O  O64  1  0.66772658  0.54354743  0.53643205  1
  O  O65  1  0.87246247  0.32245541  0.53350201  1
  O  O66  1  0.54056719  0.69267362  0.96374990  1
  O  O67  1  0.13759854  0.44537948  0.96845845  1
  O  O68  1  0.30163450  0.86069758  0.97632279  1
  O  O69  1  0.55906208  0.86069758  0.47632279  1
  O  O70  1  0.30777993  0.44537948  0.46845845  1
  O  O71  1  0.15210542  0.69267362  0.46374990  1
  O  O72  1  0.11769529  0.66685982  0.36147431  1
  O  O73  1  0.52725757  0.87930679  0.37058671  1
  O  O74  1  0.33357390  0.44827616  0.36629121  1
  O  O75  1  0.11470126  0.44827616  0.86629121  1
  O  O76  1  0.35204822  0.87930679  0.87058671  1
  O  O77  1  0.54916354  0.66685982  0.86147431  1
  O  O78  1  0.04583832  0.84652684  0.41327555  1
  O  O79  1  0.81381096  0.98095738  0.41154431  1
  O  O80  1  0.16154292  0.18523144  0.41552618  1
  O  O81  1  0.02368852  0.18523144  0.91552618  1
  O  O82  1  0.16714642  0.98095738  0.91154431  1
  O  O83  1  0.80068852  0.84652684  0.91327555  1
  O  O84  1  0.98750055  0.19818541  0.58939474  1
  O  O85  1  0.21174834  0.00303543  0.58861715  1
  O  O86  1  0.80019423  0.81145031  0.58826797  1
  O  O87  1  0.01125608  0.81145031  0.08826797  1
  O  O88  1  0.79128709  0.00303543  0.08861715  1
  O  O89  1  0.21068486  0.19818541  0.08939474  1
  O  O90  1  0.68932478  0.16884488  0.74411190  1
  O  O91  1  0.47933231  0.31088532  0.74884570  1
  O  O92  1  0.81726377  0.52933921  0.74889047  1
  O  O93  1  0.71207644  0.52933921  0.24889047  1
  O  O94  1  0.83155401  0.31088532  0.24884570  1
  O  O95  1  0.47952110  0.16884488  0.24411190  1
  O  O96  1  0.66739437  0.54473153  0.91890872  1
  O  O97  1  0.86747564  0.32417476  0.92156846  1
  O  O98  1  0.48457817  0.13687152  0.92393891  1
  O  O99  1  0.65229435  0.13687152  0.42393891  1
  O  O100  1  0.45670012  0.32417476  0.42156846  1
  O  O101  1  0.87733816  0.54473153  0.41890872  1
  O  O102  1  0.36395271  0.50124495  0.07917914  1
  O  O103  1  0.15371780  0.64597408  0.08320577  1
  O  O104  1  0.49220795  0.86281430  0.08085764  1
  O  O105  1  0.37060534  0.86281430  0.58085764  1
  O  O106  1  0.49225528  0.64597408  0.58320577  1
  O  O107  1  0.13729124  0.50124495  0.57917914  1
  O  O108  1  0.30996555  0.84960990  0.25423475  1
  O  O109  1  0.53920349  0.65421028  0.25550917  1
  O  O110  1  0.12744891  0.46817295  0.25597105  1
  O  O111  1  0.34072305  0.46817295  0.75597105  1
  O  O112  1  0.11500580  0.65421028  0.75550917  1
  O  O113  1  0.53964334  0.84960990  0.75423475  1
