# generated using pymatgen
data_NaHf2Ta2SiP5O24
_symmetry_space_group_name_H-M   'P 1'
_cell_length_a   8.83218228
_cell_length_b   8.83697288
_cell_length_c   22.93525373
_cell_angle_alpha   90.04093629
_cell_angle_beta   89.87805112
_cell_angle_gamma   120.02977934
_symmetry_Int_Tables_number   1
_chemical_formula_structural   NaHf2Ta2SiP5O24
_chemical_formula_sum   'Na3 Hf6 Ta6 Si3 P15 O72'
_cell_volume   1549.79518481
_cell_formula_units_Z   3
loop_
 _symmetry_equiv_pos_site_id
 _symmetry_equiv_pos_as_xyz
  1  'x, y, z'
loop_
 _atom_site_type_symbol
 _atom_site_label
 _atom_site_symmetry_multiplicity
 _atom_site_fract_x
 _atom_site_fract_y
 _atom_site_fract_z
 _atom_site_occupancy
  Na  Na0  1  0.99982294  0.99796511  0.99855546  1
  Na  Na1  1  0.66607428  0.33325840  0.83180281  1
  Na  Na2  1  0.66712900  0.33332215  0.33561134  1
  Hf  Hf3  1  0.00035404  0.99763854  0.85562613  1
  Hf  Hf4  1  0.00149251  0.00284690  0.14698896  1
  Hf  Hf5  1  0.66633778  0.33369191  0.68587260  1
  Hf  Hf6  1  0.66739944  0.33385011  0.48038466  1
  Hf  Hf7  1  0.33300699  0.66678274  0.52167781  1
  Hf  Hf8  1  0.33109298  0.66493549  0.31045959  1
  Ta  Ta9  1  0.99849691  0.00347916  0.35681804  1
  Ta  Ta10  1  0.00048722  0.00022625  0.64361665  1
  Ta  Ta11  1  0.66835940  0.33371019  0.18942486  1
  Ta  Ta12  1  0.66450873  0.33356956  0.97684700  1
  Ta  Ta13  1  0.33619510  0.67123443  0.02290297  1
  Ta  Ta14  1  0.33862329  0.67018761  0.80972409  1
  Si  Si15  1  0.00069976  0.28765879  0.25025057  1
  Si  Si16  1  0.61825449  0.66794507  0.91680986  1
  Si  Si17  1  0.33270524  0.95090307  0.91688664  1
  P  P18  1  0.28618896  0.00091104  0.25038048  1
  P  P19  1  0.71463980  0.71405459  0.25046193  1
  P  P20  1  0.28658011  0.28746252  0.74983587  1
  P  P21  1  0.00034651  0.71231570  0.74972024  1
  P  P22  1  0.71397141  0.00110276  0.74980103  1
  P  P23  1  0.95632494  0.33276774  0.58370627  1
  P  P24  1  0.37687301  0.04373631  0.58369277  1
  P  P25  1  0.66705740  0.62366716  0.58370698  1
  P  P26  1  0.95241865  0.61781529  0.08270983  1
  P  P27  1  0.66647673  0.04793383  0.08290559  1
  P  P28  1  0.38080736  0.33399397  0.08295742  1
  P  P29  1  0.05064446  0.38482661  0.91714684  1
  P  P30  1  0.62121905  0.95532644  0.41615946  1
  P  P31  1  0.33438471  0.37841605  0.41613659  1
  P  P32  1  0.04456566  0.66747866  0.41611260  1
  O  O33  1  0.20139935  0.03355695  0.30444096  1
  O  O34  1  0.83283165  0.79619546  0.30450206  1
  O  O35  1  0.96564898  0.15984759  0.30673684  1
  O  O36  1  0.20457376  0.17563406  0.80427635  1
  O  O37  1  0.96996626  0.79529007  0.80405781  1
  O  O38  1  0.82419538  0.02982705  0.80435301  1
  O  O39  1  0.80160486  0.97247733  0.69543921  1
  O  O40  1  0.17076240  0.19768991  0.69549747  1
  O  O41  1  0.02777458  0.82893686  0.69552128  1
  O  O42  1  0.79786601  0.82115149  0.19510735  1
  O  O43  1  0.02623588  0.19855273  0.19243005  1
  O  O44  1  0.17750676  0.97272592  0.19513693  1
  O  O45  1  0.87079301  0.36030290  0.63801024  1
  O  O46  1  0.48941066  0.12906742  0.63792538  1
  O  O47  1  0.63955907  0.51059291  0.63792071  1
  O  O48  1  0.86220403  0.50232258  0.13734062  1
  O  O49  1  0.63839365  0.13623888  0.13733337  1
  O  O50  1  0.49594663  0.36111796  0.13712660  1
  O  O51  1  0.47340425  0.30862538  0.02881795  1
  O  O52  1  0.83624081  0.52660436  0.02886976  1
  O  O53  1  0.69225411  0.16354467  0.02888118  1
  O  O54  1  0.45700780  0.16026102  0.52974719  1
  O  O55  1  0.70342967  0.54318930  0.52977531  1
  O  O56  1  0.83987569  0.29662040  0.52984234  1
  O  O57  1  0.52145321  0.68951292  0.97440367  1
  O  O58  1  0.16191264  0.47053716  0.97233323  1
  O  O59  1  0.30615448  0.83079743  0.97450056  1
  O  O60  1  0.54157577  0.84361948  0.47091437  1
  O  O61  1  0.30095709  0.45719026  0.47086189  1
  O  O62  1  0.15607093  0.69830824  0.47080323  1
  O  O63  1  0.12762031  0.63743489  0.36205305  1
  O  O64  1  0.51155000  0.87451205  0.36171731  1
  O  O65  1  0.36420485  0.49050803  0.36197208  1
  O  O66  1  0.13127801  0.49735932  0.86201472  1
  O  O67  1  0.36379647  0.85936895  0.85951232  1
  O  O68  1  0.49472971  0.63229748  0.85939102  1
  O  O69  1  0.02396118  0.83042157  0.40487358  1
  O  O70  1  0.80530761  0.97299904  0.40626988  1
  O  O71  1  0.17070683  0.19301904  0.40558279  1
  O  O72  1  0.02641603  0.20133389  0.91068877  1
  O  O73  1  0.16711544  0.97927661  0.91148137  1
  O  O74  1  0.80959124  0.83742345  0.91147295  1
  O  O75  1  0.97476796  0.16819994  0.59576053  1
  O  O76  1  0.19359135  0.02516286  0.59565834  1
  O  O77  1  0.83185742  0.80665257  0.59580140  1
  O  O78  1  0.97317954  0.79994183  0.08864924  1
  O  O79  1  0.82646689  0.02417305  0.08859732  1
  O  O80  1  0.19942320  0.16956605  0.08783464  1
  O  O81  1  0.68753836  0.15947503  0.74225986  1
  O  O82  1  0.47095255  0.31193611  0.74218529  1
  O  O83  1  0.83945876  0.52846073  0.74230282  1
  O  O84  1  0.69356358  0.52699982  0.24074443  1
  O  O85  1  0.82290923  0.30543110  0.24060561  1
  O  O86  1  0.47109373  0.16965585  0.24064768  1
  O  O87  1  0.64034711  0.49468948  0.92638493  1
  O  O88  1  0.86525507  0.36446634  0.92641861  1
  O  O89  1  0.50958132  0.14348526  0.92647022  1
  O  O90  1  0.64876440  0.14159469  0.42366849  1
  O  O91  1  0.49412805  0.35226311  0.42351344  1
  O  O92  1  0.85909756  0.50629485  0.42357034  1
  O  O93  1  0.36144521  0.49583115  0.07311491  1
  O  O94  1  0.13224290  0.63228764  0.07381160  1
  O  O95  1  0.50112270  0.86625640  0.07437997  1
  O  O96  1  0.35261106  0.86244565  0.57457986  1
  O  O97  1  0.50968298  0.64736273  0.57447923  1
  O  O98  1  0.13765693  0.49011803  0.57455813  1
  O  O99  1  0.31479763  0.84728658  0.25954755  1
  O  O100  1  0.53427470  0.69039063  0.25959785  1
  O  O101  1  0.16376325  0.47804274  0.25952742  1
  O  O102  1  0.30244835  0.46923645  0.75881011  1
  O  O103  1  0.16404477  0.69310444  0.75931809  1
  O  O104  1  0.53044154  0.83454777  0.75823744  1
