# generated using pymatgen
data_Na2Sc4Ga4SiS11O48
_symmetry_space_group_name_H-M   'P 1'
_cell_length_a   17.33190844
_cell_length_b   8.67642896
_cell_length_c   22.60753868
_cell_angle_alpha   89.95100679
_cell_angle_beta   89.98500056
_cell_angle_gamma   119.99382822
_symmetry_Int_Tables_number   1
_chemical_formula_structural   Na2Sc4Ga4SiS11O48
_chemical_formula_sum   'Na6 Sc12 Ga12 Si3 S33 O144'
_cell_volume   2944.40824564
_cell_formula_units_Z   3
loop_
 _symmetry_equiv_pos_site_id
 _symmetry_equiv_pos_as_xyz
  1  'x, y, z'
loop_
 _atom_site_type_symbol
 _atom_site_label
 _atom_site_symmetry_multiplicity
 _atom_site_fract_x
 _atom_site_fract_y
 _atom_site_fract_z
 _atom_site_occupancy
  Na  Na0  1  0.00116272  0.99135166  0.49753876  1
  Na  Na1  1  0.50117486  0.01128010  0.99788704  1
  Na  Na2  1  0.33803529  0.33421624  0.83532703  1
  Na  Na3  1  0.83861995  0.34471900  0.83131214  1
  Na  Na4  1  0.33170331  0.33108195  0.33397967  1
  Na  Na5  1  0.84064081  0.34432129  0.33431478  1
  Sc  Sc6  1  0.99785945  0.98832264  0.85393013  1
  Sc  Sc7  1  0.50053367  0.00842425  0.85557834  1
  Sc  Sc8  1  0.00025193  0.99204678  0.65008386  1
  Sc  Sc9  1  0.50091712  0.00041203  0.64288095  1
  Sc  Sc10  1  0.33484430  0.33608142  0.68533528  1
  Sc  Sc11  1  0.83676618  0.34166378  0.68651986  1
  Sc  Sc12  1  0.33725419  0.33319349  0.98005918  1
  Sc  Sc13  1  0.83838351  0.34276502  0.47744902  1
  Sc  Sc14  1  0.66319364  0.65515009  0.02160272  1
  Sc  Sc15  1  0.16165385  0.67134044  0.51795483  1
  Sc  Sc16  1  0.16081503  0.66619594  0.80944129  1
  Sc  Sc17  1  0.66312700  0.65900565  0.81436803  1
  Ga  Ga18  1  0.00250755  0.99322333  0.35117446  1
  Ga  Ga19  1  0.49952660  0.99954562  0.35312564  1
  Ga  Ga20  1  0.99932535  0.00026281  0.14672220  1
  Ga  Ga21  1  0.49973274  0.99968773  0.15177113  1
  Ga  Ga22  1  0.32860271  0.32998850  0.18170747  1
  Ga  Ga23  1  0.83823228  0.33688044  0.18339689  1
  Ga  Ga24  1  0.83522918  0.33555911  0.98384823  1
  Ga  Ga25  1  0.33408485  0.33467285  0.48263009  1
  Ga  Ga26  1  0.16440953  0.66286226  0.01928710  1
  Ga  Ga27  1  0.66606497  0.66864785  0.51887090  1
  Ga  Ga28  1  0.16292706  0.66447629  0.31555218  1
  Ga  Ga29  1  0.66525795  0.66412049  0.31327881  1
  Si  Si30  1  0.99742598  0.70368766  0.75019249  1
  Si  Si31  1  0.51956277  0.37320988  0.91748005  1
  Si  Si32  1  0.02175856  0.67317355  0.41164297  1
  S  S33  1  0.14698263  0.00287949  0.24782341  1
  S  S34  1  0.64547287  0.00044924  0.25137204  1
  S  S35  1  0.35371801  0.70894597  0.25144626  1
  S  S36  1  0.85340988  0.70755199  0.24876651  1
  S  S37  1  0.00025614  0.28623680  0.25010266  1
  S  S38  1  0.49951366  0.29065063  0.25024886  1
  S  S39  1  0.14806403  0.29175532  0.75088003  1
  S  S40  1  0.64499899  0.28980202  0.74894587  1
  S  S41  1  0.50007696  0.70998611  0.75008151  1
  S  S42  1  0.35531359  0.00145828  0.74914017  1
  S  S43  1  0.85276694  -0.00009741  0.75111728  1
  S  S44  1  0.48095077  0.34071447  0.57877659  1
  S  S45  1  0.98043457  0.33021807  0.58213508  1
  S  S46  1  0.18997773  0.04829656  0.58033459  1
  S  S47  1  0.68796004  0.03354149  0.58056150  1
  S  S48  1  0.33317489  0.62096427  0.58015174  1
  S  S49  1  0.82828543  0.62819168  0.58025876  1
  S  S50  1  0.47686400  0.63016728  0.08846306  1
  S  S51  1  0.97948667  0.62710646  0.08403521  1
  S  S52  1  0.33308368  0.03507863  0.08611093  1
  S  S53  1  0.83735528  0.05093252  0.08567493  1
  S  S54  1  0.18436582  0.33312535  0.08504483  1
  S  S55  1  0.68899582  0.32451283  0.08657234  1
  S  S56  1  0.30821023  0.66480274  0.91943004  1
  S  S57  1  0.81300578  0.65845504  0.91999080  1
  S  S58  1  0.01891808  0.37714648  0.92119828  1
  S  S59  1  0.16580630  0.95193318  0.92009303  1
  S  S60  1  0.67271088  0.96798842  0.91933626  1
  S  S61  1  0.31633188  0.96458224  0.41404216  1
  S  S62  1  0.80846328  0.94756053  0.41430061  1
  S  S63  1  0.16959980  0.37520704  0.41448917  1
  S  S64  1  0.66134367  0.37584947  0.41396425  1
  S  S65  1  0.52140749  0.66731030  0.41529688  1
  O  O66  1  0.10905655  0.04153958  0.30094390  1
  O  O67  1  0.60483879  0.03554607  0.30411242  1
  O  O68  1  0.41284290  0.78865628  0.30396836  1
  O  O69  1  0.91006251  0.78584612  0.30181397  1
  O  O70  1  0.48229070  0.17570217  0.30296270  1
  O  O71  1  0.98237759  0.17168701  0.30359500  1
  O  O72  1  0.10658202  0.18267061  0.80376239  1
  O  O73  1  0.60369358  0.18085455  0.80232921  1
  O  O74  1  0.48517235  0.78845784  0.80348439  1
  O  O75  1  0.98228947  0.79554014  0.80818895  1
  O  O76  1  0.41064219  0.03208483  0.80226005  1
  O  O77  1  0.90927363  0.03425950  0.80399583  1
  O  O78  1  0.39824527  0.98249673  0.69554678  1
  O  O79  1  0.89538415  0.97987165  0.69745761  1
  O  O80  1  0.09522408  0.21328450  0.69696573  1
  O  O81  1  0.59012620  0.20463951  0.69599562  1
  O  O82  1  0.01203580  0.82007300  0.69082884  1
  O  O83  1  0.50749482  0.81440819  0.69667327  1
  O  O84  1  0.39367286  0.82067127  0.19781494  1
  O  O85  1  0.89359815  0.81793840  0.19529494  1
  O  O86  1  0.01185714  0.20232858  0.19643549  1
  O  O87  1  0.51606866  0.21155198  0.19656653  1
  O  O88  1  0.09073621  0.97280133  0.19484354  1
  O  O89  1  0.58959404  0.96808215  0.19770233  1
  O  O90  1  0.44095996  0.37163179  0.63191916  1
  O  O91  1  0.93818057  0.35305113  0.63515266  1
  O  O92  1  0.24252951  0.13498292  0.63373782  1
  O  O93  1  0.74231634  0.11265198  0.63352189  1
  O  O94  1  0.31960827  0.51087931  0.63340456  1
  O  O95  1  0.81599603  0.52215669  0.63366225  1
  O  O96  1  0.43457616  0.51541052  0.14152841  1
  O  O97  1  0.94079187  0.51233359  0.13766741  1
  O  O98  1  0.31801069  0.11773527  0.13962021  1
  O  O99  1  0.82015542  0.13052223  0.13941493  1
  O  O100  1  0.24224408  0.37032242  0.13900751  1
  O  O101  1  0.74378690  0.34994906  0.14008550  1
  O  O102  1  0.22481771  0.29869969  0.03365245  1
  O  O103  1  0.72795622  0.29233254  0.03261581  1
  O  O104  1  0.42210784  0.55258570  0.03530210  1
  O  O105  1  0.92092613  0.54739444  0.03172550  1
  O  O106  1  0.35095895  0.14865246  0.03373753  1
  O  O107  1  0.85441574  0.16579217  0.03265672  1
  O  O108  1  0.23199976  0.15794230  0.52614471  1
  O  O109  1  0.72831567  0.14579404  0.52794844  1
  O  O110  1  0.35083366  0.54035374  0.52690847  1
  O  O111  1  0.84334455  0.54432947  0.52781493  1
  O  O112  1  0.42340843  0.30597287  0.52577015  1
  O  O113  1  0.92479601  0.30550741  0.52905740  1
  O  O114  1  0.26823114  0.69418141  0.97384769  1
  O  O115  1  0.77045168  0.68199275  0.97291523  1
  O  O116  1  0.07403775  0.45982992  0.97512021  1
  O  O117  1  0.57744026  0.46410360  0.97685086  1
  O  O118  1  0.15372349  0.84400443  0.97439776  1
  O  O119  1  0.66046791  0.86040173  0.97250277  1
  O  O120  1  0.27773797  0.85625621  0.46710833  1
  O  O121  1  0.76906303  0.83675513  0.46795885  1
  O  O122  1  0.15700725  0.45519607  0.46789434  1
  O  O123  1  0.64742508  0.45716606  0.46739073  1
  O  O124  1  0.07959139  0.70353308  0.47141327  1
  O  O125  1  0.57686514  0.69814973  0.46839499  1
  O  O126  1  0.06619100  0.63531984  0.35394280  1
  O  O127  1  0.56018510  0.63111564  0.36170597  1
  O  O128  1  0.26054602  0.88608380  0.36047792  1
  O  O129  1  0.75338023  0.86523116  0.36045065  1
  O  O130  1  0.18862446  0.48790760  0.36081683  1
  O  O131  1  0.67923512  0.48992513  0.36031592  1
  O  O132  1  0.05806880  0.48798170  0.86837769  1
  O  O133  1  0.56461493  0.49209149  0.85917271  1
  O  O134  1  0.18190184  0.87338423  0.86745847  1
  O  O135  1  0.68775640  0.89200346  0.86545147  1
  O  O136  1  0.25700207  0.64404583  0.86611144  1
  O  O137  1  0.75935484  0.62895886  0.86620649  1
  O  O138  1  0.01170045  0.85164755  0.40637595  1
  O  O139  1  0.51287010  0.82745662  0.40658169  1
  O  O140  1  0.40603982  0.98394608  0.40572332  1
  O  O141  1  0.89871966  0.97207658  0.40779920  1
  O  O142  1  0.08757653  0.19991846  0.40669918  1
  O  O143  1  0.58039747  0.19961144  0.40580472  1
  O  O144  1  0.00905736  0.20165287  0.91415902  1
  O  O145  1  0.50897884  0.17662049  0.91390216  1
  O  O146  1  0.08698391  0.97028177  0.91435545  1
  O  O147  1  0.59180477  0.98318274  0.91341322  1
  O  O148  1  0.39901791  0.82056244  0.91531957  1
  O  O149  1  0.90070919  0.81742435  0.91470288  1
  O  O150  1  0.48978164  0.18267119  0.58703488  1
  O  O151  1  0.98901032  0.17056426  0.58638897  1
  O  O152  1  0.10119907  0.03106687  0.58385928  1
  O  O153  1  0.59852185  0.01326985  0.58854833  1
  O  O154  1  0.41289108  0.79676249  0.58779150  1
  O  O155  1  0.90710306  0.80792928  0.58498605  1
  O  O156  1  0.48480117  0.80933672  0.09563170  1
  O  O157  1  0.98782284  0.80376211  0.09349400  1
  O  O158  1  0.41489397  0.01904522  0.09418848  1
  O  O159  1  0.91834522  0.03605989  0.09379415  1
  O  O160  1  0.09592528  0.17364305  0.09506988  1
  O  O161  1  0.59816208  0.16282518  0.09298567  1
  O  O162  1  0.34589289  0.16190708  0.74359718  1
  O  O163  1  0.83996529  0.15493362  0.74505101  1
  O  O164  1  0.23741035  0.30679788  0.74500217  1
  O  O165  1  0.73197750  0.30119198  0.74321803  1
  O  O166  1  0.42063544  0.52864800  0.74457163  1
  O  O167  1  0.90914464  0.50798851  0.74538189  1
  O  O168  1  0.34481058  0.52951125  0.24373148  1
  O  O169  1  0.84396815  0.52628044  0.24146365  1
  O  O170  1  0.41912318  0.30923018  0.24249716  1
  O  O171  1  0.91898045  0.30697501  0.24373673  1
  O  O172  1  0.23766052  0.16836474  0.24069491  1
  O  O173  1  0.73512855  0.16016042  0.24402551  1
  O  O174  1  0.31486802  0.50255764  0.92574897  1
  O  O175  1  0.82185041  0.49546195  0.92660115  1
  O  O176  1  0.42136741  0.35425638  0.92192938  1
  O  O177  1  0.92893268  0.36154005  0.92819225  1
  O  O178  1  0.24514906  0.13090564  0.92625833  1
  O  O179  1  0.75235051  0.14990555  0.92600053  1
  O  O180  1  0.32634759  0.14591813  0.42128941  1
  O  O181  1  0.81421704  0.12183450  0.42025376  1
  O  O182  1  0.24906659  0.34988498  0.42139526  1
  O  O183  1  0.73938841  0.35288827  0.42012631  1
  O  O184  1  0.43131243  0.50691104  0.42245745  1
  O  O185  1  0.92276453  0.49595195  0.41775916  1
  O  O186  1  0.17523057  0.49250146  0.07654076  1
  O  O187  1  0.68118074  0.48367213  0.08092848  1
  O  O188  1  0.06793365  0.64545504  0.07501061  1
  O  O189  1  0.56560253  0.65199454  0.08226790  1
  O  O190  1  0.25420117  0.85837618  0.07761659  1
  O  O191  1  0.75916828  0.87602617  0.07774520  1
  O  O192  1  0.18452151  0.87531329  0.57602151  1
  O  O193  1  0.67774852  0.85413025  0.57237300  1
  O  O194  1  0.25450472  0.63722094  0.57231559  1
  O  O195  1  0.74679886  0.64087184  0.57240762  1
  O  O196  1  0.06885791  0.48858099  0.57604561  1
  O  O197  1  0.56910923  0.50027492  0.57046740  1
  O  O198  1  0.15900981  0.84853490  0.25556450  1
  O  O199  1  0.65353610  0.83975653  0.25995133  1
  O  O200  1  0.26547323  0.69180386  0.26049219  1
  O  O201  1  0.76420169  0.68788950  0.25730103  1
  O  O202  1  0.08096394  0.46109322  0.25644172  1
  O  O203  1  0.57941419  0.46818028  0.25847801  1
  O  O204  1  0.16076910  0.46968982  0.75767279  1
  O  O205  1  0.65580071  0.46713807  0.75453957  1
  O  O206  1  0.08461592  0.68559800  0.75694105  1
  O  O207  1  0.58091374  0.69778345  0.75428288  1
  O  O208  1  0.26873616  0.84315036  0.75569945  1
  O  O209  1  0.76642417  0.83850532  0.75832279  1
