# generated using pymatgen
data_Na2YZnP(SO6)2
_symmetry_space_group_name_H-M   'P 1'
_cell_length_a   9.13410912
_cell_length_b   9.10425276
_cell_length_c   23.34406402
_cell_angle_alpha   89.32848658
_cell_angle_beta   90.00000000
_cell_angle_gamma   120.10854065
_symmetry_Int_Tables_number   1
_chemical_formula_structural   Na2YZnP(SO6)2
_chemical_formula_sum   'Na12 Y6 Zn6 P6 S12 O72'
_cell_volume   1679.19719633
_cell_formula_units_Z   6
loop_
 _symmetry_equiv_pos_site_id
 _symmetry_equiv_pos_as_xyz
  1  'x, y, z'
loop_
 _atom_site_type_symbol
 _atom_site_label
 _atom_site_symmetry_multiplicity
 _atom_site_fract_x
 _atom_site_fract_y
 _atom_site_fract_z
 _atom_site_occupancy
  Na  Na0  1  0.00124117  0.63922467  0.24172409  1
  Na  Na1  1  0.63798350  0.63922467  0.74172409  1
  Na  Na2  1  0.65823516  0.95750578  0.57887761  1
  Na  Na3  1  0.29927162  0.95750578  0.07887761  1
  Na  Na4  1  0.69201214  0.02700877  0.90918143  1
  Na  Na5  1  0.33499563  0.02700877  0.40918143  1
  Na  Na6  1  0.97950388  0.98715001  0.49189031  1
  Na  Na7  1  0.00764613  0.98715001  0.99189031  1
  Na  Na8  1  0.65686047  0.31282819  0.82520839  1
  Na  Na9  1  0.65596872  0.31282819  0.32520839  1
  Na  Na10  1  0.33496368  0.65665877  0.15906599  1
  Na  Na11  1  0.32169409  0.65665877  0.65906599  1
  Y  Y12  1  0.00266220  0.00054106  0.64892312  1
  Y  Y13  1  0.99787886  0.00054106  0.14892312  1
  Y  Y14  1  0.67174980  0.34666625  0.98250632  1
  Y  Y15  1  0.67491745  0.34666625  0.48250632  1
  Y  Y16  1  0.34605412  0.67704846  0.31563070  1
  Y  Y17  1  0.33099334  0.67704846  0.81563070  1
  Zn  Zn18  1  0.99185010  0.00398908  0.34782985  1
  Zn  Zn19  1  0.01213898  0.00398908  0.84782985  1
  Zn  Zn20  1  0.66729213  0.32678464  0.68105883  1
  Zn  Zn21  1  0.65949351  0.32678464  0.18105883  1
  Zn  Zn22  1  0.30003756  0.66065592  0.01385164  1
  Zn  Zn23  1  0.36061736  0.66065592  0.51385164  1
  P  P24  1  0.30139979  0.01217948  0.25177926  1
  P  P25  1  0.71077969  0.01217948  0.75177926  1
  P  P26  1  0.65742058  0.62557133  0.58801099  1
  P  P27  1  0.96815175  0.62557133  0.08801099  1
  P  P28  1  0.32459948  0.96495186  0.91968301  1
  P  P29  1  0.64035138  0.96495186  0.41968301  1
  S  S30  1  0.70809570  0.69808357  0.25181356  1
  S  S31  1  0.99242981  0.29544555  0.25155636  1
  S  S32  1  0.30301575  0.29544555  0.75155636  1
  S  S33  1  0.98998787  0.69808357  0.75181356  1
  S  S34  1  0.96950569  0.34490126  0.58456381  1
  S  S35  1  0.37470547  0.03349273  0.58306949  1
  S  S36  1  0.65878826  0.03349273  0.08306949  1
  S  S37  1  0.37539656  0.34490126  0.08456381  1
  S  S38  1  0.62917994  0.67507399  0.91663920  1
  S  S39  1  0.03934070  0.36232945  0.91828377  1
  S  S40  1  0.32298775  0.36232945  0.41828377  1
  S  S41  1  0.04589304  0.67507399  0.41663920  1
  O  O42  1  0.21502483  0.02775054  0.30709371  1
  O  O43  1  0.81145129  0.78429150  0.30236169  1
  O  O44  1  0.97506612  0.19387091  0.30325222  1
  O  O45  1  0.21880479  0.19387091  0.80325222  1
  O  O46  1  0.97284020  0.78429150  0.80236169  1
  O  O47  1  0.81272571  0.02775054  0.80709371  1
  O  O48  1  0.79483029  0.98334346  0.69811756  1
  O  O49  1  0.20441407  0.21719013  0.69922856  1
  O  O50  1  0.01801309  0.80161640  0.69895425  1
  O  O51  1  0.78360330  0.80161640  0.19895425  1
  O  O52  1  0.01277605  0.21719013  0.19922856  1
  O  O53  1  0.18851317  0.98334346  0.19811756  1
  O  O54  1  0.88705138  0.36179307  0.63629256  1
  O  O55  1  0.48380498  0.12051054  0.63251844  1
  O  O56  1  0.64392415  0.52655317  0.64406848  1
  O  O57  1  0.88263002  0.52655317  0.14406848  1
  O  O58  1  0.63670656  0.12051054  0.13251844  1
  O  O59  1  0.47474269  0.36179307  0.13629256  1
  O  O60  1  0.45256762  0.31231942  0.03329669  1
  O  O61  1  0.86117780  0.54004125  0.03486028  1
  O  O62  1  0.68046315  0.13081675  0.02876216  1
  O  O63  1  0.45035460  0.13081675  0.52876216  1
  O  O64  1  0.67886445  0.54004125  0.53486028  1
  O  O65  1  0.85975280  0.31231942  0.53329669  1
  O  O66  1  0.53775278  0.68951267  0.96631487  1
  O  O67  1  0.13896252  0.44450002  0.96973419  1
  O  O68  1  0.30378712  0.86459952  0.97665775  1
  O  O69  1  0.56081140  0.86459952  0.47665775  1
  O  O70  1  0.30553649  0.44450002  0.46973419  1
  O  O71  1  0.15175889  0.68951267  0.46631487  1
  O  O72  1  0.11840038  0.65206000  0.36242808  1
  O  O73  1  0.51881176  0.87585036  0.36888166  1
  O  O74  1  0.34452348  0.46352159  0.36586012  1
  O  O75  1  0.11899710  0.46352159  0.86586012  1
  O  O76  1  0.35703760  0.87585036  0.86888166  1
  O  O77  1  0.53365862  0.65206000  0.86242808  1
  O  O78  1  0.03622399  0.83398320  0.41266141  1
  O  O79  1  0.81620415  0.98328035  0.41061782  1
  O  O80  1  0.17405572  0.18811428  0.41452671  1
  O  O81  1  0.01405856  0.18811428  0.91452671  1
  O  O82  1  0.16707619  0.98328035  0.91061782  1
  O  O83  1  0.79775922  0.83398320  0.91266141  1
  O  O84  1  0.98167753  0.18550784  0.58855475  1
  O  O85  1  0.20451412  0.01660580  0.58809625  1
  O  O86  1  0.81480960  0.81185456  0.58874394  1
  O  O87  1  0.99704496  0.81185456  0.08874394  1
  O  O88  1  0.81209168  0.01660580  0.08809625  1
  O  O89  1  0.20383031  0.18550784  0.08855475  1
  O  O90  1  0.68666769  0.16759571  0.74396216  1
  O  O91  1  0.47640354  0.31895680  0.74736151  1
  O  O92  1  0.83147608  0.53160939  0.74720824  1
  O  O93  1  0.70013431  0.53160939  0.24720824  1
  O  O94  1  0.84255427  0.31895680  0.24736151  1
  O  O95  1  0.48092902  0.16759571  0.24396216  1
  O  O96  1  0.65402046  0.52560188  0.92048204  1
  O  O97  1  0.86473012  0.34190152  0.92148800  1
  O  O98  1  0.49388356  0.14058798  0.92235827  1
  O  O99  1  0.64670542  0.14058798  0.42235827  1
  O  O100  1  0.47717240  0.34190152  0.42148800  1
  O  O101  1  0.87158242  0.52560188  0.42048204  1
  O  O102  1  0.35703375  0.49507133  0.07676829  1
  O  O103  1  0.14985759  0.64831799  0.08271236  1
  O  O104  1  0.50430709  0.86288558  0.07966603  1
  O  O105  1  0.35857749  0.86288558  0.57966603  1
  O  O106  1  0.49845940  0.64831799  0.58271236  1
  O  O107  1  0.13803658  0.49507133  0.57676829  1
  O  O108  1  0.30736242  0.84170994  0.25499786  1
  O  O109  1  0.53388414  0.67232103  0.25526056  1
  O  O110  1  0.14663213  0.47056275  0.25470281  1
  O  O111  1  0.32392962  0.47056275  0.75470281  1
  O  O112  1  0.13843589  0.67232103  0.75526056  1
  O  O113  1  0.53434652  0.84170994  0.75499786  1
