# generated using pymatgen
data_Na9TaZn5P6(SO12)3
_symmetry_space_group_name_H-M   'P 1'
_cell_length_a   9.03222621
_cell_length_b   9.03222590
_cell_length_c   22.09960201
_cell_angle_alpha   90.22258093
_cell_angle_beta   89.77741908
_cell_angle_gamma   120.14819756
_symmetry_Int_Tables_number   1
_chemical_formula_structural   Na9TaZn5P6(SO12)3
_chemical_formula_sum   'Na18 Ta2 Zn10 P12 S6 O72'
_cell_volume   1559.01333910
_cell_formula_units_Z   2
loop_
 _symmetry_equiv_pos_site_id
 _symmetry_equiv_pos_as_xyz
  1  'x, y, z'
loop_
 _atom_site_type_symbol
 _atom_site_label
 _atom_site_symmetry_multiplicity
 _atom_site_fract_x
 _atom_site_fract_y
 _atom_site_fract_z
 _atom_site_occupancy
  Na  Na0  1  0.36174600  0.34973118  0.24708202  1
  Na  Na1  1  0.65026882  0.63825400  0.74708202  1
  Na  Na2  1  0.03246951  0.70190641  0.58601864  1
  Na  Na3  1  0.66636030  0.96594455  0.58540938  1
  Na  Na4  1  0.29809359  0.96753049  0.08601864  1
  Na  Na5  1  0.03405545  0.33363970  0.08540938  1
  Na  Na6  1  0.96045593  0.67097091  0.91351980  1
  Na  Na7  1  0.70833410  0.03583252  0.91337619  1
  Na  Na8  1  0.32877989  0.29019875  0.91238697  1
  Na  Na9  1  0.96416748  0.29166590  0.41337619  1
  Na  Na10  1  0.32902909  0.03954407  0.41351980  1
  Na  Na11  1  0.70980125  0.67122011  0.41238697  1
  Na  Na12  1  0.01370237  0.01516101  0.49858473  1
  Na  Na13  1  0.98483899  0.98629763  0.99858473  1
  Na  Na14  1  0.66630795  0.32140861  0.82697007  1
  Na  Na15  1  0.67859139  0.33369205  0.32697007  1
  Na  Na16  1  0.35041112  0.68068091  0.16299662  1
  Na  Na17  1  0.31931909  0.64958888  0.66299662  1
  Ta  Ta18  1  0.33322788  0.67037030  0.31315205  1
  Ta  Ta19  1  0.32962970  0.66677212  0.81315205  1
  Zn  Zn20  1  0.99616818  0.99685053  0.34243269  1
  Zn  Zn21  1  0.00314947  0.00383182  0.84243269  1
  Zn  Zn22  1  0.00882481  0.00844409  0.66499259  1
  Zn  Zn23  1  0.99155591  0.99117519  0.16499259  1
  Zn  Zn24  1  0.66296693  0.32318077  0.68844929  1
  Zn  Zn25  1  0.67681923  0.33703307  0.18844929  1
  Zn  Zn26  1  0.66738771  0.33669090  0.98112212  1
  Zn  Zn27  1  0.66330910  0.33261229  0.48112212  1
  Zn  Zn28  1  0.33811617  0.66817934  0.00944303  1
  Zn  Zn29  1  0.33182066  0.66188383  0.50944303  1
  P  P30  1  0.29810411  0.00071164  0.24948819  1
  P  P31  1  0.70229522  0.70101061  0.25215861  1
  P  P32  1  0.99875906  0.29724726  0.25087641  1
  P  P33  1  0.29898939  0.29770478  0.75215861  1
  P  P34  1  0.99928836  0.70189589  0.74948819  1
  P  P35  1  0.70275274  0.00124094  0.75087641  1
  P  P36  1  0.62814003  0.66866962  0.91700506  1
  P  P37  1  0.03909907  0.37123313  0.92008364  1
  P  P38  1  0.33139114  0.96023881  0.92008787  1
  P  P39  1  0.62876687  0.96090093  0.42008364  1
  P  P40  1  0.33133038  0.37185997  0.41700506  1
  P  P41  1  0.03976119  0.66860886  0.42008787  1
  S  S42  1  0.96126829  0.33248116  0.58236313  1
  S  S43  1  0.36937931  0.03856074  0.58223076  1
  S  S44  1  0.66600085  0.63037337  0.58321146  1
  S  S45  1  0.96143926  0.63062069  0.08223076  1
  S  S46  1  0.66751884  0.03873171  0.08236313  1
  S  S47  1  0.36962663  0.33399915  0.08321146  1
  O  O48  1  0.21577678  0.02800118  0.30632649  1
  O  O49  1  0.80116229  0.77606388  0.31115007  1
  O  O50  1  0.98033802  0.19574337  0.30863503  1
  O  O51  1  0.22393612  0.19883771  0.81115007  1
  O  O52  1  0.97199882  0.78422322  0.80632649  1
  O  O53  1  0.80425663  0.01966198  0.80863503  1
  O  O54  1  0.77262136  0.95534521  0.69391783  1
  O  O55  1  0.18826443  0.22497989  0.69638743  1
  O  O56  1  0.03506392  0.80818658  0.69149729  1
  O  O57  1  0.77502011  0.81173557  0.19638743  1
  O  O58  1  0.04465479  0.22737864  0.19391783  1
  O  O59  1  0.19181342  0.96493608  0.19149729  1
  O  O60  1  0.87316052  0.35667847  0.63448021  1
  O  O61  1  0.47988016  0.12819735  0.63398987  1
  O  O62  1  0.65151393  0.53191892  0.63795111  1
  O  O63  1  0.87180265  0.52011984  0.13398987  1
  O  O64  1  0.64332153  0.12683948  0.13448021  1
  O  O65  1  0.46808108  0.34848607  0.13795111  1
  O  O66  1  0.45199838  0.31396313  0.02732537  1
  O  O67  1  0.86932570  0.55412503  0.02422388  1
  O  O68  1  0.69096060  0.13788931  0.02495857  1
  O  O69  1  0.44587497  0.13067430  0.52422388  1
  O  O70  1  0.68603687  0.54800162  0.52732537  1
  O  O71  1  0.86211069  0.30903940  0.52495857  1
  O  O72  1  0.54840702  0.70102139  0.97246812  1
  O  O73  1  0.14187890  0.44761561  0.97823242  1
  O  O74  1  0.30244969  0.85662129  0.97811550  1
  O  O75  1  0.55238439  0.85812110  0.47823242  1
  O  O76  1  0.29897861  0.45159298  0.47246812  1
  O  O77  1  0.14337871  0.69755031  0.47811550  1
  O  O78  1  0.14535957  0.64921026  0.36566816  1
  O  O79  1  0.50437535  0.85391733  0.36587406  1
  O  O80  1  0.35142394  0.48869895  0.36010110  1
  O  O81  1  0.14608267  0.49562465  0.86587406  1
  O  O82  1  0.35078974  0.85464043  0.86566816  1
  O  O83  1  0.51130105  0.64857606  0.86010110  1
  O  O84  1  0.02024777  0.82691135  0.41161154  1
  O  O85  1  0.80769588  0.98185720  0.41183965  1
  O  O86  1  0.17410797  0.19028390  0.41005387  1
  O  O87  1  0.01814280  0.19230412  0.91183965  1
  O  O88  1  0.17308865  0.97975223  0.91161154  1
  O  O89  1  0.80971610  0.82589203  0.91005387  1
  O  O90  1  0.97449666  0.17514510  0.58790922  1
  O  O91  1  0.19367903  0.01364856  0.58676776  1
  O  O92  1  0.82518150  0.80534037  0.58526271  1
  O  O93  1  0.98635144  0.80632097  0.08676776  1
  O  O94  1  0.82485490  0.02550334  0.08790922  1
  O  O95  1  0.19465963  0.17481850  0.08526271  1
  O  O96  1  0.67264410  0.15157342  0.74491296  1
  O  O97  1  0.48651128  0.33940168  0.74604795  1
  O  O98  1  0.84042727  0.52178895  0.74425744  1
  O  O99  1  0.66059832  0.51348872  0.24604795  1
  O  O100  1  0.84842658  0.32735590  0.24491296  1
  O  O101  1  0.47821105  0.15957273  0.24425744  1
  O  O102  1  0.63504595  0.49981642  0.91749524  1
  O  O103  1  0.86392472  0.36403711  0.91817206  1
  O  O104  1  0.50043593  0.13578913  0.91866548  1
  O  O105  1  0.63596289  0.13607528  0.41817206  1
  O  O106  1  0.50018358  0.36495405  0.41749524  1
  O  O107  1  0.86421087  0.49956407  0.41866548  1
  O  O108  1  0.34580461  0.48605322  0.08038061  1
  O  O109  1  0.13669184  0.64633106  0.08104123  1
  O  O110  1  0.50859808  0.86615504  0.07912587  1
  O  O111  1  0.35366894  0.86330816  0.58104123  1
  O  O112  1  0.51394678  0.65419539  0.58038061  1
  O  O113  1  0.13384496  0.49140192  0.57912587  1
  O  O114  1  0.31771057  0.83596257  0.25942251  1
  O  O115  1  0.51363137  0.68188046  0.25978683  1
  O  O116  1  0.17081206  0.48310723  0.25917025  1
  O  O117  1  0.31811954  0.48636863  0.75978683  1
  O  O118  1  0.16403743  0.68228943  0.75942251  1
  O  O119  1  0.51689277  0.82918794  0.75917025  1
