# generated using pymatgen
data_Na6TaZn5P3(SO6)6
_symmetry_space_group_name_H-M   'P 1'
_cell_length_a   8.89850950
_cell_length_b   8.87629473
_cell_length_c   22.39410167
_cell_angle_alpha   90.24729552
_cell_angle_beta   90.00000000
_cell_angle_gamma   120.08282348
_symmetry_Int_Tables_number   1
_chemical_formula_structural   Na6TaZn5P3(SO6)6
_chemical_formula_sum   'Na12 Ta2 Zn10 P6 S12 O72'
_cell_volume   1530.54039666
_cell_formula_units_Z   2
loop_
 _symmetry_equiv_pos_site_id
 _symmetry_equiv_pos_as_xyz
  1  'x, y, z'
loop_
 _atom_site_type_symbol
 _atom_site_label
 _atom_site_symmetry_multiplicity
 _atom_site_fract_x
 _atom_site_fract_y
 _atom_site_fract_z
 _atom_site_occupancy
  Na  Na0  1  0.30206132  0.33374363  0.58154262  1
  Na  Na1  1  0.67013466  0.97127478  0.58916306  1
  Na  Na2  1  0.30114112  0.97127478  0.08916306  1
  Na  Na3  1  0.03168330  0.33374363  0.08154262  1
  Na  Na4  1  0.96238081  0.66548928  0.91150016  1
  Na  Na5  1  0.70310747  0.66548928  0.41150016  1
  Na  Na6  1  0.02141784  0.00920893  0.49586079  1
  Na  Na7  1  0.98779109  0.00920893  0.99586079  1
  Na  Na8  1  0.67134276  0.32148287  0.82799666  1
  Na  Na9  1  0.65014111  0.32148287  0.32799666  1
  Na  Na10  1  0.35558223  0.67581800  0.16409418  1
  Na  Na11  1  0.32023477  0.67581800  0.66409418  1
  Ta  Ta12  1  0.33532965  0.66463130  0.31231934  1
  Ta  Ta13  1  0.32930064  0.66463130  0.81231934  1
  Zn  Zn14  1  0.01811445  0.00885207  0.34490414  1
  Zn  Zn15  1  0.99073761  0.00885207  0.84490414  1
  Zn  Zn16  1  0.98581333  0.97950606  0.66171429  1
  Zn  Zn17  1  0.99369273  0.97950606  0.16171429  1
  Zn  Zn18  1  0.68278168  0.33741051  0.68830005  1
  Zn  Zn19  1  0.65462983  0.33741051  0.18830005  1
  Zn  Zn20  1  0.67176706  0.32826304  0.98115231  1
  Zn  Zn21  1  0.65649698  0.32826304  0.48115231  1
  Zn  Zn22  1  0.33601879  0.65626704  0.01215700  1
  Zn  Zn23  1  0.32024724  0.65626704  0.51215700  1
  P  P24  1  0.30156403  0.00340361  0.24911364  1
  P  P25  1  0.71143692  0.70562036  0.25400115  1
  P  P26  1  0.99418344  0.70562036  0.75400115  1
  P  P27  1  0.70183959  0.00340361  0.74911364  1
  P  P28  1  0.03789020  0.36551695  0.91917152  1
  P  P29  1  0.32762574  0.36551695  0.41917152  1
  S  S30  1  0.99714820  0.29476221  0.24981551  1
  S  S31  1  0.29761402  0.29476221  0.74981551  1
  S  S32  1  0.96161242  0.33489995  0.58218509  1
  S  S33  1  0.37028756  0.03797063  0.58308887  1
  S  S34  1  0.67009964  0.63009631  0.58205267  1
  S  S35  1  0.95999766  0.63009631  0.08205267  1
  S  S36  1  0.66768407  0.03797063  0.08308887  1
  S  S37  1  0.37328853  0.33489995  0.08218509  1
  S  S38  1  0.62668813  0.66624873  0.91739407  1
  S  S39  1  0.33495638  0.96195864  0.91818017  1
  S  S40  1  0.62700126  0.96195864  0.41818017  1
  S  S41  1  0.03955960  0.66624873  0.41739407  1
  O  O42  1  0.21538711  0.02943001  0.30292606  1
  O  O43  1  0.80856087  0.78874212  0.31201762  1
  O  O44  1  0.97515926  0.19057388  0.30225471  1
  O  O45  1  0.21541461  0.19057388  0.80225471  1
  O  O46  1  0.98018125  0.78874212  0.81201762  1
  O  O47  1  0.81404290  0.02943001  0.80292606  1
  O  O48  1  0.76369295  0.96232771  0.68973742  1
  O  O49  1  0.19432289  0.23098832  0.69384353  1
  O  O50  1  0.04333220  0.81843882  0.69807457  1
  O  O51  1  0.77510661  0.81843882  0.19807457  1
  O  O52  1  0.03666542  0.23098832  0.19384353  1
  O  O53  1  0.19863476  0.96232771  0.18973742  1
  O  O54  1  0.88123608  0.35521265  0.63665213  1
  O  O55  1  0.48104513  0.12034710  0.63612975  1
  O  O56  1  0.64323516  0.51665458  0.63356206  1
  O  O57  1  0.87342042  0.51665458  0.13356206  1
  O  O58  1  0.63930296  0.12034710  0.13612975  1
  O  O59  1  0.47397756  0.35521265  0.13665213  1
  O  O60  1  0.45422725  0.30890636  0.02820152  1
  O  O61  1  0.86546169  0.55376667  0.02498263  1
  O  O62  1  0.69571669  0.14462749  0.02835327  1
  O  O63  1  0.44891181  0.14462749  0.52835327  1
  O  O64  1  0.68830598  0.55376667  0.52498263  1
  O  O65  1  0.85468011  0.30890636  0.52820152  1
  O  O66  1  0.55038893  0.69244859  0.97197880  1
  O  O67  1  0.13460625  0.44582469  0.97834321  1
  O  O68  1  0.31137598  0.85911635  0.97320318  1
  O  O69  1  0.54773937  0.85911635  0.47320318  1
  O  O70  1  0.31121744  0.44582469  0.47834321  1
  O  O71  1  0.14205867  0.69244859  0.47197880  1
  O  O72  1  0.13690298  0.65396568  0.36393609  1
  O  O73  1  0.50981399  0.86213917  0.36522377  1
  O  O74  1  0.34565361  0.49678688  0.36649614  1
  O  O75  1  0.15113227  0.49678688  0.86649614  1
  O  O76  1  0.35232418  0.86213917  0.86522377  1
  O  O77  1  0.51706170  0.65396568  0.86393609  1
  O  O78  1  0.01338711  0.81722781  0.41192567  1
  O  O79  1  0.79549216  0.97157057  0.41070580  1
  O  O80  1  0.16623449  0.18819589  0.41037354  1
  O  O81  1  0.02196140  0.18819589  0.91037354  1
  O  O82  1  0.17607841  0.97157057  0.91070580  1
  O  O83  1  0.80384070  0.81722781  0.91192567  1
  O  O84  1  0.98240973  0.17654536  0.58621983  1
  O  O85  1  0.19660003  0.02358665  0.58878151  1
  O  O86  1  0.82425997  0.80877442  0.58704843  1
  O  O87  1  0.98451445  0.80877442  0.08704843  1
  O  O88  1  0.82698662  0.02358665  0.08878151  1
  O  O89  1  0.19413563  0.17654536  0.08621983  1
  O  O90  1  0.66256735  0.15167094  0.74455436  1
  O  O91  1  0.47519298  0.32789516  0.74376718  1
  O  O92  1  0.83930258  0.52190449  0.74775850  1
  O  O93  1  0.68260291  0.52190449  0.24775850  1
  O  O94  1  0.85270318  0.32789516  0.24376718  1
  O  O95  1  0.48910459  0.15167094  0.24455436  1
  O  O96  1  0.63507573  0.50369662  0.91766298  1
  O  O97  1  0.86466903  0.36882316  0.91664849  1
  O  O98  1  0.49422004  0.13284342  0.91836826  1
  O  O99  1  0.63862439  0.13284342  0.41836826  1
  O  O100  1  0.50415514  0.36882316  0.41664849  1
  O  O101  1  0.86862189  0.50369662  0.41766298  1
  O  O102  1  0.34938301  0.49064533  0.07870188  1
  O  O103  1  0.13992298  0.65020853  0.07968787  1
  O  O104  1  0.50662531  0.86261649  0.07682345  1
  O  O105  1  0.35599018  0.86261649  0.57682345  1
  O  O106  1  0.51028455  0.65020853  0.57968787  1
  O  O107  1  0.14126132  0.49064533  0.57870188  1
  O  O108  1  0.31343450  0.82941991  0.26126082  1
  O  O109  1  0.51786188  0.68245720  0.26240001  1
  O  O110  1  0.16277802  0.47722909  0.25902068  1
  O  O111  1  0.31445006  0.47722909  0.75902068  1
  O  O112  1  0.16459432  0.68245720  0.76240001  1
  O  O113  1  0.51598441  0.82941991  0.76126082  1
