# generated using pymatgen
data_Ga2CuCl8
_symmetry_space_group_name_H-M   'P 1'
_cell_length_a   7.43465843
_cell_length_b   6.70449094
_cell_length_c   12.37205672
_cell_angle_alpha   85.66036556
_cell_angle_beta   90.00000000
_cell_angle_gamma   90.00000000
_symmetry_Int_Tables_number   1
_chemical_formula_structural   Ga2CuCl8
_chemical_formula_sum   'Ga4 Cu2 Cl16'
_cell_volume   614.92455091
_cell_formula_units_Z   2
loop_
 _symmetry_equiv_pos_site_id
 _symmetry_equiv_pos_as_xyz
  1  'x, y, z'
loop_
 _atom_site_type_symbol
 _atom_site_label
 _atom_site_symmetry_multiplicity
 _atom_site_fract_x
 _atom_site_fract_y
 _atom_site_fract_z
 _atom_site_occupancy
  Ga  Ga0  1  0.23617648  0.19232019  0.31413797  1
  Ga  Ga1  1  0.73617648  0.80767981  0.18586203  1
  Ga  Ga2  1  0.26382352  0.19232019  0.81413797  1
  Ga  Ga3  1  0.76382352  0.80767981  0.68586203  1
  Cu  Cu4  1  -0.00000000  0.00000000  -0.00000000  1
  Cu  Cu5  1  0.50000000  0.00000000  0.50000000  1
  Cl  Cl6  1  0.98751231  0.63756681  0.63933650  1
  Cl  Cl7  1  0.48751231  0.36243319  0.86066350  1
  Cl  Cl8  1  0.01248769  0.36243319  0.36066350  1
  Cl  Cl9  1  0.51248769  0.63756681  0.13933650  1
  Cl  Cl10  1  0.74071259  0.11189885  0.59454225  1
  Cl  Cl11  1  0.24071259  0.88810115  0.90545775  1
  Cl  Cl12  1  0.99337684  0.70667799  0.10923132  1
  Cl  Cl13  1  0.49337684  0.29332201  0.39076868  1
  Cl  Cl14  1  0.00662316  0.29332201  0.89076868  1
  Cl  Cl15  1  0.50662316  0.70667799  0.60923132  1
  Cl  Cl16  1  0.77233810  0.83844362  0.35624421  1
  Cl  Cl17  1  0.27233810  0.16155638  0.14375579  1
  Cl  Cl18  1  0.22766190  0.16155638  0.64375579  1
  Cl  Cl19  1  0.72766190  0.83844362  0.85624421  1
  Cl  Cl20  1  0.75928741  0.11189885  0.09454225  1
  Cl  Cl21  1  0.25928741  0.88810115  0.40545775  1
