# generated using pymatgen
data_Na14Zn4Si7Ge4S5O48
_symmetry_space_group_name_H-M   'P 1'
_cell_length_a   17.91649899
_cell_length_b   8.97468408
_cell_length_c   21.98518748
_cell_angle_alpha   90.20160154
_cell_angle_beta   88.57475921
_cell_angle_gamma   120.00557846
_symmetry_Int_Tables_number   1
_chemical_formula_structural   Na14Zn4Si7Ge4S5O48
_chemical_formula_sum   'Na42 Zn12 Si21 Ge12 S15 O144'
_cell_volume   3060.21032607
_cell_formula_units_Z   3
loop_
 _symmetry_equiv_pos_site_id
 _symmetry_equiv_pos_as_xyz
  1  'x, y, z'
loop_
 _atom_site_type_symbol
 _atom_site_label
 _atom_site_symmetry_multiplicity
 _atom_site_fract_x
 _atom_site_fract_y
 _atom_site_fract_z
 _atom_site_occupancy
  Na  Na0  1  0.80888975  0.99480278  0.25303300  1
  Na  Na1  1  0.18064829  0.35389905  0.25615533  1
  Na  Na2  1  0.68912327  0.37098168  0.25501015  1
  Na  Na3  1  0.99570693  0.63302809  0.24771248  1
  Na  Na4  1  0.49855374  0.63338180  0.25258073  1
  Na  Na5  1  0.31089489  0.62373124  0.74277715  1
  Na  Na6  1  0.99771234  0.36172592  0.74774896  1
  Na  Na7  1  0.49824717  0.36338720  0.74327365  1
  Na  Na8  1  0.18899667  0.00759472  0.75074254  1
  Na  Na9  1  0.68240637  0.00809588  0.75193634  1
  Na  Na10  1  0.15119100  0.33188202  0.58356924  1
  Na  Na11  1  0.66003119  0.33938667  0.57761171  1
  Na  Na12  1  0.33722579  0.98193311  0.57972285  1
  Na  Na13  1  0.83580044  0.97931907  0.57925823  1
  Na  Na14  1  0.15776582  0.97764195  0.08304065  1
  Na  Na15  1  0.65088371  0.97096084  0.08838975  1
  Na  Na16  1  0.33539402  0.68978260  0.08631615  1
  Na  Na17  1  0.83599541  0.69470119  0.08415527  1
  Na  Na18  1  0.48108747  0.67208985  0.92199796  1
  Na  Na19  1  0.97390476  0.66803439  0.91953513  1
  Na  Na20  1  0.35598789  0.04384053  0.91553935  1
  Na  Na21  1  0.85312338  0.04117660  0.91347108  1
  Na  Na22  1  0.16658310  0.28482914  0.91492752  1
  Na  Na23  1  0.67022183  0.28708668  0.91051467  1
  Na  Na24  1  0.47639813  0.28510869  0.42005991  1
  Na  Na25  1  0.97468755  0.27628371  0.42270851  1
  Na  Na26  1  0.16942238  0.05617940  0.40966618  1
  Na  Na27  1  0.67186793  0.04261180  0.41270100  1
  Na  Na28  1  0.35478085  0.66729967  0.41334862  1
  Na  Na29  1  0.85300608  0.67381865  0.41821856  1
  Na  Na30  1  0.99534724  0.99554912  0.49715592  1
  Na  Na31  1  0.50217624  0.99661858  0.49961577  1
  Na  Na32  1  0.99858157  0.00210730  0.00143188  1
  Na  Na33  1  0.50191682  0.00595033  0.00131458  1
  Na  Na34  1  0.32832381  0.32319941  0.82618257  1
  Na  Na35  1  0.82587259  0.33648566  0.83118616  1
  Na  Na36  1  0.32770556  0.31770003  0.33318732  1
  Na  Na37  1  0.82649119  0.32084880  0.33195297  1
  Na  Na38  1  0.16569854  0.66895524  0.16952210  1
  Na  Na39  1  0.66349168  0.66177698  0.17093313  1
  Na  Na40  1  0.16327634  0.66437431  0.66810846  1
  Na  Na41  1  0.66633022  0.66371291  0.66623055  1
  Zn  Zn42  1  0.00064805  0.00272873  0.35149718  1
  Zn  Zn43  1  0.49186725  0.98372046  0.34462821  1
  Zn  Zn44  1  0.99005285  0.99722448  0.84219707  1
  Zn  Zn45  1  0.51092929  0.01366940  0.84353772  1
  Zn  Zn46  1  0.33690698  0.32491690  0.68281677  1
  Zn  Zn47  1  0.83578775  0.34570862  0.18491236  1
  Zn  Zn48  1  0.33319486  0.32716495  0.00474441  1
  Zn  Zn49  1  0.83178252  0.34382934  0.98158676  1
  Zn  Zn50  1  0.33337637  0.32398396  0.48061524  1
  Zn  Zn51  1  0.83012169  0.32002324  0.49385122  1
  Zn  Zn52  1  0.67658284  0.69579614  0.31130224  1
  Zn  Zn53  1  0.17044270  0.66009391  0.80692255  1
  Si  Si54  1  0.15361471  0.99866448  0.25245938  1
  Si  Si55  1  0.64310484  0.00454432  0.24850939  1
  Si  Si56  1  0.35066703  0.69319781  0.25001791  1
  Si  Si57  1  0.85665678  0.71217353  0.25149344  1
  Si  Si58  1  0.14339560  0.27992076  0.74970781  1
  Si  Si59  1  0.65617392  0.31379595  0.75142728  1
  Si  Si60  1  0.35811096  -0.00003281  0.75268446  1
  Si  Si61  1  0.85151437  0.01039538  0.74990533  1
  Si  Si62  1  0.48341043  0.34463996  0.58109730  1
  Si  Si63  1  0.98281950  0.34314684  0.58372726  1
  Si  Si64  1  0.67845734  0.03195277  0.58534937  1
  Si  Si65  1  0.84169021  0.63128213  0.58204320  1
  Si  Si66  1  0.48182411  0.62312659  0.08282436  1
  Si  Si67  1  0.98024297  0.62382912  0.08208894  1
  Si  Si68  1  0.34123644  0.04595135  0.08206407  1
  Si  Si69  1  0.17947889  0.32419356  0.08404180  1
  Si  Si70  1  0.81141640  0.66920663  0.91853641  1
  Si  Si71  1  0.66500116  0.95194690  0.91412545  1
  Si  Si72  1  0.31129186  0.95424737  0.41895973  1
  Si  Si73  1  0.81147362  0.96379500  0.41790418  1
  Si  Si74  1  0.16688591  0.38127228  0.41436926  1
  Ge  Ge75  1  0.98950365  0.00667437  0.64858707  1
  Ge  Ge76  1  0.51049766  0.04957233  0.65036292  1
  Ge  Ge77  1  0.01029693  0.97626433  0.15208946  1
  Ge  Ge78  1  0.48907736  0.97355886  0.15060466  1
  Ge  Ge79  1  0.82696349  0.32231797  0.67792619  1
  Ge  Ge80  1  0.32680627  0.33030192  0.17956125  1
  Ge  Ge81  1  0.16846753  0.66570927  0.03022444  1
  Ge  Ge82  1  0.66188748  0.67441244  0.01554008  1
  Ge  Ge83  1  0.16040332  0.65054614  0.51455197  1
  Ge  Ge84  1  0.67601958  0.67994833  0.52876206  1
  Ge  Ge85  1  0.18622115  0.69322181  0.31338512  1
  Ge  Ge86  1  0.68769895  0.68234265  0.81227527  1
  S  S87  1  0.00142647  0.29053205  0.25024193  1
  S  S88  1  0.49441606  0.28289430  0.24840668  1
  S  S89  1  0.99594379  0.70643694  0.74970721  1
  S  S90  1  0.50072748  0.70956182  0.75216232  1
  S  S91  1  0.17971305  0.02619988  0.58302788  1
  S  S92  1  0.33354830  0.63329920  0.58223134  1
  S  S93  1  0.83273056  0.03439951  0.08047116  1
  S  S94  1  0.67922033  0.33446681  0.08187767  1
  S  S95  1  0.30951861  0.66224840  0.91841135  1
  S  S96  1  0.02747889  0.38704647  0.91962087  1
  S  S97  1  0.52336613  0.38452129  0.91645404  1
  S  S98  1  0.16831018  0.95318202  0.91724010  1
  S  S99  1  0.66588545  0.37920965  0.41641316  1
  S  S100  1  0.02592270  0.66452676  0.41567050  1
  S  S101  1  0.52498733  0.66674761  0.41848051  1
  O  O102  1  0.11569437  0.04940518  0.31070861  1
  O  O103  1  0.60532293  0.04838782  0.30982133  1
  O  O104  1  0.40593671  0.76188369  0.31028606  1
  O  O105  1  0.91515847  0.79462295  0.31028858  1
  O  O106  1  0.48128570  0.18977471  0.30677947  1
  O  O107  1  0.99113750  0.19900491  0.30821699  1
  O  O108  1  0.10659806  0.16531545  0.81238781  1
  O  O109  1  0.62179050  0.19272309  0.81141991  1
  O  O110  1  0.48839317  0.77882915  0.81089356  1
  O  O111  1  0.98496684  0.77529645  0.80897445  1
  O  O112  1  0.41223486  0.02578289  0.81392862  1
  O  O113  1  0.90525854  0.05154637  0.81132802  1
  O  O114  1  0.40879922  0.96847162  0.69103095  1
  O  O115  1  0.89469201  0.97221417  0.68986377  1
  O  O116  1  0.07939219  0.17712998  0.69055491  1
  O  O117  1  0.58906250  0.23070424  0.69375940  1
  O  O118  1  0.00921756  0.82293456  0.69721031  1
  O  O119  1  0.51623919  0.82715482  0.70032871  1
  O  O120  1  0.39238224  0.81438556  0.18874893  1
  O  O121  1  0.90694226  0.84671631  0.18887461  1
  O  O122  1  0.01831495  0.20466958  0.19719118  1
  O  O123  1  0.50719104  0.19162604  0.19499618  1
  O  O124  1  0.09100037  0.95095539  0.19137156  1
  O  O125  1  0.57984703  0.98198553  0.18790921  1
  O  O126  1  0.44680567  0.37694485  0.64437823  1
  O  O127  1  0.93504746  0.36696868  0.64513209  1
  O  O128  1  0.23291938  0.10136877  0.63741388  1
  O  O129  1  0.74623704  0.11996315  0.64234902  1
  O  O130  1  0.31986351  0.52858542  0.63777938  1
  O  O131  1  0.81739625  0.49036249  0.63809634  1
  O  O132  1  0.43237620  0.49860869  0.14225251  1
  O  O133  1  0.94337716  0.51470524  0.14382355  1
  O  O134  1  0.31419381  0.14044014  0.13539004  1
  O  O135  1  0.81861515  0.11100604  0.13579490  1
  O  O136  1  0.24755197  0.37306407  0.14006850  1
  O  O137  1  0.73262225  0.36463263  0.13556048  1
  O  O138  1  0.21355277  0.27503870  0.02222403  1
  O  O139  1  0.71708289  0.30081207  0.02608369  1
  O  O140  1  0.42501730  0.55951748  0.02207273  1
  O  O141  1  0.92203856  0.55507190  0.02228370  1
  O  O142  1  0.35630688  0.13935128  0.01665039  1
  O  O143  1  0.83923513  0.13103576  0.02432604  1
  O  O144  1  0.21838710  0.13605576  0.52806146  1
  O  O145  1  0.70932629  0.15196083  0.52517062  1
  O  O146  1  0.33983596  0.54808657  0.52644585  1
  O  O147  1  0.85509378  0.55932632  0.51800887  1
  O  O148  1  0.42109578  0.28933855  0.52343398  1
  O  O149  1  0.92649849  0.29236254  0.52397321  1
  O  O150  1  0.26605100  0.68547700  0.97574520  1
  O  O151  1  0.75927865  0.69370455  0.97960951  1
  O  O152  1  0.08371566  0.47757912  0.97334052  1
  O  O153  1  0.57706648  0.46858010  0.97198482  1
  O  O154  1  0.16140900  0.85057683  0.97409246  1
  O  O155  1  0.64649715  0.83143382  0.97697761  1
  O  O156  1  0.25949502  0.82612168  0.48033046  1
  O  O157  1  0.76140326  0.82956229  0.47918977  1
  O  O158  1  0.14898009  0.46445894  0.47787870  1
  O  O159  1  0.65644334  0.46431310  0.47318536  1
  O  O160  1  0.07941507  0.68845606  0.47185116  1
  O  O161  1  0.57869448  0.68343313  0.47165841  1
  O  O162  1  0.06923639  0.64266844  0.35955326  1
  O  O163  1  0.56037560  0.63859221  0.36026683  1
  O  O164  1  0.24971470  0.86911089  0.35962334  1
  O  O165  1  0.75460326  0.88969261  0.35763296  1
  O  O166  1  0.17832507  0.50721489  0.35445099  1
  O  O167  1  0.67044076  0.47581335  0.36030058  1
  O  O168  1  0.06578879  0.48759590  0.86257671  1
  O  O169  1  0.56614269  0.48776593  0.86017428  1
  O  O170  1  0.17546058  0.86693177  0.86148910  1
  O  O171  1  0.67617021  0.84703229  0.85455339  1
  O  O172  1  0.25879986  0.64332482  0.86400156  1
  O  O173  1  0.74959249  0.63143160  0.85940475  1
  O  O174  1  0.02099325  0.82358383  0.41518722  1
  O  O175  1  0.51872155  0.82696917  0.41749597  1
  O  O176  1  0.40523259  0.96600425  0.41607474  1
  O  O177  1  0.90448953  0.97066176  0.41868969  1
  O  O178  1  0.08166446  0.19125122  0.41440946  1
  O  O179  1  0.58732354  0.20358550  0.41797558  1
  O  O180  1  0.02057537  0.21462992  0.91903727  1
  O  O181  1  0.51522353  0.21164588  0.91638711  1
  O  O182  1  0.08876270  0.96690605  0.91925526  1
  O  O183  1  0.57818363  0.96949231  0.91350688  1
  O  O184  1  0.39602335  0.81976432  0.91739579  1
  O  O185  1  0.90555858  0.84550234  0.91561806  1
  O  O186  1  0.49427398  0.16554875  0.58856599  1
  O  O187  1  0.99840861  0.17217317  0.59224297  1
  O  O188  1  0.09233408  0.00768424  0.59014575  1
  O  O189  1  0.58171566  0.01099895  0.60149893  1
  O  O190  1  0.40936991  0.80899275  0.58468994  1
  O  O191  1  0.92445988  0.83158138  0.59387117  1
  O  O192  1  0.49617095  0.82312589  0.09101091  1
  O  O193  1  0.99383041  0.82558773  0.08874472  1
  O  O194  1  0.42320715  0.01312832  0.09377544  1
  O  O195  1  0.90813258  0.00923672  0.08266784  1
  O  O196  1  0.08353475  0.15253528  0.09864411  1
  O  O197  1  0.59161660  0.17909455  0.08845061  1
  O  O198  1  0.34700854  0.16912886  0.74706010  1
  O  O199  1  0.84149605  0.18352147  0.74035266  1
  O  O200  1  0.24227092  0.31524606  0.74031902  1
  O  O201  1  0.74875716  0.32287514  0.73794849  1
  O  O202  1  0.42141460  0.53796536  0.74689152  1
  O  O203  1  0.92028715  0.53056247  0.74445310  1
  O  O204  1  0.34140970  0.50006006  0.23954679  1
  O  O205  1  0.84554551  0.52028996  0.24631100  1
  O  O206  1  0.41806687  0.30718624  0.24196413  1
  O  O207  1  0.92205466  0.30176623  0.24442608  1
  O  O208  1  0.24731888  0.17474253  0.23802733  1
  O  O209  1  0.74148149  0.16672485  0.23881909  1
  O  O210  1  0.31777629  0.50569347  0.92190124  1
  O  O211  1  0.81930714  0.49630205  0.91888804  1
  O  O212  1  0.43725548  0.37031633  0.92005067  1
  O  O213  1  0.93975165  0.36472940  0.92530872  1
  O  O214  1  0.24659305  0.12814806  0.91769086  1
  O  O215  1  0.75393230  0.13723081  0.91731680  1
  O  O216  1  0.31879872  0.14230213  0.41954743  1
  O  O217  1  0.82168863  0.15568828  0.42409585  1
  O  O218  1  0.25615820  0.37494529  0.41756451  1
  O  O219  1  0.74560042  0.36661312  0.41698573  1
  O  O220  1  0.43579811  0.51468205  0.42393685  1
  O  O221  1  0.94045403  0.50996947  0.41914549  1
  O  O222  1  0.17634554  0.50624778  0.07728827  1
  O  O223  1  0.67358493  0.49654606  0.07565253  1
  O  O224  1  0.08346989  0.66670539  0.07434725  1
  O  O225  1  0.58204654  0.64829708  0.07728448  1
  O  O226  1  0.25174734  0.84449146  0.07785830  1
  O  O227  1  0.74993414  0.85260374  0.07929470  1
  O  O228  1  0.17349884  0.85269389  0.57665961  1
  O  O229  1  0.67448750  0.84427458  0.58034416  1
  O  O230  1  0.25169899  0.65044761  0.58137725  1
  O  O231  1  0.75210080  0.65221429  0.58126265  1
  O  O232  1  0.08342964  0.51852010  0.57817802  1
  O  O233  1  0.58563719  0.50487662  0.57193546  1
  O  O234  1  0.15427135  0.81223382  0.25864087  1
  O  O235  1  0.64371873  0.82230413  0.24664794  1
  O  O236  1  0.25222678  0.67037089  0.25264537  1
  O  O237  1  0.76044826  0.69124153  0.24741718  1
  O  O238  1  0.07857539  0.46950008  0.25087111  1
  O  O239  1  0.57423558  0.45541228  0.24913875  1
  O  O240  1  0.14610425  0.46640163  0.74949947  1
  O  O241  1  0.65462947  0.49895611  0.75858067  1
  O  O242  1  0.07668382  0.69319032  0.75033208  1
  O  O243  1  0.57819767  0.68559077  0.75335592  1
  O  O244  1  0.26181236  0.82686055  0.74929648  1
  O  O245  1  0.75306735  0.83588671  0.75256886  1
