# generated using pymatgen
data_NaMgSn3P3(SO8)3
_symmetry_space_group_name_H-M   'P 1'
_cell_length_a   8.74034706
_cell_length_b   8.73538887
_cell_length_c   22.75876177
_cell_angle_alpha   90.30499211
_cell_angle_beta   90.03446716
_cell_angle_gamma   120.19229810
_symmetry_Int_Tables_number   1
_chemical_formula_structural   NaMgSn3P3(SO8)3
_chemical_formula_sum   'Na3 Mg3 Sn9 P9 S9 O72'
_cell_volume   1501.88298380
_cell_formula_units_Z   3
loop_
 _symmetry_equiv_pos_site_id
 _symmetry_equiv_pos_as_xyz
  1  'x, y, z'
loop_
 _atom_site_type_symbol
 _atom_site_label
 _atom_site_symmetry_multiplicity
 _atom_site_fract_x
 _atom_site_fract_y
 _atom_site_fract_z
 _atom_site_occupancy
  Na  Na0  1  0.66161615  0.33271977  0.83249758  1
  Na  Na1  1  0.67050769  0.33234446  0.33225022  1
  Na  Na2  1  0.33226997  0.67051166  0.16650455  1
  Mg  Mg3  1  0.65797047  0.33855168  0.68625114  1
  Mg  Mg4  1  0.67242728  0.33207441  0.18267315  1
  Mg  Mg5  1  0.33123724  0.67258649  0.31627346  1
  Sn  Sn6  1  0.99438019  0.99283710  0.35599573  1
  Sn  Sn7  1  0.00577744  0.00481606  0.85667415  1
  Sn  Sn8  1  0.99932337  0.99975268  0.64643426  1
  Sn  Sn9  1  0.99389286  0.99494482  0.14300558  1
  Sn  Sn10  1  0.67338501  0.33447091  0.98150080  1
  Sn  Sn11  1  0.67498184  0.34000884  0.48230123  1
  Sn  Sn12  1  0.33355200  0.67323262  0.01804979  1
  Sn  Sn13  1  0.34055196  0.67345688  0.51845806  1
  Sn  Sn14  1  0.33319426  0.65992538  0.81441632  1
  P  P15  1  0.29255675  0.28957441  0.75006248  1
  P  P16  1  0.66460008  0.62279759  0.58510046  1
  P  P17  1  0.95716888  0.62014004  0.08530269  1
  P  P18  1  0.66381322  0.04371221  0.08515639  1
  P  P19  1  0.62519490  0.66565925  0.91690705  1
  P  P20  1  0.04277149  0.37788578  0.91676034  1
  P  P21  1  0.33586523  0.95845734  0.91556767  1
  P  P22  1  0.62169999  0.95857621  0.41508294  1
  P  P23  1  0.04611717  0.66512735  0.41536319  1
  S  S24  1  0.29244370  0.00158344  0.24983310  1
  S  S25  1  0.70350505  0.70358756  0.24974966  1
  S  S26  1  0.00139545  0.29234231  0.25026331  1
  S  S27  1  -0.00057916  0.70664370  0.75042334  1
  S  S28  1  0.70760559  0.00199360  0.75032398  1
  S  S29  1  0.95915923  0.33534115  0.58531864  1
  S  S30  1  0.37792715  0.04426425  0.58453900  1
  S  S31  1  0.37789596  0.33495598  0.08482430  1
  S  S32  1  0.33403720  0.37718571  0.41499287  1
  O  O33  1  0.21143249  0.03481112  0.30359032  1
  O  O34  1  0.81922024  0.78462806  0.30306698  1
  O  O35  1  0.96917511  0.17835151  0.30361030  1
  O  O36  1  0.20552472  0.17196363  0.80472742  1
  O  O37  1  0.96527159  0.78623323  0.80326135  1
  O  O38  1  0.81893763  0.03184137  0.80342777  1
  O  O39  1  0.78310314  0.96406691  0.69696145  1
  O  O40  1  0.17173126  0.20843366  0.69436972  1
  O  O41  1  0.03454500  0.81871839  0.69717128  1
  O  O42  1  0.78560813  0.81970455  0.19745973  1
  O  O43  1  0.03417133  0.21043743  0.19687130  1
  O  O44  1  0.17753415  0.96882882  0.19668227  1
  O  O45  1  0.87742215  0.36282527  0.63647732  1
  O  O46  1  0.48814237  0.12296217  0.63590839  1
  O  O47  1  0.63567279  0.50925248  0.63767856  1
  O  O48  1  0.87639243  0.51072046  0.13937223  1
  O  O49  1  0.62987432  0.12174359  0.13925820  1
  O  O50  1  0.48538609  0.36485823  0.13705839  1
  O  O51  1  0.44860634  0.30084388  0.02993001  1
  O  O52  1  0.84625404  0.54904568  0.02791679  1
  O  O53  1  0.69822807  0.15130060  0.02774910  1
  O  O54  1  0.45029537  0.15000059  0.52945688  1
  O  O55  1  0.70156553  0.54850598  0.52724408  1
  O  O56  1  0.85070928  0.29650645  0.53017057  1
  O  O57  1  0.54597177  0.70023869  0.97220120  1
  O  O58  1  0.15734995  0.45509466  0.97226944  1
  O  O59  1  0.29874613  0.84648216  0.97100718  1
  O  O60  1  0.55032311  0.84913933  0.47225465  1
  O  O61  1  0.29987333  0.44772283  0.47015166  1
  O  O62  1  0.15363713  0.69771510  0.47350390  1
  O  O63  1  0.12319577  0.63005056  0.36143978  1
  O  O64  1  0.51068264  0.87793520  0.36095628  1
  O  O65  1  0.36491373  0.48512265  0.36337061  1
  O  O66  1  0.11781928  0.49166800  0.86094759  1
  O  O67  1  0.37188538  0.87948590  0.85961183  1
  O  O68  1  0.51150177  0.62884818  0.86078212  1
  O  O69  1  0.02562074  0.83101905  0.40991837  1
  O  O70  1  0.80983681  0.98330372  0.40951593  1
  O  O71  1  0.17523082  0.19815579  0.40918067  1
  O  O72  1  0.02307418  0.19490731  0.90951566  1
  O  O73  1  0.16990275  0.97327159  0.90883180  1
  O  O74  1  0.80711727  0.83065385  0.90758696  1
  O  O75  1  0.97782000  0.17530280  0.59004349  1
  O  O76  1  0.19881483  0.02399593  0.58986021  1
  O  O77  1  0.83189881  0.81161638  0.59126374  1
  O  O78  1  0.98169563  0.80867876  0.09046763  1
  O  O79  1  0.83071514  0.02486095  0.09051109  1
  O  O80  1  0.19888318  0.17563356  0.09067237  1
  O  O81  1  0.69291492  0.15981230  0.74249583  1
  O  O82  1  0.47303517  0.30670779  0.74392588  1
  O  O83  1  0.84374084  0.53108368  0.74304886  1
  O  O84  1  0.69040594  0.53052525  0.24304399  1
  O  O85  1  0.84118819  0.30524235  0.24437888  1
  O  O86  1  0.46593341  0.16213526  0.24384281  1
  O  O87  1  0.64136903  0.49788248  0.92322097  1
  O  O88  1  0.85753146  0.35844481  0.92150939  1
  O  O89  1  0.50109957  0.14481875  0.92252350  1
  O  O90  1  0.64132973  0.14621118  0.42427385  1
  O  O91  1  0.49256807  0.35576939  0.42253095  1
  O  O92  1  0.85581973  0.49993589  0.42243444  1
  O  O93  1  0.35753427  0.49377603  0.07799585  1
  O  O94  1  0.14451025  0.64099193  0.07788369  1
  O  O95  1  0.50007101  0.85299064  0.07806350  1
  O  O96  1  0.35605498  0.86523815  0.57683929  1
  O  O97  1  0.49939460  0.64222913  0.57473722  1
  O  O98  1  0.13610065  0.49372914  0.57573959  1
  O  O99  1  0.30490051  0.84111344  0.25585630  1
  O  O100  1  0.53096753  0.69076874  0.25703164  1
  O  O101  1  0.16212629  0.46586007  0.25683767  1
  O  O102  1  0.30426849  0.47177651  0.75685253  1
  O  O103  1  0.16246419  0.69638929  0.75721314  1
  O  O104  1  0.53177884  0.84035211  0.75691126  1
