# generated using pymatgen
data_Na2La2Ga2SiS5O24
_symmetry_space_group_name_H-M   'P 1'
_cell_length_a   8.98844198
_cell_length_b   8.89373287
_cell_length_c   23.99271749
_cell_angle_alpha   89.22876241
_cell_angle_beta   90.54102438
_cell_angle_gamma   119.61341123
_symmetry_Int_Tables_number   1
_chemical_formula_structural   Na2La2Ga2SiS5O24
_chemical_formula_sum   'Na6 La6 Ga6 Si3 S15 O72'
_cell_volume   1667.30727659
_cell_formula_units_Z   3
loop_
 _symmetry_equiv_pos_site_id
 _symmetry_equiv_pos_as_xyz
  1  'x, y, z'
loop_
 _atom_site_type_symbol
 _atom_site_label
 _atom_site_symmetry_multiplicity
 _atom_site_fract_x
 _atom_site_fract_y
 _atom_site_fract_z
 _atom_site_occupancy
  Na  Na0  1  0.99045958  0.98719500  0.50178635  1
  Na  Na1  1  0.99932553  0.99983868  0.99963083  1
  Na  Na2  1  0.66979346  0.32071235  0.84008460  1
  Na  Na3  1  0.64050473  0.31300313  0.31889470  1
  Na  Na4  1  0.32979144  0.67377101  0.17035530  1
  Na  Na5  1  0.38175921  0.69128619  0.67178552  1
  La  La6  1  0.01452143  -0.00027658  0.33564681  1
  La  La7  1  0.96949961  0.98227428  0.64775058  1
  La  La8  1  0.67047341  0.32851388  0.69079886  1
  La  La9  1  0.65890792  0.34291387  0.47584801  1
  La  La10  1  0.35821469  0.67060648  0.52099727  1
  La  La11  1  0.35197969  0.67876660  0.82743063  1
  Ga  Ga12  1  0.99144070  0.00113283  0.83562839  1
  Ga  Ga13  1  0.00628761  0.98565129  0.16051037  1
  Ga  Ga14  1  0.65590686  0.32085891  0.17636335  1
  Ga  Ga15  1  0.66934701  0.33296754  0.99323565  1
  Ga  Ga16  1  0.33482902  0.66182192  0.01576579  1
  Ga  Ga17  1  0.33299965  0.69366653  0.31201065  1
  Si  Si18  1  0.31779234  0.00416272  0.24299688  1
  Si  Si19  1  0.69840362  0.00385992  0.76034751  1
  Si  Si20  1  0.66897573  0.63704064  0.58467728  1
  S  S21  1  0.69458193  0.68658964  0.23868934  1
  S  S22  1  0.99459208  0.30279949  0.23774381  1
  S  S23  1  0.29034036  0.28683151  0.76051272  1
  S  S24  1  0.99659427  0.70358289  0.76367728  1
  S  S25  1  0.97309815  0.33673659  0.58037775  1
  S  S26  1  0.35664963  0.02880755  0.58247616  1
  S  S27  1  0.95488995  0.62061541  0.08383495  1
  S  S28  1  0.66441787  0.03782450  0.08204571  1
  S  S29  1  0.37765251  0.33883455  0.08165190  1
  S  S30  1  0.63940073  0.65507668  0.93063589  1
  S  S31  1  0.02351024  0.36639789  0.92927668  1
  S  S32  1  0.34141494  0.97962804  0.93003758  1
  S  S33  1  0.62833624  0.96483572  0.40331173  1
  S  S34  1  0.33534337  0.39041495  0.39982781  1
  S  S35  1  0.04242900  0.66031236  0.40729520  1
  O  O36  1  0.25796156  0.05152388  0.30063003  1
  O  O37  1  0.79189147  0.74752234  0.29134031  1
  O  O38  1  0.95163816  0.20533621  0.29126582  1
  O  O39  1  0.19924332  0.19066707  0.81447163  1
  O  O40  1  0.01860713  0.81309582  0.81508956  1
  O  O41  1  0.79617473  -0.01046140  0.81865240  1
  O  O42  1  0.79117102  0.00425987  0.70311733  1
  O  O43  1  0.20349626  0.19057943  0.71052322  1
  O  O44  1  0.01101789  0.79850032  0.71196740  1
  O  O45  1  0.78491512  0.81849863  0.19209891  1
  O  O46  1  0.02066607  0.20033295  0.19245066  1
  O  O47  1  0.17334695  0.95862255  0.19278811  1
  O  O48  1  0.87276451  0.30890922  0.63142963  1
  O  O49  1  0.44818138  0.12412965  0.63281977  1
  O  O50  1  0.69369816  0.55204271  0.64182779  1
  O  O51  1  0.87087480  0.50573288  0.13275758  1
  O  O52  1  0.63129497  0.11715851  0.13116239  1
  O  O53  1  0.48844360  0.37352611  0.13186270  1
  O  O54  1  0.45947764  0.30859017  0.03241540  1
  O  O55  1  0.84829339  0.54411153  0.03258959  1
  O  O56  1  0.69553137  0.15095492  0.03144418  1
  O  O57  1  0.46007872  0.10598676  0.53117196  1
  O  O58  1  0.64065755  0.52628222  0.52726030  1
  O  O59  1  0.87793302  0.34074710  0.52996755  1
  O  O60  1  0.53787797  0.68354653  0.97511099  1
  O  O61  1  0.14691122  0.46240990  0.97676592  1
  O  O62  1  0.31198616  0.84912739  0.97627590  1
  O  O63  1  0.54508651  0.88577976  0.45675616  1
  O  O64  1  0.34374655  0.47351927  0.45311205  1
  O  O65  1  0.12679497  0.65366878  0.45916116  1
  O  O66  1  0.14507407  0.67586352  0.35645149  1
  O  O67  1  0.53151168  0.85353415  0.35488358  1
  O  O68  1  0.32541386  0.49068538  0.35040078  1
  O  O69  1  0.08561495  0.46516623  0.87668556  1
  O  O70  1  0.37867339  0.92182911  0.87709470  1
  O  O71  1  0.54744750  0.61875680  0.87684180  1
  O  O72  1  0.01869497  0.81433644  0.40980603  1
  O  O73  1  0.80092487  0.98380620  0.40443752  1
  O  O74  1  0.17937237  0.21847630  0.40211827  1
  O  O75  1  0.00887615  0.19479522  0.92562902  1
  O  O76  1  0.18754021  0.99671273  0.92508779  1
  O  O77  1  0.80945788  0.80835667  0.92748522  1
  O  O78  1  0.01111599  0.19434221  0.57305554  1
  O  O79  1  0.19495771  0.03042460  0.57547289  1
  O  O80  1  0.83389915  0.82627077  0.57277233  1
  O  O81  1  0.97076078  0.79536654  0.09107077  1
  O  O82  1  0.81826686  0.01922189  0.08983520  1
  O  O83  1  0.20563725  0.18638424  0.08904614  1
  O  O84  1  0.68730109  0.17832065  0.76693837  1
  O  O85  1  0.46347831  0.31096217  0.76589946  1
  O  O86  1  0.82970328  0.54599696  0.76874723  1
  O  O87  1  0.68701897  0.51995108  0.22630677  1
  O  O88  1  0.84831702  0.32974546  0.22421857  1
  O  O89  1  0.50492858  0.16964236  0.22832380  1
  O  O90  1  0.65083453  0.49521742  0.94205190  1
  O  O91  1  0.85197965  0.35113190  0.93984312  1
  O  O92  1  0.49708067  0.15018497  0.94152178  1
  O  O93  1  0.63599377  0.13396417  0.39641495  1
  O  O94  1  0.49000296  0.37251112  0.39381754  1
  O  O95  1  0.87423217  0.50218031  0.40067908  1
  O  O96  1  0.36214981  0.50052621  0.07284633  1
  O  O97  1  0.12851916  0.63782094  0.07704151  1
  O  O98  1  0.50640866  0.86428289  0.07386357  1
  O  O99  1  0.32380755  0.84922998  0.58942056  1
  O  O100  1  0.49959722  0.65829439  0.59329655  1
  O  O101  1  0.13440743  0.50169662  0.58625096  1
  O  O102  1  0.33131499  0.82482425  0.25253161  1
  O  O103  1  0.52315652  0.66663886  0.24397367  1
  O  O104  1  0.15381618  0.46980139  0.24300698  1
  O  O105  1  0.29362943  0.45406872  0.75972097  1
  O  O106  1  0.13656891  0.66363289  0.76486125  1
  O  O107  1  0.50828682  0.83128922  0.75802261  1
