# generated using pymatgen
data_CrPb2O5
_symmetry_space_group_name_H-M   'P 1'
_cell_length_a   7.54790789
_cell_length_b   7.54790789
_cell_length_c   7.15197008
_cell_angle_alpha   67.37933010
_cell_angle_beta   67.37933010
_cell_angle_gamma   44.41968062
_symmetry_Int_Tables_number   1
_chemical_formula_structural   CrPb2O5
_chemical_formula_sum   'Cr2 Pb4 O10'
_cell_volume   259.40468220
_cell_formula_units_Z   2
loop_
 _symmetry_equiv_pos_site_id
 _symmetry_equiv_pos_as_xyz
  1  'x, y, z'
loop_
 _atom_site_type_symbol
 _atom_site_label
 _atom_site_symmetry_multiplicity
 _atom_site_fract_x
 _atom_site_fract_y
 _atom_site_fract_z
 _atom_site_occupancy
  Cr  Cr0  1  0.17054500  0.17054500  0.84054779  1
  Cr  Cr1  1  0.82945500  0.82945500  0.15945221  1
  Pb  Pb2  1  0.48164078  0.48164078  0.76561343  1
  Pb  Pb3  1  0.51835922  0.51835922  0.23438657  1
  Pb  Pb4  1  0.14290714  0.14290714  0.38915164  1
  Pb  Pb5  1  0.85709286  0.85709286  0.61084836  1
  O  O6  1  0.25225845  0.74774155  0.50000000  1
  O  O7  1  0.74774155  0.25225845  0.50000000  1
  O  O8  1  0.08535725  0.61945421  0.27098233  1
  O  O9  1  0.38054579  0.91464275  0.72901767  1
  O  O10  1  0.91464275  0.38054579  0.72901767  1
  O  O11  1  0.61945421  0.08535725  0.27098233  1
  O  O12  1  0.90501752  0.90501752  0.90880626  1
  O  O13  1  0.09498248  0.09498248  0.09119374  1
  O  O14  1  0.29589519  0.29589519  0.80073098  1
  O  O15  1  0.70410481  0.70410481  0.19926902  1
