# generated using pymatgen
data_Na4ZnSi3Ge3(SO8)3
_symmetry_space_group_name_H-M   'P 1'
_cell_length_a   8.72112628
_cell_length_b   8.69644472
_cell_length_c   22.03144192
_cell_angle_alpha   89.49419388
_cell_angle_beta   91.54462847
_cell_angle_gamma   119.91115323
_symmetry_Int_Tables_number   1
_chemical_formula_structural   Na4ZnSi3Ge3(SO8)3
_chemical_formula_sum   'Na12 Zn3 Si9 Ge9 S9 O72'
_cell_volume   1447.81140838
_cell_formula_units_Z   3
loop_
 _symmetry_equiv_pos_site_id
 _symmetry_equiv_pos_as_xyz
  1  'x, y, z'
loop_
 _atom_site_type_symbol
 _atom_site_label
 _atom_site_symmetry_multiplicity
 _atom_site_fract_x
 _atom_site_fract_y
 _atom_site_fract_z
 _atom_site_occupancy
  Na  Na0  1  0.63716828  0.00638817  0.24027485  1
  Na  Na1  1  0.37357567  0.35495643  0.25072943  1
  Na  Na2  1  0.98458372  0.63093819  0.24790846  1
  Na  Na3  1  0.99217325  0.36609399  0.75528399  1
  Na  Na4  1  0.38298041  0.01197206  0.75801928  1
  Na  Na5  1  0.71039907  0.67880387  0.40557823  1
  Na  Na6  1  0.01168661  0.02524418  0.49446625  1
  Na  Na7  1  0.00447042  0.00854124  0.00056553  1
  Na  Na8  1  0.65825462  0.33790778  0.83507154  1
  Na  Na9  1  0.64710672  0.31348845  0.32816568  1
  Na  Na10  1  0.34595953  0.67945819  0.16012010  1
  Na  Na11  1  0.35502007  0.66357063  0.66870162  1
  Zn  Zn12  1  0.00399841  0.00588739  0.35583924  1
  Zn  Zn13  1  0.65500966  0.32098553  0.68829129  1
  Zn  Zn14  1  0.64336169  0.30972687  0.17871175  1
  Si  Si15  1  0.27925778  -0.00683025  0.25199936  1
  Si  Si16  1  0.70877597  0.70441606  0.25306997  1
  Si  Si17  1  0.29225727  0.29869468  0.75188924  1
  Si  Si18  1  0.71111423  0.98674006  0.75540244  1
  Si  Si19  1  0.66931946  0.02714723  0.08404157  1
  Si  Si20  1  0.05126929  0.39514118  0.91760782  1
  Si  Si21  1  0.32691605  0.95429541  0.91481047  1
  Si  Si22  1  0.62415615  0.96165262  0.41905757  1
  Si  Si23  1  0.32780477  0.37965221  0.41802119  1
  Ge  Ge24  1  0.03049246  0.04553405  0.85915495  1
  Ge  Ge25  1  0.98212283  0.00925038  0.65542456  1
  Ge  Ge26  1  0.97692985  0.97389472  0.14918584  1
  Ge  Ge27  1  0.67417098  0.30287370  0.97664037  1
  Ge  Ge28  1  0.64879439  0.31941909  0.47570266  1
  Ge  Ge29  1  0.33203298  0.67870886  0.01641800  1
  Ge  Ge30  1  0.34471329  0.66495649  0.51373935  1
  Ge  Ge31  1  0.36358390  0.68892137  0.31261646  1
  Ge  Ge32  1  0.34562032  0.66795937  0.81837808  1
  S  S33  1  0.00697254  0.29421197  0.24949158  1
  S  S34  1  0.00081765  0.72102070  0.74860823  1
  S  S35  1  0.96316983  0.33770177  0.58351322  1
  S  S36  1  0.36235129  0.02714335  0.58170505  1
  S  S37  1  0.67126945  0.63300588  0.58260186  1
  S  S38  1  0.95840224  0.62260170  0.08133050  1
  S  S39  1  0.37059686  0.33420212  0.07944040  1
  S  S40  1  0.62582438  0.66506409  0.91939342  1
  S  S41  1  0.04471729  0.65610041  0.42113784  1
  O  O42  1  0.20728200  0.05076159  0.30746414  1
  O  O43  1  0.82126183  0.77766336  0.31519133  1
  O  O44  1  0.96530913  0.18646257  0.30430575  1
  O  O45  1  0.21033820  0.16514238  0.80946808  1
  O  O46  1  0.97838717  0.79995185  0.80281234  1
  O  O47  1  0.85126574  0.02451400  0.81138067  1
  O  O48  1  0.77941656  0.94396798  0.69060962  1
  O  O49  1  0.15158362  0.20837394  0.69119836  1
  O  O50  1  0.03472620  0.83779626  0.69156111  1
  O  O51  1  0.79018126  0.84268123  0.19492596  1
  O  O52  1  0.04077487  0.21348977  0.19508700  1
  O  O53  1  0.14810344  0.95173951  0.18859662  1
  O  O54  1  0.88786883  0.35676509  0.63977537  1
  O  O55  1  0.46791932  0.09971866  0.63809305  1
  O  O56  1  0.65193682  0.52599198  0.63605485  1
  O  O57  1  0.88644118  0.53178302  0.13861233  1
  O  O58  1  0.63208015  0.09556395  0.14550795  1
  O  O59  1  0.46658596  0.36487721  0.13851065  1
  O  O60  1  0.46657388  0.31416305  0.02764824  1
  O  O61  1  0.84290522  0.53248952  0.02698391  1
  O  O62  1  0.70736048  0.15864601  0.02475959  1
  O  O63  1  0.45047033  0.14535149  0.52783620  1
  O  O64  1  0.69071749  0.55201577  0.52557478  1
  O  O65  1  0.84798687  0.31496284  0.52862153  1
  O  O66  1  0.54139652  0.69782681  0.97097297  1
  O  O67  1  0.18076897  0.48337215  0.97599973  1
  O  O68  1  0.29718153  0.83569510  0.97450842  1
  O  O69  1  0.52547622  0.83735058  0.47805241  1
  O  O70  1  0.30119763  0.46499229  0.48083489  1
  O  O71  1  0.15218449  0.67749964  0.47837679  1
  O  O72  1  0.11959805  0.62818453  0.36624190  1
  O  O73  1  0.50339947  0.88578038  0.35588393  1
  O  O74  1  0.37527803  0.51707901  0.35908858  1
  O  O75  1  0.13558023  0.50669233  0.85435652  1
  O  O76  1  0.36720840  0.87124272  0.85374109  1
  O  O77  1  0.51320223  0.62731497  0.86114761  1
  O  O78  1  0.02372402  0.81176042  0.42100378  1
  O  O79  1  0.80978954  0.96991160  0.41823277  1
  O  O80  1  0.16868023  0.18526724  0.41621657  1
  O  O81  1  0.02812953  0.19487358  0.91441648  1
  O  O82  1  0.14218468  0.96380768  0.90849221  1
  O  O83  1  0.79983893  0.82312414  0.91255776  1
  O  O84  1  0.97700737  0.16901860  0.58484497  1
  O  O85  1  0.18506860  0.01117464  0.58477090  1
  O  O86  1  0.83396243  0.81562440  0.58578388  1
  O  O87  1  0.97890609  0.80521208  0.08188500  1
  O  O88  1  0.85498628  0.01445411  0.08928991  1
  O  O89  1  0.19407478  0.17148792  0.08203435  1
  O  O90  1  0.69864444  0.16658596  0.74914422  1
  O  O91  1  0.48072590  0.31365171  0.74452071  1
  O  O92  1  0.84860989  0.54192561  0.74011199  1
  O  O93  1  0.68042164  0.50914816  0.24140808  1
  O  O94  1  0.85954057  0.32950351  0.23961967  1
  O  O95  1  0.48092080  0.15060577  0.24513020  1
  O  O96  1  0.63824992  0.50232491  0.92569021  1
  O  O97  1  0.85296714  0.37453426  0.92264811  1
  O  O98  1  0.50208676  0.15671667  0.92218238  1
  O  O99  1  0.63574417  0.15643931  0.42570299  1
  O  O100  1  0.52589229  0.38640634  0.42531848  1
  O  O101  1  0.86392000  0.49117976  0.42641139  1
  O  O102  1  0.34991007  0.49490950  0.07306855  1
  O  O103  1  0.13869756  0.64127114  0.07658915  1
  O  O104  1  0.49296589  0.82805827  0.07152613  1
  O  O105  1  0.34268422  0.84487977  0.57458436  1
  O  O106  1  0.50654762  0.65221497  0.57932396  1
  O  O107  1  0.14358332  0.49698141  0.57844731  1
  O  O108  1  0.28087993  0.79925806  0.25862674  1
  O  O109  1  0.51084577  0.69395860  0.25407571  1
  O  O110  1  0.17523193  0.47015857  0.25586222  1
  O  O111  1  0.29216117  0.48669105  0.75901308  1
  O  O112  1  0.16661372  0.70865165  0.74949277  1
  O  O113  1  0.51058580  0.81484987  0.76074642  1
