# generated using pymatgen
data_Na5Zn2In2P3(SO8)3
_symmetry_space_group_name_H-M   'P 1'
_cell_length_a   9.01517030
_cell_length_b   8.98936661
_cell_length_c   22.61785808
_cell_angle_alpha   90.12926656
_cell_angle_beta   90.10070018
_cell_angle_gamma   120.03985565
_symmetry_Int_Tables_number   1
_chemical_formula_structural   Na5Zn2In2P3(SO8)3
_chemical_formula_sum   'Na15 Zn6 In6 P9 S9 O72'
_cell_volume   1586.74469634
_cell_formula_units_Z   3
loop_
 _symmetry_equiv_pos_site_id
 _symmetry_equiv_pos_as_xyz
  1  'x, y, z'
loop_
 _atom_site_type_symbol
 _atom_site_label
 _atom_site_symmetry_multiplicity
 _atom_site_fract_x
 _atom_site_fract_y
 _atom_site_fract_z
 _atom_site_occupancy
  Na  Na0  1  0.63737837  0.01169537  0.25271345  1
  Na  Na1  1  0.00092368  0.63282856  0.24396729  1
  Na  Na2  1  0.63216961  0.63208134  0.74469113  1
  Na  Na3  1  0.99544893  0.35551331  0.74604238  1
  Na  Na4  1  0.30393422  0.34421338  0.58543089  1
  Na  Na5  1  0.66854420  0.96552769  0.57929887  1
  Na  Na6  1  0.29797103  0.95947771  0.08088963  1
  Na  Na7  1  0.69385463  0.02717547  0.91132668  1
  Na  Na8  1  0.96351170  0.29130696  0.41432516  1
  Na  Na9  1  0.98506039  0.97492911  0.49571115  1
  Na  Na10  1  0.00627012  0.98918875  0.99607385  1
  Na  Na11  1  0.63825299  0.31429520  0.82966900  1
  Na  Na12  1  0.64309926  0.32055825  0.33086251  1
  Na  Na13  1  0.31893778  0.64158457  0.16264021  1
  Na  Na14  1  0.32823873  0.67053241  0.66334993  1
  Zn  Zn15  1  0.00414292  0.00627281  0.34686004  1
  Zn  Zn16  1  0.02360819  0.01087608  0.84893613  1
  Zn  Zn17  1  0.66390315  0.32903582  0.68164776  1
  Zn  Zn18  1  0.67088372  0.33561540  0.18241277  1
  Zn  Zn19  1  0.31264885  0.66409910  0.01589438  1
  Zn  Zn20  1  0.33981370  0.66908021  0.51570723  1
  In  In21  1  0.99690803  0.00022452  0.65195384  1
  In  In22  1  0.00383733  0.00266152  0.15145789  1
  In  In23  1  0.66832634  0.34214222  0.98465403  1
  In  In24  1  0.66885660  0.33424367  0.48461333  1
  In  In25  1  0.33509382  0.66993313  0.31844650  1
  In  In26  1  0.33647376  0.67465920  0.81853076  1
  P  P27  1  0.29914450  0.00484195  0.25062647  1
  P  P28  1  0.99932299  0.29705615  0.25209226  1
  P  P29  1  0.30114938  0.29839627  0.75023018  1
  P  P30  1  0.70358024  0.00214171  0.75266732  1
  P  P31  1  0.96856491  0.33934867  0.58458448  1
  P  P32  1  0.66683583  0.62872534  0.58524446  1
  P  P33  1  0.96387115  0.63000592  0.08615704  1
  P  P34  1  0.33169814  0.96668377  0.92034571  1
  P  P35  1  0.63473858  0.96447742  0.41835492  1
  S  S36  1  0.70442378  0.70334885  0.25117367  1
  S  S37  1  0.99951516  0.70470277  0.75127186  1
  S  S38  1  0.36907517  0.03524434  0.58408995  1
  S  S39  1  0.66710829  0.03371877  0.08360766  1
  S  S40  1  0.37264752  0.33832424  0.08433174  1
  S  S41  1  0.62931004  0.66765703  0.91753536  1
  S  S42  1  0.03627107  0.36762747  0.91672942  1
  S  S43  1  0.33353589  0.36842466  0.41818596  1
  S  S44  1  0.03799132  0.67043214  0.41749465  1
  O  O45  1  0.20649946  0.02228674  0.30405198  1
  O  O46  1  0.81245588  0.78540254  0.30344755  1
  O  O47  1  0.96900751  0.18859227  0.30828900  1
  O  O48  1  0.21194432  0.18669183  0.80318794  1
  O  O49  1  0.97534513  0.78801910  0.80338563  1
  O  O50  1  0.81530290  0.02490798  0.80766615  1
  O  O51  1  0.77727888  0.96366443  0.69546000  1
  O  O52  1  0.19497618  0.22611018  0.69148463  1
  O  O53  1  0.02963824  0.80615152  0.69646710  1
  O  O54  1  0.77718121  0.81110083  0.19704209  1
  O  O55  1  0.02485550  0.21419309  0.19616781  1
  O  O56  1  0.19073520  0.96368975  0.19233697  1
  O  O57  1  0.88245703  0.35679493  0.64071631  1
  O  O58  1  0.47808365  0.11640880  0.63635088  1
  O  O59  1  0.63852638  0.51984999  0.64119021  1
  O  O60  1  0.88036332  0.52890589  0.14302829  1
  O  O61  1  0.64139431  0.11715759  0.13628422  1
  O  O62  1  0.47524152  0.35710312  0.13712898  1
  O  O63  1  0.44491322  0.30051806  0.03034236  1
  O  O64  1  0.85566770  0.54806321  0.03000977  1
  O  O65  1  0.69141357  0.13589398  0.02860781  1
  O  O66  1  0.44161792  0.14321185  0.53009162  1
  O  O67  1  0.68914548  0.54506148  0.52893586  1
  O  O68  1  0.85457447  0.29925854  0.52803435  1
  O  O69  1  0.53747649  0.68722772  0.96816025  1
  O  O70  1  0.14462604  0.45514264  0.96826682  1
  O  O71  1  0.31330530  0.86472943  0.97734355  1
  O  O72  1  0.54543526  0.85996126  0.47398105  1
  O  O73  1  0.30935314  0.44898345  0.47195278  1
  O  O74  1  0.14416853  0.68679188  0.46890072  1
  O  O75  1  0.10793684  0.63567270  0.36157059  1
  O  O76  1  0.53091538  0.88669848  0.36007029  1
  O  O77  1  0.35775958  0.47352261  0.36452964  1
  O  O78  1  0.10922570  0.46517618  0.86065644  1
  O  O79  1  0.37211929  0.88619682  0.86580140  1
  O  O80  1  0.53151536  0.63915679  0.86061216  1
  O  O81  1  0.01937625  0.82286403  0.41163918  1
  O  O82  1  0.81735569  0.98820619  0.41364717  1
  O  O83  1  0.17539659  0.19750861  0.41279097  1
  O  O84  1  0.01097399  0.19143037  0.91319384  1
  O  O85  1  0.17181012  0.98370247  0.91257392  1
  O  O86  1  0.79889863  0.82784804  0.91309707  1
  O  O87  1  0.98695170  0.17279100  0.58703324  1
  O  O88  1  0.19692615  0.02079720  0.58939728  1
  O  O89  1  0.82769377  0.81365114  0.58806067  1
  O  O90  1  0.98990345  0.81760127  0.08760245  1
  O  O91  1  0.82295546  0.01726991  0.08821989  1
  O  O92  1  0.19798514  0.17728885  0.08746819  1
  O  O93  1  0.69370204  0.16794893  0.74573177  1
  O  O94  1  0.48538272  0.33033289  0.74495480  1
  O  O95  1  0.84274464  0.53156619  0.74613136  1
  O  O96  1  0.68826453  0.53215676  0.24467539  1
  O  O97  1  0.83723155  0.31696654  0.24618779  1
  O  O98  1  0.48204259  0.16141302  0.24420678  1
  O  O99  1  0.65104992  0.51405664  0.92113732  1
  O  O100  1  0.86043168  0.34837588  0.92090508  1
  O  O101  1  0.50395734  0.14700731  0.92330426  1
  O  O102  1  0.65703719  0.15099864  0.42062216  1
  O  O103  1  0.48866076  0.35019823  0.42159027  1
  O  O104  1  0.86451249  0.50832771  0.42079540  1
  O  O105  1  0.35511019  0.49181493  0.07684150  1
  O  O106  1  0.14691312  0.65254132  0.08115126  1
  O  O107  1  0.50989304  0.86168788  0.07848629  1
  O  O108  1  0.35390158  0.86440701  0.57739165  1
  O  O109  1  0.50491984  0.64999522  0.58008763  1
  O  O110  1  0.15029064  0.49659549  0.57756148  1
  O  O111  1  0.31845131  0.83862328  0.25457187  1
  O  O112  1  0.53133826  0.68843754  0.25569887  1
  O  O113  1  0.15996700  0.48236923  0.25605777  1
  O  O114  1  0.31047195  0.47968092  0.75509218  1
  O  O115  1  0.15009958  0.67686116  0.75566363  1
  O  O116  1  0.52353416  0.83490428  0.75537954  1
