# generated using pymatgen
data_Na3Zr2Sc2P5SO24
_symmetry_space_group_name_H-M   'P 1'
_cell_length_a   8.91782803
_cell_length_b   8.89766474
_cell_length_c   23.23317990
_cell_angle_alpha   90.07332872
_cell_angle_beta   89.99011048
_cell_angle_gamma   119.91628106
_symmetry_Int_Tables_number   1
_chemical_formula_structural   Na3Zr2Sc2P5SO24
_chemical_formula_sum   'Na9 Zr6 Sc6 P15 S3 O72'
_cell_volume   1597.86379310
_cell_formula_units_Z   3
loop_
 _symmetry_equiv_pos_site_id
 _symmetry_equiv_pos_as_xyz
  1  'x, y, z'
loop_
 _atom_site_type_symbol
 _atom_site_label
 _atom_site_symmetry_multiplicity
 _atom_site_fract_x
 _atom_site_fract_y
 _atom_site_fract_z
 _atom_site_occupancy
  Na  Na0  1  0.00337743  0.36496212  0.75086745  1
  Na  Na1  1  0.66749706  0.96648024  0.58350661  1
  Na  Na2  1  0.03464594  0.33350614  0.08346558  1
  Na  Na3  1  0.00534125  0.99610889  0.50238255  1
  Na  Na4  1  0.00434919  0.99569676  0.00182367  1
  Na  Na5  1  0.65996805  0.32893314  0.83385991  1
  Na  Na6  1  0.67466076  0.33592883  0.33322151  1
  Na  Na7  1  0.34162465  0.66982427  0.16719076  1
  Na  Na8  1  0.33388286  0.66683261  0.66662283  1
  Zr  Zr9  1  0.98460704  0.99178093  0.35291579  1
  Zr  Zr10  1  0.00663877  0.00488397  0.85237314  1
  Zr  Zr11  1  0.66100593  0.33492835  0.68528022  1
  Zr  Zr12  1  0.67110879  0.33864980  0.18564536  1
  Zr  Zr13  1  0.66524642  0.32772807  0.98126937  1
  Zr  Zr14  1  0.67329236  0.33526405  0.48101370  1
  Sc  Sc15  1  0.00524901  0.99753074  0.64846069  1
  Sc  Sc16  1  0.99299999  0.99578986  0.14800197  1
  Sc  Sc17  1  0.33063101  0.67124603  0.01901971  1
  Sc  Sc18  1  0.32679541  0.66904159  0.51882693  1
  Sc  Sc19  1  0.33043289  0.66639433  0.31428069  1
  Sc  Sc20  1  0.33391215  0.67626677  0.81441991  1
  P  P21  1  0.70375610  0.70824800  0.24906746  1
  P  P22  1  0.00353995  0.29348000  0.24891647  1
  P  P23  1  0.29116658  0.29374144  0.74954521  1
  P  P24  1  0.00139918  0.70956132  0.74974244  1
  P  P25  1  0.70722161  0.99589396  0.74858736  1
  P  P26  1  0.96293843  0.33455690  0.58458557  1
  P  P27  1  0.37235453  0.04156681  0.58238404  1
  P  P28  1  0.66538797  0.62809546  0.58259502  1
  P  P29  1  0.95933896  0.62857978  0.08253840  1
  P  P30  1  0.66411199  0.03773845  0.08414639  1
  P  P31  1  0.37293760  0.33333718  0.08345205  1
  P  P32  1  0.04400670  0.37813660  0.91662605  1
  P  P33  1  0.33302836  0.95570756  0.91694622  1
  P  P34  1  0.61827811  0.95418013  0.41730813  1
  P  P35  1  0.04593231  0.66792838  0.41596787  1
  S  S36  1  0.28966411  0.99883138  0.24985126  1
  S  S37  1  0.62248879  0.66683330  0.91656982  1
  S  S38  1  0.33280537  0.37639049  0.41640568  1
  O  O39  1  0.20980485  0.02574562  0.30221165  1
  O  O40  1  0.82016181  0.79254019  0.30327565  1
  O  O41  1  0.97770587  0.17739280  0.30245550  1
  O  O42  1  0.20680656  0.17936223  0.80377247  1
  O  O43  1  0.97265293  0.79350127  0.80382911  1
  O  O44  1  0.82616030  0.03002518  0.80202833  1
  O  O45  1  0.78993983  0.97422031  0.69347206  1
  O  O46  1  0.17566554  0.20907316  0.69690128  1
  O  O47  1  0.02733881  0.81949075  0.69639292  1
  O  O48  1  0.79425085  0.81975425  0.19626231  1
  O  O49  1  0.02675484  0.21020891  0.19389404  1
  O  O50  1  0.18551082  0.97516382  0.19816460  1
  O  O51  1  0.87612784  0.36001757  0.63910442  1
  O  O52  1  0.49085530  0.12735313  0.63596511  1
  O  O53  1  0.64031836  0.51352235  0.63622200  1
  O  O54  1  0.87320412  0.50913806  0.13593608  1
  O  O55  1  0.63970357  0.12827610  0.13726676  1
  O  O56  1  0.48784589  0.35840732  0.13680986  1
  O  O57  1  0.46256504  0.30814249  0.02995756  1
  O  O58  1  0.84469735  0.53832884  0.02937227  1
  O  O59  1  0.69742406  0.15716117  0.03069962  1
  O  O60  1  0.46345087  0.15578233  0.52916526  1
  O  O61  1  0.69118615  0.53751815  0.52962873  1
  O  O62  1  0.84206703  0.30390105  0.53165422  1
  O  O63  1  0.54465094  0.69227043  0.96866936  1
  O  O64  1  0.15073720  0.45729520  0.97172791  1
  O  O65  1  0.30800370  0.84703208  0.97080418  1
  O  O66  1  0.54435218  0.84969171  0.47297547  1
  O  O67  1  0.30691674  0.45423838  0.46854159  1
  O  O68  1  0.15298490  0.69268786  0.47044312  1
  O  O69  1  0.12767708  0.63907689  0.36228959  1
  O  O70  1  0.51094247  0.86901315  0.36345283  1
  O  O71  1  0.35922103  0.48091889  0.36453422  1
  O  O72  1  0.12565540  0.48308689  0.86146788  1
  O  O73  1  0.36207877  0.87508308  0.86281775  1
  O  O74  1  0.51898958  0.64104220  0.86450138  1
  O  O75  1  0.02628400  0.83167209  0.40902899  1
  O  O76  1  0.80490498  0.97922434  0.41034734  1
  O  O77  1  0.17859137  0.20027837  0.40954226  1
  O  O78  1  0.01945203  0.19211802  0.91010282  1
  O  O79  1  0.16986880  0.97543541  0.91028383  1
  O  O80  1  0.79834860  0.82228395  0.91039961  1
  O  O81  1  0.96836907  0.16479471  0.58938947  1
  O  O82  1  0.19419964  0.02345519  0.58881193  1
  O  O83  1  0.82574303  0.80989681  0.58878638  1
  O  O84  1  0.97882194  0.80751138  0.08992628  1
  O  O85  1  0.83396747  0.03179823  0.08946293  1
  O  O86  1  0.19056480  0.17298851  0.08980655  1
  O  O87  1  0.69741025  0.16696645  0.74366506  1
  O  O88  1  0.47162239  0.31019709  0.74420647  1
  O  O89  1  0.84021488  0.52321520  0.74401416  1
  O  O90  1  0.68827283  0.52651972  0.24381460  1
  O  O91  1  0.83641440  0.30780208  0.24382889  1
  O  O92  1  0.46456844  0.15608851  0.24437249  1
  O  O93  1  0.64334091  0.51111822  0.92257457  1
  O  O94  1  0.86029728  0.35751324  0.92327035  1
  O  O95  1  0.49397650  0.14064943  0.92330712  1
  O  O96  1  0.64270006  0.13971199  0.42315902  1
  O  O97  1  0.48882417  0.35652361  0.42260400  1
  O  O98  1  0.86071776  0.50710039  0.42314904  1
  O  O99  1  0.35065172  0.49378077  0.07689072  1
  O  O100  1  0.13484928  0.63435423  0.07706235  1
  O  O101  1  0.50510045  0.85936518  0.07668066  1
  O  O102  1  0.36555632  0.86497418  0.57698631  1
  O  O103  1  0.50503842  0.64939376  0.57661532  1
  O  O104  1  0.14031802  0.49515923  0.57676461  1
  O  O105  1  0.30964480  0.84482810  0.25617952  1
  O  O106  1  0.52537914  0.68986508  0.25742284  1
  O  O107  1  0.16248678  0.47414493  0.25701724  1
  O  O108  1  0.30475105  0.47165606  0.75778088  1
  O  O109  1  0.15785324  0.68058053  0.75624969  1
  O  O110  1  0.52749697  0.83765254  0.75681079  1
