# generated using pymatgen
data_NaTaGa(PO4)3
_symmetry_space_group_name_H-M   'P 1'
_cell_length_a   8.62450329
_cell_length_b   8.62450303
_cell_length_c   22.46457606
_cell_angle_alpha   90.00000000
_cell_angle_beta   90.00000000
_cell_angle_gamma   120.00000104
_symmetry_Int_Tables_number   1
_chemical_formula_structural   NaTaGa(PO4)3
_chemical_formula_sum   'Na6 Ta6 Ga6 P18 O72'
_cell_volume   1447.09494226
_cell_formula_units_Z   6
loop_
 _symmetry_equiv_pos_site_id
 _symmetry_equiv_pos_as_xyz
  1  'x, y, z'
loop_
 _atom_site_type_symbol
 _atom_site_label
 _atom_site_symmetry_multiplicity
 _atom_site_fract_x
 _atom_site_fract_y
 _atom_site_fract_z
 _atom_site_occupancy
  Na  Na0  1  -0.00000000  -0.00000000  0.49609152  1
  Na  Na1  1  -0.00000000  -0.00000000  0.99609152  1
  Na  Na2  1  0.66666700  0.33333300  0.82942452  1
  Na  Na3  1  0.66666700  0.33333300  0.32942452  1
  Na  Na4  1  0.33333300  0.66666700  0.16275852  1
  Na  Na5  1  0.33333300  0.66666700  0.66275852  1
  Ta  Ta6  1  -0.00000000  -0.00000000  0.64504874  1
  Ta  Ta7  1  -0.00000000  -0.00000000  0.14504874  1
  Ta  Ta8  1  0.66666700  0.33333300  0.97838174  1
  Ta  Ta9  1  0.66666700  0.33333300  0.47838174  1
  Ta  Ta10  1  0.33333300  0.66666700  0.31171574  1
  Ta  Ta11  1  0.33333300  0.66666700  0.81171574  1
  Ga  Ga12  1  -0.00000000  -0.00000000  0.35222029  1
  Ga  Ga13  1  -0.00000000  -0.00000000  0.85222029  1
  Ga  Ga14  1  0.66666700  0.33333300  0.68555329  1
  Ga  Ga15  1  0.66666700  0.33333300  0.18555329  1
  Ga  Ga16  1  0.33333300  0.66666700  0.01888729  1
  Ga  Ga17  1  0.33333300  0.66666700  0.51888729  1
  P  P18  1  0.29212650  0.00796980  0.25125279  1
  P  P19  1  0.71584330  0.70787350  0.25125279  1
  P  P20  1  0.99203020  0.28415670  0.25125279  1
  P  P21  1  0.29212650  0.28415670  0.75125279  1
  P  P22  1  0.99203020  0.70787350  0.75125279  1
  P  P23  1  0.71584330  0.00796980  0.75125279  1
  P  P24  1  0.95879350  0.34130280  0.58458579  1
  P  P25  1  0.38251030  0.04120650  0.58458579  1
  P  P26  1  0.65869720  0.61748970  0.58458579  1
  P  P27  1  0.95879350  0.61748970  0.08458579  1
  P  P28  1  0.65869720  0.04120650  0.08458579  1
  P  P29  1  0.38251030  0.34130280  0.08458579  1
  P  P30  1  0.62545950  0.67463680  0.91791979  1
  P  P31  1  0.04917630  0.37454050  0.91791979  1
  P  P32  1  0.32536320  0.95082370  0.91791979  1
  P  P33  1  0.62545950  0.95082370  0.41791979  1
  P  P34  1  0.32536320  0.37454050  0.41791979  1
  P  P35  1  0.04917630  0.67463680  0.41791979  1
  O  O36  1  0.20640688  0.03306309  0.30644538  1
  O  O37  1  0.82665621  0.79359312  0.30644538  1
  O  O38  1  0.96693691  0.17334379  0.30644538  1
  O  O39  1  0.20640688  0.17334379  0.80644538  1
  O  O40  1  0.96693691  0.79359312  0.80644538  1
  O  O41  1  0.82665621  0.03306309  0.80644538  1
  O  O42  1  0.79804877  0.96882391  0.69476991  1
  O  O43  1  0.17077514  0.20195123  0.69476991  1
  O  O44  1  0.03117609  0.82922486  0.69476991  1
  O  O45  1  0.79804877  0.82922486  0.19476991  1
  O  O46  1  0.03117609  0.20195123  0.19476991  1
  O  O47  1  0.17077514  0.96882391  0.19476991  1
  O  O48  1  0.87307388  0.36639609  0.63977838  1
  O  O49  1  0.49332321  0.12692612  0.63977838  1
  O  O50  1  0.63360391  0.50667679  0.63977838  1
  O  O51  1  0.87307388  0.50667679  0.13977838  1
  O  O52  1  0.63360391  0.12692612  0.13977838  1
  O  O53  1  0.49332321  0.36639609  0.13977838  1
  O  O54  1  0.46471577  0.30215691  0.02810291  1
  O  O55  1  0.83744214  0.53528423  0.02810291  1
  O  O56  1  0.69784309  0.16255786  0.02810291  1
  O  O57  1  0.46471577  0.16255786  0.52810291  1
  O  O58  1  0.69784309  0.53528423  0.52810291  1
  O  O59  1  0.83744214  0.30215691  0.52810291  1
  O  O60  1  0.53973988  0.69973009  0.97311238  1
  O  O61  1  0.15998921  0.46026012  0.97311238  1
  O  O62  1  0.30026991  0.84001079  0.97311238  1
  O  O63  1  0.53973988  0.84001079  0.47311238  1
  O  O64  1  0.30026991  0.46026012  0.47311238  1
  O  O65  1  0.15998921  0.69973009  0.47311238  1
  O  O66  1  0.13138177  0.63549091  0.36143691  1
  O  O67  1  0.50410814  0.86861823  0.36143691  1
  O  O68  1  0.36450909  0.49589186  0.36143691  1
  O  O69  1  0.13138177  0.49589186  0.86143691  1
  O  O70  1  0.36450909  0.86861823  0.86143691  1
  O  O71  1  0.50410814  0.63549091  0.86143691  1
  O  O72  1  0.02271795  0.83435984  0.40908921  1
  O  O73  1  0.81164190  0.97728205  0.40908921  1
  O  O74  1  0.16564016  0.18835810  0.40908921  1
  O  O75  1  0.02271795  0.18835810  0.90908921  1
  O  O76  1  0.16564016  0.97728205  0.90908921  1
  O  O77  1  0.81164190  0.83435984  0.90908921  1
  O  O78  1  0.97290974  0.16683474  0.59065585  1
  O  O79  1  0.19392500  0.02709026  0.59065585  1
  O  O80  1  0.83316526  0.80607500  0.59065585  1
  O  O81  1  0.97290974  0.80607500  0.09065585  1
  O  O82  1  0.83316526  0.02709026  0.09065585  1
  O  O83  1  0.19392500  0.16683474  0.09065585  1
  O  O84  1  0.68938495  0.16769284  0.74242221  1
  O  O85  1  0.47830890  0.31061505  0.74242221  1
  O  O86  1  0.83230716  0.52169110  0.74242221  1
  O  O87  1  0.68938495  0.52169110  0.24242221  1
  O  O88  1  0.83230716  0.31061505  0.24242221  1
  O  O89  1  0.47830890  0.16769284  0.24242221  1
  O  O90  1  0.63957674  0.50016774  0.92398885  1
  O  O91  1  0.86059200  0.36042326  0.92398885  1
  O  O92  1  0.49983226  0.13940800  0.92398885  1
  O  O93  1  0.63957674  0.13940800  0.42398885  1
  O  O94  1  0.49983226  0.36042326  0.42398885  1
  O  O95  1  0.86059200  0.50016774  0.42398885  1
  O  O96  1  0.35605095  0.50102684  0.07575621  1
  O  O97  1  0.14497490  0.64394905  0.07575621  1
  O  O98  1  0.49897316  0.85502510  0.07575621  1
  O  O99  1  0.35605095  0.85502510  0.57575621  1
  O  O100  1  0.49897316  0.64394905  0.57575621  1
  O  O101  1  0.14497490  0.50102684  0.57575621  1
  O  O102  1  0.30624274  0.83350174  0.25732285  1
  O  O103  1  0.52725800  0.69375726  0.25732285  1
  O  O104  1  0.16649826  0.47274200  0.25732285  1
  O  O105  1  0.30624274  0.47274200  0.75732285  1
  O  O106  1  0.16649826  0.69375726  0.75732285  1
  O  O107  1  0.52725800  0.83350174  0.75732285  1
