# generated using pymatgen
data_K5As3O10
_symmetry_space_group_name_H-M   'P 1'
_cell_length_a   7.95881917
_cell_length_b   7.98711808
_cell_length_c   19.21695511
_cell_angle_alpha   90.00000000
_cell_angle_beta   90.00000000
_cell_angle_gamma   90.00000000
_symmetry_Int_Tables_number   1
_chemical_formula_structural   K5As3O10
_chemical_formula_sum   'K20 As12 O40'
_cell_volume   1221.58394989
_cell_formula_units_Z   4
loop_
 _symmetry_equiv_pos_site_id
 _symmetry_equiv_pos_as_xyz
  1  'x, y, z'
loop_
 _atom_site_type_symbol
 _atom_site_label
 _atom_site_symmetry_multiplicity
 _atom_site_fract_x
 _atom_site_fract_y
 _atom_site_fract_z
 _atom_site_occupancy
  K  K0  1  0.27909595  0.47617181  0.98599421  1
  K  K1  1  0.77909595  0.02382819  0.01400579  1
  K  K2  1  0.72090405  0.97617181  0.51400579  1
  K  K3  1  0.22090405  0.52382819  0.48599421  1
  K  K4  1  0.20279856  0.49764694  0.28020908  1
  K  K5  1  0.70279856  0.00235306  0.71979092  1
  K  K6  1  0.79720144  0.99764694  0.21979092  1
  K  K7  1  0.29720144  0.50235306  0.78020908  1
  K  K8  1  0.75067332  0.50009243  0.99862494  1
  K  K9  1  0.25067332  -0.00009243  0.00137506  1
  K  K10  1  0.24932668  0.00009243  0.50137506  1
  K  K11  1  0.74932668  0.49990757  0.49862494  1
  K  K12  1  0.75222779  0.51391308  0.24344441  1
  K  K13  1  0.25222779  0.98608692  0.75655559  1
  K  K14  1  0.24777221  0.01391308  0.25655559  1
  K  K15  1  0.74777221  0.48608692  0.74344441  1
  K  K16  1  0.99004890  0.73955642  0.87269177  1
  K  K17  1  0.49004890  0.76044358  0.12730823  1
  K  K18  1  0.00995110  0.23955642  0.62730823  1
  K  K19  1  0.50995110  0.26044358  0.37269177  1
  As  As20  1  0.48214449  0.26724139  0.14402441  1
  As  As21  1  0.98214449  0.23275861  0.85597559  1
  As  As22  1  0.51785551  0.76724139  0.35597559  1
  As  As23  1  0.01785551  0.73275861  0.64402441  1
  As  As24  1  0.02789146  0.72415040  0.10261007  1
  As  As25  1  0.52789146  0.77584960  0.89738993  1
  As  As26  1  0.97210854  0.22415040  0.39738993  1
  As  As27  1  0.47210854  0.27584960  0.60261007  1
  As  As28  1  0.07631143  0.32127902  0.12561405  1
  As  As29  1  0.57631143  0.17872098  0.87438595  1
  As  As30  1  0.92368857  0.82127902  0.37438595  1
  As  As31  1  0.42368857  0.67872098  0.62561405  1
  O  O32  1  0.83206839  0.71955298  0.13407059  1
  O  O33  1  0.33206839  0.78044702  0.86592941  1
  O  O34  1  0.16793161  0.21955298  0.36592941  1
  O  O35  1  0.66793161  0.28044702  0.63407059  1
  O  O36  1  0.03155900  0.71762091  0.01498684  1
  O  O37  1  0.53155900  0.78237909  0.98501316  1
  O  O38  1  0.96844100  0.21762091  0.48501316  1
  O  O39  1  0.46844100  0.28237909  0.51498684  1
  O  O40  1  0.65507426  0.62925457  0.86479437  1
  O  O41  1  0.15507426  0.87074543  0.13520563  1
  O  O42  1  0.34492574  0.12925457  0.63520563  1
  O  O43  1  0.84492574  0.37074543  0.36479437  1
  O  O44  1  0.13843526  0.53443711  0.13135918  1
  O  O45  1  0.63843526  0.96556289  0.86864082  1
  O  O46  1  0.86156474  0.03443711  0.36864082  1
  O  O47  1  0.36156474  0.46556289  0.63135918  1
  O  O48  1  0.54435001  0.44069474  0.10334877  1
  O  O49  1  0.97086315  0.28395057  0.05311582  1
  O  O50  1  0.04435001  0.05930526  0.89665123  1
  O  O51  1  0.95564999  0.55930526  0.60334877  1
  O  O52  1  0.07635538  0.41197534  0.87847300  1
  O  O53  1  0.57635538  0.08802466  0.12152700  1
  O  O54  1  0.92364462  0.91197534  0.62152700  1
  O  O55  1  0.42364462  0.58802466  0.37847300  1
  O  O56  1  0.77175790  0.27186062  0.88995742  1
  O  O57  1  0.27175790  0.22813938  0.11004258  1
  O  O58  1  0.22824210  0.77186062  0.61004258  1
  O  O59  1  0.72824210  0.72813938  0.38995742  1
  O  O60  1  0.46237719  0.28995047  0.23087265  1
  O  O61  1  0.96237719  0.21004953  0.76912735  1
  O  O62  1  0.53762281  0.78995047  0.26912735  1
  O  O63  1  0.03762281  0.71004953  0.73087265  1
  O  O64  1  0.49955089  0.73027090  0.70323226  1
  O  O65  1  -0.00044911  0.76972910  0.29676774  1
  O  O66  1  0.50044911  0.23027090  0.79676774  1
  O  O67  1  0.00044911  0.26972910  0.20323226  1
  O  O68  1  0.52913685  0.71604943  0.55311582  1
  O  O69  1  0.02913685  0.78395057  0.44688418  1
  O  O70  1  0.47086315  0.21604943  0.94688418  1
  O  O71  1  0.45564999  0.94069474  0.39665123  1
