# generated using pymatgen
data_Na3AlSi2SnSO12
_symmetry_space_group_name_H-M   'P 1'
_cell_length_a   8.87061427
_cell_length_b   8.87061397
_cell_length_c   22.15698209
_cell_angle_alpha   90.39727703
_cell_angle_beta   89.60272297
_cell_angle_gamma   120.02578004
_symmetry_Int_Tables_number   1
_chemical_formula_structural   Na3AlSi2SnSO12
_chemical_formula_sum   'Na18 Al6 Si12 Sn6 S6 O72'
_cell_volume   1509.46072893
_cell_formula_units_Z   6
loop_
 _symmetry_equiv_pos_site_id
 _symmetry_equiv_pos_as_xyz
  1  'x, y, z'
loop_
 _atom_site_type_symbol
 _atom_site_label
 _atom_site_symmetry_multiplicity
 _atom_site_fract_x
 _atom_site_fract_y
 _atom_site_fract_z
 _atom_site_occupancy
  Na  Na0  1  0.62782934  0.99761610  0.24621997  1
  Na  Na1  1  0.99946822  0.64425547  0.24629756  1
  Na  Na2  1  0.00238390  0.37217066  0.74621997  1
  Na  Na3  1  0.35574453  0.00053178  0.74629756  1
  Na  Na4  1  0.29449634  0.33094910  0.57955297  1
  Na  Na5  1  0.66613522  0.97758847  0.57963056  1
  Na  Na6  1  0.66905090  0.70550366  0.07955297  1
  Na  Na7  1  0.02241153  0.33386478  0.07963056  1
  Na  Na8  1  0.96116234  0.66428310  0.91288697  1
  Na  Na9  1  0.33280122  0.31092247  0.91296456  1
  Na  Na10  1  0.33571690  0.03883766  0.41288697  1
  Na  Na11  1  0.68907753  0.66719878  0.41296456  1
  Na  Na12  1  0.00545505  0.01686714  0.49702029  1
  Na  Na13  1  0.98313286  0.99454495  0.99702029  1
  Na  Na14  1  0.67212205  0.35020014  0.83035329  1
  Na  Na15  1  0.64979986  0.32787795  0.33035329  1
  Na  Na16  1  0.33878805  0.68353414  0.16368729  1
  Na  Na17  1  0.31646586  0.66121195  0.66368729  1
  Al  Al18  1  0.00310482  0.00667458  0.35262508  1
  Al  Al19  1  0.99332542  0.99689518  0.85262508  1
  Al  Al20  1  0.66977182  0.34000758  0.68595808  1
  Al  Al21  1  0.65999242  0.33022818  0.18595808  1
  Al  Al22  1  0.33643782  0.67334158  0.01929208  1
  Al  Al23  1  0.32665842  0.66356218  0.51929208  1
  Si  Si24  1  0.29474186  0.01001788  0.25343664  1
  Si  Si25  1  0.70936564  0.69979444  0.25218305  1
  Si  Si26  1  0.30020556  0.29063436  0.75218305  1
  Si  Si27  1  0.98998212  0.70525814  0.75343664  1
  Si  Si28  1  0.96140886  0.34335088  0.58676964  1
  Si  Si29  1  0.37603264  0.03312744  0.58551605  1
  Si  Si30  1  0.96687256  0.62396736  0.08551605  1
  Si  Si31  1  0.65664912  0.03859114  0.08676964  1
  Si  Si32  1  0.62807486  0.67668488  0.92010364  1
  Si  Si33  1  0.04269864  0.36646144  0.91885005  1
  Si  Si34  1  0.63353856  0.95730136  0.41885005  1
  Si  Si35  1  0.32331512  0.37192514  0.42010364  1
  Sn  Sn36  1  0.01617572  0.00597256  0.64888216  1
  Sn  Sn37  1  0.99402744  0.98382428  0.14888216  1
  Sn  Sn38  1  0.68284272  0.33930556  0.98221516  1
  Sn  Sn39  1  0.66069444  0.31715728  0.48221516  1
  Sn  Sn40  1  0.34950872  0.67263956  0.31554916  1
  Sn  Sn41  1  0.32736044  0.65049128  0.81554916  1
  S  S42  1  0.00123999  0.29002923  0.25119187  1
  S  S43  1  0.70997077  0.99876001  0.75119187  1
  S  S44  1  0.66790699  0.62336223  0.58452487  1
  S  S45  1  0.37663777  0.33209301  0.08452487  1
  S  S46  1  0.33457299  0.95669623  0.91785887  1
  S  S47  1  0.04330377  0.66542701  0.41785887  1
  O  O48  1  0.19575109  0.02875985  0.31235260  1
  O  O49  1  0.83689866  0.79921797  0.30968188  1
  O  O50  1  0.97286381  0.17523785  0.30318647  1
  O  O51  1  0.20078203  0.16310134  0.80968188  1
  O  O52  1  0.97124015  0.80424891  0.81235260  1
  O  O53  1  0.82476215  0.02713619  0.80318647  1
  O  O54  1  0.77790579  0.96444583  0.69420890  1
  O  O55  1  0.17419788  0.22321333  0.69178843  1
  O  O56  1  0.03702536  0.82645752  0.69290246  1
  O  O57  1  0.77678667  0.82580212  0.19178843  1
  O  O58  1  0.03555417  0.22209421  0.19420890  1
  O  O59  1  0.17354248  0.96297464  0.19290246  1
  O  O60  1  0.86241809  0.36209285  0.64568560  1
  O  O61  1  0.50356566  0.13255097  0.64301488  1
  O  O62  1  0.63953081  0.50857085  0.63651947  1
  O  O63  1  0.86744903  0.49643434  0.14301488  1
  O  O64  1  0.63790715  0.13758191  0.14568560  1
  O  O65  1  0.49142915  0.36046919  0.13651947  1
  O  O66  1  0.44457279  0.29777883  0.02754190  1
  O  O67  1  0.84086488  0.55654633  0.02512143  1
  O  O68  1  0.70369236  0.15979052  0.02623546  1
  O  O69  1  0.44345367  0.15913512  0.52512143  1
  O  O70  1  0.70222117  0.55542721  0.52754190  1
  O  O71  1  0.84020948  0.29630764  0.52623546  1
  O  O72  1  0.52908409  0.69542685  0.97901960  1
  O  O73  1  0.17023166  0.46588497  0.97634888  1
  O  O74  1  0.30619681  0.84190485  0.96985347  1
  O  O75  1  0.53411503  0.82976834  0.47634888  1
  O  O76  1  0.30457315  0.47091591  0.47901960  1
  O  O77  1  0.15809515  0.69380319  0.46985347  1
  O  O78  1  0.11123879  0.63111283  0.36087590  1
  O  O79  1  0.50753088  0.88988033  0.35845543  1
  O  O80  1  0.37035836  0.49312452  0.35956946  1
  O  O81  1  0.11011967  0.49246912  0.85845543  1
  O  O82  1  0.36888717  0.88876121  0.86087590  1
  O  O83  1  0.50687548  0.62964164  0.85956946  1
  O  O84  1  0.02916048  0.82509164  0.41331049  1
  O  O85  1  0.82027870  0.96591645  0.40782194  1
  O  O86  1  0.16041651  0.17451617  0.41046249  1
  O  O87  1  0.03408355  0.17972130  0.90782194  1
  O  O88  1  0.17490836  0.97083952  0.91331049  1
  O  O89  1  0.82548383  0.83958349  0.91046249  1
  O  O90  1  0.96789993  0.15586053  0.59004112  1
  O  O91  1  0.18388712  0.01965313  0.58597939  1
  O  O92  1  0.81820830  0.80227659  0.59040720  1
  O  O93  1  0.98034687  0.81611288  0.08597939  1
  O  O94  1  0.84413947  0.03210007  0.09004112  1
  O  O95  1  0.19772341  0.18179170  0.09040720  1
  O  O96  1  0.69582748  0.15842464  0.74664349  1
  O  O97  1  0.48694570  0.29924945  0.74115494  1
  O  O98  1  0.82708351  0.50784917  0.74379549  1
  O  O99  1  0.70075055  0.51305430  0.24115494  1
  O  O100  1  0.84157536  0.30417252  0.24664349  1
  O  O101  1  0.49215083  0.17291649  0.24379549  1
  O  O102  1  0.63456693  0.48919353  0.92337412  1
  O  O103  1  0.85055412  0.35298613  0.91931239  1
  O  O104  1  0.48487530  0.13560959  0.92374020  1
  O  O105  1  0.64701387  0.14944588  0.41931239  1
  O  O106  1  0.51080647  0.36543307  0.42337412  1
  O  O107  1  0.86439041  0.51512470  0.42374020  1
  O  O108  1  0.36249348  0.49175864  0.07997749  1
  O  O109  1  0.15361170  0.63258345  0.07448894  1
  O  O110  1  0.49374951  0.84118317  0.07712949  1
  O  O111  1  0.36741655  0.84638830  0.57448894  1
  O  O112  1  0.50824136  0.63750652  0.57997749  1
  O  O113  1  0.15881683  0.50625049  0.57712949  1
  O  O114  1  0.30123293  0.82252753  0.25670812  1
  O  O115  1  0.51722012  0.68632013  0.25264639  1
  O  O116  1  0.15154130  0.46894359  0.25707420  1
  O  O117  1  0.31367987  0.48277988  0.75264639  1
  O  O118  1  0.17747247  0.69876707  0.75670812  1
  O  O119  1  0.53105641  0.84845870  0.75707420  1
