# generated using pymatgen
data_PCl3O
_symmetry_space_group_name_H-M   'P 1'
_cell_length_a   5.84665617
_cell_length_b   9.43054642
_cell_length_c   9.21331222
_cell_angle_alpha   90.00000000
_cell_angle_beta   90.00000000
_cell_angle_gamma   90.00000000
_symmetry_Int_Tables_number   1
_chemical_formula_structural   PCl3O
_chemical_formula_sum   'P4 Cl12 O4'
_cell_volume   507.99589224
_cell_formula_units_Z   4
loop_
 _symmetry_equiv_pos_site_id
 _symmetry_equiv_pos_as_xyz
  1  'x, y, z'
loop_
 _atom_site_type_symbol
 _atom_site_label
 _atom_site_symmetry_multiplicity
 _atom_site_fract_x
 _atom_site_fract_y
 _atom_site_fract_z
 _atom_site_occupancy
  P  P0  1  0.87094439  0.75722009  0.81683035  1
  P  P1  1  0.12905561  0.25722009  0.18316965  1
  P  P2  1  0.62905561  0.75722009  0.31683035  1
  P  P3  1  0.37094439  0.25722009  0.68316965  1
  Cl  Cl4  1  0.16924785  0.42366359  0.64848340  1
  Cl  Cl5  1  0.83075215  0.92366359  0.35151660  1
  Cl  Cl6  1  0.33075215  0.42366359  0.14848340  1
  Cl  Cl7  1  0.66924785  0.92366359  0.85151660  1
  Cl  Cl8  1  0.08753577  0.75704749  0.98311858  1
  Cl  Cl9  1  0.91246423  0.25704749  0.01688142  1
  Cl  Cl10  1  0.41246423  0.75704749  0.48311858  1
  Cl  Cl11  1  0.58753577  0.25704749  0.51688142  1
  Cl  Cl12  1  0.67242367  0.58886401  0.84942779  1
  Cl  Cl13  1  0.32757633  0.08886401  0.15057221  1
  Cl  Cl14  1  0.82757633  0.58886401  0.34942779  1
  Cl  Cl15  1  0.17242367  0.08886401  0.65057221  1
  O  O16  1  0.98263227  0.75840383  0.67535409  1
  O  O17  1  0.01736773  0.25840383  0.32464591  1
  O  O18  1  0.51736773  0.75840383  0.17535409  1
  O  O19  1  0.48263227  0.25840383  0.82464591  1
