# generated using pymatgen
data_Na8MgSi5Ge3SO24
_symmetry_space_group_name_H-M   'P 1'
_cell_length_a   8.90361363
_cell_length_b   8.87889598
_cell_length_c   21.89066258
_cell_angle_alpha   91.42547785
_cell_angle_beta   89.95467704
_cell_angle_gamma   120.22160098
_symmetry_Int_Tables_number   1
_chemical_formula_structural   Na8MgSi5Ge3SO24
_chemical_formula_sum   'Na24 Mg3 Si15 Ge9 S3 O72'
_cell_volume   1494.74195245
_cell_formula_units_Z   3
loop_
 _symmetry_equiv_pos_site_id
 _symmetry_equiv_pos_as_xyz
  1  'x, y, z'
loop_
 _atom_site_type_symbol
 _atom_site_label
 _atom_site_symmetry_multiplicity
 _atom_site_fract_x
 _atom_site_fract_y
 _atom_site_fract_z
 _atom_site_occupancy
  Na  Na0  1  0.64105153  0.01096785  0.24778946  1
  Na  Na1  1  0.36440702  0.36491380  0.24482633  1
  Na  Na2  1  0.99535608  0.62305407  0.24608204  1
  Na  Na3  1  0.63050036  0.62170747  0.74914685  1
  Na  Na4  1  0.99259370  0.36784527  0.75209632  1
  Na  Na5  1  0.37894559  0.00745587  0.74899823  1
  Na  Na6  1  0.30758878  0.33343004  0.58757553  1
  Na  Na7  1  0.03191425  0.70307806  0.58379913  1
  Na  Na8  1  0.66352135  0.96727201  0.58902336  1
  Na  Na9  1  0.30697237  0.96921318  0.08062997  1
  Na  Na10  1  0.66341867  0.69434239  0.08002085  1
  Na  Na11  1  0.03215919  0.34165906  0.08082931  1
  Na  Na12  1  0.96369496  0.66659936  0.91544216  1
  Na  Na13  1  0.70160395  0.03489057  0.91504229  1
  Na  Na14  1  0.33372473  0.29812786  0.91560111  1
  Na  Na15  1  0.96331639  0.28861512  0.41418807  1
  Na  Na16  1  0.32425673  0.03306076  0.41827518  1
  Na  Na17  1  0.70992905  0.67546864  0.41852788  1
  Na  Na18  1  0.00054205  0.99742627  0.49796731  1
  Na  Na19  1  0.00025112  0.99983079  0.99575857  1
  Na  Na20  1  0.66624437  0.33301048  0.82973130  1
  Na  Na21  1  0.67498670  0.33241384  0.33373981  1
  Na  Na22  1  0.33099016  0.66424292  0.16179584  1
  Na  Na23  1  0.33943422  0.67143360  0.67009627  1
  Mg  Mg24  1  0.99777990  0.00429306  0.35639340  1
  Mg  Mg25  1  0.65507813  0.32972441  0.68924376  1
  Mg  Mg26  1  0.67455845  0.33490643  0.17863844  1
  Si  Si27  1  -0.00012152  0.29279380  0.25275672  1
  Si  Si28  1  0.28111212  0.28533892  0.75237619  1
  Si  Si29  1  0.00466000  0.71105532  0.75306366  1
  Si  Si30  1  0.71346753  0.99685899  0.75176212  1
  Si  Si31  1  0.37460746  0.04125905  0.58268946  1
  Si  Si32  1  0.66490481  0.62632580  0.58399810  1
  Si  Si33  1  0.96127740  0.62691657  0.08445726  1
  Si  Si34  1  0.66026927  0.04092052  0.08248554  1
  Si  Si35  1  0.38227216  0.34063102  0.08349235  1
  Si  Si36  1  0.62062648  0.66584183  0.91627538  1
  Si  Si37  1  0.04563086  0.38022317  0.91592836  1
  Si  Si38  1  0.33349513  0.95381627  0.91704259  1
  Si  Si39  1  0.61837708  0.95568852  0.41638658  1
  Si  Si40  1  0.33527684  0.38069054  0.41953620  1
  Si  Si41  1  0.03985460  0.66070117  0.42025397  1
  Ge  Ge42  1  0.99962992  0.00113365  0.85299693  1
  Ge  Ge43  1  0.00064332  0.98260541  0.65457480  1
  Ge  Ge44  1  0.00701439  0.02257499  0.13748933  1
  Ge  Ge45  1  0.66684644  0.33405038  0.98015659  1
  Ge  Ge46  1  0.65310356  0.33683293  0.47869616  1
  Ge  Ge47  1  0.33421397  0.66811833  0.01695149  1
  Ge  Ge48  1  0.34809194  0.68145511  0.51622220  1
  Ge  Ge49  1  0.31618867  0.64491073  0.32497790  1
  Ge  Ge50  1  0.33420364  0.66594899  0.81355688  1
  S  S51  1  0.29099191  -0.00034040  0.25024878  1
  S  S52  1  0.70830510  0.70923178  0.25007200  1
  S  S53  1  0.95697835  0.33417149  0.58219233  1
  O  O54  1  0.20754396  0.02204614  0.30549911  1
  O  O55  1  0.81838884  0.79073524  0.30521257  1
  O  O56  1  0.97018387  0.17363964  0.30969002  1
  O  O57  1  0.19340402  0.16074048  0.81125532  1
  O  O58  1  0.96443005  0.80282672  0.81151181  1
  O  O59  1  0.83814232  0.03324992  0.81182592  1
  O  O60  1  0.79968685  0.95707494  0.68922081  1
  O  O61  1  0.15444983  0.19887387  0.68917805  1
  O  O62  1  0.04872374  0.83183207  0.69068371  1
  O  O63  1  0.78767095  0.81659102  0.19500895  1
  O  O64  1  0.04304937  0.20402030  0.18992865  1
  O  O65  1  0.17976147  0.96615037  0.19425216  1
  O  O66  1  0.87989977  0.36486941  0.63713347  1
  O  O67  1  0.49895020  0.11452323  0.64089379  1
  O  O68  1  0.62352764  0.50642177  0.64136738  1
  O  O69  1  0.89164331  0.51621122  0.14468308  1
  O  O70  1  0.61846508  0.10775462  0.14492567  1
  O  O71  1  0.48945681  0.37590211  0.14578676  1
  O  O72  1  0.46490333  0.29345932  0.02358593  1
  O  O73  1  0.83065299  0.54291563  0.02417057  1
  O  O74  1  0.70897983  0.17068199  0.02397684  1
  O  O75  1  0.46062579  0.16710873  0.52124859  1
  O  O76  1  0.70954124  0.54166575  0.52181799  1
  O  O77  1  0.84644027  0.30243839  0.52590896  1
  O  O78  1  0.53637835  0.70590696  0.97690578  1
  O  O79  1  0.17085206  0.46398908  0.97689224  1
  O  O80  1  0.29338650  0.83066637  0.97666155  1
  O  O81  1  0.53558853  0.83377254  0.47539730  1
  O  O82  1  0.29627237  0.47413996  0.47752245  1
  O  O83  1  0.17056706  0.69734285  0.47771182  1
  O  O84  1  0.12025386  0.61833840  0.35737238  1
  O  O85  1  0.48441900  0.86229075  0.35497721  1
  O  O86  1  0.38216183  0.50430199  0.35817206  1
  O  O87  1  0.12957960  0.50522146  0.85699317  1
  O  O88  1  0.37632629  0.86895601  0.85693335  1
  O  O89  1  0.49377693  0.62412322  0.85634733  1
  O  O90  1  0.02194551  0.82988669  0.41168080  1
  O  O91  1  0.80563956  0.97325307  0.41205538  1
  O  O92  1  0.16992346  0.18963494  0.41385974  1
  O  O93  1  0.02572853  0.18456247  0.91109560  1
  O  O94  1  0.16057968  0.97618330  0.91129575  1
  O  O95  1  0.81557941  0.84107168  0.91131289  1
  O  O96  1  0.97523878  0.17746736  0.58468417  1
  O  O97  1  0.17896152  0.02361863  0.58807464  1
  O  O98  1  0.84336159  0.82552954  0.58844677  1
  O  O99  1  0.98027830  0.82647094  0.09370097  1
  O  O100  1  0.83744920  0.01892744  0.08866608  1
  O  O101  1  0.18433889  0.15929361  0.08674286  1
  O  O102  1  0.69637747  0.16749688  0.74641201  1
  O  O103  1  0.47043342  0.30659583  0.74827878  1
  O  O104  1  0.83584326  0.52201612  0.74530627  1
  O  O105  1  0.68405400  0.53260550  0.24552832  1
  O  O106  1  0.83439196  0.32049467  0.24670591  1
  O  O107  1  0.46364240  0.15741511  0.24686716  1
  O  O108  1  0.63997948  0.49075731  0.92350345  1
  O  O109  1  0.85085191  0.35930032  0.92400589  1
  O  O110  1  0.51027366  0.14922804  0.92409947  1
  O  O111  1  0.63496947  0.14961180  0.42383754  1
  O  O112  1  0.51427785  0.36777353  0.42190241  1
  O  O113  1  0.84845177  0.48046643  0.42515585  1
  O  O114  1  0.35284920  0.50784926  0.07509422  1
  O  O115  1  0.15596838  0.65177785  0.07455288  1
  O  O116  1  0.49087160  0.84316647  0.07391362  1
  O  O117  1  0.34759714  0.84014342  0.57378732  1
  O  O118  1  0.48889402  0.64608545  0.57382754  1
  O  O119  1  0.13374983  0.49266587  0.57769826  1
  O  O120  1  0.30934070  0.84060852  0.25307188  1
  O  O121  1  0.53356035  0.69709753  0.25462520  1
  O  O122  1  0.18981179  0.49543075  0.25743809  1
  O  O123  1  0.29586644  0.47924571  0.75635951  1
  O  O124  1  0.18368776  0.69919027  0.75751063  1
  O  O125  1  0.52040655  0.81755718  0.75635075  1
