# generated using pymatgen
data_Na4ScTiSi2PO12
_symmetry_space_group_name_H-M   'P 1'
_cell_length_a   9.09516615
_cell_length_b   9.09516584
_cell_length_c   22.07851800
_cell_angle_alpha   90.48814413
_cell_angle_beta   89.51185587
_cell_angle_gamma   119.96476398
_symmetry_Int_Tables_number   1
_chemical_formula_structural   Na4ScTiSi2PO12
_chemical_formula_sum   'Na24 Sc6 Ti6 Si12 P6 O72'
_cell_volume   1582.17631144
_cell_formula_units_Z   6
loop_
 _symmetry_equiv_pos_site_id
 _symmetry_equiv_pos_as_xyz
  1  'x, y, z'
loop_
 _atom_site_type_symbol
 _atom_site_label
 _atom_site_symmetry_multiplicity
 _atom_site_fract_x
 _atom_site_fract_y
 _atom_site_fract_z
 _atom_site_occupancy
  Na  Na0  1  0.63870316  0.00541514  0.25083808  1
  Na  Na1  1  0.37164424  0.37016349  0.24664978  1
  Na  Na2  1  0.99075311  0.62553879  0.24940824  1
  Na  Na3  1  0.62983651  0.62835576  0.74664978  1
  Na  Na4  1  0.99458486  0.36129684  0.75083808  1
  Na  Na5  1  0.37446121  0.00924689  0.74940824  1
  Na  Na6  1  0.30537016  0.33874814  0.58417108  1
  Na  Na7  1  0.03831124  0.70349649  0.57998278  1
  Na  Na8  1  0.65742011  0.95887179  0.58274124  1
  Na  Na9  1  0.29650351  0.96168876  0.07998278  1
  Na  Na10  1  0.66125186  0.69462984  0.08417108  1
  Na  Na11  1  0.04112821  0.34257989  0.08274124  1
  Na  Na12  1  0.97203616  0.67208214  0.91750508  1
  Na  Na13  1  0.70497724  0.03683049  0.91331678  1
  Na  Na14  1  0.32408611  0.29220579  0.91607524  1
  Na  Na15  1  0.96316951  0.29502276  0.41331678  1
  Na  Na16  1  0.32791786  0.02796384  0.41750508  1
  Na  Na17  1  0.70779421  0.67591389  0.41607524  1
  Na  Na18  1  0.99574574  0.99267020  0.49907786  1
  Na  Na19  1  0.00732980  0.00425426  0.99907786  1
  Na  Na20  1  0.66241274  0.32600320  0.83241086  1
  Na  Na21  1  0.67399680  0.33758726  0.33241086  1
  Na  Na22  1  0.32907874  0.65933720  0.16574486  1
  Na  Na23  1  0.34066280  0.67092126  0.66574486  1
  Sc  Sc24  1  0.99397658  0.99614220  0.35135387  1
  Sc  Sc25  1  0.00385780  0.00602342  0.85135387  1
  Sc  Sc26  1  0.66064358  0.32947520  0.68468687  1
  Sc  Sc27  1  0.67052480  0.33935642  0.18468687  1
  Sc  Sc28  1  0.32730958  0.66280920  0.01802087  1
  Sc  Sc29  1  0.33719080  0.67269042  0.51802087  1
  Ti  Ti30  1  0.99831165  0.00004767  0.64886656  1
  Ti  Ti31  1  -0.00004767  0.00168835  0.14886656  1
  Ti  Ti32  1  0.66497865  0.33338067  0.98219956  1
  Ti  Ti33  1  0.66661933  0.33502135  0.48219956  1
  Ti  Ti34  1  0.33164465  0.66671467  0.31553356  1
  Ti  Ti35  1  0.33328533  0.66835535  0.81553356  1
  Si  Si36  1  0.70230339  0.70727636  0.25060449  1
  Si  Si37  1  0.00367798  0.29623788  0.25123513  1
  Si  Si38  1  0.29272364  0.29769661  0.75060449  1
  Si  Si39  1  0.70376212  0.99632202  0.75123513  1
  Si  Si40  1  0.36897039  0.04060936  0.58393749  1
  Si  Si41  1  0.67034498  0.62957088  0.58456813  1
  Si  Si42  1  0.95939064  0.63102961  0.08393749  1
  Si  Si43  1  0.37042912  0.32965502  0.08456813  1
  Si  Si44  1  0.03563639  0.37394336  0.91727149  1
  Si  Si45  1  0.33701098  0.96290488  0.91790213  1
  Si  Si46  1  0.62605664  0.96436361  0.41727149  1
  Si  Si47  1  0.03709512  0.66298902  0.41790213  1
  P  P48  1  0.28867838  0.99454012  0.24983277  1
  P  P49  1  0.00545988  0.71132162  0.74983277  1
  P  P50  1  0.95534538  0.32787312  0.58316577  1
  P  P51  1  0.67212688  0.04465462  0.08316577  1
  P  P52  1  0.62201138  0.66120712  0.91649977  1
  P  P53  1  0.33879288  0.37798862  0.41649977  1
  O  O54  1  0.21306250  0.02592777  0.30710067  1
  O  O55  1  0.82005261  0.78764549  0.30982993  1
  O  O56  1  0.97647139  0.18327068  0.31064941  1
  O  O57  1  0.21235451  0.17994739  0.80982993  1
  O  O58  1  0.97407223  0.78693750  0.80710067  1
  O  O59  1  0.81672932  0.02352861  0.81064941  1
  O  O60  1  0.80485932  0.96884337  0.69168012  1
  O  O61  1  0.16409512  0.19403553  0.69198252  1
  O  O62  1  0.02849235  0.82679062  0.69381915  1
  O  O63  1  0.80596447  0.83590488  0.19198252  1
  O  O64  1  0.03115663  0.19514068  0.19168012  1
  O  O65  1  0.17320938  0.97150765  0.19381915  1
  O  O66  1  0.87972950  0.35926077  0.64043367  1
  O  O67  1  0.48671961  0.12097849  0.64316293  1
  O  O68  1  0.64313839  0.51660368  0.64398241  1
  O  O69  1  0.87902151  0.51328039  0.14316293  1
  O  O70  1  0.64073923  0.12027050  0.14043367  1
  O  O71  1  0.48339632  0.35686161  0.14398241  1
  O  O72  1  0.47152632  0.30217637  0.02501312  1
  O  O73  1  0.83076212  0.52736853  0.02531552  1
  O  O74  1  0.69515935  0.16012362  0.02715215  1
  O  O75  1  0.47263147  0.16923788  0.52531552  1
  O  O76  1  0.69782363  0.52847368  0.52501312  1
  O  O77  1  0.83987638  0.30484065  0.52715215  1
  O  O78  1  0.54639550  0.69259477  0.97376767  1
  O  O79  1  0.15338561  0.45431249  0.97649693  1
  O  O80  1  0.30980439  0.84993768  0.97731641  1
  O  O81  1  0.54568751  0.84661439  0.47649693  1
  O  O82  1  0.30740523  0.45360450  0.47376767  1
  O  O83  1  0.15006232  0.69019561  0.47731641  1
  O  O84  1  0.13819232  0.63551037  0.35834712  1
  O  O85  1  0.49742812  0.86070253  0.35864952  1
  O  O86  1  0.36182535  0.49345762  0.36048615  1
  O  O87  1  0.13929747  0.50257188  0.85864952  1
  O  O88  1  0.36448963  0.86180768  0.85834712  1
  O  O89  1  0.50654238  0.63817465  0.86048615  1
  O  O90  1  0.01973179  0.83218360  0.41310565  1
  O  O91  1  0.81739573  0.99240129  0.41295334  1
  O  O92  1  0.18513611  0.19690155  0.41012437  1
  O  O93  1  0.00759871  0.18260427  0.91295334  1
  O  O94  1  0.16781640  0.98026821  0.91310565  1
  O  O95  1  0.80309845  0.81486389  0.91012437  1
  O  O96  1  0.96471165  0.16143839  0.58608489  1
  O  O97  1  0.18353583  0.03228257  0.58757932  1
  O  O98  1  0.84554960  0.81713549  0.58722384  1
  O  O99  1  0.96771743  0.81646417  0.08757932  1
  O  O100  1  0.83856161  0.03528835  0.08608489  1
  O  O101  1  0.18286451  0.15445040  0.08722384  1
  O  O102  1  0.68639879  0.16551660  0.74643865  1
  O  O103  1  0.48406273  0.32573429  0.74628634  1
  O  O104  1  0.85180311  0.53023455  0.74345737  1
  O  O105  1  0.67426571  0.51593727  0.24628634  1
  O  O106  1  0.83448340  0.31360121  0.24643865  1
  O  O107  1  0.46976545  0.14819689  0.24345737  1
  O  O108  1  0.63137865  0.49477139  0.91941789  1
  O  O109  1  0.85020283  0.36561557  0.92091232  1
  O  O110  1  0.51221660  0.15046849  0.92055684  1
  O  O111  1  0.63438443  0.14979717  0.42091232  1
  O  O112  1  0.50522861  0.36862135  0.41941789  1
  O  O113  1  0.84953151  0.48778340  0.42055684  1
  O  O114  1  0.35306479  0.49885060  0.07977265  1
  O  O115  1  0.15072873  0.65906829  0.07962034  1
  O  O116  1  0.51846911  0.86356855  0.07679137  1
  O  O117  1  0.34093171  0.84927127  0.57962034  1
  O  O118  1  0.50114940  0.64693521  0.57977265  1
  O  O119  1  0.13643145  0.48153089  0.57679137  1
  O  O120  1  0.29804465  0.82810539  0.25275189  1
  O  O121  1  0.51686883  0.69894957  0.25424632  1
  O  O122  1  0.17888260  0.48380249  0.25389084  1
  O  O123  1  0.30105043  0.48313117  0.75424632  1
  O  O124  1  0.17189461  0.70195535  0.75275189  1
  O  O125  1  0.51619751  0.82111740  0.75389084  1
