# generated using pymatgen
data_Na4Y2Si3Ge2(SO8)3
_symmetry_space_group_name_H-M   'P 1'
_cell_length_a   9.10120292
_cell_length_b   9.09334297
_cell_length_c   22.90976852
_cell_angle_alpha   91.03759300
_cell_angle_beta   88.35132902
_cell_angle_gamma   119.36621571
_symmetry_Int_Tables_number   1
_chemical_formula_structural   Na4Y2Si3Ge2(SO8)3
_chemical_formula_sum   'Na12 Y6 Si9 Ge6 S9 O72'
_cell_volume   1651.68649887
_cell_formula_units_Z   3
loop_
 _symmetry_equiv_pos_site_id
 _symmetry_equiv_pos_as_xyz
  1  'x, y, z'
loop_
 _atom_site_type_symbol
 _atom_site_label
 _atom_site_symmetry_multiplicity
 _atom_site_fract_x
 _atom_site_fract_y
 _atom_site_fract_z
 _atom_site_occupancy
  Na  Na0  1  0.97539207  0.63260303  0.25637634  1
  Na  Na1  1  0.00012366  0.36993925  0.74662841  1
  Na  Na2  1  0.65945668  0.98165367  0.59186273  1
  Na  Na3  1  0.66469975  0.69908815  0.07881502  1
  Na  Na4  1  0.34108259  0.30459642  0.90794434  1
  Na  Na5  1  0.31739396  0.02211591  0.41854006  1
  Na  Na6  1  0.00653716  0.98629371  0.50761718  1
  Na  Na7  1  0.99242307  0.99098865  0.00270848  1
  Na  Na8  1  0.64900273  0.30638892  0.82748309  1
  Na  Na9  1  0.64685257  0.32974394  0.33561060  1
  Na  Na10  1  0.31725711  0.67136054  0.17061749  1
  Na  Na11  1  0.29817418  0.66820592  0.66234419  1
  Y  Y12  1  0.99127754  0.98992183  0.35553298  1
  Y  Y13  1  0.99489923  0.98764173  0.85290004  1
  Y  Y14  1  0.66558353  0.33914486  0.68776551  1
  Y  Y15  1  0.65424996  0.32406944  0.18906060  1
  Y  Y16  1  0.32601790  0.67702079  0.01758675  1
  Y  Y17  1  0.32045187  0.66216906  0.52075756  1
  Si  Si18  1  0.28803219  0.97868726  0.25788751  1
  Si  Si19  1  0.67433447  0.69740689  0.25523601  1
  Si  Si20  1  0.29718936  0.30325908  0.75837938  1
  Si  Si21  1  0.72775983  0.00160850  0.74492384  1
  Si  Si22  1  0.96567479  0.33037415  0.58913275  1
  Si  Si23  1  0.37496868  0.06232823  0.58178158  1
  Si  Si24  1  0.96079271  0.63830711  0.09068543  1
  Si  Si25  1  0.63854121  0.66026709  0.92315335  1
  Si  Si26  1  0.01740470  0.63773757  0.41762436  1
  Ge  Ge27  1  0.03768071  0.06809646  0.64767687  1
  Ge  Ge28  1  0.97195334  0.92596796  0.16640226  1
  Ge  Ge29  1  0.69467264  0.38179828  0.98417989  1
  Ge  Ge30  1  0.69316179  0.33962427  0.49435390  1
  Ge  Ge31  1  0.30983546  0.65728937  0.31302578  1
  Ge  Ge32  1  0.43140414  0.67294504  0.80200260  1
  S  S33  1  0.01277612  0.29139325  0.24760800  1
  S  S34  1  0.02126219  0.71485749  0.74656303  1
  S  S35  1  0.68636756  0.63622508  0.57802489  1
  S  S36  1  0.68259056  0.05254504  0.07692762  1
  S  S37  1  0.37079678  0.32306368  0.07750936  1
  S  S38  1  0.01569204  0.36786793  0.91969845  1
  S  S39  1  0.35380861  0.97217490  0.91197000  1
  S  S40  1  0.60948035  0.96530239  0.41529429  1
  S  S41  1  0.34095874  0.38210626  0.41033531  1
  O  O42  1  0.22189895  0.01730577  0.31805318  1
  O  O43  1  0.82186436  0.80443023  0.29919474  1
  O  O44  1  0.99683032  0.20534072  0.30228707  1
  O  O45  1  0.21505243  0.20960705  0.81880792  1
  O  O46  1  0.01130099  0.79342632  0.80288281  1
  O  O47  1  0.81822549  0.00743855  0.80390093  1
  O  O48  1  0.82539069  0.97978154  0.68440003  1
  O  O49  1  0.16928060  0.22100021  0.70107396  1
  O  O50  1  0.02687368  0.81418033  0.69563192  1
  O  O51  1  0.75706602  0.80553899  0.18878614  1
  O  O52  1  0.02498532  0.19568899  0.19454588  1
  O  O53  1  0.14397339  0.93698973  0.20206886  1
  O  O54  1  0.89509205  0.35477727  0.65064899  1
  O  O55  1  0.49800530  0.14431179  0.63456369  1
  O  O56  1  0.66332502  0.53957788  0.63048688  1
  O  O57  1  0.87142021  0.54227554  0.14944035  1
  O  O58  1  0.66682819  0.13106607  0.13124235  1
  O  O59  1  0.47742299  0.34134430  0.12708944  1
  O  O60  1  0.46260475  0.31239150  0.01998312  1
  O  O61  1  0.83210151  0.55112102  0.03173238  1
  O  O62  1  0.68911921  0.15387421  0.02410337  1
  O  O63  1  0.47397685  0.18375096  0.51881680  1
  O  O64  1  0.69325631  0.53775353  0.52313032  1
  O  O65  1  0.82755999  0.29134512  0.53485649  1
  O  O66  1  0.53588283  0.65914601  0.98094118  1
  O  O67  1  0.12309663  0.46665818  0.96864055  1
  O  O68  1  0.34123151  0.88045070  0.96640062  1
  O  O69  1  0.54671144  0.87493136  0.47066758  1
  O  O70  1  0.34608312  0.47366606  0.46392958  1
  O  O71  1  0.15041215  0.68015392  0.46719758  1
  O  O72  1  0.10894715  0.61220391  0.35289122  1
  O  O73  1  0.49748614  0.86808884  0.36497070  1
  O  O74  1  0.34428566  0.48046445  0.35633690  1
  O  O75  1  0.07640344  0.45006335  0.86337436  1
  O  O76  1  0.35629883  0.87697190  0.85936573  1
  O  O77  1  0.51137384  0.62560682  0.86342752  1
  O  O78  1  0.99432601  0.80466963  0.41358300  1
  O  O79  1  0.78462446  0.00100403  0.40693402  1
  O  O80  1  0.18309906  0.21332902  0.41346562  1
  O  O81  1  0.00054120  0.19796840  0.92237234  1
  O  O82  1  0.20356457  -0.00025647  0.91498097  1
  O  O83  1  0.82274720  0.81851970  0.92059766  1
  O  O84  1  0.96410105  0.14390533  0.58766996  1
  O  O85  1  0.18319047  0.04533980  0.59484207  1
  O  O86  1  0.84315839  0.79814978  0.57648782  1
  O  O87  1  0.96627122  0.83144676  0.09516010  1
  O  O88  1  0.83390592  0.03188111  0.07660908  1
  O  O89  1  0.20574931  0.17249491  0.07897983  1
  O  O90  1  0.69382402  0.15945822  0.74540773  1
  O  O91  1  0.48932408  0.34878751  0.75275401  1
  O  O92  1  0.86710281  0.54278945  0.74789563  1
  O  O93  1  0.65893911  0.51227345  0.25001226  1
  O  O94  1  0.86737300  0.32403186  0.24386614  1
  O  O95  1  0.47346079  0.12330316  0.24175984  1
  O  O96  1  0.64143623  0.47460591  0.92359750  1
  O  O97  1  0.83895031  0.35221203  0.92922286  1
  O  O98  1  0.50798913  0.14333124  0.91329462  1
  O  O99  1  0.60912847  0.13056931  0.41754951  1
  O  O100  1  0.48690426  0.35493916  0.40561272  1
  O  O101  1  0.82893526  0.45846838  0.43063206  1
  O  O102  1  0.35701783  0.48076973  0.07742641  1
  O  O103  1  0.14848701  0.66833672  0.08332572  1
  O  O104  1  0.53099702  0.87736542  0.07562075  1
  O  O105  1  0.35571578  0.87613090  0.57350369  1
  O  O106  1  0.54103655  0.66696134  0.57326286  1
  O  O107  1  0.15647537  0.47794101  0.58125140  1
  O  O108  1  0.27441711  0.78841749  0.25876503  1
  O  O109  1  0.48996864  0.68915097  0.26462075  1
  O  O110  1  0.17109059  0.46348851  0.24725834  1
  O  O111  1  0.29699593  0.49293612  0.76204064  1
  O  O112  1  0.17195880  0.69128329  0.74635629  1
  O  O113  1  0.53751112  0.81709462  0.74688179  1
