# generated using pymatgen
data_Na9Mg5NbSi3(SO6)6
_symmetry_space_group_name_H-M   'P 1'
_cell_length_a   9.01544799
_cell_length_b   8.98637460
_cell_length_c   22.36072850
_cell_angle_alpha   89.73191414
_cell_angle_beta   90.00000000
_cell_angle_gamma   120.10707990
_symmetry_Int_Tables_number   1
_chemical_formula_structural   Na9Mg5NbSi3(SO6)6
_chemical_formula_sum   'Na18 Mg10 Nb2 Si6 S12 O72'
_cell_volume   1567.15675593
_cell_formula_units_Z   2
loop_
 _symmetry_equiv_pos_site_id
 _symmetry_equiv_pos_as_xyz
  1  'x, y, z'
loop_
 _atom_site_type_symbol
 _atom_site_label
 _atom_site_symmetry_multiplicity
 _atom_site_fract_x
 _atom_site_fract_y
 _atom_site_fract_z
 _atom_site_occupancy
  Na  Na0  1  0.64207229  0.00370756  0.24075675  1
  Na  Na1  1  0.37753747  0.34941513  0.24948956  1
  Na  Na2  1  0.99649191  0.65372476  0.24517911  1
  Na  Na3  1  0.65723285  0.65372476  0.74517911  1
  Na  Na4  1  0.97187767  0.34941513  0.74948956  1
  Na  Na5  1  0.36163527  0.00370756  0.74075675  1
  Na  Na6  1  0.30084952  0.33557489  0.57619943  1
  Na  Na7  1  0.03472638  0.33557489  0.07619943  1
  Na  Na8  1  0.96159311  0.65788176  0.91271723  1
  Na  Na9  1  0.71728709  0.04611875  0.91112263  1
  Na  Na10  1  0.32883066  0.04611875  0.41112263  1
  Na  Na11  1  0.69628765  0.65788176  0.41271723  1
  Na  Na12  1  0.00028600  0.01456981  0.50017561  1
  Na  Na13  1  0.01428381  0.01456981  0.00017561  1
  Na  Na14  1  0.67980802  0.33426487  0.83093542  1
  Na  Na15  1  0.65445786  0.33426487  0.33093542  1
  Na  Na16  1  0.35113316  0.69004362  0.15844357  1
  Na  Na17  1  0.33890946  0.69004362  0.65844357  1
  Mg  Mg18  1  0.01273548  0.00560726  0.34930341  1
  Mg  Mg19  1  0.99287179  0.00560726  0.84930341  1
  Mg  Mg20  1  0.98023007  0.97576610  0.65122251  1
  Mg  Mg21  1  0.99553603  0.97576610  0.15122251  1
  Mg  Mg22  1  0.67784583  0.33450027  0.68313932  1
  Mg  Mg23  1  0.65665544  0.33450027  0.18313932  1
  Mg  Mg24  1  0.66870870  0.33548542  0.98317423  1
  Mg  Mg25  1  0.66677772  0.33548542  0.48317423  1
  Mg  Mg26  1  0.33242571  0.66000784  0.01786302  1
  Mg  Mg27  1  0.32758114  0.66000784  0.51786302  1
  Nb  Nb28  1  0.34136224  0.66254528  0.31429871  1
  Nb  Nb29  1  0.32118204  0.66254528  0.81429871  1
  Si  Si30  1  0.29569785  0.00273697  0.25093239  1
  Si  Si31  1  0.71804336  0.71205877  0.25211813  1
  Si  Si32  1  0.99401541  0.71205877  0.75211813  1
  Si  Si33  1  0.70703912  0.00273697  0.75093239  1
  Si  Si34  1  0.03396364  0.36022833  0.92359352  1
  Si  Si35  1  0.32626368  0.36022833  0.42359352  1
  S  S36  1  0.00052430  0.29210191  0.24900249  1
  S  S37  1  0.29157761  0.29210191  0.74900249  1
  S  S38  1  0.96323723  0.33385148  0.58367697  1
  S  S39  1  0.37067101  0.03836246  0.58231500  1
  S  S40  1  0.66745072  0.62881063  0.58284175  1
  S  S41  1  0.96136091  0.62881063  0.08284175  1
  S  S42  1  0.66769245  0.03836246  0.08231500  1
  S  S43  1  0.37061525  0.33385148  0.08367697  1
  S  S44  1  0.62228397  0.66302798  0.91865964  1
  S  S45  1  0.33281254  0.95900791  0.91876089  1
  S  S46  1  0.62619437  0.95900791  0.41876089  1
  S  S47  1  0.04074301  0.66302798  0.41865964  1
  O  O48  1  0.22503521  0.04303469  0.31142690  1
  O  O49  1  0.81665172  0.78945757  0.31434499  1
  O  O50  1  0.97252531  0.18617849  0.30211047  1
  O  O51  1  0.21365319  0.18617849  0.80211047  1
  O  O52  1  0.97280585  0.78945757  0.81434499  1
  O  O53  1  0.81799948  0.04303469  0.81142690  1
  O  O54  1  0.78215387  0.94832992  0.69544314  1
  O  O55  1  0.18699054  0.22675423  0.69444926  1
  O  O56  1  0.06165639  0.84335027  0.69661365  1
  O  O57  1  0.78169388  0.84335027  0.19661365  1
  O  O58  1  0.03976369  0.22675423  0.19444926  1
  O  O59  1  0.16617605  0.94832992  0.19544314  1
  O  O60  1  0.88364313  0.34960808  0.63954675  1
  O  O61  1  0.47186073  0.12077282  0.63720822  1
  O  O62  1  0.64298412  0.52048118  0.63665148  1
  O  O63  1  0.87749805  0.52048118  0.13665148  1
  O  O64  1  0.64891309  0.12077282  0.13720822  1
  O  O65  1  0.46596595  0.34960808  0.13954675  1
  O  O66  1  0.45919651  0.31614947  0.03097917  1
  O  O67  1  0.86095196  0.54345601  0.02819696  1
  O  O68  1  0.68638438  0.14488975  0.02844434  1
  O  O69  1  0.45850637  0.14488975  0.52844434  1
  O  O70  1  0.68250505  0.54345601  0.52819696  1
  O  O71  1  0.85695396  0.31614947  0.53097917  1
  O  O72  1  0.53705827  0.69237649  0.96943175  1
  O  O73  1  0.14576603  0.46138747  0.98046386  1
  O  O74  1  0.31121505  0.84781514  0.96969333  1
  O  O75  1  0.53659909  0.84781514  0.46969333  1
  O  O76  1  0.31562044  0.46138747  0.48046386  1
  O  O77  1  0.15531722  0.69237649  0.46943175  1
  O  O78  1  0.12354201  0.64608352  0.36211264  1
  O  O79  1  0.51555787  0.87602702  0.36206682  1
  O  O80  1  0.34865704  0.49409858  0.36342008  1
  O  O81  1  0.14544054  0.49409858  0.86342008  1
  O  O82  1  0.36046815  0.87602702  0.86206682  1
  O  O83  1  0.52254051  0.64608352  0.86211264  1
  O  O84  1  0.01907362  0.81496375  0.41379184  1
  O  O85  1  0.79292874  0.97072294  0.41104976  1
  O  O86  1  0.15949022  0.17213970  0.41526260  1
  O  O87  1  0.01264948  0.17213970  0.91526260  1
  O  O88  1  0.17779420  0.97072294  0.91104976  1
  O  O89  1  0.79589013  0.81496375  0.91379184  1
  O  O90  1  0.98954700  0.18238312  0.58692314  1
  O  O91  1  0.20176903  0.03153355  0.58576631  1
  O  O92  1  0.82345566  0.80048104  0.58609641  1
  O  O93  1  0.97702538  0.80048104  0.08609641  1
  O  O94  1  0.82976452  0.03153355  0.08576631  1
  O  O95  1  0.19283612  0.18238312  0.08692314  1
  O  O96  1  0.66305062  0.15713106  0.74256900  1
  O  O97  1  0.46636762  0.32040946  0.74186503  1
  O  O98  1  0.83143762  0.51857191  0.74348382  1
  O  O99  1  0.68713529  0.51857191  0.24348382  1
  O  O100  1  0.85404284  0.32040946  0.24186503  1
  O  O101  1  0.49408144  0.15713106  0.24256900  1
  O  O102  1  0.63586271  0.50610265  0.92343706  1
  O  O103  1  0.84815329  0.35583787  0.91936353  1
  O  O104  1  0.49040525  0.12825785  0.92147879  1
  O  O105  1  0.63785360  0.12825785  0.42147879  1
  O  O106  1  0.50768558  0.35583787  0.41936353  1
  O  O107  1  0.87024094  0.50610265  0.42343706  1
  O  O108  1  0.35395035  0.49174609  0.08008541  1
  O  O109  1  0.13484499  0.64495350  0.07986356  1
  O  O110  1  0.51514778  0.86409671  0.07696792  1
  O  O111  1  0.34894793  0.86409671  0.57696792  1
  O  O112  1  0.51010751  0.64495350  0.57986356  1
  O  O113  1  0.13779474  0.49174609  0.58008541  1
  O  O114  1  0.31151737  0.82197980  0.26213450  1
  O  O115  1  0.51060297  0.67893082  0.26064346  1
  O  O116  1  0.15831910  0.47207472  0.25735974  1
  O  O117  1  0.31375463  0.47207472  0.75735974  1
  O  O118  1  0.16832685  0.67893082  0.76064346  1
  O  O119  1  0.51046142  0.82197980  0.76213450  1
