# generated using pymatgen
data_Na2Zn2SiSn2S5O24
_symmetry_space_group_name_H-M   'P 1'
_cell_length_a   8.76473627
_cell_length_b   8.76773257
_cell_length_c   22.86573842
_cell_angle_alpha   89.77594453
_cell_angle_beta   89.59821182
_cell_angle_gamma   120.04943722
_symmetry_Int_Tables_number   1
_chemical_formula_structural   Na2Zn2SiSn2S5O24
_chemical_formula_sum   'Na6 Zn6 Si3 Sn6 S15 O72'
_cell_volume   1520.89348907
_cell_formula_units_Z   3
loop_
 _symmetry_equiv_pos_site_id
 _symmetry_equiv_pos_as_xyz
  1  'x, y, z'
loop_
 _atom_site_type_symbol
 _atom_site_label
 _atom_site_symmetry_multiplicity
 _atom_site_fract_x
 _atom_site_fract_y
 _atom_site_fract_z
 _atom_site_occupancy
  Na  Na0  1  0.99926098  0.99960718  0.49690816  1
  Na  Na1  1  0.99620880  0.98584981  0.99595434  1
  Na  Na2  1  0.66944682  0.31991309  0.82146336  1
  Na  Na3  1  0.65111200  0.32066507  0.34043590  1
  Na  Na4  1  0.31436339  0.67450463  0.16346583  1
  Na  Na5  1  0.34698811  0.67720452  0.66249551  1
  Zn  Zn6  1  0.01962305  0.00499900  0.35290857  1
  Zn  Zn7  1  0.98785615  0.00108536  0.84393821  1
  Zn  Zn8  1  0.66757903  0.31777441  0.68266603  1
  Zn  Zn9  1  0.66557125  0.33232398  0.48676465  1
  Zn  Zn10  1  0.31421509  0.66514960  0.01970895  1
  Zn  Zn11  1  0.33679851  0.66901129  0.51847948  1
  Si  Si12  1  0.29771995  0.00126591  0.25237689  1
  Si  Si13  1  0.70742323  0.00816593  0.75221428  1
  Si  Si14  1  0.96152062  0.62692450  0.08366025  1
  Sn  Sn15  1  0.99062939  0.99645952  0.64956160  1
  Sn  Sn16  1  0.00634966  0.98662425  0.15011081  1
  Sn  Sn17  1  0.66852712  0.33255553  0.18630874  1
  Sn  Sn18  1  0.67360739  0.34038345  0.98116016  1
  Sn  Sn19  1  0.33099236  0.67455655  0.31878778  1
  Sn  Sn20  1  0.34087223  0.67369116  0.81346237  1
  S  S21  1  0.70347353  0.70694930  0.25230433  1
  S  S22  1  0.00225320  0.28887886  0.25075240  1
  S  S23  1  0.29426312  0.29327178  0.75133683  1
  S  S24  1  0.99920990  0.70604999  0.75185772  1
  S  S25  1  0.96550605  0.33627080  0.58239822  1
  S  S26  1  0.36728267  0.03669869  0.58381350  1
  S  S27  1  0.66708735  0.62407970  0.58403639  1
  S  S28  1  0.67058834  0.03819686  0.08374256  1
  S  S29  1  0.37241266  0.33453935  0.08264277  1
  S  S30  1  0.62289664  0.66447734  0.91960763  1
  S  S31  1  0.04334967  0.37274975  0.91701633  1
  S  S32  1  0.33389299  0.96619295  0.91863539  1
  S  S33  1  0.63384815  0.96503529  0.41792941  1
  S  S34  1  0.33417189  0.37690164  0.41769315  1
  S  S35  1  0.03247821  0.66191811  0.41966146  1
  O  O36  1  0.21522622  0.03603639  0.30855707  1
  O  O37  1  0.80914915  0.79192478  0.30305351  1
  O  O38  1  0.97104583  0.17972136  0.30215549  1
  O  O39  1  0.21804687  0.18630130  0.80442959  1
  O  O40  1  0.98586520  0.79046355  0.80532394  1
  O  O41  1  0.81159662  0.03068920  0.81154094  1
  O  O42  1  0.78458797  0.96083592  0.69257933  1
  O  O43  1  0.18549908  0.21305016  0.69772721  1
  O  O44  1  0.04399245  0.82148589  0.69810828  1
  O  O45  1  0.77288314  0.81392227  0.19642121  1
  O  O46  1  0.02354051  0.20990394  0.19480955  1
  O  O47  1  0.18884874  0.96404802  0.19044809  1
  O  O48  1  0.88472262  0.35576210  0.63602505  1
  O  O49  1  0.46776098  0.11777870  0.63660446  1
  O  O50  1  0.64944454  0.52237875  0.63726333  1
  O  O51  1  0.86851653  0.50725737  0.14238985  1
  O  O52  1  0.63385326  0.11621922  0.13588154  1
  O  O53  1  0.47520828  0.35131517  0.13594290  1
  O  O54  1  0.44645501  0.29062535  0.02995527  1
  O  O55  1  0.83829698  0.54425496  0.02522934  1
  O  O56  1  0.69992459  0.14816837  0.02970965  1
  O  O57  1  0.44211852  0.14272519  0.52984770  1
  O  O58  1  0.69242205  0.54716850  0.53001854  1
  O  O59  1  0.85831027  0.30610158  0.52964844  1
  O  O60  1  0.53324984  0.67955852  0.97144476  1
  O  O61  1  0.14318781  0.46000949  0.96916050  1
  O  O62  1  0.31457681  0.86310875  0.97133257  1
  O  O63  1  0.54496085  0.85168966  0.46863786  1
  O  O64  1  0.31543303  0.46892282  0.46766830  1
  O  O65  1  0.14799543  0.68606061  0.46856108  1
  O  O66  1  0.10725437  0.63081389  0.36231549  1
  O  O67  1  0.52552799  0.88862675  0.36191948  1
  O  O68  1  0.36362310  0.48440321  0.36032575  1
  O  O69  1  0.12261896  0.48439392  0.86263071  1
  O  O70  1  0.36796837  0.89000674  0.86478620  1
  O  O71  1  0.51747607  0.63718441  0.86506487  1
  O  O72  1  0.01549137  0.82028141  0.41337081  1
  O  O73  1  0.80751293  0.97929488  0.40965808  1
  O  O74  1  0.17123345  0.20496245  0.41291631  1
  O  O75  1  0.02656253  0.19920083  0.91215624  1
  O  O76  1  0.18130863  0.98953771  0.91131189  1
  O  O77  1  0.80188827  0.81511358  0.91407143  1
  O  O78  1  0.98601050  0.17215969  0.58642350  1
  O  O79  1  0.18377262  0.01966627  0.58929468  1
  O  O80  1  0.83583892  0.80627995  0.58639635  1
  O  O81  1  0.96691742  0.81851366  0.08652219  1
  O  O82  1  0.84014233  0.03905748  0.09101374  1
  O  O83  1  0.18994348  0.17969536  0.08830972  1
  O  O84  1  0.68209423  0.17575825  0.74398845  1
  O  O85  1  0.47368485  0.32801561  0.74288997  1
  O  O86  1  0.83955144  0.53720409  0.74388308  1
  O  O87  1  0.69126008  0.53192196  0.24528834  1
  O  O88  1  0.84769612  0.31635735  0.24525530  1
  O  O89  1  0.49694500  0.17736657  0.24401810  1
  O  O90  1  0.63148863  0.49423908  0.92069037  1
  O  O91  1  0.86023363  0.35371406  0.91923289  1
  O  O92  1  0.50210962  0.14764276  0.92255879  1
  O  O93  1  0.64933091  0.14052207  0.42252011  1
  O  O94  1  0.49226531  0.35814936  0.42033253  1
  O  O95  1  0.85688711  0.50182549  0.42408793  1
  O  O96  1  0.36703045  0.49608060  0.07535764  1
  O  O97  1  0.15337519  0.64754713  0.08029352  1
  O  O98  1  0.52235063  0.86083937  0.07721674  1
  O  O99  1  0.34209251  0.85757525  0.57828851  1
  O  O100  1  0.51432220  0.65226156  0.57963647  1
  O  O101  1  0.14432722  0.49148031  0.57671457  1
  O  O102  1  0.32010201  0.82421945  0.25590620  1
  O  O103  1  0.51997016  0.67527307  0.25647982  1
  O  O104  1  0.16500136  0.46601819  0.25433208  1
  O  O105  1  0.29614433  0.46714214  0.75616341  1
  O  O106  1  0.15658335  0.67839776  0.75593695  1
  O  O107  1  0.50796367  0.82284332  0.75370549  1
