# generated using pymatgen
data_Na4Ta3InSi5SO24
_symmetry_space_group_name_H-M   'P 1'
_cell_length_a   9.00047493
_cell_length_b   8.98710937
_cell_length_c   22.88351117
_cell_angle_alpha   90.01466872
_cell_angle_beta   90.28568356
_cell_angle_gamma   119.86331606
_symmetry_Int_Tables_number   1
_chemical_formula_structural   Na4Ta3InSi5SO24
_chemical_formula_sum   'Na12 Ta9 In3 Si15 S3 O72'
_cell_volume   1605.19462981
_cell_formula_units_Z   3
loop_
 _symmetry_equiv_pos_site_id
 _symmetry_equiv_pos_as_xyz
  1  'x, y, z'
loop_
 _atom_site_type_symbol
 _atom_site_label
 _atom_site_symmetry_multiplicity
 _atom_site_fract_x
 _atom_site_fract_y
 _atom_site_fract_z
 _atom_site_occupancy
  Na  Na0  1  0.63412735  0.62654372  0.74725046  1
  Na  Na1  1  0.99335318  0.36350329  0.75007029  1
  Na  Na2  1  0.37430699  0.00789388  0.74751211  1
  Na  Na3  1  0.66201263  0.68944513  0.08335800  1
  Na  Na4  1  0.02710407  0.34027040  0.08372107  1
  Na  Na5  1  0.32632013  0.02924064  0.41748666  1
  Na  Na6  1  0.99283668  0.99684107  0.49620210  1
  Na  Na7  1  0.00546233  0.99757076  0.99577515  1
  Na  Na8  1  0.66606595  0.33282640  0.83384708  1
  Na  Na9  1  0.68301400  0.33671346  0.33091977  1
  Na  Na10  1  0.33030107  0.67052607  0.16714392  1
  Na  Na11  1  0.34000921  0.67152958  0.66313166  1
  Ta  Ta12  1  0.99900163  0.00080641  0.85610220  1
  Ta  Ta13  1  0.00188330  0.99098187  0.64555015  1
  Ta  Ta14  1  0.00736574  0.01260032  0.14396255  1
  Ta  Ta15  1  0.66697936  0.33433271  0.97767307  1
  Ta  Ta16  1  0.66035748  0.34041983  0.47737917  1
  Ta  Ta17  1  0.33270496  0.66986143  0.01775142  1
  Ta  Ta18  1  0.34468123  0.67822078  0.51839014  1
  Ta  Ta19  1  0.32266303  0.65502901  0.31653045  1
  Ta  Ta20  1  0.33437029  0.66677448  0.81525948  1
  In  In21  1  0.99131133  0.00529273  0.35657441  1
  In  In22  1  0.65703570  0.33007937  0.68368471  1
  In  In23  1  0.67492722  0.33291258  0.18187965  1
  Si  Si24  1  0.99733800  0.29581852  0.25126841  1
  Si  Si25  1  0.28362124  0.28633706  0.75079004  1
  Si  Si26  1  0.00136012  0.71161405  0.75168336  1
  Si  Si27  1  0.71365083  0.99899884  0.74985441  1
  Si  Si28  1  0.37457471  0.04141719  0.58314615  1
  Si  Si29  1  0.66525841  0.62635711  0.58407695  1
  Si  Si30  1  0.96024121  0.62653964  0.08261058  1
  Si  Si31  1  0.65906789  0.04124065  0.08279951  1
  Si  Si32  1  0.38251338  0.33442069  0.08315544  1
  Si  Si33  1  0.62449970  0.66669081  0.91714619  1
  Si  Si34  1  0.04240825  0.37699731  0.91676909  1
  Si  Si35  1  0.33405892  0.95878055  0.91623241  1
  Si  Si36  1  0.62424808  0.95749827  0.41546695  1
  Si  Si37  1  0.33098861  0.37957224  0.41871511  1
  Si  Si38  1  0.04062428  0.66193435  0.41812637  1
  S  S39  1  0.29000769  0.99846226  0.25077081  1
  S  S40  1  0.70783265  0.71005331  0.24992661  1
  S  S41  1  0.96037959  0.33413643  0.58242974  1
  O  O42  1  0.21324175  0.01898657  0.30390385  1
  O  O43  1  0.81305872  0.78583555  0.30187402  1
  O  O44  1  0.97380352  0.17792898  0.30565159  1
  O  O45  1  0.18753402  0.16227824  0.80658913  1
  O  O46  1  0.97090286  0.80783050  0.80653837  1
  O  O47  1  0.83575859  0.02655063  0.80667564  1
  O  O48  1  0.80493456  0.96392108  0.69332322  1
  O  O49  1  0.15762738  0.19673690  0.69358642  1
  O  O50  1  0.03773522  0.83786763  0.69388893  1
  O  O51  1  0.79287402  0.81738388  0.19581572  1
  O  O52  1  0.02699858  0.19608875  0.19168747  1
  O  O53  1  0.17667892  0.97279627  0.19758369  1
  O  O54  1  0.89364959  0.36555010  0.63744054  1
  O  O55  1  0.48143022  0.10414022  0.64350537  1
  O  O56  1  0.63206434  0.52363519  0.64455554  1
  O  O57  1  0.89449842  0.50989547  0.13947746  1
  O  O58  1  0.62090527  0.10691596  0.14179549  1
  O  O59  1  0.49603495  0.38373756  0.14133219  1
  O  O60  1  0.47109069  0.30154055  0.02611228  1
  O  O61  1  0.83040029  0.53552906  0.02637036  1
  O  O62  1  0.70716753  0.17093103  0.02681460  1
  O  O63  1  0.47265954  0.16457156  0.52586532  1
  O  O64  1  0.69547382  0.52719400  0.52789868  1
  O  O65  1  0.84739259  0.30727667  0.53148311  1
  O  O66  1  0.53172926  0.69343357  0.97422746  1
  O  O67  1  0.16279793  0.46765771  0.97423095  1
  O  O68  1  0.30607634  0.83365201  0.97203496  1
  O  O69  1  0.52277328  0.83708769  0.47232306  1
  O  O70  1  0.30899576  0.47775575  0.47404064  1
  O  O71  1  0.16766530  0.69196570  0.47312845  1
  O  O72  1  0.13612501  0.63172213  0.35988429  1
  O  O73  1  0.49159470  0.86332605  0.35926430  1
  O  O74  1  0.36583388  0.50312372  0.36035933  1
  O  O75  1  0.13631825  0.49794879  0.85871689  1
  O  O76  1  0.36138502  0.86495960  0.85818265  1
  O  O77  1  0.50294191  0.63860947  0.85885916  1
  O  O78  1  0.03608033  0.83643651  0.41013307  1
  O  O79  1  0.80566490  0.96911459  0.41663203  1
  O  O80  1  0.18004650  0.18540822  0.41458774  1
  O  O81  1  0.02537547  0.18886980  0.90896069  1
  O  O82  1  0.16288690  0.97476430  0.90892309  1
  O  O83  1  0.81173589  0.83686576  0.90900960  1
  O  O84  1  0.97491920  0.17620808  0.58799529  1
  O  O85  1  0.18418115  0.02751335  0.59006305  1
  O  O86  1  0.83748022  0.81983119  0.58982510  1
  O  O87  1  0.97250189  0.81496210  0.09288517  1
  O  O88  1  0.83597882  0.01872723  0.09228032  1
  O  O89  1  0.18486814  0.16382663  0.09117775  1
  O  O90  1  0.69582117  0.16922439  0.74703199  1
  O  O91  1  0.47307933  0.30835501  0.74985387  1
  O  O92  1  0.83668877  0.52232235  0.74630270  1
  O  O93  1  0.68224002  0.53604787  0.24397610  1
  O  O94  1  0.83260836  0.32093728  0.24690303  1
  O  O95  1  0.45960123  0.15175679  0.24409368  1
  O  O96  1  0.64055645  0.49477568  0.92430598  1
  O  O97  1  0.85472876  0.35999813  0.92462228  1
  O  O98  1  0.50538737  0.14528303  0.92477413  1
  O  O99  1  0.62923531  0.14179957  0.42604587  1
  O  O100  1  0.50807626  0.36460599  0.42434342  1
  O  O101  1  0.85544929  0.48769498  0.42637958  1
  O  O102  1  0.34761516  0.49662553  0.07283514  1
  O  O103  1  0.14974847  0.64635320  0.07177375  1
  O  O104  1  0.50519091  0.84305646  0.07270511  1
  O  O105  1  0.34334128  0.84636809  0.57326904  1
  O  O106  1  0.49568357  0.64652931  0.57348165  1
  O  O107  1  0.13316029  0.48637749  0.57458384  1
  O  O108  1  0.30491699  0.83910493  0.25372021  1
  O  O109  1  0.53678293  0.70165889  0.25443089  1
  O  O110  1  0.18087421  0.48756775  0.25576940  1
  O  O111  1  0.30015403  0.47778658  0.75761651  1
  O  O112  1  0.17741280  0.69890657  0.75729622  1
  O  O113  1  0.52287415  0.82481962  0.75760078  1
