# generated using pymatgen
data_Hf(Se2Cl3)2
_symmetry_space_group_name_H-M   'P 1'
_cell_length_a   10.99167943
_cell_length_b   10.99167943
_cell_length_c   10.63295212
_cell_angle_alpha   90.00000000
_cell_angle_beta   90.00000000
_cell_angle_gamma   90.00000000
_symmetry_Int_Tables_number   1
_chemical_formula_structural   Hf(Se2Cl3)2
_chemical_formula_sum   'Hf4 Se16 Cl24'
_cell_volume   1284.64155377
_cell_formula_units_Z   4
loop_
 _symmetry_equiv_pos_site_id
 _symmetry_equiv_pos_as_xyz
  1  'x, y, z'
loop_
 _atom_site_type_symbol
 _atom_site_label
 _atom_site_symmetry_multiplicity
 _atom_site_fract_x
 _atom_site_fract_y
 _atom_site_fract_z
 _atom_site_occupancy
  Hf  Hf0  1  0.75000000  0.25000000  0.75000000  1
  Hf  Hf1  1  0.25000000  0.25000000  0.25000000  1
  Hf  Hf2  1  0.75000000  0.75000000  0.25000000  1
  Hf  Hf3  1  0.25000000  0.75000000  0.75000000  1
  Se  Se4  1  0.85467739  0.14532261  0.25000000  1
  Se  Se5  1  0.35467739  0.35467739  0.75000000  1
  Se  Se6  1  0.64532261  0.64532261  0.75000000  1
  Se  Se7  1  0.14532261  0.85467739  0.25000000  1
  Se  Se8  1  0.64532261  0.35467739  0.25000000  1
  Se  Se9  1  0.14532261  0.14532261  0.75000000  1
  Se  Se10  1  0.85467739  0.85467739  0.75000000  1
  Se  Se11  1  0.35467739  0.64532261  0.25000000  1
  Se  Se12  1  0.15921588  0.65921588  0.17152918  1
  Se  Se13  1  0.84078412  0.34078412  0.17152918  1
  Se  Se14  1  0.15921588  0.34078412  0.67152918  1
  Se  Se15  1  0.84078412  0.65921588  0.67152918  1
  Se  Se16  1  0.65921588  0.15921588  0.32847082  1
  Se  Se17  1  0.34078412  0.15921588  0.82847082  1
  Se  Se18  1  0.65921588  0.84078412  0.82847082  1
  Se  Se19  1  0.34078412  0.84078412  0.32847082  1
  Cl  Cl20  1  0.41702752  0.69395145  0.89396310  1
  Cl  Cl21  1  0.58297248  0.30604855  0.89396310  1
  Cl  Cl22  1  0.19395145  0.08297248  0.39396310  1
  Cl  Cl23  1  0.80604855  0.91702752  0.39396310  1
  Cl  Cl24  1  0.69395145  0.41702752  0.60603690  1
  Cl  Cl25  1  0.08297248  0.19395145  0.10603690  1
  Cl  Cl26  1  0.91702752  0.80604855  0.10603690  1
  Cl  Cl27  1  0.30604855  0.58297248  0.60603690  1
  Cl  Cl28  1  0.08297248  0.80604855  0.60603690  1
  Cl  Cl29  1  0.91702752  0.19395145  0.60603690  1
  Cl  Cl30  1  0.30604855  0.41702752  0.10603690  1
  Cl  Cl31  1  0.69395145  0.58297248  0.10603690  1
  Cl  Cl32  1  0.80604855  0.08297248  0.89396310  1
  Cl  Cl33  1  0.41702752  0.30604855  0.39396310  1
  Cl  Cl34  1  0.58297248  0.69395145  0.39396310  1
  Cl  Cl35  1  0.19395145  0.91702752  0.89396310  1
  Cl  Cl36  1  0.11552195  0.61552195  0.86340992  1
  Cl  Cl37  1  0.88447805  0.38447805  0.86340992  1
  Cl  Cl38  1  0.11552195  0.38447805  0.36340992  1
  Cl  Cl39  1  0.88447805  0.61552195  0.36340992  1
  Cl  Cl40  1  0.38447805  0.88447805  0.63659008  1
  Cl  Cl41  1  0.61552195  0.88447805  0.13659008  1
  Cl  Cl42  1  0.38447805  0.11552195  0.13659008  1
  Cl  Cl43  1  0.61552195  0.11552195  0.63659008  1
