# generated using pymatgen
data_Na6Sc2Al2Si3(SO8)3
_symmetry_space_group_name_H-M   'P 1'
_cell_length_a   8.97749380
_cell_length_b   8.85454770
_cell_length_c   22.13867088
_cell_angle_alpha   91.03097833
_cell_angle_beta   89.74524276
_cell_angle_gamma   119.99978747
_symmetry_Int_Tables_number   1
_chemical_formula_structural   Na6Sc2Al2Si3(SO8)3
_chemical_formula_sum   'Na18 Sc6 Al6 Si9 S9 O72'
_cell_volume   1523.80113533
_cell_formula_units_Z   3
loop_
 _symmetry_equiv_pos_site_id
 _symmetry_equiv_pos_as_xyz
  1  'x, y, z'
loop_
 _atom_site_type_symbol
 _atom_site_label
 _atom_site_symmetry_multiplicity
 _atom_site_fract_x
 _atom_site_fract_y
 _atom_site_fract_z
 _atom_site_occupancy
  Na  Na0  1  0.63792981  0.00426155  0.26351945  1
  Na  Na1  1  0.34857939  0.35622755  0.25625202  1
  Na  Na2  1  0.64305805  0.64726701  0.73331585  1
  Na  Na3  1  0.98671277  0.36180373  0.74289992  1
  Na  Na4  1  0.02710977  0.68696002  0.59228895  1
  Na  Na5  1  0.67509608  0.96365521  0.58184554  1
  Na  Na6  1  0.31179652  0.97013343  0.09896040  1
  Na  Na7  1  0.02342351  0.32622950  0.08355456  1
  Na  Na8  1  0.97162669  0.65396002  0.89550337  1
  Na  Na9  1  0.70503131  0.03905539  0.90848898  1
  Na  Na10  1  0.96138596  0.29409773  0.42282822  1
  Na  Na11  1  0.34272910  0.02919743  0.41396000  1
  Na  Na12  1  0.97261524  0.98871320  0.50315796  1
  Na  Na13  1  0.98826554  0.00921249  0.00057012  1
  Na  Na14  1  0.65932761  0.32090736  0.82055350  1
  Na  Na15  1  0.67994166  0.34671181  0.33817470  1
  Na  Na16  1  0.32602578  0.67312992  0.17624866  1
  Na  Na17  1  0.33257916  0.66270995  0.66331142  1
  Sc  Sc18  1  0.99508493  0.01423568  0.84371101  1
  Sc  Sc19  1  0.00190775  0.01246640  0.15556194  1
  Sc  Sc20  1  0.67892731  0.32778615  0.98192440  1
  Sc  Sc21  1  0.33765146  0.66180953  0.02104763  1
  Sc  Sc22  1  0.35391966  0.66055806  0.52265786  1
  Sc  Sc23  1  0.31765584  0.66897187  0.80518267  1
  Al  Al24  1  0.99161377  0.01261389  0.34624845  1
  Al  Al25  1  0.96655641  0.97791299  0.64540945  1
  Al  Al26  1  0.69231882  0.34861726  0.68288557  1
  Al  Al27  1  0.66266843  0.30735647  0.19627664  1
  Al  Al28  1  0.67785843  0.30864288  0.49259739  1
  Al  Al29  1  0.32014867  0.69065502  0.31569812  1
  Si  Si30  1  0.28848121  0.00044315  0.25194826  1
  Si  Si31  1  0.00723157  0.31494197  0.25273976  1
  Si  Si32  1  0.99419437  0.71122179  0.74445846  1
  Si  Si33  1  0.69692666  0.00785152  0.74434472  1
  Si  Si34  1  0.96586066  0.32384829  0.58536430  1
  Si  Si35  1  0.67118056  0.60601592  0.58338729  1
  Si  Si36  1  0.66561154  0.03442363  0.08787444  1
  Si  Si37  1  0.04094740  0.36812302  0.91852541  1
  Si  Si38  1  0.63241672  0.95899152  0.41557565  1
  S  S39  1  0.70767818  0.70143339  0.25151857  1
  S  S40  1  0.29463345  0.28346332  0.74516903  1
  S  S41  1  0.38038992  0.05470191  0.58215315  1
  S  S42  1  0.95309567  0.62677003  0.08644764  1
  S  S43  1  0.38388491  0.33721140  0.08839910  1
  S  S44  1  0.62785024  0.66368606  0.91493355  1
  S  S45  1  0.32908278  0.96259314  0.91975303  1
  S  S46  1  0.33049393  0.36814473  0.41110696  1
  S  S47  1  0.04013499  0.67505531  0.41547892  1
  O  O48  1  0.18078124  0.02738575  0.30677940  1
  O  O49  1  0.81707598  0.78581482  0.30531357  1
  O  O50  1  0.96241788  0.16992390  0.30529065  1
  O  O51  1  0.21786923  0.19266610  0.80341157  1
  O  O52  1  0.97702883  0.79742758  0.80886030  1
  O  O53  1  0.81534625  0.05394808  0.80709721  1
  O  O54  1  0.79533610  0.97042831  0.68923688  1
  O  O55  1  0.18038142  0.19592450  0.69397959  1
  O  O56  1  0.01556523  0.83391540  0.68783583  1
  O  O57  1  0.78496155  0.81295234  0.19751316  1
  O  O58  1  0.05477502  0.24320424  0.18998801  1
  O  O59  1  0.18729500  0.97408251  0.18806367  1
  O  O60  1  0.87274268  0.36278048  0.64219782  1
  O  O61  1  0.49615278  0.14759382  0.63310332  1
  O  O62  1  0.64840951  0.50180453  0.64538701  1
  O  O63  1  0.85186520  0.51677533  0.13677397  1
  O  O64  1  0.64159363  0.14188513  0.14472613  1
  O  O65  1  0.47788051  0.34818920  0.14436110  1
  O  O66  1  0.47700951  0.33263838  0.03398711  1
  O  O67  1  0.86718390  0.54987337  0.02733215  1
  O  O68  1  0.68789721  0.14273267  0.02487772  1
  O  O69  1  0.46134867  0.14178530  0.52319157  1
  O  O70  1  0.69071784  0.49700065  0.52610321  1
  O  O71  1  0.84311532  0.27769588  0.52382307  1
  O  O72  1  0.53980222  0.68662719  0.96929640  1
  O  O73  1  0.14011865  0.46059745  0.98271441  1
  O  O74  1  0.31787284  0.86525521  0.97585414  1
  O  O75  1  0.54964913  0.85315953  0.47735729  1
  O  O76  1  0.30093491  0.44986066  0.46562133  1
  O  O77  1  0.14299695  0.70321424  0.47102022  1
  O  O78  1  0.13112250  0.64572767  0.36288312  1
  O  O79  1  0.49640447  0.86151834  0.35855777  1
  O  O80  1  0.35009741  0.47371099  0.35751287  1
  O  O81  1  0.13775680  0.49281559  0.86142053  1
  O  O82  1  0.35929999  0.87775125  0.86672094  1
  O  O83  1  0.53496916  0.65391070  0.85969108  1
  O  O84  1  0.02610896  0.83204814  0.40619810  1
  O  O85  1  0.82781183  0.98944989  0.40376919  1
  O  O86  1  0.16820005  0.19012256  0.40730244  1
  O  O87  1  0.01019533  0.17068745  0.91661293  1
  O  O88  1  0.16832223  0.96751195  0.91527800  1
  O  O89  1  0.80401121  0.82141522  0.91555213  1
  O  O90  1  0.98127360  0.14845085  0.59356742  1
  O  O91  1  0.21048869  0.03831915  0.58506674  1
  O  O92  1  0.84690434  0.80445238  0.58527268  1
  O  O93  1  0.98340256  0.80665447  0.08871853  1
  O  O94  1  0.84205050  0.02380532  0.09088523  1
  O  O95  1  0.21046307  0.17353196  0.08568985  1
  O  O96  1  0.67536157  0.17708569  0.73487798  1
  O  O97  1  0.46667925  0.30541524  0.74111017  1
  O  O98  1  0.81856803  0.51703019  0.74368992  1
  O  O99  1  0.68779324  0.52545060  0.24299093  1
  O  O100  1  0.83079730  0.32577525  0.24515256  1
  O  O101  1  0.48300566  0.18267381  0.24898877  1
  O  O102  1  0.64526185  0.50693333  0.92033101  1
  O  O103  1  0.84657810  0.35206902  0.91767758  1
  O  O104  1  0.48139361  0.14150702  0.92256573  1
  O  O105  1  0.64966951  0.16009489  0.42369770  1
  O  O106  1  0.47978654  0.34259787  0.41659069  1
  O  O107  1  0.86981522  0.51219624  0.41775017  1
  O  O108  1  0.35404411  0.48899015  0.08753898  1
  O  O109  1  0.12644785  0.63670985  0.08765649  1
  O  O110  1  0.48482640  0.84618633  0.08474106  1
  O  O111  1  0.35994402  0.87389218  0.58031943  1
  O  O112  1  0.51143243  0.64803316  0.58104321  1
  O  O113  1  0.14740804  0.50634049  0.57590187  1
  O  O114  1  0.32817117  0.84033088  0.25936465  1
  O  O115  1  0.53311987  0.68024084  0.25828423  1
  O  O116  1  0.18419769  0.50111890  0.26564284  1
  O  O117  1  0.31341700  0.46379436  0.74942471  1
  O  O118  1  0.15558112  0.67247934  0.74583550  1
  O  O119  1  0.51675234  0.82454836  0.75321347  1
