# generated using pymatgen
data_Na2Hf2Ti2Si3(SO8)3
_symmetry_space_group_name_H-M   'P 1'
_cell_length_a   8.86382738
_cell_length_b   8.83307350
_cell_length_c   22.90471686
_cell_angle_alpha   90.71203320
_cell_angle_beta   90.58521218
_cell_angle_gamma   119.96995986
_symmetry_Int_Tables_number   1
_chemical_formula_structural   Na2Hf2Ti2Si3(SO8)3
_chemical_formula_sum   'Na6 Hf6 Ti6 Si9 S9 O72'
_cell_volume   1553.13241629
_cell_formula_units_Z   3
loop_
 _symmetry_equiv_pos_site_id
 _symmetry_equiv_pos_as_xyz
  1  'x, y, z'
loop_
 _atom_site_type_symbol
 _atom_site_label
 _atom_site_symmetry_multiplicity
 _atom_site_fract_x
 _atom_site_fract_y
 _atom_site_fract_z
 _atom_site_occupancy
  Na  Na0  1  0.98512895  0.98190065  0.49928724  1
  Na  Na1  1  0.00897216  0.98077193  0.00432723  1
  Na  Na2  1  0.64514743  0.30437927  0.82374006  1
  Na  Na3  1  0.66697121  0.31396004  0.33777434  1
  Na  Na4  1  0.31008944  0.65589071  0.17827956  1
  Na  Na5  1  0.34599980  0.65974553  0.65875185  1
  Hf  Hf6  1  0.00417336  0.00437489  0.35879337  1
  Hf  Hf7  1  0.01253743  0.00905987  0.84881004  1
  Hf  Hf8  1  0.68254387  0.33712032  0.19228008  1
  Hf  Hf9  1  0.66541768  0.33710808  0.98030107  1
  Hf  Hf10  1  0.32022812  0.67617489  0.02276241  1
  Hf  Hf11  1  0.34709782  0.68291494  0.80499347  1
  Ti  Ti12  1  0.98099395  0.00366276  0.64411373  1
  Ti  Ti13  1  0.01223233  0.99458869  0.15432040  1
  Ti  Ti14  1  0.64611210  0.32857379  0.68541567  1
  Ti  Ti15  1  0.68459168  0.34841534  0.47582888  1
  Ti  Ti16  1  0.35499113  0.68415868  0.51766009  1
  Ti  Ti17  1  0.31203428  0.67706028  0.31429507  1
  Si  Si18  1  0.29290965  0.00208307  0.25355730  1
  Si  Si19  1  0.01694963  0.29170623  0.25212349  1
  Si  Si20  1  0.28465642  0.28474076  0.74537919  1
  Si  Si21  1  0.71728029  0.01596790  0.74724557  1
  Si  Si22  1  0.66564896  0.61835290  0.58261112  1
  Si  Si23  1  0.95530912  0.63706547  0.08511605  1
  Si  Si24  1  0.32924307  0.96179564  0.91588703  1
  Si  Si25  1  0.61616035  0.95690431  0.41676312  1
  Si  Si26  1  0.05216876  0.66855493  0.42042135  1
  S  S27  1  0.71069303  0.71765483  0.24935585  1
  S  S28  1  0.99278869  0.70657434  0.74639305  1
  S  S29  1  0.95250708  0.33470839  0.58382821  1
  S  S30  1  0.37524334  0.04384927  0.58222891  1
  S  S31  1  0.67426234  0.04499961  0.08311105  1
  S  S32  1  0.37240229  0.33036554  0.08365907  1
  S  S33  1  0.62110875  0.66747751  0.91701585  1
  S  S34  1  0.04268445  0.37669166  0.91599741  1
  S  S35  1  0.34318752  0.38873317  0.41838295  1
  O  O36  1  0.19886116  0.02342363  0.30952876  1
  O  O37  1  0.81645051  0.79299962  0.30289307  1
  O  O38  1  0.97738870  0.17112638  0.30840334  1
  O  O39  1  0.21091817  0.17060113  0.80505234  1
  O  O40  1  0.97142840  0.78770206  0.80168764  1
  O  O41  1  0.82760082  0.03415707  0.80693541  1
  O  O42  1  0.80833795  0.97976777  0.69013321  1
  O  O43  1  0.16218317  0.17700335  0.68947622  1
  O  O44  1  0.01990196  0.81518295  0.69584498  1
  O  O45  1  0.80030217  0.82137320  0.19648563  1
  O  O46  1  0.02599093  0.18582426  0.19228499  1
  O  O47  1  0.16799044  0.96567249  0.19335605  1
  O  O48  1  0.86607276  0.35210917  0.63575367  1
  O  O49  1  0.48215010  0.12475975  0.63740135  1
  O  O50  1  0.64236030  0.49433694  0.63948283  1
  O  O51  1  0.85657862  0.51202771  0.13906055  1
  O  O52  1  0.64098204  0.12210468  0.13516594  1
  O  O53  1  0.47892154  0.35389423  0.13567738  1
  O  O54  1  0.45679825  0.30552830  0.03016697  1
  O  O55  1  0.84448232  0.54233735  0.02471653  1
  O  O56  1  0.68305130  0.14738673  0.03029016  1
  O  O57  1  0.46108618  0.14862694  0.53141796  1
  O  O58  1  0.69029656  0.51703628  0.52581578  1
  O  O59  1  0.84713298  0.30677441  0.52956629  1
  O  O60  1  0.53491368  0.68197933  0.96990954  1
  O  O61  1  0.14882203  0.45972682  0.97026896  1
  O  O62  1  0.31444182  0.84749299  0.97406290  1
  O  O63  1  0.52882158  0.83731430  0.47594298  1
  O  O64  1  0.32485664  0.47276452  0.47208777  1
  O  O65  1  0.17201315  0.68001744  0.47682314  1
  O  O66  1  0.12940729  0.63493467  0.35911480  1
  O  O67  1  0.49143337  0.85406525  0.35988120  1
  O  O68  1  0.36229083  0.48659127  0.36529023  1
  O  O69  1  0.12459363  0.47739044  0.86430310  1
  O  O70  1  0.34742801  0.86027719  0.85915755  1
  O  O71  1  0.51442664  0.64110997  0.86355359  1
  O  O72  1  0.03162256  0.83958244  0.41700086  1
  O  O73  1  0.80930477  0.98097293  0.41256114  1
  O  O74  1  0.18299916  0.21183502  0.41599049  1
  O  O75  1  0.01975135  0.19854354  0.91315090  1
  O  O76  1  0.15335257  0.97740027  0.91400581  1
  O  O77  1  0.79488909  0.82419896  0.91279788  1
  O  O78  1  0.96739241  0.17050368  0.58719427  1
  O  O79  1  0.19979089  0.02256875  0.58792497  1
  O  O80  1  0.84272660  0.81249153  0.59198715  1
  O  O81  1  0.97420914  0.83028098  0.09110154  1
  O  O82  1  0.83361235  0.03511853  0.08702013  1
  O  O83  1  0.19661445  0.17570881  0.08635602  1
  O  O84  1  0.70147565  0.18818033  0.73746765  1
  O  O85  1  0.48182002  0.31275099  0.73766398  1
  O  O86  1  0.83854575  0.53188880  0.74198295  1
  O  O87  1  0.69016788  0.53926414  0.24275257  1
  O  O88  1  0.84880418  0.32238158  0.24359540  1
  O  O89  1  0.48043196  0.17340656  0.24186254  1
  O  O90  1  0.64041559  0.50861756  0.92080893  1
  O  O91  1  0.86749231  0.35981210  0.92288831  1
  O  O92  1  0.50344839  0.15580346  0.92184254  1
  O  O93  1  0.62524356  0.14517112  0.42815836  1
  O  O94  1  0.49750152  0.36429530  0.42396689  1
  O  O95  1  0.85737537  0.49108698  0.42720792  1
  O  O96  1  0.35963601  0.49080859  0.07542981  1
  O  O97  1  0.15150310  0.65590781  0.08079986  1
  O  O98  1  0.52111858  0.86409282  0.07641962  1
  O  O99  1  0.36084412  0.86713448  0.57925486  1
  O  O100  1  0.49239581  0.63913403  0.57599038  1
  O  O101  1  0.12820348  0.48772078  0.58034181  1
  O  O102  1  0.30862925  0.82526994  0.25743837  1
  O  O103  1  0.54052247  0.70365450  0.25191043  1
  O  O104  1  0.19613894  0.47978502  0.25826903  1
  O  O105  1  0.29882873  0.47439796  0.75373227  1
  O  O106  1  0.14949654  0.68614524  0.75420378  1
  O  O107  1  0.52251297  0.84057766  0.75111661  1
