# generated using pymatgen
data_MgV5O12
_symmetry_space_group_name_H-M   'P 1'
_cell_length_a   5.32231855
_cell_length_b   10.86459405
_cell_length_c   9.64790088
_cell_angle_alpha   27.68209005
_cell_angle_beta   51.21489255
_cell_angle_gamma   57.04705092
_symmetry_Int_Tables_number   1
_chemical_formula_structural   MgV5O12
_chemical_formula_sum   'Mg1 V5 O12'
_cell_volume   201.93842750
_cell_formula_units_Z   1
loop_
 _symmetry_equiv_pos_site_id
 _symmetry_equiv_pos_as_xyz
  1  'x, y, z'
loop_
 _atom_site_type_symbol
 _atom_site_label
 _atom_site_symmetry_multiplicity
 _atom_site_fract_x
 _atom_site_fract_y
 _atom_site_fract_z
 _atom_site_occupancy
  Mg  Mg0  1  0.70042100  0.49572800  0.70226700  1
  V  V1  1  0.04173200  0.01175800  0.96195200  1
  V  V2  1  0.94792900  0.47290500  0.04230500  1
  V  V3  1  0.46629400  0.97425200  0.54767500  1
  V  V4  1  0.51501100  0.51591900  0.45984900  1
  V  V5  1  0.29715800  0.99076000  0.29580200  1
  O  O6  1  0.35221600  0.28273300  0.12709500  1
  O  O7  1  0.22841600  0.10271700  0.63329600  1
  O  O8  1  0.12032300  0.31801600  0.71942000  1
  O  O9  1  0.86843100  0.17153800  0.23867000  1
  O  O10  1  0.33823400  0.82226500  0.10816600  1
  O  O11  1  0.73929200  0.39488300  0.33943900  1
  O  O12  1  0.23241500  0.65544500  0.58336900  1
  O  O13  1  0.58374900  0.20542400  0.86670300  1
  O  O14  1  0.15232300  0.81533400  0.69904000  1
  O  O15  1  0.83128300  0.69816200  0.24156200  1
  O  O16  1  0.72398200  0.88712600  0.32981000  1
  O  O17  1  0.60759300  0.69128600  0.85037800  1
