# generated using pymatgen
data_Na3YTiSi(PO6)2
_symmetry_space_group_name_H-M   'P 1'
_cell_length_a   15.81885465
_cell_length_b   9.21665649
_cell_length_c   9.18576412
_cell_angle_alpha   90.00000000
_cell_angle_beta   125.84795429
_cell_angle_gamma   90.00000000
_symmetry_Int_Tables_number   1
_chemical_formula_structural   Na3YTiSi(PO6)2
_chemical_formula_sum   'Na12 Y4 Ti4 Si4 P8 O48'
_cell_volume   1085.56633752
_cell_formula_units_Z   4
loop_
 _symmetry_equiv_pos_site_id
 _symmetry_equiv_pos_as_xyz
  1  'x, y, z'
loop_
 _atom_site_type_symbol
 _atom_site_label
 _atom_site_symmetry_multiplicity
 _atom_site_fract_x
 _atom_site_fract_y
 _atom_site_fract_z
 _atom_site_occupancy
  Na  Na0  1  0.25662059  0.72753431  0.00926677  1
  Na  Na1  1  0.75662059  0.77246569  0.50926677  1
  Na  Na2  1  0.75662059  0.22753431  0.00926677  1
  Na  Na3  1  0.25662059  0.27246569  0.50926677  1
  Na  Na4  1  0.50384207  0.08979351  0.75060913  1
  Na  Na5  1  0.50384207  0.91020649  0.25060913  1
  Na  Na6  1  0.00384207  0.58979351  0.75060913  1
  Na  Na7  1  0.00384207  0.41020649  0.25060913  1
  Na  Na8  1  0.19049702  0.92804922  0.30454911  1
  Na  Na9  1  0.19049702  0.07195078  0.80454911  1
  Na  Na10  1  0.69049702  0.42804922  0.30454911  1
  Na  Na11  1  0.69049702  0.57195078  0.80454911  1
  Y  Y12  1  0.10577142  0.74549775  0.56647867  1
  Y  Y13  1  0.10577142  0.25450225  0.06647867  1
  Y  Y14  1  0.60577142  0.24549775  0.56647867  1
  Y  Y15  1  0.60577142  0.75450225  0.06647867  1
  Ti  Ti16  1  0.89919359  0.76281334  0.94128464  1
  Ti  Ti17  1  0.89919359  0.23718666  0.44128464  1
  Ti  Ti18  1  0.39919359  0.26281334  0.94128464  1
  Ti  Ti19  1  0.39919359  0.73718666  0.44128464  1
  Si  Si20  1  0.65074933  0.88424677  0.74481073  1
  Si  Si21  1  0.65074933  0.11575323  0.24481073  1
  Si  Si22  1  0.15074933  0.38424677  0.74481073  1
  Si  Si23  1  0.15074933  0.61575323  0.24481073  1
  P  P24  1  0.99096851  0.95804972  0.75182877  1
  P  P25  1  0.99096851  0.04195028  0.25182877  1
  P  P26  1  0.49096851  0.45804972  0.75182877  1
  P  P27  1  0.49096851  0.54195028  0.25182877  1
  P  P28  1  0.35348674  0.91537941  0.74996645  1
  P  P29  1  0.35348674  0.08462059  0.24996645  1
  P  P30  1  0.85348674  0.41537941  0.74996645  1
  P  P31  1  0.85348674  0.58462059  0.24996645  1
  O  O32  1  0.15656647  0.55991567  0.75212862  1
  O  O33  1  0.85253070  0.58618271  0.74464573  1
  O  O34  1  0.85253070  0.41381729  0.24464573  1
  O  O35  1  0.15656647  0.44008433  0.25212862  1
  O  O36  1  0.65656647  0.05991567  0.75212862  1
  O  O37  1  0.35253070  0.08618271  0.74464573  1
  O  O38  1  0.35253070  0.91381729  0.24464573  1
  O  O39  1  0.65656647  0.94008433  0.25212862  1
  O  O40  1  0.43071153  0.56745098  0.58607360  1
  O  O41  1  0.55786776  0.54178326  0.92544223  1
  O  O42  1  0.55786776  0.45821674  0.42544223  1
  O  O43  1  0.43071153  0.43254902  0.08607360  1
  O  O44  1  0.93071153  0.06745098  0.58607360  1
  O  O45  1  0.05786776  0.04178326  0.92544223  1
  O  O46  1  0.05786776  0.95821674  0.42544223  1
  O  O47  1  0.93071153  0.93254902  0.08607360  1
  O  O48  1  0.25832434  0.86706556  0.74604786  1
  O  O49  1  0.74924583  0.80204038  0.76106715  1
  O  O50  1  0.74924583  0.19795962  0.26106715  1
  O  O51  1  0.25832434  0.13293444  0.24604786  1
  O  O52  1  0.75832434  0.36706556  0.74604786  1
  O  O53  1  0.24924583  0.30204038  0.76106715  1
  O  O54  1  0.24924583  0.69795962  0.26106715  1
  O  O55  1  0.75832434  0.63293444  0.24604786  1
  O  O56  1  0.35282082  0.86434209  0.58449241  1
  O  O57  1  0.64988048  0.82926241  0.90845440  1
  O  O58  1  0.64988048  0.17073759  0.40845440  1
  O  O59  1  0.35282082  0.13565791  0.08449241  1
  O  O60  1  0.85282082  0.36434209  0.58449241  1
  O  O61  1  0.14988048  0.32926241  0.90845440  1
  O  O62  1  0.14988048  0.67073759  0.40845440  1
  O  O63  1  0.85282082  0.63565791  0.08449241  1
  O  O64  1  0.45175814  0.86277632  0.92563217  1
  O  O65  1  0.53618964  0.81662231  0.56032181  1
  O  O66  1  0.53618964  0.18337769  0.06032181  1
  O  O67  1  0.45175814  0.13722368  0.42563217  1
  O  O68  1  0.95175814  0.36277632  0.92563217  1
  O  O69  1  0.03618964  0.31662231  0.56032181  1
  O  O70  1  0.03618964  0.68337769  0.06032181  1
  O  O71  1  0.95175814  0.63722368  0.42563217  1
  O  O72  1  0.06302776  0.85912484  0.73445804  1
  O  O73  1  0.90994725  0.86193156  0.75244171  1
  O  O74  1  0.90994725  0.13806844  0.25244171  1
  O  O75  1  0.06302776  0.14087516  0.23445804  1
  O  O76  1  0.56302776  0.35912484  0.73445804  1
  O  O77  1  0.40994725  0.36193156  0.75244171  1
  O  O78  1  0.40994725  0.63806844  0.25244171  1
  O  O79  1  0.56302776  0.64087516  0.23445804  1
