# generated using pymatgen
data_NbGa3SiS5O24
_symmetry_space_group_name_H-M   'P 1'
_cell_length_a   8.58121621
_cell_length_b   8.60813498
_cell_length_c   22.24413655
_cell_angle_alpha   90.03381594
_cell_angle_beta   89.93156551
_cell_angle_gamma   119.99801601
_symmetry_Int_Tables_number   1
_chemical_formula_structural   NbGa3SiS5O24
_chemical_formula_sum   'Nb3 Ga9 Si3 S15 O72'
_cell_volume   1423.02480164
_cell_formula_units_Z   3
loop_
 _symmetry_equiv_pos_site_id
 _symmetry_equiv_pos_as_xyz
  1  'x, y, z'
loop_
 _atom_site_type_symbol
 _atom_site_label
 _atom_site_symmetry_multiplicity
 _atom_site_fract_x
 _atom_site_fract_y
 _atom_site_fract_z
 _atom_site_occupancy
  Nb  Nb0  1  0.67260313  0.33939309  0.97504778  1
  Nb  Nb1  1  0.33252253  0.67291549  0.30722647  1
  Nb  Nb2  1  0.32990809  0.65633119  0.81287812  1
  Ga  Ga3  1  0.01022394  0.00395918  0.35106378  1
  Ga  Ga4  1  0.99306088  0.99962471  0.85805793  1
  Ga  Ga5  1  0.99919977  0.99884924  0.64624941  1
  Ga  Ga6  1  0.00738094  0.99714981  0.14423210  1
  Ga  Ga7  1  0.66813860  0.33407150  0.68589347  1
  Ga  Ga8  1  0.65551167  0.32284221  0.18589175  1
  Ga  Ga9  1  0.66528676  0.33320360  0.48115309  1
  Ga  Ga10  1  0.33731465  0.65824553  0.01941465  1
  Ga  Ga11  1  0.33349496  0.66528598  0.52095167  1
  Si  Si12  1  0.28815276  0.01909095  0.24765210  1
  Si  Si13  1  0.62722819  0.67870960  0.91967463  1
  Si  Si14  1  0.05304876  0.37255971  0.91958530  1
  S  S15  1  0.72012933  0.71162543  0.24912434  1
  S  S16  1  0.99122080  0.28127419  0.24924184  1
  S  S17  1  0.28896387  0.28066981  0.74821391  1
  S  S18  1  0.99486836  0.71205186  0.74829971  1
  S  S19  1  0.71513711  0.00687838  0.74778537  1
  S  S20  1  0.95685579  0.33290764  0.58312940  1
  S  S21  1  0.37616628  0.04269367  0.58326944  1
  S  S22  1  0.66699137  0.62379870  0.58328913  1
  S  S23  1  0.95935564  0.62466098  0.08576834  1
  S  S24  1  0.66665142  0.03770082  0.08488400  1
  S  S25  1  0.37355549  0.33433015  0.08494113  1
  S  S26  1  0.32687271  0.95100184  0.91767046  1
  S  S27  1  0.62832701  0.95963994  0.41810420  1
  S  S28  1  0.33317073  0.37446587  0.41865865  1
  S  S29  1  0.03961351  0.66591767  0.41900009  1
  O  O30  1  0.20488292  0.03653876  0.31042421  1
  O  O31  1  0.82080615  0.79013727  0.30521687  1
  O  O32  1  0.96050352  0.17607338  0.30492219  1
  O  O33  1  0.21122454  0.17377774  0.80219386  1
  O  O34  1  0.96636689  0.79133356  0.80223021  1
  O  O35  1  0.82483234  0.03803107  0.80132823  1
  O  O36  1  0.79119617  0.96825589  0.69331694  1
  O  O37  1  0.17552980  0.20678475  0.69377467  1
  O  O38  1  0.03092206  0.82464257  0.69353515  1
  O  O39  1  0.78621798  0.82689763  0.19591666  1
  O  O40  1  0.03400833  0.21028178  0.19593872  1
  O  O41  1  0.15776563  0.95687333  0.19060103  1
  O  O42  1  0.87751803  0.36861649  0.63724339  1
  O  O43  1  0.49099976  0.12250090  0.63727683  1
  O  O44  1  0.63110063  0.50875884  0.63731613  1
  O  O45  1  0.87382536  0.50840750  0.13889873  1
  O  O46  1  0.63696377  0.12255844  0.13831395  1
  O  O47  1  0.48999980  0.36804310  0.13819628  1
  O  O48  1  0.45730030  0.30073106  0.03124889  1
  O  O49  1  0.84159337  0.53731856  0.03105964  1
  O  O50  1  0.69894121  0.15405342  0.03085907  1
  O  O51  1  0.45550841  0.15698746  0.52894715  1
  O  O52  1  0.70241291  0.54484317  0.52898831  1
  O  O53  1  0.84234643  0.29808458  0.52889244  1
  O  O54  1  0.53958037  0.71157723  0.97705363  1
  O  O55  1  0.16438462  0.46845545  0.97769181  1
  O  O56  1  0.29671648  0.84395977  0.97180769  1
  O  O57  1  0.54517959  0.84361279  0.47144546  1
  O  O58  1  0.30143298  0.45849555  0.47246781  1
  O  O59  1  0.15762864  0.70000191  0.47194304  1
  O  O60  1  0.12483113  0.63328621  0.36459482  1
  O  O61  1  0.51001201  0.87415167  0.36388484  1
  O  O62  1  0.36611557  0.48936722  0.36463818  1
  O  O63  1  0.13099538  0.50473291  0.85825905  1
  O  O64  1  0.36762176  0.87525199  0.86238093  1
  O  O65  1  0.49634918  0.63331803  0.85856794  1
  O  O66  1  0.01961244  0.82359848  0.41016147  1
  O  O67  1  0.80505463  0.97590836  0.40733343  1
  O  O68  1  0.16999842  0.19846263  0.41113503  1
  O  O69  1  0.03304353  0.18676030  0.90440247  1
  O  O70  1  0.17459943  0.97424622  0.90655158  1
  O  O71  1  0.82132387  0.83247267  0.90480618  1
  O  O72  1  0.97534716  0.17235389  0.59174334  1
  O  O73  1  0.19671076  0.02482379  0.59180307  1
  O  O74  1  0.82808119  0.80289816  0.59165389  1
  O  O75  1  0.96527497  0.79808485  0.08974867  1
  O  O76  1  0.83093070  0.02431354  0.09283860  1
  O  O77  1  0.19503619  0.17222497  0.09061637  1
  O  O78  1  0.69359860  0.16630500  0.73936504  1
  O  O79  1  0.47205394  0.30760531  0.73994594  1
  O  O80  1  0.83628253  0.53017454  0.74007787  1
  O  O81  1  0.69578717  0.53327332  0.24134404  1
  O  O82  1  0.84264645  0.31514454  0.24162972  1
  O  O83  1  0.49116056  0.17634078  0.24073999  1
  O  O84  1  0.63285331  0.49054227  0.92685922  1
  O  O85  1  0.85348102  0.35496565  0.92639850  1
  O  O86  1  0.49220156  0.12971919  0.92448636  1
  O  O87  1  0.64130212  0.13614030  0.42558541  1
  O  O88  1  0.49673215  0.35909398  0.42633240  1
  O  O89  1  0.86293050  0.50079588  0.42591089  1
  O  O90  1  0.35815317  0.49534427  0.07863701  1
  O  O91  1  0.13706471  0.64500480  0.07673487  1
  O  O92  1  0.50341003  0.86320566  0.07683256  1
  O  O93  1  0.35867618  0.86375477  0.57443567  1
  O  O94  1  0.50502647  0.64134995  0.57480604  1
  O  O95  1  0.13610297  0.49489482  0.57465565  1
  O  O96  1  0.30842234  0.83253827  0.26123897  1
  O  O97  1  0.53332850  0.68980894  0.25953113  1
  O  O98  1  0.16024151  0.46383197  0.25956421  1
  O  O99  1  0.30723295  0.46356666  0.75439761  1
  O  O100  1  0.15879045  0.69533425  0.75477241  1
  O  O101  1  0.53293844  0.84652630  0.75519739  1
