# generated using pymatgen
data_Na4ZrZnSi2SO12
_symmetry_space_group_name_H-M   'P 1'
_cell_length_a   9.24380482
_cell_length_b   9.26210861
_cell_length_c   22.44983003
_cell_angle_alpha   89.26061559
_cell_angle_beta   90.00000000
_cell_angle_gamma   119.93464930
_symmetry_Int_Tables_number   1
_chemical_formula_structural   Na4ZrZnSi2SO12
_chemical_formula_sum   'Na24 Zr6 Zn6 Si12 S6 O72'
_cell_volume   1665.48905849
_cell_formula_units_Z   6
loop_
 _symmetry_equiv_pos_site_id
 _symmetry_equiv_pos_as_xyz
  1  'x, y, z'
loop_
 _atom_site_type_symbol
 _atom_site_label
 _atom_site_symmetry_multiplicity
 _atom_site_fract_x
 _atom_site_fract_y
 _atom_site_fract_z
 _atom_site_occupancy
  Na  Na0  1  0.64419630  0.02683298  0.25378564  1
  Na  Na1  1  0.36429813  0.35017660  0.24252963  1
  Na  Na2  1  0.98960017  0.61677934  0.23992870  1
  Na  Na3  1  0.62717917  0.61677934  0.73992870  1
  Na  Na4  1  0.98587846  0.35017660  0.74252963  1
  Na  Na5  1  0.38263668  0.02683298  0.75378564  1
  Na  Na6  1  0.31086330  0.36016598  0.58711864  1
  Na  Na7  1  0.03096513  0.68350960  0.57586263  1
  Na  Na8  1  0.65626717  0.95011234  0.57326170  1
  Na  Na9  1  0.29384617  0.95011234  0.07326170  1
  Na  Na10  1  0.65254546  0.68350960  0.07586263  1
  Na  Na11  1  0.04930368  0.36016598  0.08711864  1
  Na  Na12  1  0.97752930  0.69349998  0.92045264  1
  Na  Na13  1  0.69763113  0.01684360  0.90919663  1
  Na  Na14  1  0.32293317  0.28344634  0.90659570  1
  Na  Na15  1  0.96051217  0.28344634  0.40659570  1
  Na  Na16  1  0.31921146  0.01684360  0.40919663  1
  Na  Na17  1  0.71596968  0.69349998  0.42045264  1
  Na  Na18  1  0.98148381  0.98590024  0.49285751  1
  Na  Na19  1  0.00441644  0.98590024  0.99285751  1
  Na  Na20  1  0.64815081  0.31923324  0.82619051  1
  Na  Na21  1  0.67108344  0.31923324  0.32619051  1
  Na  Na22  1  0.31481681  0.65256724  0.15952451  1
  Na  Na23  1  0.33774944  0.65256724  0.65952451  1
  Zr  Zr24  1  0.98865222  0.00620278  0.64836029  1
  Zr  Zr25  1  0.01755056  0.00620278  0.14836029  1
  Zr  Zr26  1  0.65531922  0.33953578  0.98169329  1
  Zr  Zr27  1  0.68421756  0.33953578  0.48169329  1
  Zr  Zr28  1  0.32198522  0.67286978  0.31502729  1
  Zr  Zr29  1  0.35088356  0.67286978  0.81502729  1
  Zn  Zn30  1  0.00187633  0.00280305  0.34799270  1
  Zn  Zn31  1  0.00092672  0.00280305  0.84799270  1
  Zn  Zn32  1  0.66854333  0.33613605  0.68132570  1
  Zn  Zn33  1  0.66759372  0.33613605  0.18132570  1
  Zn  Zn34  1  0.33520933  0.66947005  0.01465970  1
  Zn  Zn35  1  0.33425972  0.66947005  0.51465970  1
  Si  Si36  1  0.30203950  0.00649553  0.25331319  1
  Si  Si37  1  0.99912158  0.29438811  0.25236809  1
  Si  Si38  1  0.29526653  0.29438811  0.75236809  1
  Si  Si39  1  0.70445603  0.00649553  0.75331319  1
  Si  Si40  1  0.96870650  0.33982853  0.58664619  1
  Si  Si41  1  0.66578858  0.62772111  0.58570109  1
  Si  Si42  1  0.96193353  0.62772111  0.08570109  1
  Si  Si43  1  0.37112303  0.33982853  0.08664619  1
  Si  Si44  1  0.63537250  0.67316253  0.91998019  1
  Si  Si45  1  0.33245458  0.96105511  0.91903509  1
  Si  Si46  1  0.62859953  0.96105511  0.41903509  1
  Si  Si47  1  0.03778903  0.67316253  0.41998019  1
  S  S48  1  0.70335173  0.70616179  0.25193641  1
  S  S49  1  0.00281005  0.70616179  0.75193641  1
  S  S50  1  0.37001873  0.03949479  0.58526941  1
  S  S51  1  0.66947705  0.03949479  0.08526941  1
  S  S52  1  0.03668473  0.37282879  0.91860341  1
  S  S53  1  0.33614305  0.37282879  0.41860341  1
  O  O54  1  0.21439324  0.02940261  0.31164341  1
  O  O55  1  0.80110783  0.78504710  0.30561831  1
  O  O56  1  0.97015543  0.18111958  0.31141721  1
  O  O57  1  0.21096414  0.18111958  0.81141721  1
  O  O58  1  0.98393926  0.78504710  0.80561831  1
  O  O59  1  0.81500938  0.02940261  0.81164341  1
  O  O60  1  0.79207153  0.97055087  0.69432383  1
  O  O61  1  0.17749522  0.19901434  0.69323451  1
  O  O62  1  0.02611618  0.81054598  0.69737760  1
  O  O63  1  0.78442980  0.81054598  0.19737760  1
  O  O64  1  0.02151912  0.19901434  0.19323451  1
  O  O65  1  0.17847933  0.97055087  0.19432383  1
  O  O66  1  0.88106024  0.36273561  0.64497641  1
  O  O67  1  0.46777483  0.11838010  0.63895131  1
  O  O68  1  0.63682243  0.51445258  0.64475021  1
  O  O69  1  0.87763114  0.51445258  0.14475021  1
  O  O70  1  0.65060626  0.11838010  0.13895131  1
  O  O71  1  0.48167638  0.36273561  0.14497641  1
  O  O72  1  0.45873853  0.30388387  0.02765683  1
  O  O73  1  0.84416222  0.53234734  0.02656751  1
  O  O74  1  0.69278318  0.14387898  0.03071060  1
  O  O75  1  0.45109680  0.14387898  0.53071060  1
  O  O76  1  0.68818612  0.53234734  0.52656751  1
  O  O77  1  0.84514633  0.30388387  0.52765683  1
  O  O78  1  0.54772624  0.69606961  0.97831041  1
  O  O79  1  0.13444083  0.45171410  0.97228531  1
  O  O80  1  0.30348843  0.84778658  0.97808421  1
  O  O81  1  0.54429714  0.84778658  0.47808421  1
  O  O82  1  0.31727226  0.45171410  0.47228531  1
  O  O83  1  0.14834238  0.69606961  0.47831041  1
  O  O84  1  0.12540453  0.63721787  0.36099083  1
  O  O85  1  0.51082822  0.86568134  0.35990151  1
  O  O86  1  0.35944918  0.47721298  0.36404460  1
  O  O87  1  0.11776280  0.47721298  0.86404460  1
  O  O88  1  0.35485212  0.86568134  0.85990151  1
  O  O89  1  0.51181233  0.63721787  0.86099083  1
  O  O90  1  0.01301649  0.83415829  0.41239743  1
  O  O91  1  0.81707960  0.99007043  0.41389350  1
  O  O92  1  0.18725774  0.20509299  0.41463170  1
  O  O93  1  0.01783526  0.20509299  0.91463170  1
  O  O94  1  0.17299084  0.99007043  0.91389350  1
  O  O95  1  0.82114179  0.83415829  0.91239743  1
  O  O96  1  0.98298251  0.16670060  0.58683706  1
  O  O97  1  0.20023399  0.02240501  0.58799814  1
  O  O98  1  0.84515254  0.81015179  0.58755515  1
  O  O99  1  0.96499925  0.81015179  0.08755515  1
  O  O100  1  0.82217101  0.02240501  0.08799814  1
  O  O101  1  0.18371808  0.16670060  0.08683706  1
  O  O102  1  0.67968349  0.16749129  0.74573043  1
  O  O103  1  0.48374660  0.32340343  0.74722650  1
  O  O104  1  0.85392474  0.53842599  0.74796470  1
  O  O105  1  0.68450226  0.53842599  0.24796470  1
  O  O106  1  0.83965784  0.32340343  0.24722650  1
  O  O107  1  0.48780879  0.16749129  0.24573043  1
  O  O108  1  0.64964951  0.50003360  0.92017006  1
  O  O109  1  0.86690099  0.35573801  0.92133114  1
  O  O110  1  0.51181954  0.14348479  0.92088815  1
  O  O111  1  0.63166625  0.14348479  0.42088815  1
  O  O112  1  0.48883801  0.35573801  0.42133114  1
  O  O113  1  0.85038508  0.50003360  0.42017006  1
  O  O114  1  0.34634949  0.50082529  0.07906443  1
  O  O115  1  0.15041260  0.65673743  0.08056050  1
  O  O116  1  0.52059074  0.87175999  0.08129870  1
  O  O117  1  0.35116826  0.87175999  0.58129870  1
  O  O118  1  0.50632384  0.65673743  0.58056050  1
  O  O119  1  0.15447479  0.50082529  0.57906443  1
  O  O120  1  0.31631551  0.83336760  0.25350406  1
  O  O121  1  0.53356699  0.68907201  0.25466514  1
  O  O122  1  0.17848554  0.47681879  0.25422215  1
  O  O123  1  0.29833225  0.47681879  0.75422215  1
  O  O124  1  0.15550401  0.68907201  0.75466514  1
  O  O125  1  0.51705108  0.83336760  0.75350406  1
