# generated using pymatgen
data_CsI2Br
_symmetry_space_group_name_H-M   'P 1'
_cell_length_a   6.75237673
_cell_length_b   9.85461233
_cell_length_c   10.92567661
_cell_angle_alpha   90.00000000
_cell_angle_beta   90.00000000
_cell_angle_gamma   90.00000000
_symmetry_Int_Tables_number   1
_chemical_formula_structural   CsI2Br
_chemical_formula_sum   'Cs4 I8 Br4'
_cell_volume   727.01697368
_cell_formula_units_Z   4
loop_
 _symmetry_equiv_pos_site_id
 _symmetry_equiv_pos_as_xyz
  1  'x, y, z'
loop_
 _atom_site_type_symbol
 _atom_site_label
 _atom_site_symmetry_multiplicity
 _atom_site_fract_x
 _atom_site_fract_y
 _atom_site_fract_z
 _atom_site_occupancy
  Cs  Cs0  1  0.25000000  0.45215751  0.16695583  1
  Cs  Cs1  1  0.75000000  0.54784249  0.83304417  1
  Cs  Cs2  1  0.75000000  0.95215751  0.33304417  1
  Cs  Cs3  1  0.25000000  0.04784249  0.66695583  1
  I  I4  1  0.25000000  0.55058272  0.62923333  1
  I  I5  1  0.75000000  0.44941728  0.37076667  1
  I  I6  1  0.75000000  0.05058272  0.87076667  1
  I  I7  1  0.25000000  0.94941728  0.12923333  1
  I  I8  1  0.25000000  0.73347073  0.42846578  1
  I  I9  1  0.75000000  0.26652927  0.57153422  1
  I  I10  1  0.75000000  0.23347073  0.07153422  1
  I  I11  1  0.25000000  0.76652927  0.92846578  1
  Br  Br12  1  0.25000000  0.36969657  0.83434707  1
  Br  Br13  1  0.75000000  0.63030343  0.16565293  1
  Br  Br14  1  0.75000000  0.86969657  0.66565293  1
  Br  Br15  1  0.25000000  0.13030343  0.33434707  1
