# generated using pymatgen
data_Na2HfZnSi(SO6)2
_symmetry_space_group_name_H-M   'P 1'
_cell_length_a   8.96494125
_cell_length_b   8.99665023
_cell_length_c   22.80599779
_cell_angle_alpha   89.18778533
_cell_angle_beta   90.00000000
_cell_angle_gamma   119.88347780
_symmetry_Int_Tables_number   1
_chemical_formula_structural   Na2HfZnSi(SO6)2
_chemical_formula_sum   'Na12 Hf6 Zn6 Si6 S12 O72'
_cell_volume   1594.62539557
_cell_formula_units_Z   6
loop_
 _symmetry_equiv_pos_site_id
 _symmetry_equiv_pos_as_xyz
  1  'x, y, z'
loop_
 _atom_site_type_symbol
 _atom_site_label
 _atom_site_symmetry_multiplicity
 _atom_site_fract_x
 _atom_site_fract_y
 _atom_site_fract_z
 _atom_site_occupancy
  Na  Na0  1  0.99626708  0.63443426  0.23862640  1
  Na  Na1  1  0.63816718  0.63443426  0.73862640  1
  Na  Na2  1  0.65163334  0.95196643  0.57607901  1
  Na  Na3  1  0.30033409  0.95196643  0.07607901  1
  Na  Na4  1  0.69300504  0.02546465  0.90669904  1
  Na  Na5  1  0.33245860  0.02546465  0.40669904  1
  Na  Na6  1  0.97463537  0.98519231  0.49117739  1
  Na  Na7  1  0.01055694  0.98519231  0.99117739  1
  Na  Na8  1  0.65468673  0.30701085  0.82487518  1
  Na  Na9  1  0.65232512  0.30701085  0.32487518  1
  Na  Na10  1  0.32807600  0.65532040  0.15937291  1
  Na  Na11  1  0.32724341  0.65532040  0.65937291  1
  Hf  Hf12  1  0.99272628  0.99345716  0.64719484  1
  Hf  Hf13  1  0.00073088  0.99345716  0.14719484  1
  Hf  Hf14  1  0.66894147  0.34155577  0.98094229  1
  Hf  Hf15  1  0.67261531  0.34155577  0.48094229  1
  Hf  Hf16  1  0.34558072  0.68551921  0.31443798  1
  Hf  Hf17  1  0.33993749  0.68551921  0.81443798  1
  Zn  Zn18  1  0.99741938  0.00582903  0.34912680  1
  Zn  Zn19  1  0.00840966  0.00582903  0.84912680  1
  Zn  Zn20  1  0.66281802  0.32342525  0.68331467  1
  Zn  Zn21  1  0.66060823  0.32342525  0.18331467  1
  Zn  Zn22  1  0.29333818  0.66473395  0.01560644  1
  Zn  Zn23  1  0.37139477  0.66473395  0.51560644  1
  Si  Si24  1  0.30014600  0.01228491  0.25366808  1
  Si  Si25  1  0.71213891  0.01228491  0.75366808  1
  Si  Si26  1  0.66253886  0.61949030  0.58921255  1
  Si  Si27  1  0.95695244  0.61949030  0.08921255  1
  Si  Si28  1  0.32618078  0.96972423  0.91945494  1
  Si  Si29  1  0.64354245  0.96972423  0.41945494  1
  S  S30  1  0.70625768  0.70758691  0.25188656  1
  S  S31  1  0.00264419  0.29474724  0.25110672  1
  S  S32  1  0.29210305  0.29474724  0.75110672  1
  S  S33  1  0.00132923  0.70758691  0.75188656  1
  S  S34  1  0.96530661  0.33895144  0.58379441  1
  S  S35  1  0.37111109  0.04045037  0.58315206  1
  S  S36  1  0.66934028  0.04045037  0.08315206  1
  S  S37  1  0.37364583  0.33895144  0.08379441  1
  S  S38  1  0.61733955  0.66294299  0.91857814  1
  S  S39  1  0.04140341  0.37404282  0.91855007  1
  S  S40  1  0.33263841  0.37404282  0.41855007  1
  S  S41  1  0.04560244  0.66294299  0.41857814  1
  O  O42  1  0.20833468  0.02237660  0.31357078  1
  O  O43  1  0.81022757  0.79063149  0.30329152  1
  O  O44  1  0.98113330  0.19378923  0.30408602  1
  O  O45  1  0.21265593  0.19378923  0.80408602  1
  O  O46  1  0.98040392  0.79063149  0.80329152  1
  O  O47  1  0.81404192  0.02237660  0.81357078  1
  O  O48  1  0.80554784  0.97563032  0.69614440  1
  O  O49  1  0.19020873  0.20923487  0.69746456  1
  O  O50  1  0.03275943  0.81805322  0.69733581  1
  O  O51  1  0.78529379  0.81805322  0.19733581  1
  O  O52  1  0.01902613  0.20923487  0.19746456  1
  O  O53  1  0.17008248  0.97563032  0.19614440  1
  O  O54  1  0.88562826  0.35690989  0.63681424  1
  O  O55  1  0.48239275  0.11841441  0.63379841  1
  O  O56  1  0.65064429  0.51764888  0.64924710  1
  O  O57  1  0.86700559  0.51764888  0.14924710  1
  O  O58  1  0.63602266  0.11841441  0.13379841  1
  O  O59  1  0.47128262  0.35690989  0.13681424  1
  O  O60  1  0.45463053  0.30103192  0.03151485  1
  O  O61  1  0.83798444  0.52395165  0.03128372  1
  O  O62  1  0.69037854  0.14541293  0.02797761  1
  O  O63  1  0.45503539  0.14541293  0.52797761  1
  O  O64  1  0.68596821  0.52395165  0.53128372  1
  O  O65  1  0.84640238  0.30103192  0.53151485  1
  O  O66  1  0.52625680  0.67741519  0.96914820  1
  O  O67  1  0.14309037  0.45037415  0.97097057  1
  O  O68  1  0.31179990  0.86917225  0.98053330  1
  O  O69  1  0.55737135  0.86917225  0.48053330  1
  O  O70  1  0.30728278  0.45037415  0.47097057  1
  O  O71  1  0.15115738  0.67741519  0.46914820  1
  O  O72  1  0.12210879  0.63773689  0.36261795  1
  O  O73  1  0.50486930  0.86825434  0.36439321  1
  O  O74  1  0.35292723  0.47885335  0.36464508  1
  O  O75  1  0.12592512  0.47885335  0.86464508  1
  O  O76  1  0.36338404  0.86825434  0.86439321  1
  O  O77  1  0.51562710  0.63773689  0.86261795  1
  O  O78  1  0.02800559  0.81672229  0.41310023  1
  O  O79  1  0.83013045  0.98944128  0.40877951  1
  O  O80  1  0.19028833  0.19651769  0.41450811  1
  O  O81  1  0.00622936  0.19651769  0.91450811  1
  O  O82  1  0.15931084  0.98944128  0.90877951  1
  O  O83  1  0.78871669  0.81672229  0.91310023  1
  O  O84  1  0.97779919  0.17571516  0.58825831  1
  O  O85  1  0.20314021  0.03768699  0.58877794  1
  O  O86  1  0.83896857  0.81977668  0.58997290  1
  O  O87  1  0.98080811  0.81977668  0.08997290  1
  O  O88  1  0.83454677  0.03768699  0.08877794  1
  O  O89  1  0.19791598  0.17571516  0.08825831  1
  O  O90  1  0.68143121  0.17226117  0.74326731  1
  O  O91  1  0.46970744  0.32576041  0.74702699  1
  O  O92  1  0.84857083  0.53837032  0.74594183  1
  O  O93  1  0.68980049  0.53837032  0.24594183  1
  O  O94  1  0.85605397  0.32576041  0.24702699  1
  O  O95  1  0.49083096  0.17226117  0.24326731  1
  O  O96  1  0.63715952  0.50628319  0.92212708  1
  O  O97  1  0.86636763  0.36405346  0.92239433  1
  O  O98  1  0.51502850  0.15538976  0.92215449  1
  O  O99  1  0.64036227  0.15538976  0.42215449  1
  O  O100  1  0.49768683  0.36405346  0.42239433  1
  O  O101  1  0.86912468  0.50628319  0.42212708  1
  O  O102  1  0.35326177  0.48747667  0.07317213  1
  O  O103  1  0.15382265  0.65427659  0.08489457  1
  O  O104  1  0.52437567  0.86516919  0.07733002  1
  O  O105  1  0.34079252  0.86516919  0.57733002  1
  O  O106  1  0.50045293  0.65427659  0.58489457  1
  O  O107  1  0.13421391  0.48747667  0.57317213  1
  O  O108  1  0.29988011  0.82312076  0.25653810  1
  O  O109  1  0.52942868  0.68837541  0.25586029  1
  O  O110  1  0.16531063  0.46928090  0.25420201  1
  O  O111  1  0.30396927  0.46928090  0.75420201  1
  O  O112  1  0.15894573  0.68837541  0.75586029  1
  O  O113  1  0.52323965  0.82312076  0.75653810  1
