# generated using pymatgen
data_H8S(NO2)2
_symmetry_space_group_name_H-M   'P 1'
_cell_length_a   6.41915952
_cell_length_b   7.53018968
_cell_length_c   10.56589833
_cell_angle_alpha   90.00000000
_cell_angle_beta   90.00000000
_cell_angle_gamma   90.00000000
_symmetry_Int_Tables_number   1
_chemical_formula_structural   H8S(NO2)2
_chemical_formula_sum   'H32 S4 N8 O16'
_cell_volume   510.72899189
_cell_formula_units_Z   4
loop_
 _symmetry_equiv_pos_site_id
 _symmetry_equiv_pos_as_xyz
  1  'x, y, z'
loop_
 _atom_site_type_symbol
 _atom_site_label
 _atom_site_symmetry_multiplicity
 _atom_site_fract_x
 _atom_site_fract_y
 _atom_site_fract_z
 _atom_site_occupancy
  H  H0  1  0.11993319  0.30203663  0.84105115  1
  H  H1  1  0.61993319  0.69796337  0.15894885  1
  H  H2  1  0.38006681  0.80203663  0.65894885  1
  H  H3  1  0.88006681  0.19796337  0.34105115  1
  H  H4  1  0.88006681  0.69796337  0.15894885  1
  H  H5  1  0.38006681  0.30203663  0.84105115  1
  H  H6  1  0.61993319  0.19796337  0.34105115  1
  H  H7  1  0.11993319  0.80203663  0.65894885  1
  H  H8  1  0.75000000  0.63743555  0.28874989  1
  H  H9  1  0.25000000  0.36256445  0.71125011  1
  H  H10  1  0.75000000  0.13743555  0.21125011  1
  H  H11  1  0.25000000  0.86256445  0.78874989  1
  H  H12  1  0.75000000  0.50169430  0.15650081  1
  H  H13  1  0.25000000  0.49830570  0.84349919  1
  H  H14  1  0.75000000  0.66422794  0.88258443  1
  H  H15  1  0.75000000  0.00169430  0.34349919  1
  H  H16  1  0.12085154  0.15974684  0.05684490  1
  H  H17  1  0.62085154  0.84025316  0.94315510  1
  H  H18  1  0.37914846  0.65974684  0.44315510  1
  H  H19  1  0.87914846  0.34025316  0.55684490  1
  H  H20  1  0.87914846  0.84025316  0.94315510  1
  H  H21  1  0.37914846  0.15974684  0.05684490  1
  H  H22  1  0.62085154  0.34025316  0.55684490  1
  H  H23  1  0.12085154  0.65974684  0.44315510  1
  H  H24  1  0.75000000  0.86224054  0.80515507  1
  H  H25  1  0.25000000  0.13775946  0.19484493  1
  H  H26  1  0.75000000  0.36224054  0.69484493  1
  H  H27  1  0.25000000  0.63775946  0.30515507  1
  H  H28  1  0.25000000  0.83577206  0.38258443  1
  H  H29  1  0.75000000  0.16422794  0.61741557  1
  H  H30  1  0.25000000  0.33577206  0.11741557  1
  H  H31  1  0.25000000  0.99830570  0.65650081  1
  S  S32  1  0.75000000  0.26058575  0.93966648  1
  S  S33  1  0.25000000  0.73941425  0.06033352  1
  S  S34  1  0.75000000  0.76058575  0.56033352  1
  S  S35  1  0.25000000  0.23941425  0.43966648  1
  N  N36  1  0.75000000  0.62986767  0.19165232  1
  N  N37  1  0.25000000  0.37013233  0.80834768  1
  N  N38  1  0.75000000  0.12986767  0.30834768  1
  N  N39  1  0.25000000  0.87013233  0.69165232  1
  N  N40  1  0.75000000  0.80094074  0.89265416  1
  N  N41  1  0.25000000  0.19905926  0.10734584  1
  N  N42  1  0.75000000  0.30094074  0.60734584  1
  N  N43  1  0.25000000  0.69905926  0.39265416  1
  O  O44  1  0.06173053  0.84229225  0.09310172  1
  O  O45  1  0.56173053  0.15770775  0.90689828  1
  O  O46  1  0.43826947  0.34229225  0.40689828  1
  O  O47  1  0.93826947  0.65770775  0.59310172  1
  O  O48  1  0.93826947  0.15770775  0.90689828  1
  O  O49  1  0.43826947  0.84229225  0.09310172  1
  O  O50  1  0.56173053  0.65770775  0.59310172  1
  O  O51  1  0.06173053  0.34229225  0.40689828  1
  O  O52  1  0.75000000  0.29688977  0.07693691  1
  O  O53  1  0.25000000  0.70311023  0.92306309  1
  O  O54  1  0.75000000  0.79688977  0.42306409  1
  O  O55  1  0.25000000  0.20311023  0.57693691  1
  O  O56  1  0.75000000  0.42826414  0.86702411  1
  O  O57  1  0.25000000  0.57173586  0.13297589  1
  O  O58  1  0.75000000  0.92826414  0.63297589  1
  O  O59  1  0.25000000  0.07173586  0.36702411  1
