# generated using pymatgen
data_Na2ZnSiSn(SO6)2
_symmetry_space_group_name_H-M   'P 1'
_cell_length_a   8.94540981
_cell_length_b   8.93144734
_cell_length_c   22.62649441
_cell_angle_alpha   89.82670003
_cell_angle_beta   90.00000000
_cell_angle_gamma   120.05172678
_symmetry_Int_Tables_number   1
_chemical_formula_structural   Na2ZnSiSn(SO6)2
_chemical_formula_sum   'Na12 Zn6 Si6 Sn6 S12 O72'
_cell_volume   1564.73476342
_cell_formula_units_Z   6
loop_
 _symmetry_equiv_pos_site_id
 _symmetry_equiv_pos_as_xyz
  1  'x, y, z'
loop_
 _atom_site_type_symbol
 _atom_site_label
 _atom_site_symmetry_multiplicity
 _atom_site_fract_x
 _atom_site_fract_y
 _atom_site_fract_z
 _atom_site_occupancy
  Na  Na0  1  0.99795899  0.63749273  0.23820095  1
  Na  Na1  1  0.63953374  0.63749273  0.73820095  1
  Na  Na2  1  0.65615614  0.95198235  0.57846383  1
  Na  Na3  1  0.29582721  0.95198235  0.07846383  1
  Na  Na4  1  0.69245689  0.02597600  0.90609975  1
  Na  Na5  1  0.33351811  0.02597600  0.40609975  1
  Na  Na6  1  0.97184205  0.98245455  0.49323598  1
  Na  Na7  1  0.01061250  0.98245455  0.99323598  1
  Na  Na8  1  0.65711059  0.30861269  0.82654166  1
  Na  Na9  1  0.65150310  0.30861269  0.32654166  1
  Na  Na10  1  0.32834551  0.65895335  0.16090636  1
  Na  Na11  1  0.33060684  0.65895335  0.66090636  1
  Zn  Zn12  1  0.99865040  0.00519054  0.35060144  1
  Zn  Zn13  1  0.00654014  0.00519054  0.85060144  1
  Zn  Zn14  1  0.66813275  0.32424137  0.68400148  1
  Zn  Zn15  1  0.65610961  0.32424137  0.18400148  1
  Zn  Zn16  1  0.29548748  0.66716782  0.01741656  1
  Zn  Zn17  1  0.37167934  0.66716782  0.51741656  1
  Si  Si18  1  0.30050931  0.00768104  0.25391944  1
  Si  Si19  1  0.70717173  0.00768104  0.75391944  1
  Si  Si20  1  0.66715136  0.62113133  0.58932486  1
  Si  Si21  1  0.95398097  0.62113133  0.08932486  1
  Si  Si22  1  0.32913884  0.97303563  0.92146096  1
  Si  Si23  1  0.64389578  0.97303563  0.42146096  1
  Sn  Sn24  1  0.99252232  0.99071043  0.65013536  1
  Sn  Sn25  1  0.99818811  0.99071043  0.15013536  1
  Sn  Sn26  1  0.66677378  0.34011122  0.98388646  1
  Sn  Sn27  1  0.67333845  0.34011122  0.48388646  1
  Sn  Sn28  1  0.34618056  0.68747054  0.31731763  1
  Sn  Sn29  1  0.34128897  0.68747054  0.81731763  1
  S  S30  1  0.70029803  0.70601048  0.25198866  1
  S  S31  1  0.00634957  0.29627023  0.25152454  1
  S  S32  1  0.28992067  0.29627023  0.75152454  1
  S  S33  1  0.00571245  0.70601048  0.75198866  1
  S  S34  1  0.96945022  0.33697906  0.58423346  1
  S  S35  1  0.36317065  0.03756082  0.58419770  1
  S  S36  1  0.67439117  0.03756082  0.08419770  1
  S  S37  1  0.36752984  0.33697906  0.08423346  1
  S  S38  1  0.61842175  0.65955395  0.91822771  1
  S  S39  1  0.04209975  0.37677544  0.91686683  1
  S  S40  1  0.33467469  0.37677544  0.41686683  1
  S  S41  1  0.04113119  0.65955395  0.41822771  1
  O  O42  1  0.20731823  0.01827746  0.31374665  1
  O  O43  1  0.80588039  0.79431717  0.30336987  1
  O  O44  1  0.98454280  0.19114498  0.30348709  1
  O  O45  1  0.20660219  0.19114498  0.80348709  1
  O  O46  1  0.98843678  0.79431717  0.80336987  1
  O  O47  1  0.81095923  0.01827746  0.81374665  1
  O  O48  1  0.78710147  0.96102206  0.69348401  1
  O  O49  1  0.18983486  0.21627513  0.69512503  1
  O  O50  1  0.04489174  0.81411186  0.69605958  1
  O  O51  1  0.76922012  0.81411186  0.19605958  1
  O  O52  1  0.02644027  0.21627513  0.19512503  1
  O  O53  1  0.17392059  0.96102206  0.19348401  1
  O  O54  1  0.88726592  0.35483426  0.63730154  1
  O  O55  1  0.47937286  0.12093866  0.63394101  1
  O  O56  1  0.65570746  0.51738638  0.64874313  1
  O  O57  1  0.86167992  0.51738638  0.14874313  1
  O  O58  1  0.64156680  0.12093866  0.13394101  1
  O  O59  1  0.46756934  0.35483426  0.13730154  1
  O  O60  1  0.43905825  0.28889442  0.03052772  1
  O  O61  1  0.83969144  0.53785460  0.02764847  1
  O  O62  1  0.70236053  0.13773238  0.02692571  1
  O  O63  1  0.43537285  0.13773238  0.52692571  1
  O  O64  1  0.69816416  0.53785460  0.52764847  1
  O  O65  1  0.84983717  0.28889442  0.53052772  1
  O  O66  1  0.52353078  0.67201821  0.96845677  1
  O  O67  1  0.14602931  0.45793144  0.96919143  1
  O  O68  1  0.31578525  0.87408949  0.98263468  1
  O  O69  1  0.55830323  0.87408949  0.48263468  1
  O  O70  1  0.31190113  0.45793144  0.46919143  1
  O  O71  1  0.14848643  0.67201821  0.46845677  1
  O  O72  1  0.11027633  0.62964671  0.36019077  1
  O  O73  1  0.50596471  0.89169551  0.36420095  1
  O  O74  1  0.35592985  0.47961575  0.36097314  1
  O  O75  1  0.12368489  0.47961575  0.86097314  1
  O  O76  1  0.38572980  0.89169551  0.86420095  1
  O  O77  1  0.51936939  0.62964671  0.86019077  1
  O  O78  1  0.02958629  0.81821116  0.41403747  1
  O  O79  1  0.83001125  0.99288158  0.41014614  1
  O  O80  1  0.18840282  0.19968934  0.41270176  1
  O  O81  1  0.01128652  0.19968934  0.91270176  1
  O  O82  1  0.16287032  0.99288158  0.91014614  1
  O  O83  1  0.78862488  0.81821116  0.91403747  1
  O  O84  1  0.98675133  0.17573785  0.58828124  1
  O  O85  1  0.19388393  0.03494186  0.59077201  1
  O  O86  1  0.84286370  0.82388158  0.58680679  1
  O  O87  1  0.98101788  0.82388158  0.08680679  1
  O  O88  1  0.84105793  0.03494186  0.09077201  1
  O  O89  1  0.18898653  0.17573785  0.08828124  1
  O  O90  1  0.67996455  0.17122396  0.74427184  1
  O  O91  1  0.46705189  0.32705816  0.74707569  1
  O  O92  1  0.84781703  0.53809990  0.74610586  1
  O  O93  1  0.69028387  0.53809990  0.24610586  1
  O  O94  1  0.86000727  0.32705816  0.24707569  1
  O  O95  1  0.49126041  0.17122396  0.24427184  1
  O  O96  1  0.64198025  0.50406619  0.92008809  1
  O  O97  1  0.86672350  0.36433395  0.91926235  1
  O  O98  1  0.52197175  0.16352091  0.92388189  1
  O  O99  1  0.64155016  0.16352091  0.42388189  1
  O  O100  1  0.49761145  0.36433395  0.41926235  1
  O  O101  1  0.86208694  0.50406619  0.42008809  1
  O  O102  1  0.35408763  0.49039958  0.07393558  1
  O  O103  1  0.14983153  0.65155550  0.08556067  1
  O  O104  1  0.52839214  0.86025727  0.07848293  1
  O  O105  1  0.33186414  0.86025727  0.57848293  1
  O  O106  1  0.50172298  0.65155550  0.58556067  1
  O  O107  1  0.13631095  0.49039958  0.57393558  1
  O  O108  1  0.29906959  0.81519062  0.25372041  1
  O  O109  1  0.51980545  0.67879624  0.25561550  1
  O  O110  1  0.17058200  0.47170630  0.25469459  1
  O  O111  1  0.30112329  0.47170630  0.75469459  1
  O  O112  1  0.15898978  0.67879624  0.75561550  1
  O  O113  1  0.51612003  0.81519062  0.75372041  1
