# generated using pymatgen
data_Ba2MgNiWO6
_symmetry_space_group_name_H-M   'P 1'
_cell_length_a   6.84357084
_cell_length_b   6.84357064
_cell_length_c   5.64974208
_cell_angle_alpha   65.62057580
_cell_angle_beta   65.62057654
_cell_angle_gamma   49.60568133
_symmetry_Int_Tables_number   1
_chemical_formula_structural   Ba2MgNiWO6
_chemical_formula_sum   'Ba2 Mg1 Ni1 W1 O6'
_cell_volume   179.48221459
_cell_formula_units_Z   1
loop_
 _symmetry_equiv_pos_site_id
 _symmetry_equiv_pos_as_xyz
  1  'x, y, z'
loop_
 _atom_site_type_symbol
 _atom_site_label
 _atom_site_symmetry_multiplicity
 _atom_site_fract_x
 _atom_site_fract_y
 _atom_site_fract_z
 _atom_site_occupancy
  Ba  Ba0  1  0.18351920  0.18351920  0.31648080  1
  Ba  Ba1  1  0.81648080  0.81648080  0.68351920  1
  Mg  Mg2  1  0.50000000  0.50000000  0.00000000  1
  Ni  Ni3  1  0.50000000  0.50000000  0.50000000  1
  W  W4  1  -0.00000000  -0.00000000  0.00000000  1
  O  O5  1  0.25245686  0.74754314  0.75609104  1
  O  O6  1  0.25245686  0.74754314  0.24390896  1
  O  O7  1  0.74754314  0.25245686  0.75609104  1
  O  O8  1  0.18580566  0.18580566  0.81419434  1
  O  O9  1  0.74754314  0.25245686  0.24390896  1
  O  O10  1  0.81419434  0.81419434  0.18580566  1
