# generated using pymatgen
data_CsSbF4
_symmetry_space_group_name_H-M   'P 1'
_cell_length_a   6.30917773
_cell_length_b   9.56851176
_cell_length_c   15.63181418
_cell_angle_alpha   90.00000000
_cell_angle_beta   90.00000000
_cell_angle_gamma   90.00000000
_symmetry_Int_Tables_number   1
_chemical_formula_structural   CsSbF4
_chemical_formula_sum   'Cs8 Sb8 F32'
_cell_volume   943.68388864
_cell_formula_units_Z   8
loop_
 _symmetry_equiv_pos_site_id
 _symmetry_equiv_pos_as_xyz
  1  'x, y, z'
loop_
 _atom_site_type_symbol
 _atom_site_label
 _atom_site_symmetry_multiplicity
 _atom_site_fract_x
 _atom_site_fract_y
 _atom_site_fract_z
 _atom_site_occupancy
  Cs  Cs0  1  0.50000000  0.91024651  0.61540715  1
  Cs  Cs1  1  0.50000000  0.08975349  0.38459285  1
  Cs  Cs2  1  0.50000000  0.41024651  0.88459285  1
  Cs  Cs3  1  0.50000000  0.58975349  0.11540715  1
  Cs  Cs4  1  -0.00000000  0.13908126  0.73720564  1
  Cs  Cs5  1  -0.00000000  0.86091874  0.26279436  1
  Cs  Cs6  1  -0.00000000  0.63908126  0.76279436  1
  Cs  Cs7  1  -0.00000000  0.36091874  0.23720564  1
  Sb  Sb8  1  -0.00000000  0.28879817  0.50190538  1
  Sb  Sb9  1  -0.00000000  0.71120183  0.49809462  1
  Sb  Sb10  1  -0.00000000  0.78879817  0.99809462  1
  Sb  Sb11  1  -0.00000000  0.21120183  0.00190538  1
  Sb  Sb12  1  0.50000000  0.52923461  0.37218000  1
  Sb  Sb13  1  0.50000000  0.47076539  0.62782000  1
  Sb  Sb14  1  0.50000000  0.02923461  0.12782000  1
  Sb  Sb15  1  0.50000000  0.97076539  0.87218000  1
  F  F16  1  0.22162259  0.83991879  0.45152580  1
  F  F17  1  0.22162259  0.16008121  0.54847420  1
  F  F18  1  0.77837741  0.33991879  0.04847420  1
  F  F19  1  0.77837741  0.66008121  0.95152580  1
  F  F20  1  0.77837741  0.16008121  0.54847420  1
  F  F21  1  0.77837741  0.83991879  0.45152580  1
  F  F22  1  0.22162259  0.66008121  0.95152580  1
  F  F23  1  0.22162259  0.33991879  0.04847420  1
  F  F24  1  -0.00000000  0.16321011  0.40395941  1
  F  F25  1  -0.00000000  0.83678989  0.59604059  1
  F  F26  1  -0.00000000  0.66321011  0.09604059  1
  F  F27  1  -0.00000000  0.33678989  0.90395941  1
  F  F28  1  0.25494478  0.62292676  0.58433252  1
  F  F29  1  0.25494478  0.37707324  0.41566748  1
  F  F30  1  0.74505522  0.12292676  0.91566748  1
  F  F31  1  0.74505522  0.87707324  0.08433252  1
  F  F32  1  0.50000000  0.11428127  0.78314792  1
  F  F33  1  0.50000000  0.88571873  0.21685208  1
  F  F34  1  0.50000000  0.61428127  0.71685208  1
  F  F35  1  0.50000000  0.38571873  0.28314792  1
  F  F36  1  0.27575642  0.89044712  0.79500492  1
  F  F37  1  0.27575642  0.10955288  0.20499508  1
  F  F38  1  0.72424358  0.39044712  0.70499508  1
  F  F39  1  0.72424358  0.60955288  0.29500492  1
  F  F40  1  0.72424358  0.10955288  0.20499508  1
  F  F41  1  0.72424358  0.89044712  0.79500492  1
  F  F42  1  0.27575642  0.60955288  0.29500492  1
  F  F43  1  0.27575642  0.39044712  0.70499508  1
  F  F44  1  0.25494478  0.12292676  0.91566748  1
  F  F45  1  0.25494478  0.87707324  0.08433252  1
  F  F46  1  0.74505522  0.62292676  0.58433252  1
  F  F47  1  0.74505522  0.37707324  0.41566748  1
