# generated using pymatgen
data_Pr2Mg(MoO3)4
_symmetry_space_group_name_H-M   'P 1'
_cell_length_a   5.54478793
_cell_length_b   5.68100079
_cell_length_c   8.00872524
_cell_angle_alpha   90.10773078
_cell_angle_beta   89.84382786
_cell_angle_gamma   88.34146559
_symmetry_Int_Tables_number   1
_chemical_formula_structural   Pr2Mg(MoO3)4
_chemical_formula_sum   'Pr2 Mg1 Mo4 O12'
_cell_volume   252.16729434
_cell_formula_units_Z   1
loop_
 _symmetry_equiv_pos_site_id
 _symmetry_equiv_pos_as_xyz
  1  'x, y, z'
loop_
 _atom_site_type_symbol
 _atom_site_label
 _atom_site_symmetry_multiplicity
 _atom_site_fract_x
 _atom_site_fract_y
 _atom_site_fract_z
 _atom_site_occupancy
  Pr  Pr0  1  0.01583000  0.93579800  0.74970100  1
  Pr  Pr1  1  0.50544300  0.55437700  0.24979400  1
  Mg  Mg2  1  0.50601400  0.46700200  0.75353900  1
  Mo  Mo3  1  0.99868100  0.48977400  0.00343400  1
  Mo  Mo4  1  0.99950200  0.48791200  0.50102300  1
  Mo  Mo5  1  0.50826200  0.00981900  0.49577600  1
  Mo  Mo6  1  0.50792000  0.00954800  0.99936600  1
  O  O7  1  0.09665400  0.48073500  0.24249400  1
  O  O8  1  0.20670000  0.20695000  0.93298700  1
  O  O9  1  0.21266300  0.18249900  0.55292000  1
  O  O10  1  0.31826800  0.69011600  0.56783700  1
  O  O11  1  0.31314000  0.69801200  0.93459300  1
  O  O12  1  0.42113700  0.96459600  0.25646000  1
  O  O13  1  0.60379200  0.07288800  0.74559900  1
  O  O14  1  0.68139500  0.30546100  0.04467800  1
  O  O15  1  0.67721100  0.30543600  0.45278200  1
  O  O16  1  0.78985000  0.78799700  0.03818900  1
  O  O17  1  0.78294400  0.80181500  0.47261200  1
  O  O18  1  0.87546400  0.52545300  0.75621500  1
