# generated using pymatgen
data_CsEu2I5
_symmetry_space_group_name_H-M   'P 1'
_cell_length_a   9.13382247
_cell_length_b   10.24977630
_cell_length_c   14.38679606
_cell_angle_alpha   89.57895600
_cell_angle_beta   90.00000000
_cell_angle_gamma   90.00000000
_symmetry_Int_Tables_number   1
_chemical_formula_structural   CsEu2I5
_chemical_formula_sum   'Cs4 Eu8 I20'
_cell_volume   1346.85025828
_cell_formula_units_Z   4
loop_
 _symmetry_equiv_pos_site_id
 _symmetry_equiv_pos_as_xyz
  1  'x, y, z'
loop_
 _atom_site_type_symbol
 _atom_site_label
 _atom_site_symmetry_multiplicity
 _atom_site_fract_x
 _atom_site_fract_y
 _atom_site_fract_z
 _atom_site_occupancy
  Cs  Cs0  1  0.94167540  0.50732848  0.16700331  1
  Cs  Cs1  1  0.44167540  0.49267152  0.33299669  1
  Cs  Cs2  1  0.05832460  0.49267152  0.83299669  1
  Cs  Cs3  1  0.55832460  0.50732848  0.66700331  1
  Eu  Eu4  1  0.52767001  0.00304417  0.68043354  1
  Eu  Eu5  1  0.02767001  0.99695583  0.81956646  1
  Eu  Eu6  1  0.47232999  0.99695583  0.31956646  1
  Eu  Eu7  1  0.97232999  0.00304417  0.18043354  1
  Eu  Eu8  1  0.57365776  0.24406213  0.99332519  1
  Eu  Eu9  1  0.07365776  0.75593787  0.50667481  1
  Eu  Eu10  1  0.42634224  0.75593787  0.00667481  1
  Eu  Eu11  1  0.92634224  0.24406213  0.49332519  1
  I  I12  1  0.84084646  0.78853868  0.68328882  1
  I  I13  1  0.34084646  0.21146132  0.81671118  1
  I  I14  1  0.15915354  0.21146132  0.31671118  1
  I  I15  1  0.65915354  0.78853868  0.18328882  1
  I  I16  1  0.81328361  0.21972209  0.71582116  1
  I  I17  1  0.31328361  0.78027791  0.78417884  1
  I  I18  1  0.18671639  0.78027791  0.28417884  1
  I  I19  1  0.68671639  0.21972209  0.21582116  1
  I  I20  1  0.67507138  0.53750649  0.92530438  1
  I  I21  1  0.17507138  0.46249351  0.57469562  1
  I  I22  1  0.32492862  0.46249351  0.07469562  1
  I  I23  1  0.82492862  0.53750649  0.42530438  1
  I  I24  1  0.83781217  0.95713496  0.40155462  1
  I  I25  1  0.33781217  0.04286504  0.09844538  1
  I  I26  1  0.16218783  0.04286504  0.59844538  1
  I  I27  1  0.66218783  0.95713496  0.90155462  1
  I  I28  1  0.95386237  0.20689091  0.99651696  1
  I  I29  1  0.45386237  0.79310909  0.50348304  1
  I  I30  1  0.04613763  0.79310909  0.00348304  1
  I  I31  1  0.54613763  0.20689091  0.49651696  1
