# generated using pymatgen
data_Na2Hf4Si5Ge4S7O48
_symmetry_space_group_name_H-M   'P 1'
_cell_length_a   17.46224164
_cell_length_b   8.72789740
_cell_length_c   22.54030419
_cell_angle_alpha   90.04909782
_cell_angle_beta   89.24739138
_cell_angle_gamma   120.09223769
_symmetry_Int_Tables_number   1
_chemical_formula_structural   Na2Hf4Si5Ge4S7O48
_chemical_formula_sum   'Na6 Hf12 Si15 Ge12 S21 O144'
_cell_volume   2971.99883752
_cell_formula_units_Z   3
loop_
 _symmetry_equiv_pos_site_id
 _symmetry_equiv_pos_as_xyz
  1  'x, y, z'
loop_
 _atom_site_type_symbol
 _atom_site_label
 _atom_site_symmetry_multiplicity
 _atom_site_fract_x
 _atom_site_fract_y
 _atom_site_fract_z
 _atom_site_occupancy
  Na  Na0  1  0.99521191  0.99469752  0.49951081  1
  Na  Na1  1  0.49458837  0.99572600  0.99399176  1
  Na  Na2  1  0.34112359  0.34696072  0.83818700  1
  Na  Na3  1  0.83539187  0.34347696  0.83058841  1
  Na  Na4  1  0.33724248  0.33092851  0.33227662  1
  Na  Na5  1  0.83589399  0.33413561  0.34164427  1
  Hf  Hf6  1  0.49575776  0.00128042  0.35867945  1
  Hf  Hf7  1  0.99441022  0.98780867  0.85883132  1
  Hf  Hf8  1  0.50543768  0.99502921  0.64554889  1
  Hf  Hf9  1  0.00466863  0.00392804  0.14240776  1
  Hf  Hf10  1  0.33904828  0.35475159  0.68976157  1
  Hf  Hf11  1  0.83355292  0.32536498  0.18595184  1
  Hf  Hf12  1  0.17205671  0.66014536  0.01837779  1
  Hf  Hf13  1  0.65595552  0.65834864  0.02686658  1
  Hf  Hf14  1  0.15557017  0.65312267  0.52922446  1
  Hf  Hf15  1  0.67331414  0.68587937  0.51894388  1
  Hf  Hf16  1  0.65869375  0.65900388  0.31175422  1
  Hf  Hf17  1  0.16009149  0.65906384  0.81118583  1
  Si  Si18  1  0.14577618  0.00440285  0.25158509  1
  Si  Si19  1  0.49879563  0.28201099  0.24487438  1
  Si  Si20  1  0.64601628  0.28070110  0.75028245  1
  Si  Si21  1  0.99959880  0.71630117  0.74456810  1
  Si  Si22  1  0.50465422  0.72097222  0.75609127  1
  Si  Si23  1  0.96738409  0.30887502  0.59083128  1
  Si  Si24  1  0.33608014  0.62886242  0.58105709  1
  Si  Si25  1  0.46763158  0.62319262  0.09055007  1
  Si  Si26  1  0.83480695  0.04479281  0.08013191  1
  Si  Si27  1  0.31857950  0.67503751  0.91209301  1
  Si  Si28  1  0.01497864  0.37491915  0.91860918  1
  Si  Si29  1  0.52131346  0.36597800  0.91654203  1
  Si  Si30  1  0.81853421  0.96324737  0.41121707  1
  Si  Si31  1  0.02074885  0.66574338  0.41727723  1
  Si  Si32  1  0.51397376  0.65238555  0.41923778  1
  Ge  Ge33  1  0.00620781  0.99433157  0.35713533  1
  Ge  Ge34  1  0.50298906  0.00177823  0.85291091  1
  Ge  Ge35  1  0.99168578  0.99508861  0.65098073  1
  Ge  Ge36  1  0.48998730  0.99111978  0.14828136  1
  Ge  Ge37  1  0.83703605  0.35108551  0.69141796  1
  Ge  Ge38  1  0.33638519  0.31942468  0.19066276  1
  Ge  Ge39  1  0.35315236  0.38636370  0.97620339  1
  Ge  Ge40  1  0.83512915  0.31735914  0.97732874  1
  Ge  Ge41  1  0.34172661  0.35366259  0.48437814  1
  Ge  Ge42  1  0.85096839  0.31727735  0.47926358  1
  Ge  Ge43  1  0.15707035  0.67672435  0.31390924  1
  Ge  Ge44  1  0.64265375  0.61824079  0.80447454  1
  S  S45  1  0.64111504  0.99908684  0.24810338  1
  S  S46  1  0.34854608  0.70457597  0.25193924  1
  S  S47  1  0.85886249  0.71517602  0.25221474  1
  S  S48  1  0.00556753  0.29731440  0.25389797  1
  S  S49  1  0.14006039  0.28115746  0.74800199  1
  S  S50  1  0.35774265  0.00153609  0.75142977  1
  S  S51  1  0.85147983  0.99621316  0.75143129  1
  S  S52  1  0.47715053  0.33055632  0.58007277  1
  S  S53  1  0.18946209  0.05642905  0.58184951  1
  S  S54  1  0.69900688  0.06585763  0.58180528  1
  S  S55  1  0.83561692  0.61543964  0.58320000  1
  S  S56  1  0.97614730  0.62066828  0.07947682  1
  S  S57  1  0.33492451  0.05312884  0.08406354  1
  S  S58  1  0.19923776  0.33553129  0.08322978  1
  S  S59  1  0.68737062  0.32274954  0.08180880  1
  S  S60  1  0.80420821  0.64811446  0.91903037  1
  S  S61  1  0.17184571  0.96593933  0.91871099  1
  S  S62  1  0.66886953  0.96067594  0.91610094  1
  S  S63  1  0.30342335  0.95607928  0.41809882  1
  S  S64  1  0.16793322  0.37978818  0.41348658  1
  S  S65  1  0.67188033  0.37845905  0.41851147  1
  O  O66  1  0.09891901  0.04450844  0.30923002  1
  O  O67  1  0.59949681  0.02178746  0.30196325  1
  O  O68  1  0.40729010  0.78858775  0.30314075  1
  O  O69  1  0.91441371  0.79512575  0.30496175  1
  O  O70  1  0.48233494  0.16002331  0.30322772  1
  O  O71  1  0.98527875  0.18443557  0.30645203  1
  O  O72  1  0.09795368  0.17556353  0.80164514  1
  O  O73  1  0.60074742  0.15980861  0.80933160  1
  O  O74  1  0.48295692  0.80688964  0.81254476  1
  O  O75  1  0.98249774  0.80452275  0.80299903  1
  O  O76  1  0.41273902  0.03850647  0.80472712  1
  O  O77  1  0.91170852  0.03321975  0.80218958  1
  O  O78  1  0.39865773  0.97903019  0.69688605  1
  O  O79  1  0.89203457  0.96710051  0.69530829  1
  O  O80  1  0.08795182  0.20385809  0.69336698  1
  O  O81  1  0.58649199  0.21105312  0.69190266  1
  O  O82  1  0.01389907  0.84225863  0.68524345  1
  O  O83  1  0.51676056  0.82696653  0.69479136  1
  O  O84  1  0.38766132  0.81533910  0.19658249  1
  O  O85  1  0.89937876  0.82042351  0.19752644  1
  O  O86  1  0.01557272  0.21496619  0.19921077  1
  O  O87  1  0.51329085  0.18397587  0.18608294  1
  O  O88  1  0.08462910  0.96479860  0.19412840  1
  O  O89  1  0.59024834  0.97665982  0.19379928  1
  O  O90  1  0.43426472  0.35706493  0.63328881  1
  O  O91  1  0.91927130  0.34603301  0.64561109  1
  O  O92  1  0.24243198  0.13534086  0.63515610  1
  O  O93  1  0.74921198  0.14045325  0.63589698  1
  O  O94  1  0.31955234  0.50512702  0.63942017  1
  O  O95  1  0.81875579  0.51104531  0.63877871  1
  O  O96  1  0.41979304  0.49282406  0.14648909  1
  O  O97  1  0.93390910  0.51354407  0.13447239  1
  O  O98  1  0.31845059  0.12360654  0.14020244  1
  O  O99  1  0.81897663  0.13410374  0.14013608  1
  O  O100  1  0.24880046  0.35914032  0.13783413  1
  O  O101  1  0.74148797  0.34972411  0.13603636  1
  O  O102  1  0.23687374  0.30218488  0.02864142  1
  O  O103  1  0.73080019  0.29899219  0.02800032  1
  O  O104  1  0.41225133  0.55365433  0.02827122  1
  O  O105  1  0.92001672  0.54000859  0.02738222  1
  O  O106  1  0.35172530  0.16629701  0.03179288  1
  O  O107  1  0.85155791  0.17772673  0.02422471  1
  O  O108  1  0.23313787  0.16632111  0.52611025  1
  O  O109  1  0.73882026  0.17437450  0.52638847  1
  O  O110  1  0.35281412  0.53375574  0.52293508  1
  O  O111  1  0.85185228  0.53495598  0.53020827  1
  O  O112  1  0.41985813  0.29647691  0.52626521  1
  O  O113  1  0.91374112  0.26862186  0.52785919  1
  O  O114  1  0.27478849  0.70438409  0.97298851  1
  O  O115  1  0.76624479  0.68006647  0.97246065  1
  O  O116  1  0.07711655  0.46887430  0.97581580  1
  O  O117  1  0.57952672  0.45388051  0.97448598  1
  O  O118  1  0.15510795  0.85280758  0.97198177  1
  O  O119  1  0.65787143  0.85478654  0.97045203  1
  O  O120  1  0.26470800  0.84511490  0.47027445  1
  O  O121  1  0.77787680  0.84298127  0.47136735  1
  O  O122  1  0.15449920  0.46113148  0.46698617  1
  O  O123  1  0.65535718  0.45794666  0.47146746  1
  O  O124  1  0.08101436  0.70026918  0.47363808  1
  O  O125  1  0.57881157  0.68687204  0.47481643  1
  O  O126  1  0.06034945  0.61555311  0.35783090  1
  O  O127  1  0.55782563  0.61839711  0.35992591  1
  O  O128  1  0.25203182  0.87686591  0.36243536  1
  O  O129  1  0.75478927  0.87105555  0.35564950  1
  O  O130  1  0.18503449  0.49201000  0.35889792  1
  O  O131  1  0.68589238  0.48789336  0.36455940  1
  O  O132  1  0.05966863  0.49790023  0.86007395  1
  O  O133  1  0.56074269  0.50159021  0.85875224  1
  O  O134  1  0.18609998  0.88463276  0.86504068  1
  O  O135  1  0.68775752  0.88959172  0.86297359  1
  O  O136  1  0.25391460  0.63838331  0.85702392  1
  O  O137  1  0.75440057  0.62466345  0.86477928  1
  O  O138  1  0.01223626  0.84235649  0.40745274  1
  O  O139  1  0.50223399  0.82159108  0.40761061  1
  O  O140  1  0.39312631  0.97936261  0.40970859  1
  O  O141  1  0.91954761  0.99566718  0.40210036  1
  O  O142  1  0.08491278  0.20329652  0.40862287  1
  O  O143  1  0.59079680  0.20232985  0.41043963  1
  O  O144  1  0.00320083  0.18183168  0.90852392  1
  O  O145  1  0.51252013  0.17516501  0.90457735  1
  O  O146  1  0.09127872  0.98032166  0.91077545  1
  O  O147  1  0.58902578  0.97861386  0.91337115  1
  O  O148  1  0.41728288  0.84757435  0.90777835  1
  O  O149  1  0.89553991  0.80421388  0.91243645  1
  O  O150  1  0.48437838  0.17283589  0.58621203  1
  O  O151  1  0.98212856  0.13586207  0.59803783  1
  O  O152  1  0.10131973  0.04093112  0.58529865  1
  O  O153  1  0.61000366  0.04410899  0.58559668  1
  O  O154  1  0.42283558  0.81776620  0.58867869  1
  O  O155  1  0.91551173  0.79740980  0.58855496  1
  O  O156  1  0.48149567  0.82535068  0.09894369  1
  O  O157  1  0.98346514  0.79563423  0.08721265  1
  O  O158  1  0.41567514  0.03207615  0.08965668  1
  O  O159  1  0.92364724  0.03785211  0.09223510  1
  O  O160  1  0.10854223  0.17992078  0.08947216  1
  O  O161  1  0.59918929  0.16044733  0.08730321  1
  O  O162  1  0.34504902  0.15761169  0.74418980  1
  O  O163  1  0.84424371  0.15673053  0.74432288  1
  O  O164  1  0.22764428  0.29060531  0.74349496  1
  O  O165  1  0.74356909  0.29444314  0.73954424  1
  O  O166  1  0.41852566  0.51896105  0.75008881  1
  O  O167  1  0.91088739  0.51910661  0.74050341  1
  O  O168  1  0.34005792  0.52883141  0.24516039  1
  O  O169  1  0.84973087  0.53592434  0.24593706  1
  O  O170  1  0.41023674  0.30227147  0.24090129  1
  O  O171  1  0.92734979  0.32593283  0.24665662  1
  O  O172  1  0.24295543  0.18567732  0.24049002  1
  O  O173  1  0.73059665  0.16527983  0.24469806  1
  O  O174  1  0.32051128  0.48729563  0.92169052  1
  O  O175  1  0.81349744  0.48619459  0.92647283  1
  O  O176  1  0.42150918  0.34463177  0.92672813  1
  O  O177  1  0.91829565  0.36615063  0.92280742  1
  O  O178  1  0.25000722  0.14165202  0.92598630  1
  O  O179  1  0.74875692  0.14756202  0.92342929  1
  O  O180  1  0.31177787  0.13340836  0.42388909  1
  O  O181  1  0.82146088  0.15388055  0.42229981  1
  O  O182  1  0.24513675  0.35249608  0.41933334  1
  O  O183  1  0.74941176  0.35809905  0.42482287  1
  O  O184  1  0.41664896  0.46589502  0.42422453  1
  O  O185  1  0.92055295  0.49236965  0.42722545  1
  O  O186  1  0.18908742  0.49403725  0.07747450  1
  O  O187  1  0.67986067  0.48196826  0.07742561  1
  O  O188  1  0.06434268  0.64143233  0.07519832  1
  O  O189  1  0.56314700  0.64352479  0.07951255  1
  O  O190  1  0.25623322  0.87605551  0.07761148  1
  O  O191  1  0.75075506  0.85397189  0.07155888  1
  O  O192  1  0.18095984  0.88072046  0.57542878  1
  O  O193  1  0.68990187  0.88741839  0.57516253  1
  O  O194  1  0.24949116  0.64292803  0.57099762  1
  O  O195  1  0.75633744  0.63364547  0.57577935  1
  O  O196  1  0.06274693  0.48166667  0.58048939  1
  O  O197  1  0.56405818  0.48974981  0.57311775  1
  O  O198  1  0.15974564  0.83405235  0.26340208  1
  O  O199  1  0.65426692  0.84708151  0.25313086  1
  O  O200  1  0.26095313  0.69078911  0.26112792  1
  O  O201  1  0.77103064  0.69342774  0.25831487  1
  O  O202  1  0.08825246  0.47293872  0.25873853  1
  O  O203  1  0.58781049  0.47097347  0.25268588  1
  O  O204  1  0.15349809  0.46004822  0.75278303  1
  O  O205  1  0.66695611  0.48594424  0.76083314  1
  O  O206  1  0.08806525  0.70484283  0.75279296  1
  O  O207  1  0.59552158  0.71040644  0.76064073  1
  O  O208  1  0.27044364  0.84380932  0.75795155  1
  O  O209  1  0.76653594  0.83592361  0.76026487  1
