# generated using pymatgen
data_Na3CaAlP2SO12
_symmetry_space_group_name_H-M   'P 1'
_cell_length_a   9.18053061
_cell_length_b   9.06081092
_cell_length_c   22.11404843
_cell_angle_alpha   92.20894706
_cell_angle_beta   90.00000000
_cell_angle_gamma   120.43805059
_symmetry_Int_Tables_number   1
_chemical_formula_structural   Na3CaAlP2SO12
_chemical_formula_sum   'Na18 Ca6 Al6 P12 S6 O72'
_cell_volume   1584.40182951
_cell_formula_units_Z   6
loop_
 _symmetry_equiv_pos_site_id
 _symmetry_equiv_pos_as_xyz
  1  'x, y, z'
loop_
 _atom_site_type_symbol
 _atom_site_label
 _atom_site_symmetry_multiplicity
 _atom_site_fract_x
 _atom_site_fract_y
 _atom_site_fract_z
 _atom_site_occupancy
  Na  Na0  1  0.36337057  0.35750365  0.24838463  1
  Na  Na1  1  0.99424201  0.63731066  0.24482089  1
  Na  Na2  1  0.64306865  0.63731066  0.74482089  1
  Na  Na3  1  0.99413308  0.35750365  0.74838463  1
  Na  Na4  1  0.03003757  0.69083665  0.58171763  1
  Na  Na5  1  0.66090901  0.97064366  0.57815389  1
  Na  Na6  1  0.30973565  0.97064366  0.07815389  1
  Na  Na7  1  0.66080008  0.69083665  0.08171763  1
  Na  Na8  1  0.69670357  0.02417065  0.91505163  1
  Na  Na9  1  0.32757501  0.30397766  0.91148789  1
  Na  Na10  1  0.97640165  0.30397766  0.41148789  1
  Na  Na11  1  0.32746608  0.02417065  0.41505163  1
  Na  Na12  1  0.98382348  0.98421836  0.49965012  1
  Na  Na13  1  0.00039488  0.98421836  0.99965012  1
  Na  Na14  1  0.65049048  0.31755136  0.83298312  1
  Na  Na15  1  0.66706188  0.31755136  0.33298312  1
  Na  Na16  1  0.31715648  0.65088536  0.16631712  1
  Na  Na17  1  0.33372788  0.65088536  0.66631712  1
  Ca  Ca18  1  0.98865942  0.99483897  0.35118042  1
  Ca  Ca19  1  0.00617955  0.99483897  0.85118042  1
  Ca  Ca20  1  0.65532642  0.32817197  0.68451342  1
  Ca  Ca21  1  0.67284655  0.32817197  0.18451342  1
  Ca  Ca22  1  0.32199242  0.66150597  0.01784742  1
  Ca  Ca23  1  0.33951255  0.66150597  0.51784742  1
  Al  Al24  1  0.98494848  0.01992247  0.64882899  1
  Al  Al25  1  0.03497400  0.01992247  0.14882899  1
  Al  Al26  1  0.65161548  0.35325547  0.98216199  1
  Al  Al27  1  0.70164100  0.35325547  0.48216199  1
  Al  Al28  1  0.31828148  0.68658947  0.31549599  1
  Al  Al29  1  0.36830700  0.68658947  0.81549599  1
  P  P30  1  0.29068384  0.98884724  0.25182040  1
  P  P31  1  0.02197176  0.30712588  0.25297734  1
  P  P32  1  0.28515412  0.30712588  0.75297734  1
  P  P33  1  0.69816340  0.98884724  0.75182040  1
  P  P34  1  0.95735084  0.32218024  0.58515340  1
  P  P35  1  0.68863876  0.64045888  0.58631034  1
  P  P36  1  0.95182112  0.64045888  0.08631034  1
  P  P37  1  0.36483040  0.32218024  0.08515340  1
  P  P38  1  0.62401684  0.65551424  0.91848740  1
  P  P39  1  0.35530476  0.97379288  0.91964434  1
  P  P40  1  0.61848712  0.97379288  0.41964434  1
  P  P41  1  0.03149640  0.65551424  0.41848740  1
  S  S42  1  0.68799545  0.70817638  0.24652323  1
  S  S43  1  0.02018093  0.70817638  0.74652323  1
  S  S44  1  0.35466245  0.04150938  0.57985623  1
  S  S45  1  0.68684793  0.04150938  0.07985623  1
  S  S46  1  0.02132845  0.37484338  0.91319023  1
  S  S47  1  0.35351393  0.37484338  0.41319023  1
  O  O48  1  0.21421993  0.01255666  0.30945075  1
  O  O49  1  0.79200587  0.78401361  0.30093283  1
  O  O50  1  0.99790701  0.21791578  0.31167081  1
  O  O51  1  0.22000876  0.21791578  0.81167081  1
  O  O52  1  0.99200774  0.78401361  0.80093283  1
  O  O53  1  0.79833673  0.01255666  0.80945075  1
  O  O54  1  0.79002177  0.96232527  0.69483920  1
  O  O55  1  0.15557082  0.20001823  0.69873018  1
  O  O56  1  0.03210213  0.80609745  0.69224982  1
  O  O57  1  0.77399532  0.80609745  0.19224982  1
  O  O58  1  0.04444740  0.20001823  0.19873018  1
  O  O59  1  0.17230350  0.96232527  0.19483920  1
  O  O60  1  0.88088693  0.34588966  0.64278375  1
  O  O61  1  0.45867287  0.11734661  0.63426583  1
  O  O62  1  0.66457401  0.55124878  0.64500381  1
  O  O63  1  0.88667576  0.55124878  0.14500381  1
  O  O64  1  0.65867474  0.11734661  0.13426583  1
  O  O65  1  0.46500373  0.34588966  0.14278375  1
  O  O66  1  0.45668877  0.29565827  0.02817220  1
  O  O67  1  0.82223782  0.53335123  0.03206318  1
  O  O68  1  0.69876913  0.13943045  0.02558282  1
  O  O69  1  0.44066232  0.13943045  0.52558282  1
  O  O70  1  0.71111440  0.53335123  0.53206318  1
  O  O71  1  0.83897050  0.29565827  0.52817220  1
  O  O72  1  0.54755293  0.67922366  0.97611775  1
  O  O73  1  0.12533887  0.45068061  0.96759983  1
  O  O74  1  0.33124001  0.88458278  0.97833781  1
  O  O75  1  0.55334176  0.88458278  0.47833781  1
  O  O76  1  0.32534074  0.45068061  0.46759983  1
  O  O77  1  0.13166973  0.67922366  0.47611775  1
  O  O78  1  0.12335477  0.62899227  0.36150620  1
  O  O79  1  0.48890382  0.86668523  0.36539718  1
  O  O80  1  0.36543513  0.47276445  0.35891682  1
  O  O81  1  0.10732832  0.47276445  0.85891682  1
  O  O82  1  0.37778040  0.86668523  0.86539718  1
  O  O83  1  0.50563650  0.62899227  0.86150620  1
  O  O84  1  0.01037814  0.81107136  0.41258773  1
  O  O85  1  0.79987667  0.01206990  0.41102364  1
  O  O86  1  0.20332623  0.19706064  0.40933900  1
  O  O87  1  0.99373441  0.19706064  0.90933900  1
  O  O88  1  0.21219323  0.01206990  0.91102364  1
  O  O89  1  0.80069322  0.81107136  0.91258773  1
  O  O90  1  0.95975705  0.14874009  0.58871541  1
  O  O91  1  0.18562508  0.02820850  0.58531036  1
  O  O92  1  0.86107215  0.82197892  0.59096426  1
  O  O93  1  0.96090677  0.82197892  0.09096426  1
  O  O94  1  0.84258343  0.02820850  0.08531036  1
  O  O95  1  0.18898303  0.14874009  0.08871541  1
  O  O96  1  0.67704514  0.14440436  0.74592073  1
  O  O97  1  0.46654367  0.34540290  0.74435664  1
  O  O98  1  0.86999323  0.53039364  0.74267200  1
  O  O99  1  0.66040141  0.53039364  0.24267200  1
  O  O100  1  0.87886023  0.34540290  0.24435664  1
  O  O101  1  0.46736022  0.14440436  0.24592073  1
  O  O102  1  0.62642405  0.48207309  0.92204841  1
  O  O103  1  0.85229208  0.36154150  0.91864336  1
  O  O104  1  0.52773915  0.15531192  0.92429726  1
  O  O105  1  0.62757377  0.15531192  0.42429726  1
  O  O106  1  0.50925043  0.36154150  0.41864336  1
  O  O107  1  0.85565003  0.48207309  0.42204841  1
  O  O108  1  0.34371114  0.47773836  0.07925473  1
  O  O109  1  0.13320967  0.67873690  0.07769064  1
  O  O110  1  0.53665923  0.86372764  0.07600600  1
  O  O111  1  0.32706741  0.86372764  0.57600600  1
  O  O112  1  0.54552623  0.67873690  0.57769064  1
  O  O113  1  0.13402622  0.47773836  0.57925473  1
  O  O114  1  0.29309005  0.81540709  0.25538241  1
  O  O115  1  0.51895808  0.69487550  0.25197736  1
  O  O116  1  0.19440515  0.48864592  0.25763126  1
  O  O117  1  0.29423977  0.48864592  0.75763126  1
  O  O118  1  0.17591643  0.69487550  0.75197736  1
  O  O119  1  0.52231603  0.81540709  0.75538241  1
