# generated using pymatgen
data_BaGdCl5
_symmetry_space_group_name_H-M   'P 1'
_cell_length_a   5.54342059
_cell_length_b   6.87333503
_cell_length_c   10.06951746
_cell_angle_alpha   89.15698924
_cell_angle_beta   74.02447489
_cell_angle_gamma   86.93452307
_symmetry_Int_Tables_number   1
_chemical_formula_structural   BaGdCl5
_chemical_formula_sum   'Ba2 Gd2 Cl10'
_cell_volume   368.32135949
_cell_formula_units_Z   2
loop_
 _symmetry_equiv_pos_site_id
 _symmetry_equiv_pos_as_xyz
  1  'x, y, z'
loop_
 _atom_site_type_symbol
 _atom_site_label
 _atom_site_symmetry_multiplicity
 _atom_site_fract_x
 _atom_site_fract_y
 _atom_site_fract_z
 _atom_site_occupancy
  Ba  Ba0  1  0.32786252  0.25003248  0.34444993  1
  Ba  Ba1  1  0.67213748  0.74996752  0.65555007  1
  Gd  Gd2  1  0.07692411  0.25000653  0.84624460  1
  Gd  Gd3  1  0.92307489  0.74999247  0.15375540  1
  Cl  Cl4  1  0.62708254  0.25003345  0.74581020  1
  Cl  Cl5  1  0.37291746  0.74996655  0.25418980  1
  Cl  Cl6  1  0.27562603  0.90267155  0.93535442  1
  Cl  Cl7  1  0.78903150  0.59728929  0.93538187  1
  Cl  Cl8  1  0.81946200  0.00192905  0.37673809  1
  Cl  Cl9  1  0.80388432  0.49803841  0.37671121  1
  Cl  Cl10  1  0.18053800  0.99807095  0.62326191  1
  Cl  Cl11  1  0.19611568  0.50196159  0.62328879  1
  Cl  Cl12  1  0.21096850  0.40271071  0.06461813  1
  Cl  Cl13  1  0.72437397  0.09732845  0.06464558  1
