# generated using pymatgen
data_Na10La2Ta6Si11SO48
_symmetry_space_group_name_H-M   'P 1'
_cell_length_a   18.35944293
_cell_length_b   9.15732435
_cell_length_c   22.77111950
_cell_angle_alpha   90.03952525
_cell_angle_beta   90.04641060
_cell_angle_gamma   119.93708103
_symmetry_Int_Tables_number   1
_chemical_formula_structural   Na10La2Ta6Si11SO48
_chemical_formula_sum   'Na30 La6 Ta18 Si33 S3 O144'
_cell_volume   3317.55110518
_cell_formula_units_Z   3
loop_
 _symmetry_equiv_pos_site_id
 _symmetry_equiv_pos_as_xyz
  1  'x, y, z'
loop_
 _atom_site_type_symbol
 _atom_site_label
 _atom_site_symmetry_multiplicity
 _atom_site_fract_x
 _atom_site_fract_y
 _atom_site_fract_z
 _atom_site_occupancy
  Na  Na0  1  0.31894794  0.98640778  0.25626809  1
  Na  Na1  1  0.82083363  0.98705378  0.25487519  1
  Na  Na2  1  0.81514081  0.64343012  0.74670684  1
  Na  Na3  1  0.18525642  0.98448068  0.74915405  1
  Na  Na4  1  0.67695719  0.00005399  0.74901341  1
  Na  Na5  1  0.01820716  0.71146047  0.58480959  1
  Na  Na6  1  0.83189860  0.95821436  0.58289944  1
  Na  Na7  1  0.64794672  0.96956266  0.07932707  1
  Na  Na8  1  0.33779259  0.71421286  0.08505569  1
  Na  Na9  1  0.83773823  0.71530144  0.08739340  1
  Na  Na10  1  0.01767687  0.32525394  0.08593459  1
  Na  Na11  1  0.51440048  0.32114347  0.08430689  1
  Na  Na12  1  0.98692461  0.65160450  0.91561305  1
  Na  Na13  1  0.34695791  0.03536267  0.91336089  1
  Na  Na14  1  0.48827224  0.32628870  0.41851349  1
  Na  Na15  1  0.98899189  0.32525737  0.41883076  1
  Na  Na16  1  0.33748769  0.65403030  0.41798782  1
  Na  Na17  1  0.83829864  0.65550511  0.41772512  1
  Na  Na18  1  0.01682836  0.01677383  0.50185424  1
  Na  Na19  1  0.50923652  0.00036748  0.50630839  1
  Na  Na20  1  0.01068689  0.01657019  0.00011608  1
  Na  Na21  1  0.50514158  0.99911493  0.99599002  1
  Na  Na22  1  0.34021095  0.37184139  0.83341077  1
  Na  Na23  1  0.83986560  0.32312271  0.83292369  1
  Na  Na24  1  0.32782235  0.33499125  0.33299617  1
  Na  Na25  1  0.82956627  0.33949287  0.33192035  1
  Na  Na26  1  0.15944634  0.64214849  0.17496487  1
  Na  Na27  1  0.66108676  0.62892296  0.17688073  1
  Na  Na28  1  0.17660466  0.67158915  0.66988923  1
  Na  Na29  1  0.65175997  0.63840926  0.66331782  1
  La  La30  1  0.99896186  0.00875917  0.64692274  1
  La  La31  1  0.00794714  0.00087385  0.14438494  1
  La  La32  1  0.49954579  0.00257595  0.14976989  1
  La  La33  1  0.16168365  0.64936952  0.32545284  1
  La  La34  1  0.66259274  0.65437691  0.32421839  1
  La  La35  1  0.17208544  0.66930766  0.82139051  1
  Ta  Ta36  1  0.99465684  0.99741376  0.35379498  1
  Ta  Ta37  1  0.49267846  0.99807154  0.35340671  1
  Ta  Ta38  1  0.99074680  0.98876636  0.85526370  1
  Ta  Ta39  1  0.49993659  0.99963807  0.85406637  1
  Ta  Ta40  1  0.50155391  0.00328346  0.64521387  1
  Ta  Ta41  1  0.34304332  0.33637155  0.68521615  1
  Ta  Ta42  1  0.83320286  0.33553123  0.68861706  1
  Ta  Ta43  1  0.33834823  0.34537870  0.18573948  1
  Ta  Ta44  1  0.84008819  0.34733221  0.18520165  1
  Ta  Ta45  1  0.33586009  0.34016443  0.97847287  1
  Ta  Ta46  1  0.82665291  0.31867309  0.97443321  1
  Ta  Ta47  1  0.33506973  0.33434641  0.48676681  1
  Ta  Ta48  1  0.82635234  0.32537710  0.48447499  1
  Ta  Ta49  1  0.16725389  0.67021361  0.01783931  1
  Ta  Ta50  1  0.66694249  0.66547123  0.01938326  1
  Ta  Ta51  1  0.16946342  0.66882252  0.52147173  1
  Ta  Ta52  1  0.66162678  0.66193426  0.52012309  1
  Ta  Ta53  1  0.65873386  0.65925210  0.81356288  1
  Si  Si54  1  0.34936599  0.69129709  0.24750010  1
  Si  Si55  1  0.85233911  0.69767318  0.24631506  1
  Si  Si56  1  0.99472722  0.29695848  0.24625200  1
  Si  Si57  1  0.49392717  0.30216300  0.24696506  1
  Si  Si58  1  0.64196998  0.29027254  0.74903496  1
  Si  Si59  1  0.99651509  0.69582900  0.74806261  1
  Si  Si60  1  0.49639719  0.71248088  0.74994950  1
  Si  Si61  1  0.36035237  0.00964741  0.74833272  1
  Si  Si62  1  0.84718807  0.99840299  0.75033458  1
  Si  Si63  1  0.48360056  0.33386254  0.58189529  1
  Si  Si64  1  0.98019613  0.35018303  0.58249318  1
  Si  Si65  1  0.19458759  0.03864866  0.58672423  1
  Si  Si66  1  0.68658084  0.03479152  0.58739561  1
  Si  Si67  1  0.33288123  0.62206350  0.58707766  1
  Si  Si68  1  0.82331164  0.61386249  0.58344121  1
  Si  Si69  1  0.48404071  0.61527553  0.08145448  1
  Si  Si70  1  0.97838037  0.61081633  0.07473092  1
  Si  Si71  1  0.32455466  0.04128794  0.08101496  1
  Si  Si72  1  0.82538740  0.04113670  0.08278871  1
  Si  Si73  1  0.19562503  0.35094576  0.08040067  1
  Si  Si74  1  0.69543629  0.34755814  0.07988347  1
  Si  Si75  1  0.32195109  0.67351935  0.91863562  1
  Si  Si76  1  0.80657506  0.65756609  0.91413414  1
  Si  Si77  1  0.01700901  0.36400732  0.91877009  1
  Si  Si78  1  0.52124994  0.37249099  0.91738206  1
  Si  Si79  1  0.16584960  0.97231063  0.91499431  1
  Si  Si80  1  0.66137412  0.94984481  0.91648874  1
  Si  Si81  1  0.31408214  0.97330463  0.41568361  1
  Si  Si82  1  0.81480232  0.96864871  0.41714477  1
  Si  Si83  1  0.16791887  0.36097334  0.42118229  1
  Si  Si84  1  0.66564031  0.36033091  0.41855593  1
  Si  Si85  1  0.01262973  0.66476548  0.42247035  1
  Si  Si86  1  0.51397244  0.66923135  0.41987783  1
  S  S87  1  0.15550255  0.01837816  0.25487615  1
  S  S88  1  0.65540450  0.01994637  0.25112730  1
  S  S89  1  0.15695423  0.28800161  0.75377303  1
  O  O90  1  0.10328137  0.02151339  0.30463092  1
  O  O91  1  0.60019849  0.01926649  0.29943909  1
  O  O92  1  0.41495306  0.81133665  0.30349576  1
  O  O93  1  0.91640166  0.81211824  0.30346343  1
  O  O94  1  0.48911172  0.16796264  0.30180990  1
  O  O95  1  0.98958672  0.16738772  0.30291537  1
  O  O96  1  0.10423017  0.18062792  0.80384697  1
  O  O97  1  0.59458757  0.16395387  0.80508005  1
  O  O98  1  0.48471927  0.80670362  0.80786633  1
  O  O99  1  0.98778514  0.80994037  0.80423937  1
  O  O100  1  0.41251560  0.02173818  0.80964737  1
  O  O101  1  0.91631942  0.02097721  0.80238645  1
  O  O102  1  0.41568387  0.99766107  0.69395740  1
  O  O103  1  0.87051679  0.94393260  0.68916965  1
  O  O104  1  0.11548417  0.21615581  0.69740917  1
  O  O105  1  0.58796649  0.19907898  0.69015052  1
  O  O106  1  0.00239071  0.78917174  0.68697327  1
  O  O107  1  0.51868704  0.84286762  0.69480830  1
  O  O108  1  0.38700089  0.77890983  0.18511478  1
  O  O109  1  0.89123534  0.79008959  0.18495530  1
  O  O110  1  0.00092859  0.21857884  0.18470243  1
  O  O111  1  0.50337060  0.23331249  0.18392790  1
  O  O112  1  0.11345758  0.99762763  0.19789864  1
  O  O113  1  0.61689767  0.00193431  0.19260935  1
  O  O114  1  0.43236847  0.35665262  0.63846635  1
  O  O115  1  0.92791682  0.36002575  0.64207169  1
  O  O116  1  0.24685809  0.13379520  0.64798748  1
  O  O117  1  0.74625703  0.12947142  0.64588621  1
  O  O118  1  0.31943539  0.49536449  0.64294905  1
  O  O119  1  0.81843196  0.50475260  0.64389307  1
  O  O120  1  0.43324514  0.50343033  0.14170960  1
  O  O121  1  0.93038563  0.49472231  0.13583723  1
  O  O122  1  0.31942787  0.13973092  0.14147134  1
  O  O123  1  0.81504101  0.13287762  0.14298501  1
  O  O124  1  0.25128610  0.35977704  0.14026295  1
  O  O125  1  0.75311805  0.36175058  0.13843787  1
  O  O126  1  0.25321941  0.35097032  0.02636199  1
  O  O127  1  0.74569789  0.34313305  0.02164520  1
  O  O128  1  0.42783831  0.49960255  0.02768645  1
  O  O129  1  0.92088256  0.50280213  0.01907358  1
  O  O130  1  0.33589880  0.15676588  0.02359361  1
  O  O131  1  0.82145838  0.15169819  0.02773894  1
  O  O132  1  0.25451056  0.16371159  0.53517970  1
  O  O133  1  0.74108695  0.14832084  0.53170392  1
  O  O134  1  0.34708129  0.53039283  0.53017423  1
  O  O135  1  0.82192333  0.50071482  0.52826049  1
  O  O136  1  0.43058050  0.32277324  0.52347358  1
  O  O137  1  0.92413230  0.35392656  0.52787130  1
  O  O138  1  0.26553936  0.69958438  0.97191811  1
  O  O139  1  0.76285957  0.68751250  0.97321494  1
  O  O140  1  0.08180281  0.46157179  0.97515379  1
  O  O141  1  0.58059770  0.46900255  0.97594697  1
  O  O142  1  0.15003138  0.82389766  0.96548005  1
  O  O143  1  0.65189213  0.83444484  0.97585731  1
  O  O144  1  0.25985463  0.82688458  0.46607108  1
  O  O145  1  0.76263296  0.82859975  0.46978247  1
  O  O146  1  0.14776312  0.46912031  0.47185548  1
  O  O147  1  0.64752598  0.46961434  0.47040747  1
  O  O148  1  0.07895537  0.69489429  0.47759183  1
  O  O149  1  0.58143902  0.69738588  0.47397810  1
  O  O150  1  0.03547630  0.58229080  0.36814738  1
  O  O151  1  0.53657997  0.58916197  0.36514126  1
  O  O152  1  0.27058069  0.92303269  0.35241286  1
  O  O153  1  0.77061515  0.92187271  0.35417035  1
  O  O154  1  0.20971231  0.48218370  0.36505257  1
  O  O155  1  0.70777263  0.48407354  0.36341072  1
  O  O156  1  0.04460657  0.49309722  0.86475851  1
  O  O157  1  0.56871618  0.49570902  0.86120477  1
  O  O158  1  0.19664482  0.93045538  0.85436234  1
  O  O159  1  0.67142902  0.85044383  0.86025357  1
  O  O160  1  0.27164558  0.62086605  0.85812411  1
  O  O161  1  0.74786530  0.63734600  0.85739336  1
  O  O162  1  0.01016898  0.83991125  0.40774297  1
  O  O163  1  0.51098772  0.84414667  0.40743152  1
  O  O164  1  0.40697961  0.97438980  0.40950256  1
  O  O165  1  0.90794933  0.97293821  0.40979926  1
  O  O166  1  0.07760710  0.18787477  0.40769515  1
  O  O167  1  0.57460235  0.18893175  0.40650388  1
  O  O168  1  0.01222842  0.18129646  0.90627881  1
  O  O169  1  0.51448186  0.18882164  0.90903487  1
  O  O170  1  0.07381676  0.96421526  0.90899189  1
  O  O171  1  0.57879759  0.97141751  0.90915733  1
  O  O172  1  0.40920040  0.85856475  0.91456850  1
  O  O173  1  0.90171453  0.82949011  0.90563112  1
  O  O174  1  0.49388236  0.16759761  0.58870528  1
  O  O175  1  0.97960970  0.17459865  0.57703497  1
  O  O176  1  0.10012087  0.00636597  0.58074486  1
  O  O177  1  0.59400726  0.01661712  0.59088955  1
  O  O178  1  0.41552469  0.81091834  0.59549852  1
  O  O179  1  0.90806614  0.79578462  0.57807082  1
  O  O180  1  0.49621029  0.80119709  0.07812901  1
  O  O181  1  0.98186347  0.78917940  0.07309945  1
  O  O182  1  0.40566985  0.01416949  0.07963393  1
  O  O183  1  0.90835296  0.02460565  0.07779785  1
  O  O184  1  0.10119029  0.19695639  0.07515120  1
  O  O185  1  0.60347684  0.18148659  0.07813191  1
  O  O186  1  0.35458029  0.18570788  0.74262790  1
  O  O187  1  0.83879427  0.16929170  0.74697063  1
  O  O188  1  0.23809282  0.28411455  0.75580262  1
  O  O189  1  0.73624678  0.30788322  0.74326841  1
  O  O190  1  0.41377824  0.52513572  0.74101785  1
  O  O191  1  0.90434567  0.51422003  0.74844619  1
  O  O192  1  0.34577383  0.50747127  0.24700193  1
  O  O193  1  0.84818599  0.51232757  0.24463584  1
  O  O194  1  0.39864791  0.28351414  0.24764988  1
  O  O195  1  0.90030173  0.28554284  0.24623703  1
  O  O196  1  0.23594665  0.18279935  0.25443389  1
  O  O197  1  0.73586103  0.18453624  0.25303030  1
  O  O198  1  0.34546801  0.52658369  0.93189784  1
  O  O199  1  0.82774307  0.50290062  0.91848896  1
  O  O200  1  0.42418685  0.33635360  0.92175431  1
  O  O201  1  0.91907510  0.32234074  0.92931591  1
  O  O202  1  0.24392424  0.15959413  0.93154562  1
  O  O203  1  0.74502488  0.13876792  0.92068595  1
  O  O204  1  0.34080436  0.16891353  0.42961380  1
  O  O205  1  0.84169407  0.16336604  0.43299922  1
  O  O206  1  0.24159618  0.32042161  0.44046162  1
  O  O207  1  0.73666497  0.30862869  0.43359961  1
  O  O208  1  0.41672829  0.52027748  0.43318755  1
  O  O209  1  0.91276261  0.51950118  0.43427521  1
  O  O210  1  0.19215782  0.52869078  0.07720729  1
  O  O211  1  0.68915623  0.52132145  0.07806665  1
  O  O212  1  0.06991959  0.61951800  0.07395354  1
  O  O213  1  0.57587668  0.62385174  0.08013872  1
  O  O214  1  0.23871217  0.85499644  0.07403163  1
  O  O215  1  0.74006587  0.85212060  0.07717769  1
  O  O216  1  0.18857263  0.85345317  0.57693614  1
  O  O217  1  0.68228680  0.85150799  0.57764529  1
  O  O218  1  0.24822780  0.63717786  0.57343918  1
  O  O219  1  0.74164434  0.64170932  0.57746450  1
  O  O220  1  0.07387626  0.52044456  0.57969429  1
  O  O221  1  0.57503254  0.50740725  0.57706799  1
  O  O222  1  0.17228440  0.87853512  0.25929074  1
  O  O223  1  0.67252895  0.87991662  0.25636427  1
  O  O224  1  0.26142835  0.68875085  0.25338333  1
  O  O225  1  0.76297422  0.68960589  0.25222467  1
  O  O226  1  0.07041927  0.48741738  0.25184303  1
  O  O227  1  0.56952638  0.49119463  0.25287068  1
  O  O228  1  0.17262810  0.46035438  0.75587400  1
  O  O229  1  0.65657202  0.48322400  0.75628924  1
  O  O230  1  0.07987563  0.68127736  0.75245006  1
  O  O231  1  0.58140448  0.69305543  0.75860625  1
  O  O232  1  0.26555241  0.85348846  0.74445936  1
  O  O233  1  0.75329881  0.83653956  0.76509488  1
