# generated using pymatgen
data_Na8Ca2Al2Si3(SO8)3
_symmetry_space_group_name_H-M   'P 1'
_cell_length_a   9.42618888
_cell_length_b   9.22995069
_cell_length_c   22.44660954
_cell_angle_alpha   94.54356612
_cell_angle_beta   89.62884936
_cell_angle_gamma   120.71534641
_symmetry_Int_Tables_number   1
_chemical_formula_structural   Na8Ca2Al2Si3(SO8)3
_chemical_formula_sum   'Na24 Ca6 Al6 Si9 S9 O72'
_cell_volume   1672.36986190
_cell_formula_units_Z   3
loop_
 _symmetry_equiv_pos_site_id
 _symmetry_equiv_pos_as_xyz
  1  'x, y, z'
loop_
 _atom_site_type_symbol
 _atom_site_label
 _atom_site_symmetry_multiplicity
 _atom_site_fract_x
 _atom_site_fract_y
 _atom_site_fract_z
 _atom_site_occupancy
  Na  Na0  1  0.64782804  0.02312371  0.26083699  1
  Na  Na1  1  0.35216144  0.34371396  0.25730019  1
  Na  Na2  1  0.00156966  0.62991853  0.24048827  1
  Na  Na3  1  0.62539088  0.63502087  0.73598597  1
  Na  Na4  1  0.98959076  0.34266770  0.73876498  1
  Na  Na5  1  0.37195826  0.03079520  0.74830508  1
  Na  Na6  1  0.31045548  0.35144009  0.59208789  1
  Na  Na7  1  0.01820676  0.67857960  0.58953357  1
  Na  Na8  1  0.66732075  0.96205688  0.57619887  1
  Na  Na9  1  0.28431120  0.95574147  0.08167080  1
  Na  Na10  1  0.67611814  0.69830885  0.07907780  1
  Na  Na11  1  0.02769300  0.34621438  0.09319104  1
  Na  Na12  1  0.99542323  0.68633848  0.91549444  1
  Na  Na13  1  0.67815394  0.02114488  0.90100014  1
  Na  Na14  1  0.33678095  0.29013584  0.90488666  1
  Na  Na15  1  0.95100496  0.28592378  0.41675680  1
  Na  Na16  1  0.34078840  0.03651574  0.40649574  1
  Na  Na17  1  0.68683873  0.67721270  0.43082807  1
  Na  Na18  1  0.97894698  0.99429654  0.50498675  1
  Na  Na19  1  0.01520872  0.99419271  0.99954231  1
  Na  Na20  1  0.64778806  0.32378756  0.82607657  1
  Na  Na21  1  0.66284227  0.31285038  0.33657173  1
  Na  Na22  1  0.30927858  0.65911209  0.16981606  1
  Na  Na23  1  0.34190706  0.65162628  0.66200586  1
  Ca  Ca24  1  0.99905519  0.00668146  0.34886509  1
  Ca  Ca25  1  0.00233540  0.00730364  0.84536982  1
  Ca  Ca26  1  0.66913483  0.33731549  0.68308898  1
  Ca  Ca27  1  0.67119807  0.32992667  0.18433524  1
  Ca  Ca28  1  0.32689499  0.67184500  0.01289065  1
  Ca  Ca29  1  0.33843343  0.66560370  0.51703524  1
  Al  Al30  1  0.96399520  0.02906697  0.64804805  1
  Al  Al31  1  0.01101702  0.97731816  0.16497994  1
  Al  Al32  1  0.66868323  0.33894319  0.98119681  1
  Al  Al33  1  0.67570979  0.30978838  0.49781888  1
  Al  Al34  1  0.31452893  0.69502575  0.31074873  1
  Al  Al35  1  0.35060567  0.70178609  0.80048424  1
  Si  Si36  1  0.29964366  0.99336019  0.25313616  1
  Si  Si37  1  0.01672842  0.30178293  0.25211130  1
  Si  Si38  1  0.28681470  0.30665822  0.75305634  1
  Si  Si39  1  0.69129125  0.99515883  0.75157971  1
  Si  Si40  1  0.96723675  0.32976808  0.58586813  1
  Si  Si41  1  0.68495291  0.63569336  0.58519246  1
  Si  Si42  1  0.95482455  0.63713902  0.08622343  1
  Si  Si43  1  0.34561992  0.97234567  0.91983398  1
  Si  Si44  1  0.61970221  0.96878919  0.41905126  1
  S  S45  1  0.69433657  0.71208343  0.24609917  1
  S  S46  1  0.01917032  0.70048042  0.75415067  1
  S  S47  1  0.36184459  0.04604698  0.57936501  1
  S  S48  1  0.68125565  0.04247871  0.07719335  1
  S  S49  1  0.37450118  0.32998731  0.07882872  1
  S  S50  1  0.63363614  0.65248044  0.91856454  1
  S  S51  1  0.00839763  0.36027761  0.92131560  1
  S  S52  1  0.34719900  0.36972702  0.41293972  1
  S  S53  1  0.03531501  0.66019091  0.41190906  1
  O  O54  1  0.22197491  0.01846480  0.31374660  1
  O  O55  1  0.78625744  0.77932890  0.30347479  1
  O  O56  1  0.97261927  0.19861573  0.31059954  1
  O  O57  1  0.22491423  0.20249631  0.81160891  1
  O  O58  1  0.00717374  0.77888593  0.81214775  1
  O  O59  1  0.78522376  0.00648282  0.81277309  1
  O  O60  1  0.79160072  0.97580501  0.69329268  1
  O  O61  1  0.15001029  0.19428214  0.69410487  1
  O  O62  1  0.03431747  0.79827911  0.70346363  1
  O  O63  1  0.79835517  0.81656919  0.19633783  1
  O  O64  1  0.03753945  0.18249654  0.19308854  1
  O  O65  1  0.17698592  0.96474805  0.19444761  1
  O  O66  1  0.89530391  0.36373778  0.64655243  1
  O  O67  1  0.45073178  0.11317714  0.63753198  1
  O  O68  1  0.64555322  0.53142571  0.64306791  1
  O  O69  1  0.88118276  0.53570676  0.14422952  1
  O  O70  1  0.65494754  0.10938548  0.13512064  1
  O  O71  1  0.46244863  0.34800903  0.13525047  1
  O  O72  1  0.47062445  0.32008247  0.02611154  1
  O  O73  1  0.82160755  0.52968341  0.02675926  1
  O  O74  1  0.68201271  0.14429913  0.02804596  1
  O  O75  1  0.46933020  0.14963793  0.53034109  1
  O  O76  1  0.70378005  0.51677422  0.52549702  1
  O  O77  1  0.84395344  0.29976000  0.52718509  1
  O  O78  1  0.56131532  0.67311336  0.97501718  1
  O  O79  1  0.10664799  0.43754397  0.97788557  1
  O  O80  1  0.31811288  0.87570056  0.97953584  1
  O  O81  1  0.54792039  0.86841607  0.47729259  1
  O  O82  1  0.33773593  0.45457739  0.46959126  1
  O  O83  1  0.12897298  0.67823138  0.46663708  1
  O  O84  1  0.12996185  0.65423471  0.35760969  1
  O  O85  1  0.48742418  0.86204816  0.35828907  1
  O  O86  1  0.34781513  0.46063931  0.36113210  1
  O  O87  1  0.08973445  0.45837950  0.87043564  1
  O  O88  1  0.36981554  0.85749379  0.86095957  1
  O  O89  1  0.53085861  0.63578220  0.86629164  1
  O  O90  1  0.00985076  0.80664883  0.41195024  1
  O  O91  1  0.80330077  0.99219741  0.41248588  1
  O  O92  1  0.20123971  0.19540278  0.41334593  1
  O  O93  1  0.97658352  0.18505527  0.91611178  1
  O  O94  1  0.18725710  0.99848976  0.91400754  1
  O  O95  1  0.80607355  0.79825190  0.91699074  1
  O  O96  1  0.96776364  0.14937523  0.58729843  1
  O  O97  1  0.20888869  0.05244529  0.57631139  1
  O  O98  1  0.86723148  0.82396048  0.59417240  1
  O  O99  1  0.96837582  0.83115353  0.09517607  1
  O  O100  1  0.84074456  0.04564694  0.07727955  1
  O  O101  1  0.20899601  0.17328308  0.07515446  1
  O  O102  1  0.66198458  0.15341900  0.74982954  1
  O  O103  1  0.47345140  0.34197640  0.74431669  1
  O  O104  1  0.87481440  0.52725548  0.75019765  1
  O  O105  1  0.65304400  0.53505165  0.23750088  1
  O  O106  1  0.86741439  0.33849433  0.24215386  1
  O  O107  1  0.48610151  0.15334033  0.24836503  1
  O  O108  1  0.64014474  0.49030729  0.91841237  1
  O  O109  1  0.84367022  0.35399317  0.92616247  1
  O  O110  1  0.52343806  0.16317348  0.92677890  1
  O  O111  1  0.63435889  0.16228366  0.42799988  1
  O  O112  1  0.50238554  0.36280784  0.41267068  1
  O  O113  1  0.87346543  0.50032452  0.40756235  1
  O  O114  1  0.35421531  0.48052940  0.07709213  1
  O  O115  1  0.14014227  0.66266331  0.08008958  1
  O  O116  1  0.54448185  0.86272854  0.07109782  1
  O  O117  1  0.32115719  0.86854024  0.57167240  1
  O  O118  1  0.53309137  0.67052903  0.57683454  1
  O  O119  1  0.15445028  0.48739139  0.57998132  1
  O  O120  1  0.30241653  0.81351864  0.25272006  1
  O  O121  1  0.54035068  0.71871739  0.24453297  1
  O  O122  1  0.19906843  0.49063829  0.26054032  1
  O  O123  1  0.29198634  0.49279333  0.76429380  1
  O  O124  1  0.17594745  0.69166246  0.75558028  1
  O  O125  1  0.50572120  0.81588529  0.74869122  1
