# generated using pymatgen
data_Na3TaIn3P5SO24
_symmetry_space_group_name_H-M   'P 1'
_cell_length_a   8.90849215
_cell_length_b   8.91420760
_cell_length_c   23.00561694
_cell_angle_alpha   89.74174757
_cell_angle_beta   90.22263369
_cell_angle_gamma   120.05770421
_symmetry_Int_Tables_number   1
_chemical_formula_structural   Na3TaIn3P5SO24
_chemical_formula_sum   'Na9 Ta3 In9 P15 S3 O72'
_cell_volume   1581.22422911
_cell_formula_units_Z   3
loop_
 _symmetry_equiv_pos_site_id
 _symmetry_equiv_pos_as_xyz
  1  'x, y, z'
loop_
 _atom_site_type_symbol
 _atom_site_label
 _atom_site_symmetry_multiplicity
 _atom_site_fract_x
 _atom_site_fract_y
 _atom_site_fract_z
 _atom_site_occupancy
  Na  Na0  1  0.64853653  0.64336270  0.74692593  1
  Na  Na1  1  0.29977470  0.95950222  0.08531565  1
  Na  Na2  1  0.32984118  0.02049781  0.41172143  1
  Na  Na3  1  0.98024783  0.99952155  0.50047563  1
  Na  Na4  1  0.98684850  0.00026004  0.99713716  1
  Na  Na5  1  0.66630046  0.31887186  0.82967499  1
  Na  Na6  1  0.66813660  0.33582789  0.32635013  1
  Na  Na7  1  0.33223466  0.65943120  0.16692410  1
  Na  Na8  1  0.31720474  0.65664274  0.65945822  1
  Ta  Ta9  1  0.66916252  0.33606759  0.97876860  1
  Ta  Ta10  1  0.67654111  0.34349521  0.48228274  1
  Ta  Ta11  1  0.32801750  0.66520102  0.81711719  1
  In  In12  1  0.99898597  0.00144636  0.34979937  1
  In  In13  1  0.00451796  0.00435606  0.85098954  1
  In  In14  1  0.99398155  0.00186377  0.64872669  1
  In  In15  1  0.99928032  0.99942070  0.14444085  1
  In  In16  1  0.67168260  0.33266361  0.68495238  1
  In  In17  1  0.66250303  0.32909879  0.18405007  1
  In  In18  1  0.33349813  0.66079930  0.01713603  1
  In  In19  1  0.33501833  0.65824634  0.51607775  1
  In  In20  1  0.33474130  0.67146121  0.31900039  1
  P  P21  1  0.29878773  0.99772896  0.24970872  1
  P  P22  1  0.29518394  0.29836163  0.75060003  1
  P  P23  1  0.00461947  0.70926687  0.75047445  1
  P  P24  1  0.69913260  0.99752046  0.75234914  1
  P  P25  1  0.96302983  0.33363278  0.58381729  1
  P  P26  1  0.66820425  0.62951936  0.58559900  1
  P  P27  1  0.95640254  0.62248470  0.08300543  1
  P  P28  1  0.66894245  0.04299483  0.08161697  1
  P  P29  1  0.37741068  0.33557145  0.08219152  1
  P  P30  1  0.62739578  0.66536318  0.91691877  1
  P  P31  1  0.03667853  0.37222081  0.91825515  1
  P  P32  1  0.33606246  0.96182937  0.91960733  1
  P  P33  1  0.63309780  0.96756611  0.41928249  1
  P  P34  1  0.33625283  0.36956217  0.41672803  1
  P  P35  1  0.03870095  0.66697310  0.41748587  1
  S  S36  1  0.70055645  0.70230563  0.24987003  1
  S  S37  1  0.00187256  0.29998335  0.24942642  1
  S  S38  1  0.37263555  0.03999934  0.58128938  1
  O  O39  1  0.21235508  0.01357484  0.30599753  1
  O  O40  1  0.79976359  0.78549673  0.30331582  1
  O  O41  1  0.97790522  0.19728516  0.30278371  1
  O  O42  1  0.21989577  0.18905283  0.80487218  1
  O  O43  1  0.96589800  0.78813480  0.80298596  1
  O  O44  1  0.81043316  0.02749869  0.80595662  1
  O  O45  1  0.76476034  0.94439334  0.69833749  1
  O  O46  1  0.18637040  0.22705295  0.69518848  1
  O  O47  1  0.04363266  0.81852122  0.69494394  1
  O  O48  1  0.78289797  0.80609343  0.19681424  1
  O  O49  1  0.01476589  0.21314030  0.19637067  1
  O  O50  1  0.19531510  0.98355690  0.19314260  1
  O  O51  1  0.88021123  0.34994012  0.63934322  1
  O  O52  1  0.47312800  0.12153496  0.63445780  1
  O  O53  1  0.64710270  0.53170058  0.64285591  1
  O  O54  1  0.87700598  0.52092258  0.13846007  1
  O  O55  1  0.63605636  0.11759146  0.13655640  1
  O  O56  1  0.47651313  0.35727769  0.13825892  1
  O  O57  1  0.48186683  0.32091982  0.02804231  1
  O  O58  1  0.84310858  0.52065033  0.02775155  1
  O  O59  1  0.68337252  0.16007524  0.02688309  1
  O  O60  1  0.46875473  0.14564214  0.52817197  1
  O  O61  1  0.67292452  0.51524950  0.53284597  1
  O  O62  1  0.84508124  0.32284556  0.52970823  1
  O  O63  1  0.54773494  0.69322618  0.97071719  1
  O  O64  1  0.14037735  0.44964684  0.97293014  1
  O  O65  1  0.31116412  0.86350074  0.97620535  1
  O  O66  1  0.55233534  0.85720637  0.47343515  1
  O  O67  1  0.30085286  0.44283720  0.47122314  1
  O  O68  1  0.15834342  0.70636364  0.47006642  1
  O  O69  1  0.10443411  0.62212367  0.36292426  1
  O  O70  1  0.51181941  0.90088775  0.36587647  1
  O  O71  1  0.37554301  0.48091246  0.36220271  1
  O  O72  1  0.13338834  0.49286540  0.86437361  1
  O  O73  1  0.35821033  0.85961218  0.86718813  1
  O  O74  1  0.50839323  0.63790394  0.86203516  1
  O  O75  1  0.01358668  0.82460609  0.41109239  1
  O  O76  1  0.81610246  0.99847606  0.41098505  1
  O  O77  1  0.18763764  0.17992427  0.41093617  1
  O  O78  1  0.00598588  0.19048697  0.91020180  1
  O  O79  1  0.18358710  0.99035644  0.91052994  1
  O  O80  1  0.81013230  0.81589280  0.90932217  1
  O  O81  1  0.96932929  0.16405670  0.58204387  1
  O  O82  1  0.20433290  0.03403352  0.58142925  1
  O  O83  1  0.84158435  0.80170820  0.58287113  1
  O  O84  1  0.96718599  0.80162563  0.08162885  1
  O  O85  1  0.83716363  0.03524932  0.08261460  1
  O  O86  1  0.20453665  0.15917594  0.08075300  1
  O  O87  1  0.66416093  0.14744145  0.74511595  1
  O  O88  1  0.48551089  0.33989031  0.74511997  1
  O  O89  1  0.84517407  0.52537431  0.74575950  1
  O  O90  1  0.68808018  0.53005182  0.24711331  1
  O  O91  1  0.84821622  0.32366574  0.24657835  1
  O  O92  1  0.48139922  0.16341433  0.24829757  1
  O  O93  1  0.63392827  0.49185375  0.92339768  1
  O  O94  1  0.85760404  0.36719048  0.92242185  1
  O  O95  1  0.50974442  0.14203239  0.92303577  1
  O  O96  1  0.64767882  0.15116934  0.43017006  1
  O  O97  1  0.50144049  0.34737780  0.42790302  1
  O  O98  1  0.85270951  0.50534155  0.42956302  1
  O  O99  1  0.35154465  0.49101286  0.07694133  1
  O  O100  1  0.14159239  0.65233311  0.07778733  1
  O  O101  1  0.50389288  0.86515450  0.07524152  1
  O  O102  1  0.35389666  0.86715787  0.57703862  1
  O  O103  1  0.50817341  0.64961455  0.57890647  1
  O  O104  1  0.14016269  0.49806089  0.57757221  1
  O  O105  1  0.31564969  0.83263047  0.25268439  1
  O  O106  1  0.52422045  0.67961256  0.25355664  1
  O  O107  1  0.16174002  0.47131336  0.25323567  1
  O  O108  1  0.31553141  0.48533257  0.76192791  1
  O  O109  1  0.16694515  0.68723011  0.76333844  1
  O  O110  1  0.51550124  0.82869238  0.76411191  1
