# generated using pymatgen
data_Na8Ti2Al2Si5SO24
_symmetry_space_group_name_H-M   'P 1'
_cell_length_a   8.90332465
_cell_length_b   8.89001908
_cell_length_c   21.81202154
_cell_angle_alpha   90.08437178
_cell_angle_beta   89.44783287
_cell_angle_gamma   119.90744359
_symmetry_Int_Tables_number   1
_chemical_formula_structural   Na8Ti2Al2Si5SO24
_chemical_formula_sum   'Na24 Ti6 Al6 Si15 S3 O72'
_cell_volume   1496.45054484
_cell_formula_units_Z   3
loop_
 _symmetry_equiv_pos_site_id
 _symmetry_equiv_pos_as_xyz
  1  'x, y, z'
loop_
 _atom_site_type_symbol
 _atom_site_label
 _atom_site_symmetry_multiplicity
 _atom_site_fract_x
 _atom_site_fract_y
 _atom_site_fract_z
 _atom_site_occupancy
  Na  Na0  1  0.63788199  0.00297649  0.25140576  1
  Na  Na1  1  0.36178709  0.36479411  0.24879192  1
  Na  Na2  1  0.00005764  0.63463775  0.25005897  1
  Na  Na3  1  0.63274439  0.63291732  0.74848771  1
  Na  Na4  1  0.99726872  0.36366272  0.74984514  1
  Na  Na5  1  0.36878589  0.00460118  0.74995166  1
  Na  Na6  1  0.29976394  0.33421849  0.58462414  1
  Na  Na7  1  0.03546331  0.70155955  0.58262167  1
  Na  Na8  1  0.66644000  0.96376425  0.58288997  1
  Na  Na9  1  0.29136536  0.96585702  0.08257827  1
  Na  Na10  1  0.66897812  0.69489027  0.08604059  1
  Na  Na11  1  0.04025779  0.33545723  0.08622229  1
  Na  Na12  1  0.97274241  0.66790376  0.91671335  1
  Na  Na13  1  0.70233139  0.03979160  0.91230280  1
  Na  Na14  1  0.32512148  0.29044142  0.91772732  1
  Na  Na15  1  0.96183482  0.29650577  0.41272281  1
  Na  Na16  1  0.33086149  0.02674557  0.41586362  1
  Na  Na17  1  0.70837207  0.67467793  0.41683345  1
  Na  Na18  1  0.99519652  0.99375930  0.50010423  1
  Na  Na19  1  0.01160827  0.00435175  0.00023211  1
  Na  Na20  1  0.66675980  0.32806680  0.83251611  1
  Na  Na21  1  0.67123790  0.33109288  0.33277771  1
  Na  Na22  1  0.32817418  0.65909562  0.16656663  1
  Na  Na23  1  0.33542611  0.66683488  0.66477223  1
  Ti  Ti24  1  0.99953700  0.00014045  0.64809836  1
  Ti  Ti25  1  0.66585107  0.33339304  0.68545774  1
  Ti  Ti26  1  0.67049741  0.35148996  0.18871926  1
  Ti  Ti27  1  0.67769115  0.33188457  0.48365065  1
  Ti  Ti28  1  0.32831709  0.67906610  0.31054348  1
  Ti  Ti29  1  0.31844544  0.67192516  0.81171151  1
  Al  Al30  1  0.98826286  0.98736873  0.34893290  1
  Al  Al31  1  0.01312182  0.01161098  0.85001843  1
  Al  Al32  1  0.01308998  0.99944362  0.15102284  1
  Al  Al33  1  0.66466473  0.33248862  0.98192055  1
  Al  Al34  1  0.30281227  0.64723923  0.01843597  1
  Al  Al35  1  0.33754552  0.68308496  0.52212324  1
  Si  Si36  1  0.28529126  0.00486647  0.25077889  1
  Si  Si37  1  0.71518201  0.72014641  0.24898299  1
  Si  Si38  1  0.99957926  0.28120590  0.24982026  1
  Si  Si39  1  0.29058578  0.29092019  0.75117486  1
  Si  Si40  1  0.99456899  0.71430420  0.75265005  1
  Si  Si41  1  0.71325155  0.99918302  0.75326269  1
  Si  Si42  1  0.96674216  0.33794801  0.58341992  1
  Si  Si43  1  0.37565575  0.04184338  0.58270337  1
  Si  Si44  1  0.66187132  0.62444601  0.58197042  1
  Si  Si45  1  0.95587053  0.62723153  0.08069169  1
  Si  Si46  1  0.37447227  0.33543677  0.08056003  1
  Si  Si47  1  0.03525387  0.36790014  0.91828340  1
  Si  Si48  1  0.33407061  0.95986549  0.92014226  1
  Si  Si49  1  0.62620163  0.95508534  0.41772893  1
  Si  Si50  1  0.04457150  0.67204221  0.41859373  1
  S  S51  1  0.66568678  0.04163918  0.08201048  1
  S  S52  1  0.62199804  0.66633294  0.91787582  1
  S  S53  1  0.33161996  0.37684574  0.41723697  1
  O  O54  1  0.20065657  0.04042178  0.31139453  1
  O  O55  1  0.83349429  0.79276846  0.30953951  1
  O  O56  1  0.96583752  0.16258332  0.31091546  1
  O  O57  1  0.20741897  0.16708015  0.81043388  1
  O  O58  1  0.96224579  0.80279023  0.81221009  1
  O  O59  1  0.83683091  0.03287896  0.81168639  1
  O  O60  1  0.79889329  0.96314843  0.69123839  1
  O  O61  1  0.16589126  0.20532766  0.69078501  1
  O  O62  1  0.03759483  0.83615486  0.69101693  1
  O  O63  1  0.79972036  0.84006067  0.18839544  1
  O  O64  1  0.03371637  0.19599525  0.18878230  1
  O  O65  1  0.16686768  0.95890901  0.19024537  1
  O  O66  1  0.87312326  0.37358442  0.64238958  1
  O  O67  1  0.50195514  0.13290926  0.64222400  1
  O  O68  1  0.62965850  0.49922987  0.64222267  1
  O  O69  1  0.86689369  0.49806244  0.14145009  1
  O  O70  1  0.63317872  0.11836084  0.13762281  1
  O  O71  1  0.50091724  0.36741123  0.14125329  1
  O  O72  1  0.46876167  0.29805564  0.02278314  1
  O  O73  1  0.82888016  0.52997631  0.02294277  1
  O  O74  1  0.69621235  0.15456278  0.02707861  1
  O  O75  1  0.46653929  0.17008238  0.52310264  1
  O  O76  1  0.70052430  0.53211953  0.52287517  1
  O  O77  1  0.83525307  0.29646421  0.52437947  1
  O  O78  1  0.53959516  0.69588775  0.97307675  1
  O  O79  1  0.16520539  0.45612044  0.97590147  1
  O  O80  1  0.30610453  0.83007121  0.97771183  1
  O  O81  1  0.53388699  0.82870507  0.47645228  1
  O  O82  1  0.30445967  0.45823662  0.47230457  1
  O  O83  1  0.16890379  0.69957179  0.47658508  1
  O  O84  1  0.13202391  0.63094491  0.35769568  1
  O  O85  1  0.49875368  0.86271575  0.35770367  1
  O  O86  1  0.36223923  0.48553562  0.36128234  1
  O  O87  1  0.13125701  0.49999127  0.85861090  1
  O  O88  1  0.37014552  0.86906133  0.85862687  1
  O  O89  1  0.51497403  0.63601037  0.86264263  1
  O  O90  1  0.02783123  0.84622964  0.41060275  1
  O  O91  1  0.82097910  0.98044256  0.41045742  1
  O  O92  1  0.17656582  0.20301093  0.41283719  1
  O  O93  1  0.01546793  0.17534526  0.91031324  1
  O  O94  1  0.15697331  0.97168769  0.91177551  1
  O  O95  1  0.79670494  0.82229925  0.91323895  1
  O  O96  1  0.97650871  0.16056113  0.58762493  1
  O  O97  1  0.18551502  0.02566368  0.58781597  1
  O  O98  1  0.83788670  0.81315737  0.58782889  1
  O  O99  1  0.97222695  0.81844263  0.08899331  1
  O  O100  1  0.82332581  0.02621921  0.08611371  1
  O  O101  1  0.18139767  0.16302285  0.08903503  1
  O  O102  1  0.69139270  0.17080497  0.74562671  1
  O  O103  1  0.48326264  0.31052544  0.74443916  1
  O  O104  1  0.82796110  0.51981166  0.74609482  1
  O  O105  1  0.69145812  0.52187958  0.24413995  1
  O  O106  1  0.82734816  0.30588909  0.24321038  1
  O  O107  1  0.48306972  0.17012187  0.24308759  1
  O  O108  1  0.64017852  0.50852534  0.92272289  1
  O  O109  1  0.84540560  0.35616481  0.92567917  1
  O  O110  1  0.50905270  0.15313745  0.92485409  1
  O  O111  1  0.63888263  0.14758690  0.42116446  1
  O  O112  1  0.48982374  0.35930316  0.42070404  1
  O  O113  1  0.84924404  0.49610433  0.42137258  1
  O  O114  1  0.36447455  0.51642137  0.07442194  1
  O  O115  1  0.14995078  0.64575369  0.07748040  1
  O  O116  1  0.51136432  0.86680530  0.07575781  1
  O  O117  1  0.35935179  0.85219517  0.57822567  1
  O  O118  1  0.48808308  0.63858025  0.57520580  1
  O  O119  1  0.15480235  0.50824281  0.57381567  1
  O  O120  1  0.30887802  0.83034616  0.25552661  1
  O  O121  1  0.51688192  0.68660698  0.25634258  1
  O  O122  1  0.17219721  0.47790917  0.25617520  1
  O  O123  1  0.31352151  0.48512845  0.75758818  1
  O  O124  1  0.17059049  0.69442758  0.75553133  1
  O  O125  1  0.52005671  0.82487447  0.75746230  1
