# generated using pymatgen
data_Na3ScSn3(PO4)6
_symmetry_space_group_name_H-M   'P 1'
_cell_length_a   8.81508262
_cell_length_b   8.81661534
_cell_length_c   22.85930625
_cell_angle_alpha   89.95665412
_cell_angle_beta   90.02358894
_cell_angle_gamma   120.23849532
_symmetry_Int_Tables_number   1
_chemical_formula_structural   Na3ScSn3(PO4)6
_chemical_formula_sum   'Na9 Sc3 Sn9 P18 O72'
_cell_volume   1534.87529591
_cell_formula_units_Z   3
loop_
 _symmetry_equiv_pos_site_id
 _symmetry_equiv_pos_as_xyz
  1  'x, y, z'
loop_
 _atom_site_type_symbol
 _atom_site_label
 _atom_site_symmetry_multiplicity
 _atom_site_fract_x
 _atom_site_fract_y
 _atom_site_fract_z
 _atom_site_occupancy
  Na  Na0  1  0.36534802  0.36171487  0.24785194  1
  Na  Na1  1  0.63621554  0.63235764  0.74877990  1
  Na  Na2  1  0.96949836  0.29888404  0.41509465  1
  Na  Na3  1  0.00055965  0.99249804  0.49960107  1
  Na  Na4  1  0.00003633  0.00004022  0.00159776  1
  Na  Na5  1  0.66730386  0.32592284  0.83376044  1
  Na  Na6  1  0.66705894  0.33336646  0.33016221  1
  Na  Na7  1  0.33283307  0.67414572  0.16483793  1
  Na  Na8  1  0.32622799  0.66743289  0.66533296  1
  Sc  Sc9  1  0.99856307  0.99225588  0.35174615  1
  Sc  Sc10  1  0.66727707  0.32709811  0.68501092  1
  Sc  Sc11  1  0.67302039  0.33264946  0.18411047  1
  Sn  Sn12  1  0.00186397  0.00199696  0.85381833  1
  Sn  Sn13  1  0.00178474  0.00200928  0.64712456  1
  Sn  Sn14  1  0.99798658  0.99793371  0.14733800  1
  Sn  Sn15  1  0.66643940  0.33327558  0.98284029  1
  Sn  Sn16  1  0.66162110  0.33409985  0.48331476  1
  Sn  Sn17  1  0.33328382  0.66648477  0.01956034  1
  Sn  Sn18  1  0.33540162  0.66881975  0.51993034  1
  Sn  Sn19  1  0.33483660  0.67410527  0.31436045  1
  Sn  Sn20  1  0.32810889  0.66725288  0.81631229  1
  P  P21  1  0.29060572  0.99822097  0.25001533  1
  P  P22  1  0.70826054  0.70825834  0.25039492  1
  P  P23  1  0.99804311  0.29094257  0.25188313  1
  P  P24  1  0.28996605  0.29095894  0.75074170  1
  P  P25  1  0.00301496  0.71104293  0.75030576  1
  P  P26  1  0.71012103  0.00129149  0.75120706  1
  P  P27  1  0.95987001  0.33335124  0.58301256  1
  P  P28  1  0.37290904  0.03984593  0.58366082  1
  P  P29  1  0.66665505  0.62652507  0.58454196  1
  P  P30  1  0.95983609  0.62673308  0.08297693  1
  P  P31  1  0.66700965  0.04065565  0.08314891  1
  P  P32  1  0.37366431  0.33335708  0.08397004  1
  P  P33  1  0.62524592  0.66542261  0.91652143  1
  P  P34  1  0.03978229  0.37431747  0.91718416  1
  P  P35  1  0.33426799  0.95952733  0.91709149  1
  P  P36  1  0.62418417  0.95888275  0.41785083  1
  P  P37  1  0.33660905  0.37689627  0.41678346  1
  P  P38  1  0.04242381  0.66766551  0.41826230  1
  O  O39  1  0.20782684  0.03075178  0.30397204  1
  O  O40  1  0.81843529  0.79259556  0.30478223  1
  O  O41  1  0.97554390  0.18532012  0.30779181  1
  O  O42  1  0.20899897  0.17876100  0.80583267  1
  O  O43  1  0.96486386  0.79108890  0.80488743  1
  O  O44  1  0.82218924  0.02941145  0.80618541  1
  O  O45  1  0.78633694  0.95713523  0.69652634  1
  O  O46  1  0.17552229  0.21346970  0.69556975  1
  O  O47  1  0.03686724  0.82543838  0.69522777  1
  O  O48  1  0.78463302  0.82140734  0.19474945  1
  O  O49  1  0.04139994  0.21308326  0.19728838  1
  O  O50  1  0.17750649  0.96458135  0.19446763  1
  O  O51  1  0.87449246  0.36248745  0.63623515  1
  O  O52  1  0.48569439  0.12331566  0.63743302  1
  O  O53  1  0.63785456  0.51831489  0.63990486  1
  O  O54  1  0.87744097  0.51441688  0.13700183  1
  O  O55  1  0.63657785  0.12232600  0.13712094  1
  O  O56  1  0.48139167  0.36245675  0.13948387  1
  O  O57  1  0.45334473  0.30039544  0.02821849  1
  O  O58  1  0.84863721  0.54905588  0.02670725  1
  O  O59  1  0.70075227  0.15156054  0.02682012  1
  O  O60  1  0.44961532  0.15035344  0.52714684  1
  O  O61  1  0.70017277  0.54755123  0.52863899  1
  O  O62  1  0.85248722  0.30108895  0.52522857  1
  O  O63  1  0.54175915  0.69897053  0.97014762  1
  O  O64  1  0.15530246  0.45541127  0.97140954  1
  O  O65  1  0.29994524  0.84430671  0.97137041  1
  O  O66  1  0.54291119  0.84604524  0.47267907  1
  O  O67  1  0.29970550  0.46028710  0.47057498  1
  O  O68  1  0.15508367  0.69587913  0.47301500  1
  O  O69  1  0.11848314  0.62290534  0.36352391  1
  O  O70  1  0.50990064  0.88150650  0.36261598  1
  O  O71  1  0.36892445  0.48796768  0.36030791  1
  O  O72  1  0.11790835  0.48620347  0.86110260  1
  O  O73  1  0.36877218  0.88203278  0.86109008  1
  O  O74  1  0.51671631  0.63352242  0.85909296  1
  O  O75  1  0.02182864  0.82731068  0.41198338  1
  O  O76  1  0.80924018  0.98559819  0.41208885  1
  O  O77  1  0.16926582  0.19713129  0.41141440  1
  O  O78  1  0.02288220  0.19108140  0.91145816  1
  O  O79  1  0.16794981  0.97635269  0.91116858  1
  O  O80  1  0.80923926  0.83224350  0.91093974  1
  O  O81  1  0.97769849  0.16694508  0.58797269  1
  O  O82  1  0.18821235  0.02088928  0.58824500  1
  O  O83  1  0.83286457  0.81214097  0.58852108  1
  O  O84  1  0.97892271  0.81148845  0.08785180  1
  O  O85  1  0.83277045  0.02178680  0.08827410  1
  O  O86  1  0.18777401  0.16726013  0.08833025  1
  O  O87  1  0.68893109  0.16086525  0.74473108  1
  O  O88  1  0.47544702  0.31816207  0.74460571  1
  O  O89  1  0.83572064  0.53083503  0.74429342  1
  O  O90  1  0.67958991  0.52207401  0.24416964  1
  O  O91  1  0.83891899  0.31313719  0.24477208  1
  O  O92  1  0.47137732  0.16495302  0.24376429  1
  O  O93  1  0.64226527  0.49955652  0.92213803  1
  O  O94  1  0.85649802  0.35616153  0.92260861  1
  O  O95  1  0.49977126  0.14364294  0.92255702  1
  O  O96  1  0.64610226  0.14610151  0.42325318  1
  O  O97  1  0.50336561  0.36170133  0.42274365  1
  O  O98  1  0.86012761  0.49380670  0.42359706  1
  O  O99  1  0.35569712  0.49929526  0.07698546  1
  O  O100  1  0.14411013  0.64507269  0.07675752  1
  O  O101  1  0.50097857  0.85553635  0.07679646  1
  O  O102  1  0.35439905  0.85580311  0.57777709  1
  O  O103  1  0.50075097  0.64423502  0.57779409  1
  O  O104  1  0.14484427  0.49899715  0.57718864  1
  O  O105  1  0.30772171  0.83136184  0.25521238  1
  O  O106  1  0.51905141  0.68502564  0.25534420  1
  O  O107  1  0.17307646  0.47489812  0.25608555  1
  O  O108  1  0.31241089  0.47878534  0.75627257  1
  O  O109  1  0.16900996  0.69425779  0.75616325  1
  O  O110  1  0.52748346  0.82722829  0.75661853  1
