# generated using pymatgen
data_MgZn(FeO2)4
_symmetry_space_group_name_H-M   'P 1'
_cell_length_a   2.98523472
_cell_length_b   7.64170125
_cell_length_c   7.65613535
_cell_angle_alpha   75.28784716
_cell_angle_beta   78.75774064
_cell_angle_gamma   78.74644982
_symmetry_Int_Tables_number   1
_chemical_formula_structural   MgZn(FeO2)4
_chemical_formula_sum   'Mg1 Zn1 Fe4 O8'
_cell_volume   163.72201612
_cell_formula_units_Z   1
loop_
 _symmetry_equiv_pos_site_id
 _symmetry_equiv_pos_as_xyz
  1  'x, y, z'
loop_
 _atom_site_type_symbol
 _atom_site_label
 _atom_site_symmetry_multiplicity
 _atom_site_fract_x
 _atom_site_fract_y
 _atom_site_fract_z
 _atom_site_occupancy
  Mg  Mg0  1  0.67729900  0.82094800  0.82769500  1
  Zn  Zn1  1  0.30693600  0.16087300  0.22935100  1
  Fe  Fe2  1  0.61705800  0.18251200  0.58729800  1
  Fe  Fe3  1  0.13303300  0.52733300  0.20972000  1
  Fe  Fe4  1  0.85240400  0.45439800  0.84539400  1
  Fe  Fe5  1  0.36763900  0.79807000  0.47020000  1
  O  O6  1  0.85191200  0.67558800  0.62403100  1
  O  O7  1  0.45333100  0.31298100  0.78485700  1
  O  O8  1  0.53130500  0.67060800  0.27002600  1
  O  O9  1  0.12858900  0.31088500  0.43586900  1
  O  O10  1  0.15520900  0.99365000  0.69992200  1
  O  O11  1  0.77146000  0.34543000  0.11543200  1
  O  O12  1  0.82716200  0.98773400  0.36156400  1
  O  O13  1  0.21331700  0.63703400  0.93952600  1
