# generated using pymatgen
data_MgTiMn3O8
_symmetry_space_group_name_H-M   'P 1'
_cell_length_a   6.23734891
_cell_length_b   6.23755564
_cell_length_c   6.28428240
_cell_angle_alpha   56.57514720
_cell_angle_beta   56.57623227
_cell_angle_gamma   56.72408011
_symmetry_Int_Tables_number   1
_chemical_formula_structural   MgTiMn3O8
_chemical_formula_sum   'Mg1 Ti1 Mn3 O8'
_cell_volume   159.40559636
_cell_formula_units_Z   1
loop_
 _symmetry_equiv_pos_site_id
 _symmetry_equiv_pos_as_xyz
  1  'x, y, z'
loop_
 _atom_site_type_symbol
 _atom_site_label
 _atom_site_symmetry_multiplicity
 _atom_site_fract_x
 _atom_site_fract_y
 _atom_site_fract_z
 _atom_site_occupancy
  Mg  Mg0  1  0.12500000  0.12500000  0.12500000  1
  Ti  Ti1  1  0.62500000  0.62500000  0.12500000  1
  Mn  Mn2  1  0.62500000  0.12500000  0.62500000  1
  Mn  Mn3  1  0.12500000  0.62500000  0.62500000  1
  Mn  Mn4  1  0.62500000  0.62500000  0.62500000  1
  O  O5  1  0.83642300  0.36556900  0.37008600  1
  O  O6  1  0.39102900  0.39105000  0.40192000  1
  O  O7  1  0.36558300  0.83641000  0.37008600  1
  O  O8  1  0.37063100  0.37061800  0.83055000  1
  O  O9  1  0.87936900  0.87938200  0.41945000  1
  O  O10  1  0.88441700  0.41359000  0.87991400  1
  O  O11  1  0.41357700  0.88443100  0.87991400  1
  O  O12  1  0.85897100  0.85895000  0.84808000  1
