# generated using pymatgen
data_Na5Si3Sn4(PO8)3
_symmetry_space_group_name_H-M   'P 1'
_cell_length_a   8.97612717
_cell_length_b   8.97969783
_cell_length_c   22.51223562
_cell_angle_alpha   89.99495611
_cell_angle_beta   90.08386541
_cell_angle_gamma   119.94663931
_symmetry_Int_Tables_number   1
_chemical_formula_structural   Na5Si3Sn4(PO8)3
_chemical_formula_sum   'Na15 Si9 Sn12 P9 O72'
_cell_volume   1572.29002848
_cell_formula_units_Z   3
loop_
 _symmetry_equiv_pos_site_id
 _symmetry_equiv_pos_as_xyz
  1  'x, y, z'
loop_
 _atom_site_type_symbol
 _atom_site_label
 _atom_site_symmetry_multiplicity
 _atom_site_fract_x
 _atom_site_fract_y
 _atom_site_fract_z
 _atom_site_occupancy
  Na  Na0  1  0.00045449  0.62986809  0.25020717  1
  Na  Na1  1  0.36929637  0.99906534  0.75064010  1
  Na  Na2  1  0.03007511  0.70134381  0.58018639  1
  Na  Na3  1  0.66036705  0.96169271  0.58510579  1
  Na  Na4  1  0.29737646  0.97023143  0.07982403  1
  Na  Na5  1  0.03641853  0.33942300  0.08642637  1
  Na  Na6  1  0.97223650  0.66930121  0.91934139  1
  Na  Na7  1  0.96441221  0.30066786  0.41296217  1
  Na  Na8  1  0.33722095  0.02872234  0.41850845  1
  Na  Na9  1  0.99404580  0.99030222  0.50000273  1
  Na  Na10  1  0.99796140  0.00116591  0.99931352  1
  Na  Na11  1  0.66427569  0.32417640  0.83350239  1
  Na  Na12  1  0.66422852  0.33222313  0.33268863  1
  Na  Na13  1  0.34796949  0.65815991  0.16738549  1
  Na  Na14  1  0.34260637  0.65239693  0.66718538  1
  Si  Si15  1  0.00009723  0.29535452  0.24987262  1
  Si  Si16  1  0.70734307  0.00177058  0.74931992  1
  Si  Si17  1  0.37110772  0.04191837  0.58361993  1
  Si  Si18  1  0.66379160  0.62255919  0.58477180  1
  Si  Si19  1  0.95690357  0.62668181  0.08246353  1
  Si  Si20  1  0.37596092  0.33578952  0.08425034  1
  Si  Si21  1  0.33586431  0.96463063  0.91536344  1
  Si  Si22  1  0.62764071  0.95927211  0.41764185  1
  Si  Si23  1  0.03821543  0.66601505  0.41614052  1
  Sn  Sn24  1  0.99253952  0.99639123  0.35183995  1
  Sn  Sn25  1  0.99900510  0.00511254  0.85233314  1
  Sn  Sn26  1  0.99941914  0.00149822  0.64875988  1
  Sn  Sn27  1  0.99770200  0.99994956  0.14818762  1
  Sn  Sn28  1  0.66774469  0.33428194  0.68615757  1
  Sn  Sn29  1  0.66536714  0.33212538  0.18563348  1
  Sn  Sn30  1  0.65828223  0.32951255  0.98058939  1
  Sn  Sn31  1  0.66534642  0.33804202  0.48141180  1
  Sn  Sn32  1  0.33496714  0.66652565  0.01798188  1
  Sn  Sn33  1  0.33891781  0.66949022  0.51883333  1
  Sn  Sn34  1  0.33466314  0.66593448  0.31426515  1
  Sn  Sn35  1  0.34027138  0.66891116  0.81422353  1
  P  P36  1  0.29540299  0.00231529  0.25075750  1
  P  P37  1  0.70556818  0.70689568  0.24934781  1
  P  P38  1  0.29107980  0.29339045  0.75055928  1
  P  P39  1  0.99818032  0.70305861  0.75138671  1
  P  P40  1  0.96066740  0.33395477  0.58244292  1
  P  P41  1  0.66668595  0.04210198  0.08280566  1
  P  P42  1  0.62649481  0.66676301  0.91627613  1
  P  P43  1  0.04125312  0.37347608  0.91704775  1
  P  P44  1  0.33466034  0.37649532  0.41574328  1
  O  O45  1  0.21166862  0.02648075  0.30725671  1
  O  O46  1  0.82415873  0.78471231  0.30430881  1
  O  O47  1  0.97368527  0.18357147  0.31010229  1
  O  O48  1  0.21279783  0.17442272  0.80526372  1
  O  O49  1  0.97348499  0.78658535  0.80794855  1
  O  O50  1  0.82698313  0.03265315  0.80716752  1
  O  O51  1  0.78708812  0.97372550  0.68792257  1
  O  O52  1  0.18235044  0.21339456  0.69426952  1
  O  O53  1  0.03666351  0.82004258  0.69575822  1
  O  O54  1  0.78737179  0.81656030  0.19342969  1
  O  O55  1  0.02548267  0.21016949  0.18940392  1
  O  O56  1  0.17964990  0.96609848  0.19483635  1
  O  O57  1  0.88080464  0.37320259  0.63669037  1
  O  O58  1  0.49545917  0.12004917  0.64194819  1
  O  O59  1  0.63625500  0.50900760  0.64378213  1
  O  O60  1  0.88040590  0.50369352  0.14118595  1
  O  O61  1  0.62545569  0.11642470  0.13834073  1
  O  O62  1  0.49053080  0.36641641  0.14343540  1
  O  O63  1  0.45072100  0.28136257  0.02731836  1
  O  O64  1  0.84682675  0.54223271  0.02166933  1
  O  O65  1  0.70851606  0.16038846  0.02824605  1
  O  O66  1  0.45290461  0.15144141  0.52263116  1
  O  O67  1  0.71661061  0.54755431  0.52727254  1
  O  O68  1  0.84867151  0.29587447  0.52559582  1
  O  O69  1  0.54551034  0.69506507  0.97228223  1
  O  O70  1  0.14586178  0.44924702  0.97511323  1
  O  O71  1  0.29538897  0.84222278  0.97480311  1
  O  O72  1  0.55305221  0.85022007  0.47886266  1
  O  O73  1  0.29464335  0.45345429  0.47062810  1
  O  O74  1  0.15740885  0.70257604  0.47586443  1
  O  O75  1  0.11794812  0.62424546  0.35696613  1
  O  O76  1  0.49872283  0.87291087  0.36109628  1
  O  O77  1  0.36612148  0.48590474  0.35979025  1
  O  O78  1  0.12880317  0.49294190  0.86328211  1
  O  O79  1  0.35888015  0.87580771  0.85536851  1
  O  O80  1  0.51473693  0.63271781  0.86072175  1
  O  O81  1  0.03633759  0.84741111  0.41009045  1
  O  O82  1  0.82375877  0.99208535  0.41288106  1
  O  O83  1  0.17297878  0.19452348  0.41043157  1
  O  O84  1  0.02130097  0.19355542  0.91208462  1
  O  O85  1  0.15396298  0.97084192  0.91112838  1
  O  O86  1  0.80907354  0.82768509  0.91159333  1
  O  O87  1  0.97401433  0.17034845  0.58905124  1
  O  O88  1  0.17769754  0.01587967  0.58964513  1
  O  O89  1  0.83567167  0.81745249  0.58885153  1
  O  O90  1  0.98391699  0.82060517  0.08880634  1
  O  O91  1  0.82909418  0.02604887  0.08919327  1
  O  O92  1  0.18070557  0.16433334  0.08878414  1
  O  O93  1  0.67970632  0.17080642  0.74683789  1
  O  O94  1  0.47025538  0.30764788  0.74603852  1
  O  O95  1  0.83651642  0.52503754  0.74591532  1
  O  O96  1  0.69276665  0.52870149  0.24507127  1
  O  O97  1  0.82935220  0.32046560  0.24687706  1
  O  O98  1  0.47387279  0.16342515  0.24571947  1
  O  O99  1  0.65522821  0.50985370  0.92052443  1
  O  O100  1  0.86436589  0.36556409  0.92112077  1
  O  O101  1  0.50986722  0.15230766  0.91928981  1
  O  O102  1  0.64217937  0.15037155  0.42143194  1
  O  O103  1  0.49183846  0.35082169  0.42100558  1
  O  O104  1  0.85148618  0.49050495  0.42105323  1
  O  O105  1  0.34955321  0.50293480  0.07756668  1
  O  O106  1  0.15191937  0.64949609  0.07819556  1
  O  O107  1  0.50259034  0.86460717  0.07580766  1
  O  O108  1  0.34743060  0.84689203  0.58016938  1
  O  O109  1  0.49437946  0.64507503  0.57968333  1
  O  O110  1  0.13817150  0.49774310  0.57628915  1
  O  O111  1  0.30707477  0.83556113  0.25450043  1
  O  O112  1  0.52750331  0.69155018  0.25538528  1
  O  O113  1  0.17061164  0.49085625  0.25264653  1
  O  O114  1  0.30510908  0.47109583  0.75717754  1
  O  O115  1  0.16277333  0.68732201  0.75583427  1
  O  O116  1  0.51188933  0.83098473  0.75278047  1
