# generated using pymatgen
data_MgCu2(MoO4)2
_symmetry_space_group_name_H-M   'P 1'
_cell_length_a   5.59266462
_cell_length_b   5.35228287
_cell_length_c   6.03040950
_cell_angle_alpha   94.02491920
_cell_angle_beta   81.14174741
_cell_angle_gamma   67.75369805
_symmetry_Int_Tables_number   1
_chemical_formula_structural   MgCu2(MoO4)2
_chemical_formula_sum   'Mg1 Cu2 Mo2 O8'
_cell_volume   163.44474063
_cell_formula_units_Z   1
loop_
 _symmetry_equiv_pos_site_id
 _symmetry_equiv_pos_as_xyz
  1  'x, y, z'
loop_
 _atom_site_type_symbol
 _atom_site_label
 _atom_site_symmetry_multiplicity
 _atom_site_fract_x
 _atom_site_fract_y
 _atom_site_fract_z
 _atom_site_occupancy
  Mg  Mg0  1  0.55769940  0.62879797  0.92091736  1
  Cu  Cu1  1  0.55102453  0.00674178  0.27675189  1
  Cu  Cu2  1  0.38548715  0.13593288  0.78703385  1
  Mo  Mo3  1  0.97369827  0.25534944  0.32870288  1
  Mo  Mo4  1  0.04900716  0.72791513  0.64089159  1
  O  O5  1  0.74066206  0.92155051  0.85730979  1
  O  O6  1  0.80951061  0.49377105  0.61391219  1
  O  O7  1  0.77485696  0.44055251  0.14315603  1
  O  O8  1  0.27006352  0.53039720  0.82181451  1
  O  O9  1  0.21013203  -0.02640905  0.59891344  1
  O  O10  1  0.82900023  -0.00071274  0.40770160  1
  O  O11  1  0.20777384  0.46212673  0.36622542  1
  O  O12  1  0.27997323  -0.00101340  0.12208645  1
