# generated using pymatgen
data_AuSeCl7
_symmetry_space_group_name_H-M   'P 1'
_cell_length_a   10.20517177
_cell_length_b   8.65528561
_cell_length_c   12.39484305
_cell_angle_alpha   71.48339065
_cell_angle_beta   90.00000000
_cell_angle_gamma   90.00000000
_symmetry_Int_Tables_number   1
_chemical_formula_structural   AuSeCl7
_chemical_formula_sum   'Au4 Se4 Cl28'
_cell_volume   1038.14303126
_cell_formula_units_Z   4
loop_
 _symmetry_equiv_pos_site_id
 _symmetry_equiv_pos_as_xyz
  1  'x, y, z'
loop_
 _atom_site_type_symbol
 _atom_site_label
 _atom_site_symmetry_multiplicity
 _atom_site_fract_x
 _atom_site_fract_y
 _atom_site_fract_z
 _atom_site_occupancy
  Au  Au0  1  0.08501250  0.78136666  0.05020232  1
  Au  Au1  1  0.58501250  0.21863334  0.44979768  1
  Au  Au2  1  0.91498750  0.21863334  0.94979768  1
  Au  Au3  1  0.41498750  0.78136666  0.55020232  1
  Se  Se4  1  0.71111475  0.76453341  0.99694835  1
  Se  Se5  1  0.21111475  0.23546659  0.50305165  1
  Se  Se6  1  0.28888525  0.23546659  0.00305165  1
  Se  Se7  1  0.78888525  0.76453341  0.49694835  1
  Cl  Cl8  1  0.70432184  0.53331927  0.96255175  1
  Cl  Cl9  1  0.20432184  0.46668073  0.53744825  1
  Cl  Cl10  1  0.29567816  0.46668073  0.03744825  1
  Cl  Cl11  1  0.79567816  0.53331927  0.46255175  1
  Cl  Cl12  1  0.58187104  0.62543038  0.65504374  1
  Cl  Cl13  1  0.08187104  0.37456962  0.84495626  1
  Cl  Cl14  1  0.41812896  0.37456962  0.34495626  1
  Cl  Cl15  1  0.91812896  0.62543038  0.15504374  1
  Cl  Cl16  1  0.53921088  0.84056686  0.38474856  1
  Cl  Cl17  1  0.03921088  0.15943314  0.11525144  1
  Cl  Cl18  1  0.46078912  0.15943314  0.61525144  1
  Cl  Cl19  1  0.96078912  0.84056686  0.88474856  1
  Cl  Cl20  1  0.24697832  0.93542026  0.44548052  1
  Cl  Cl21  1  0.74697832  0.06457974  0.05451948  1
  Cl  Cl22  1  0.75302168  0.06457974  0.55451948  1
  Cl  Cl23  1  0.25302168  0.93542026  0.94548052  1
  Cl  Cl24  1  0.29010479  0.71745854  0.71100804  1
  Cl  Cl25  1  0.79010479  0.28254146  0.78899196  1
  Cl  Cl26  1  0.70989521  0.28254146  0.28899196  1
  Cl  Cl27  1  0.20989521  0.71745854  0.21100804  1
  Cl  Cl28  1  0.55939338  0.71331505  0.12612473  1
  Cl  Cl29  1  0.05939338  0.28668495  0.37387527  1
  Cl  Cl30  1  0.44060662  0.28668495  0.87387527  1
  Cl  Cl31  1  0.94060662  0.71331505  0.62612473  1
  Cl  Cl32  1  0.90169288  0.90019150  0.34951390  1
  Cl  Cl33  1  0.40169288  0.09980850  0.15048610  1
  Cl  Cl34  1  0.09830712  0.09980850  0.65048610  1
  Cl  Cl35  1  0.59830712  0.90019150  0.84951390  1
