# generated using pymatgen
data_Er2Se3
_symmetry_space_group_name_H-M   'P 1'
_cell_length_a   6.99183355
_cell_length_b   6.99183312
_cell_length_c   12.77141255
_cell_angle_alpha   100.63508493
_cell_angle_beta   100.63508398
_cell_angle_gamma   109.01302861
_symmetry_Int_Tables_number   1
_chemical_formula_structural   Er2Se3
_chemical_formula_sum   'Er8 Se12'
_cell_volume   559.66533961
_cell_formula_units_Z   4
loop_
 _symmetry_equiv_pos_site_id
 _symmetry_equiv_pos_as_xyz
  1  'x, y, z'
loop_
 _atom_site_type_symbol
 _atom_site_label
 _atom_site_symmetry_multiplicity
 _atom_site_fract_x
 _atom_site_fract_y
 _atom_site_fract_z
 _atom_site_occupancy
  Er  Er0  1  0.12762126  0.37762126  0.75524052  1
  Er  Er1  1  0.62237874  0.87237874  0.74475948  1
  Er  Er2  1  0.87237874  0.62237874  0.24475948  1
  Er  Er3  1  0.37762126  0.12762126  0.25524052  1
  Er  Er4  1  0.79104049  0.04104049  0.08207998  1
  Er  Er5  1  0.95895951  0.20895951  0.41792002  1
  Er  Er6  1  0.20895951  0.95895951  0.91792002  1
  Er  Er7  1  0.04104049  0.79104049  0.58207998  1
  Se  Se8  1  0.53918268  0.28342760  0.08813326  1
  Se  Se9  1  0.19529433  0.95105141  0.41186674  1
  Se  Se10  1  0.71657240  0.46081732  0.41186674  1
  Se  Se11  1  0.04894859  0.80470567  0.08813326  1
  Se  Se12  1  0.46081732  0.71657240  0.91186674  1
  Se  Se13  1  0.80470567  0.04894859  0.58813326  1
  Se  Se14  1  0.28342760  0.53918268  0.58813326  1
  Se  Se15  1  0.95105141  0.19529433  0.91186674  1
  Se  Se16  1  0.88301503  0.63301503  0.75000000  1
  Se  Se17  1  0.36698497  0.11698497  0.75000000  1
  Se  Se18  1  0.11698497  0.36698497  0.25000000  1
  Se  Se19  1  0.63301503  0.88301503  0.25000000  1
