# generated using pymatgen
data_PCl3
_symmetry_space_group_name_H-M   'P 1'
_cell_length_a   6.22185524
_cell_length_b   8.17878846
_cell_length_c   9.52124610
_cell_angle_alpha   90.00000000
_cell_angle_beta   90.00000000
_cell_angle_gamma   90.00000000
_symmetry_Int_Tables_number   1
_chemical_formula_structural   PCl3
_chemical_formula_sum   'P4 Cl12'
_cell_volume   484.50991479
_cell_formula_units_Z   4
loop_
 _symmetry_equiv_pos_site_id
 _symmetry_equiv_pos_as_xyz
  1  'x, y, z'
loop_
 _atom_site_type_symbol
 _atom_site_label
 _atom_site_symmetry_multiplicity
 _atom_site_fract_x
 _atom_site_fract_y
 _atom_site_fract_z
 _atom_site_occupancy
  P  P0  1  0.92623871  0.98065850  0.75000000  1
  P  P1  1  0.42623871  0.51934150  0.25000000  1
  P  P2  1  0.57376129  0.48065850  0.75000000  1
  P  P3  1  0.07376129  0.01934150  0.25000000  1
  Cl  Cl4  1  0.74103728  0.90308886  0.91567275  1
  Cl  Cl5  1  0.24103728  0.59691114  0.08432725  1
  Cl  Cl6  1  0.75896272  0.40308886  0.58432725  1
  Cl  Cl7  1  0.25896272  0.09691114  0.41567275  1
  Cl  Cl8  1  0.83895313  0.19567029  0.25000000  1
  Cl  Cl9  1  0.33895313  0.30432971  0.75000000  1
  Cl  Cl10  1  0.66104687  0.69567029  0.25000000  1
  Cl  Cl11  1  0.16104687  0.80432971  0.75000000  1
  Cl  Cl12  1  0.74103728  0.90308886  0.58432725  1
  Cl  Cl13  1  0.24103728  0.59691114  0.41567275  1
  Cl  Cl14  1  0.75896272  0.40308886  0.91567275  1
  Cl  Cl15  1  0.25896272  0.09691114  0.08432725  1
