# generated using pymatgen
data_Na4TaIn(SiO4)3
_symmetry_space_group_name_H-M   'P 1'
_cell_length_a   9.21437247
_cell_length_b   9.21437214
_cell_length_c   22.44779953
_cell_angle_alpha   90.00000000
_cell_angle_beta   90.00000000
_cell_angle_gamma   120.00000121
_symmetry_Int_Tables_number   1
_chemical_formula_structural   Na4TaIn(SiO4)3
_chemical_formula_sum   'Na24 Ta6 In6 Si18 O72'
_cell_volume   1650.57747298
_cell_formula_units_Z   6
loop_
 _symmetry_equiv_pos_site_id
 _symmetry_equiv_pos_as_xyz
  1  'x, y, z'
loop_
 _atom_site_type_symbol
 _atom_site_label
 _atom_site_symmetry_multiplicity
 _atom_site_fract_x
 _atom_site_fract_y
 _atom_site_fract_z
 _atom_site_occupancy
  Na  Na0  1  0.63956412  0.01370011  0.24697844  1
  Na  Na1  1  0.37413599  0.36043588  0.24697844  1
  Na  Na2  1  0.98629989  0.62586401  0.24697844  1
  Na  Na3  1  0.63956412  0.62586401  0.74697844  1
  Na  Na4  1  0.98629989  0.36043588  0.74697844  1
  Na  Na5  1  0.37413599  0.01370011  0.74697844  1
  Na  Na6  1  0.30623112  0.34703311  0.58031144  1
  Na  Na7  1  0.04080299  0.69376888  0.58031144  1
  Na  Na8  1  0.65296689  0.95919701  0.58031144  1
  Na  Na9  1  0.30623112  0.95919701  0.08031144  1
  Na  Na10  1  0.65296689  0.69376888  0.08031144  1
  Na  Na11  1  0.04080299  0.34703311  0.08031144  1
  Na  Na12  1  0.97289712  0.68036711  0.91364544  1
  Na  Na13  1  0.70746899  0.02710288  0.91364544  1
  Na  Na14  1  0.31963289  0.29253101  0.91364544  1
  Na  Na15  1  0.97289712  0.29253101  0.41364544  1
  Na  Na16  1  0.31963289  0.02710288  0.41364544  1
  Na  Na17  1  0.70746899  0.68036711  0.41364544  1
  Na  Na18  1  -0.00000000  -0.00000000  0.49467479  1
  Na  Na19  1  -0.00000000  -0.00000000  0.99467479  1
  Na  Na20  1  0.66666700  0.33333300  0.82800779  1
  Na  Na21  1  0.66666700  0.33333300  0.32800779  1
  Na  Na22  1  0.33333300  0.66666700  0.16134179  1
  Na  Na23  1  0.33333300  0.66666700  0.66134179  1
  Ta  Ta24  1  0.00000000  -0.00000000  0.64655929  1
  Ta  Ta25  1  -0.00000000  -0.00000000  0.14655929  1
  Ta  Ta26  1  0.66666700  0.33333300  0.97989229  1
  Ta  Ta27  1  0.66666700  0.33333300  0.47989229  1
  Ta  Ta28  1  0.33333300  0.66666700  0.31322629  1
  Ta  Ta29  1  0.33333300  0.66666700  0.81322629  1
  In  In30  1  -0.00000000  -0.00000000  0.34964784  1
  In  In31  1  -0.00000000  -0.00000000  0.84964784  1
  In  In32  1  0.66666700  0.33333300  0.68298084  1
  In  In33  1  0.66666700  0.33333300  0.18298084  1
  In  In34  1  0.33333300  0.66666700  0.01631484  1
  In  In35  1  0.33333300  0.66666700  0.51631484  1
  Si  Si36  1  0.29285690  0.99676166  0.25089317  1
  Si  Si37  1  0.70390476  0.70714310  0.25089317  1
  Si  Si38  1  0.00323834  0.29609524  0.25089317  1
  Si  Si39  1  0.29285690  0.29609524  0.75089317  1
  Si  Si40  1  0.00323834  0.70714310  0.75089317  1
  Si  Si41  1  0.70390476  0.99676166  0.75089317  1
  Si  Si42  1  0.95952390  0.33009466  0.58422617  1
  Si  Si43  1  0.37057176  0.04047610  0.58422617  1
  Si  Si44  1  0.66990534  0.62942824  0.58422617  1
  Si  Si45  1  0.95952390  0.62942824  0.08422617  1
  Si  Si46  1  0.66990534  0.04047610  0.08422617  1
  Si  Si47  1  0.37057176  0.33009466  0.08422617  1
  Si  Si48  1  0.62618990  0.66342866  0.91756017  1
  Si  Si49  1  0.03723776  0.37381010  0.91756017  1
  Si  Si50  1  0.33657134  0.96276224  0.91756017  1
  Si  Si51  1  0.62618990  0.96276224  0.41756017  1
  Si  Si52  1  0.33657134  0.37381010  0.41756017  1
  Si  Si53  1  0.03723776  0.66342866  0.41756017  1
  O  O54  1  0.21914832  0.03264762  0.31053294  1
  O  O55  1  0.81349930  0.78085168  0.31053294  1
  O  O56  1  0.96735238  0.18650070  0.31053294  1
  O  O57  1  0.21914832  0.18650070  0.81053294  1
  O  O58  1  0.96735238  0.78085168  0.81053294  1
  O  O59  1  0.81349930  0.03264762  0.81053294  1
  O  O60  1  0.80366044  0.96892812  0.69324818  1
  O  O61  1  0.16526767  0.19633956  0.69324818  1
  O  O62  1  0.03107188  0.83473233  0.69324818  1
  O  O63  1  0.80366044  0.83473233  0.19324818  1
  O  O64  1  0.03107188  0.19633956  0.19324818  1
  O  O65  1  0.16526767  0.96892812  0.19324818  1
  O  O66  1  0.88581532  0.36598062  0.64386594  1
  O  O67  1  0.48016630  0.11418468  0.64386594  1
  O  O68  1  0.63401938  0.51983370  0.64386594  1
  O  O69  1  0.88581532  0.51983370  0.14386594  1
  O  O70  1  0.63401938  0.11418468  0.14386594  1
  O  O71  1  0.48016630  0.36598062  0.14386594  1
  O  O72  1  0.47032744  0.30226112  0.02658118  1
  O  O73  1  0.83193467  0.52967256  0.02658118  1
  O  O74  1  0.69773888  0.16806533  0.02658118  1
  O  O75  1  0.47032744  0.16806533  0.52658118  1
  O  O76  1  0.69773888  0.52967256  0.52658118  1
  O  O77  1  0.83193467  0.30226112  0.52658118  1
  O  O78  1  0.55248132  0.69931462  0.97719994  1
  O  O79  1  0.14683230  0.44751868  0.97719994  1
  O  O80  1  0.30068538  0.85316770  0.97719994  1
  O  O81  1  0.55248132  0.85316770  0.47719994  1
  O  O82  1  0.30068538  0.44751868  0.47719994  1
  O  O83  1  0.14683230  0.69931462  0.47719994  1
  O  O84  1  0.13699344  0.63559512  0.35991518  1
  O  O85  1  0.49860067  0.86300656  0.35991518  1
  O  O86  1  0.36440488  0.50139933  0.35991518  1
  O  O87  1  0.13699344  0.50139933  0.85991518  1
  O  O88  1  0.36440488  0.86300656  0.85991518  1
  O  O89  1  0.49860067  0.63559512  0.85991518  1
  O  O90  1  0.00860570  0.82251804  0.41257681  1
  O  O91  1  0.81391234  0.99139430  0.41257681  1
  O  O92  1  0.17748196  0.18608766  0.41257681  1
  O  O93  1  0.00860570  0.18608766  0.91257681  1
  O  O94  1  0.17748196  0.99139430  0.91257681  1
  O  O95  1  0.81391234  0.82251804  0.91257681  1
  O  O96  1  0.96589518  0.15307940  0.58880983  1
  O  O97  1  0.18718422  0.03410482  0.58880983  1
  O  O98  1  0.84692060  0.81281578  0.58880983  1
  O  O99  1  0.96589518  0.81281578  0.08880983  1
  O  O100  1  0.84692060  0.03410482  0.08880983  1
  O  O101  1  0.18718422  0.15307940  0.08880983  1
  O  O102  1  0.67527270  0.15585104  0.74590981  1
  O  O103  1  0.48057934  0.32472730  0.74590981  1
  O  O104  1  0.84414896  0.51942066  0.74590981  1
  O  O105  1  0.67527270  0.51942066  0.24590981  1
  O  O106  1  0.84414896  0.32472730  0.24590981  1
  O  O107  1  0.48057934  0.15585104  0.24590981  1
  O  O108  1  0.63256218  0.48641240  0.92214283  1
  O  O109  1  0.85385122  0.36743782  0.92214283  1
  O  O110  1  0.51358760  0.14614878  0.92214283  1
  O  O111  1  0.63256218  0.14614878  0.42214283  1
  O  O112  1  0.51358760  0.36743782  0.42214283  1
  O  O113  1  0.85385122  0.48641240  0.42214283  1
  O  O114  1  0.34193870  0.48918504  0.07924381  1
  O  O115  1  0.14724534  0.65806130  0.07924381  1
  O  O116  1  0.51081496  0.85275466  0.07924381  1
  O  O117  1  0.34193870  0.85275466  0.57924381  1
  O  O118  1  0.51081496  0.65806130  0.57924381  1
  O  O119  1  0.14724534  0.48918504  0.57924381  1
  O  O120  1  0.29922818  0.81974640  0.25547683  1
  O  O121  1  0.52051722  0.70077182  0.25547683  1
  O  O122  1  0.18025360  0.47948278  0.25547683  1
  O  O123  1  0.29922818  0.47948278  0.75547683  1
  O  O124  1  0.18025360  0.70077182  0.75547683  1
  O  O125  1  0.52051722  0.81974640  0.75547683  1
