# generated using pymatgen
data_Ba2MgMnMoO6
_symmetry_space_group_name_H-M   'P 1'
_cell_length_a   6.53244636
_cell_length_b   5.80680513
_cell_length_c   6.55545362
_cell_angle_alpha   63.52028139
_cell_angle_beta   53.70600472
_cell_angle_gamma   63.89015304
_symmetry_Int_Tables_number   1
_chemical_formula_structural   Ba2MgMnMoO6
_chemical_formula_sum   'Ba2 Mg1 Mn1 Mo1 O6'
_cell_volume   173.96573536
_cell_formula_units_Z   1
loop_
 _symmetry_equiv_pos_site_id
 _symmetry_equiv_pos_as_xyz
  1  'x, y, z'
loop_
 _atom_site_type_symbol
 _atom_site_label
 _atom_site_symmetry_multiplicity
 _atom_site_fract_x
 _atom_site_fract_y
 _atom_site_fract_z
 _atom_site_occupancy
  Ba  Ba0  1  0.68892700  0.81130600  0.68855200  1
  Ba  Ba1  1  0.31086000  0.18884400  0.31142300  1
  Mg  Mg2  1  0.99999700  0.49996500  0.99999100  1
  Mn  Mn3  1  0.99962700  0.00040300  0.99963600  1
  Mo  Mo4  1  0.50010100  0.49994200  0.50000200  1
  O  O5  1  0.23810400  0.74497100  0.76127600  1
  O  O6  1  0.29624900  0.70285800  0.29655700  1
  O  O7  1  0.70408100  0.29687100  0.70366200  1
  O  O8  1  0.23934100  0.25839100  0.76129900  1
  O  O9  1  0.76198900  0.25501400  0.23872500  1
  O  O10  1  0.76072400  0.74143300  0.23887900  1
