# generated using pymatgen
data_Na15Ca4Ta8Si9(PO8)9
_symmetry_space_group_name_H-M   'P 1'
_cell_length_a   9.09969190
_cell_length_b   9.13610054
_cell_length_c   22.67250760
_cell_angle_alpha   89.97202206
_cell_angle_beta   89.96788341
_cell_angle_gamma   120.08557685
_symmetry_Int_Tables_number   1
_chemical_formula_structural   Na15Ca4Ta8Si9(PO8)9
_chemical_formula_sum   'Na15 Ca4 Ta8 Si9 P9 O72'
_cell_volume   1630.95641554
_cell_formula_units_Z   1
loop_
 _symmetry_equiv_pos_site_id
 _symmetry_equiv_pos_as_xyz
  1  'x, y, z'
loop_
 _atom_site_type_symbol
 _atom_site_label
 _atom_site_symmetry_multiplicity
 _atom_site_fract_x
 _atom_site_fract_y
 _atom_site_fract_z
 _atom_site_occupancy
  Na  Na0  1  0.64628948  0.01660914  0.24075835  1
  Na  Na1  1  0.98469043  0.62891879  0.24065034  1
  Na  Na2  1  0.64313941  0.62764661  0.74101561  1
  Na  Na3  1  0.36594303  0.01781159  0.74163959  1
  Na  Na4  1  0.31931958  0.34097691  0.58753253  1
  Na  Na5  1  0.96241435  0.68264567  0.91428886  1
  Na  Na6  1  0.71118764  0.02802225  0.91359829  1
  Na  Na7  1  0.96212096  0.28588164  0.41407411  1
  Na  Na8  1  0.70920768  0.67885245  0.41268652  1
  Na  Na9  1  0.01216414  0.99288420  0.49510217  1
  Na  Na10  1  0.01270341  0.00605768  0.99625060  1
  Na  Na11  1  0.66679399  0.33252812  0.82708155  1
  Na  Na12  1  0.63860221  0.32223463  0.32754738  1
  Na  Na13  1  0.33262000  0.66080333  0.16254171  1
  Na  Na14  1  0.31742163  0.66704707  0.66346702  1
  Ca  Ca15  1  0.01404912  0.00381690  0.35623738  1
  Ca  Ca16  1  0.00918427  0.00943625  0.85647821  1
  Ca  Ca17  1  0.67432936  0.33226634  0.67821521  1
  Ca  Ca18  1  0.66152182  0.33211969  0.17719572  1
  Ta  Ta19  1  0.99748108  -0.00013030  0.64431110  1
  Ta  Ta20  1  0.00018584  0.99814043  0.14426007  1
  Ta  Ta21  1  0.66183377  0.33352140  0.98396982  1
  Ta  Ta22  1  0.66524387  0.33341680  0.48312699  1
  Ta  Ta23  1  0.33850269  0.67271443  0.02103243  1
  Ta  Ta24  1  0.33014738  0.66742219  0.52028168  1
  Ta  Ta25  1  0.32910811  0.66027782  0.31308375  1
  Ta  Ta26  1  0.33460972  0.66421383  0.81360562  1
  Si  Si27  1  0.96353486  0.33290964  0.58268634  1
  Si  Si28  1  0.36847605  0.03249474  0.58610011  1
  Si  Si29  1  0.66748347  0.63271977  0.58406857  1
  Si  Si30  1  0.96604749  0.63187026  0.08551329  1
  Si  Si31  1  0.66973013  0.03548567  0.08530290  1
  Si  Si32  1  0.61491925  0.65167031  0.91788004  1
  Si  Si33  1  0.34396563  0.96123530  0.91779504  1
  Si  Si34  1  0.34241587  0.38130744  0.41918364  1
  Si  Si35  1  0.03547586  0.65600894  0.41778822  1
  P  P36  1  0.29324256  0.99291024  0.25044693  1
  P  P37  1  0.70352864  0.71138791  0.25219765  1
  P  P38  1  0.00806426  0.29608032  0.25186410  1
  P  P39  1  0.29090129  0.30008611  0.74934466  1
  P  P40  1  0.00632881  0.71079443  0.75284973  1
  P  P41  1  0.70094585  0.99254429  0.75353635  1
  P  P42  1  0.36538938  0.33327788  0.08270694  1
  P  P43  1  0.04228381  0.38845899  0.91958505  1
  P  P44  1  0.60845137  0.95792111  0.41644440  1
  O  O45  1  0.21335690  0.00616522  0.30630916  1
  O  O46  1  0.79581808  0.78628719  0.30951681  1
  O  O47  1  0.98280853  0.20214096  0.30950885  1
  O  O48  1  0.21114234  0.19257762  0.80294244  1
  O  O49  1  0.98944988  0.78566670  0.81027416  1
  O  O50  1  0.78739177  0.00341947  0.81141952  1
  O  O51  1  0.80361494  0.97457956  0.69969900  1
  O  O52  1  0.18217136  0.20827169  0.69223002  1
  O  O53  1  0.02986290  0.83564636  0.69927943  1
  O  O54  1  0.80871649  0.83580398  0.19838850  1
  O  O55  1  0.02731479  0.19724945  0.19800379  1
  O  O56  1  0.17572631  0.97369392  0.19543378  1
  O  O57  1  0.91018142  0.38653020  0.64070222  1
  O  O58  1  0.45884942  0.08662677  0.64794214  1
  O  O59  1  0.60414516  0.52016938  0.64203060  1
  O  O60  1  0.91057064  0.53923885  0.14688337  1
  O  O61  1  0.62546534  0.08676339  0.14618396  1
  O  O62  1  0.46734408  0.37869500  0.13787316  1
  O  O63  1  0.46365255  0.30382682  0.02943589  1
  O  O64  1  0.83004125  0.52598840  0.02952359  1
  O  O65  1  0.69241613  0.16663642  0.02905601  1
  O  O66  1  0.47538617  0.17386604  0.53190554  1
  O  O67  1  0.69842619  0.52895358  0.52773555  1
  O  O68  1  0.83652288  0.30133669  0.52456259  1
  O  O69  1  0.50155205  0.65906077  0.97094372  1
  O  O70  1  0.15039138  0.48261208  0.97236496  1
  O  O71  1  0.33483147  0.83764641  0.97113904  1
  O  O72  1  0.51304920  0.84519674  0.46874518  1
  O  O73  1  0.34374105  0.49515494  0.47372989  1
  O  O74  1  0.15823223  0.66562751  0.47100344  1
  O  O75  1  0.13789487  0.63905890  0.35733995  1
  O  O76  1  0.50394495  0.86886167  0.35838664  1
  O  O77  1  0.36652495  0.50693868  0.35970879  1
  O  O78  1  0.13474719  0.49841562  0.86235312  1
  O  O79  1  0.36578092  0.86136187  0.85740885  1
  O  O80  1  0.49888677  0.63303528  0.85666320  1
  O  O81  1  0.99627974  0.80666462  0.42118001  1
  O  O82  1  0.78458126  0.97633859  0.41511900  1
  O  O83  1  0.16756754  0.20757032  0.42219019  1
  O  O84  1  0.00822708  0.20865999  0.91800338  1
  O  O85  1  0.17306859  0.96713213  0.92079704  1
  O  O86  1  0.79718752  0.82095890  0.91955919  1
  O  O87  1  0.98030419  0.15910497  0.59163413  1
  O  O88  1  0.18210420  0.02840166  0.59065691  1
  O  O89  1  0.84242410  0.81809528  0.59317971  1
  O  O90  1  0.98252782  0.82319725  0.09147097  1
  O  O91  1  0.84815469  0.02585558  0.09139836  1
  O  O92  1  0.18966775  0.16498965  0.08867969  1
  O  O93  1  0.65903978  0.13298344  0.74784329  1
  O  O94  1  0.47328471  0.33399870  0.74495729  1
  O  O95  1  0.85057200  0.53737892  0.74532953  1
  O  O96  1  0.67962435  0.53647445  0.24389533  1
  O  O97  1  0.85989357  0.32884673  0.24468198  1
  O  O98  1  0.47592181  0.13627052  0.24577304  1
  O  O99  1  0.63519743  0.48229386  0.92405942  1
  O  O100  1  0.86750287  0.38507587  0.92299296  1
  O  O101  1  0.52493887  0.14269176  0.92388106  1
  O  O102  1  0.62316825  0.13442147  0.42217317  1
  O  O103  1  0.52038221  0.37370676  0.42271412  1
  O  O104  1  0.85371443  0.47199352  0.42180442  1
  O  O105  1  0.32884158  0.47626221  0.06735961  1
  O  O106  1  0.15427253  0.66096559  0.06897613  1
  O  O107  1  0.51571553  0.84168069  0.06976319  1
  O  O108  1  0.33463567  0.84533813  0.56919778  1
  O  O109  1  0.51402633  0.66861708  0.56717402  1
  O  O110  1  0.16237919  0.48146358  0.56901792  1
  O  O111  1  0.29565619  0.81698471  0.25242205  1
  O  O112  1  0.52810877  0.71150699  0.25309044  1
  O  O113  1  0.17897301  0.47750561  0.25510646  1
  O  O114  1  0.29829026  0.47780026  0.75432942  1
  O  O115  1  0.17913732  0.70578869  0.75430039  1
  O  O116  1  0.52207572  0.81397915  0.75333593  1
