# generated using pymatgen
data_Na2Hf4Ti4Si5S7O48
_symmetry_space_group_name_H-M   'P 1'
_cell_length_a   17.64925018
_cell_length_b   8.84441287
_cell_length_c   22.87421857
_cell_angle_alpha   90.03107262
_cell_angle_beta   89.74224583
_cell_angle_gamma   120.11405198
_symmetry_Int_Tables_number   1
_chemical_formula_structural   Na2Hf4Ti4Si5S7O48
_chemical_formula_sum   'Na6 Hf12 Ti12 Si15 S21 O144'
_cell_volume   3088.63544388
_cell_formula_units_Z   3
loop_
 _symmetry_equiv_pos_site_id
 _symmetry_equiv_pos_as_xyz
  1  'x, y, z'
loop_
 _atom_site_type_symbol
 _atom_site_label
 _atom_site_symmetry_multiplicity
 _atom_site_fract_x
 _atom_site_fract_y
 _atom_site_fract_z
 _atom_site_occupancy
  Na  Na0  1  0.99575963  0.99885031  0.50014722  1
  Na  Na1  1  0.49478981  0.99608478  0.99271635  1
  Na  Na2  1  0.34020329  0.34590112  0.83711486  1
  Na  Na3  1  0.83213812  0.33988611  0.83034379  1
  Na  Na4  1  0.33428657  0.32856617  0.33152590  1
  Na  Na5  1  0.83433385  0.33189513  0.34107281  1
  Hf  Hf6  1  0.49669266  0.00177781  0.35736152  1
  Hf  Hf7  1  0.99570106  0.98983712  0.85758181  1
  Hf  Hf8  1  0.50471696  0.99556189  0.64586394  1
  Hf  Hf9  1  0.00335794  0.00092319  0.14271160  1
  Hf  Hf10  1  0.33793402  0.34923210  0.68838724  1
  Hf  Hf11  1  0.83318307  0.32725857  0.18539354  1
  Hf  Hf12  1  0.17134085  0.65972413  0.01922196  1
  Hf  Hf13  1  0.65866270  0.65902893  0.02512140  1
  Hf  Hf14  1  0.15903133  0.65840024  0.52719649  1
  Hf  Hf15  1  0.67136465  0.68392578  0.52016398  1
  Hf  Hf16  1  0.66024258  0.66371258  0.31209802  1
  Hf  Hf17  1  0.16152710  0.65700260  0.81153111  1
  Ti  Ti18  1  0.00482227  0.99434508  0.35796871  1
  Ti  Ti19  1  0.50315729  0.00098781  0.85282793  1
  Ti  Ti20  1  0.99572650  0.99128649  0.64666773  1
  Ti  Ti21  1  0.49459647  0.00077982  0.14487191  1
  Ti  Ti22  1  0.83819892  0.34627442  0.69191471  1
  Ti  Ti23  1  0.33938390  0.33120186  0.19105574  1
  Ti  Ti24  1  0.34707745  0.36810644  0.97519749  1
  Ti  Ti25  1  0.83752553  0.31840025  0.97728399  1
  Ti  Ti26  1  0.33978066  0.35640903  0.48109605  1
  Ti  Ti27  1  0.84488401  0.32221798  0.47777629  1
  Ti  Ti28  1  0.15921932  0.67750843  0.31071060  1
  Ti  Ti29  1  0.65271369  0.63828395  0.80741129  1
  Si  Si30  1  0.14501809  0.00919158  0.25019512  1
  Si  Si31  1  0.50234392  0.28819887  0.24816854  1
  Si  Si32  1  0.64440611  0.28204405  0.74934953  1
  Si  Si33  1  0.00233406  0.71560282  0.74825426  1
  Si  Si34  1  0.50078438  0.71473001  0.75350213  1
  Si  Si35  1  0.97139420  0.31835175  0.58775579  1
  Si  Si36  1  0.33583417  0.63097574  0.58322188  1
  Si  Si37  1  0.47217167  0.62334370  0.08678151  1
  Si  Si38  1  0.83462295  0.04186214  0.08208888  1
  Si  Si39  1  0.31581317  0.67406601  0.91374379  1
  Si  Si40  1  0.02098703  0.37572647  0.91741480  1
  Si  Si41  1  0.52301037  0.36997754  0.91608259  1
  Si  Si42  1  0.81449791  0.95690761  0.41332336  1
  Si  Si43  1  0.02190455  0.66503786  0.41718087  1
  Si  Si44  1  0.51968235  0.66410057  0.41786579  1
  S  S45  1  0.64241767  0.00238078  0.24846044  1
  S  S46  1  0.35435121  0.71013747  0.24988131  1
  S  S47  1  0.85798593  0.71436338  0.25131727  1
  S  S48  1  0.00185500  0.29093087  0.25216801  1
  S  S49  1  0.14122640  0.28010651  0.74845357  1
  S  S50  1  0.35667783  0.00009467  0.75070639  1
  S  S51  1  0.85554371  -0.00016988  0.74987036  1
  S  S52  1  0.47673911  0.33184683  0.58121317  1
  S  S53  1  0.18880855  0.05078734  0.58321508  1
  S  S54  1  0.69518341  0.05794970  0.58299044  1
  S  S55  1  0.83427479  0.61694143  0.58383048  1
  S  S56  1  0.97621266  0.61937134  0.08115237  1
  S  S57  1  0.33370116  0.05068523  0.08416720  1
  S  S58  1  0.19485943  0.33452495  0.08368768  1
  S  S59  1  0.68829021  0.32744855  0.08276097  1
  S  S60  1  0.80675729  0.65707319  0.91729729  1
  S  S61  1  0.16957999  0.95978157  0.91792087  1
  S  S62  1  0.66842562  0.95787216  0.91607018  1
  S  S63  1  0.30571319  0.95343942  0.41632208  1
  S  S64  1  0.16812530  0.37857266  0.41519859  1
  S  S65  1  0.66959525  0.37984722  0.41782472  1
  O  O66  1  0.09428444  0.03100517  0.30707894  1
  O  O67  1  0.60283314  0.02831011  0.30190418  1
  O  O68  1  0.41136272  0.79002607  0.30204551  1
  O  O69  1  0.91282702  0.79610885  0.30319606  1
  O  O70  1  0.48276488  0.16383367  0.30480834  1
  O  O71  1  0.98383646  0.18072179  0.30393275  1
  O  O72  1  0.10072228  0.17598490  0.80184141  1
  O  O73  1  0.59674198  0.16014255  0.80691803  1
  O  O74  1  0.48383916  0.80682492  0.80948229  1
  O  O75  1  0.98281645  0.80157134  0.80467198  1
  O  O76  1  0.41138127  0.03315254  0.80299036  1
  O  O77  1  0.91307548  0.03560499  0.80191702  1
  O  O78  1  0.39634056  0.97635054  0.69704477  1
  O  O79  1  0.89995392  0.97892251  0.69692118  1
  O  O80  1  0.08873485  0.19895878  0.69552163  1
  O  O81  1  0.58465943  0.20772152  0.69175535  1
  O  O82  1  0.00783671  0.83786876  0.69148121  1
  O  O83  1  0.51396188  0.82501803  0.69411343  1
  O  O84  1  0.39714833  0.81991296  0.19729791  1
  O  O85  1  0.89799553  0.81807281  0.19750509  1
  O  O86  1  0.01262836  0.21029893  0.19844271  1
  O  O87  1  0.50772441  0.17721823  0.19162438  1
  O  O88  1  0.08337973  0.96457542  0.19373943  1
  O  O89  1  0.59099682  0.98122226  0.19565115  1
  O  O90  1  0.43548968  0.35820074  0.63439062  1
  O  O91  1  0.92000020  0.34552997  0.64142063  1
  O  O92  1  0.24100520  0.12785694  0.63638061  1
  O  O93  1  0.74614300  0.13511126  0.63580538  1
  O  O94  1  0.31892074  0.50022445  0.63818384  1
  O  O95  1  0.82139496  0.51405681  0.63737537  1
  O  O96  1  0.42048844  0.49423217  0.14156445  1
  O  O97  1  0.93460713  0.51351832  0.13524318  1
  O  O98  1  0.32156787  0.12911186  0.13802864  1
  O  O99  1  0.81990887  0.13960052  0.13872139  1
  O  O100  1  0.24597816  0.35817554  0.13682703  1
  O  O101  1  0.74179152  0.35468121  0.13675620  1
  O  O102  1  0.23198982  0.30422620  0.03056912  1
  O  O103  1  0.73017118  0.30339520  0.03104011  1
  O  O104  1  0.41344629  0.53508698  0.02736771  1
  O  O105  1  0.92056677  0.53555663  0.03002954  1
  O  O106  1  0.34982848  0.15737972  0.03177867  1
  O  O107  1  0.84678255  0.17431444  0.02640481  1
  O  O108  1  0.23060385  0.15757630  0.53036436  1
  O  O109  1  0.73565312  0.16234039  0.52939569  1
  O  O110  1  0.34760660  0.52178003  0.52638906  1
  O  O111  1  0.84973483  0.54058034  0.53110218  1
  O  O112  1  0.42049392  0.30792369  0.52933618  1
  O  O113  1  0.91397944  0.29305888  0.52710056  1
  O  O114  1  0.27135405  0.70115469  0.97352237  1
  O  O115  1  0.76930842  0.68883591  0.97037560  1
  O  O116  1  0.07849380  0.47007232  0.97526769  1
  O  O117  1  0.58209196  0.46042344  0.97321530  1
  O  O118  1  0.15338024  0.84860040  0.97049531  1
  O  O119  1  0.65698363  0.85302091  0.96951623  1
  O  O120  1  0.26809183  0.84672407  0.46895423  1
  O  O121  1  0.77366303  0.84063214  0.47286798  1
  O  O122  1  0.15460289  0.45887433  0.46801075  1
  O  O123  1  0.65369759  0.45848488  0.47016024  1
  O  O124  1  0.08365840  0.70476446  0.47248819  1
  O  O125  1  0.57957066  0.68799746  0.47457105  1
  O  O126  1  0.06985930  0.63511851  0.35887171  1
  O  O127  1  0.56061231  0.62407343  0.35984822  1
  O  O128  1  0.25354651  0.86720709  0.36294103  1
  O  O129  1  0.75296797  0.86871295  0.35706168  1
  O  O130  1  0.18283784  0.48511584  0.36231854  1
  O  O131  1  0.68371501  0.48847228  0.36475361  1
  O  O132  1  0.06116586  0.49840078  0.85990206  1
  O  O133  1  0.56755296  0.50075210  0.85941287  1
  O  O134  1  0.18373772  0.87929677  0.86505599  1
  O  O135  1  0.68618228  0.88601334  0.86382448  1
  O  O136  1  0.25237613  0.63702716  0.85816535  1
  O  O137  1  0.75612212  0.63648628  0.86437013  1
  O  O138  1  0.01012401  0.83650331  0.40606012  1
  O  O139  1  0.50670367  0.82922059  0.40617019  1
  O  O140  1  0.39442861  0.97417800  0.40789413  1
  O  O141  1  0.91419705  0.99228978  0.40370726  1
  O  O142  1  0.08779758  0.20216236  0.40960226  1
  O  O143  1  0.58997462  0.20493884  0.40883632  1
  O  O144  1  0.00702775  0.18397722  0.90673551  1
  O  O145  1  0.51005276  0.17745243  0.90655849  1
  O  O146  1  0.09017785  0.97535364  0.90915897  1
  O  O147  1  0.59023713  0.97789118  0.91201607  1
  O  O148  1  0.41378637  0.83980440  0.90916623  1
  O  O149  1  0.89664645  0.81410236  0.91012436  1
  O  O150  1  0.48283209  0.17401956  0.58742314  1
  O  O151  1  0.98323864  0.14730486  0.59557615  1
  O  O152  1  0.09983390  0.03195782  0.58936956  1
  O  O153  1  0.60655855  0.03588591  0.58760353  1
  O  O154  1  0.42198277  0.81703075  0.58963314  1
  O  O155  1  0.91303144  0.79851696  0.59046223  1
  O  O156  1  0.48362795  0.81795345  0.09735829  1
  O  O157  1  0.98287946  0.79196250  0.08915475  1
  O  O158  1  0.41262465  0.02636576  0.09131643  1
  O  O159  1  0.92262069  0.03511899  0.09331629  1
  O  O160  1  0.10461174  0.18057933  0.09156225  1
  O  O161  1  0.60023310  0.16864451  0.09062449  1
  O  O162  1  0.34475377  0.15569175  0.74325171  1
  O  O163  1  0.84644214  0.15684006  0.74255526  1
  O  O164  1  0.22888102  0.29401430  0.74316580  1
  O  O165  1  0.74141899  0.30119591  0.73945228  1
  O  O166  1  0.41511315  0.51503790  0.74807275  1
  O  O167  1  0.91456625  0.52126002  0.73921880  1
  O  O168  1  0.34467399  0.53437424  0.24267651  1
  O  O169  1  0.84911354  0.53673548  0.24422083  1
  O  O170  1  0.41493597  0.30846106  0.23884019  1
  O  O171  1  0.92383380  0.31818133  0.24463771  1
  O  O172  1  0.24186129  0.17896870  0.24122713  1
  O  O173  1  0.73181049  0.16485926  0.24356832  1
  O  O174  1  0.32065008  0.49197848  0.92433184  1
  O  O175  1  0.81812418  0.50203028  0.92491449  1
  O  O176  1  0.42458838  0.35052149  0.92557402  1
  O  O177  1  0.92274373  0.35872557  0.92615415  1
  O  O178  1  0.24619925  0.13445249  0.92592557  1
  O  O179  1  0.74651411  0.14096937  0.92446540  1
  O  O180  1  0.31557131  0.12883160  0.42190550  1
  O  O181  1  0.82113156  0.14889476  0.42481761  1
  O  O182  1  0.24488130  0.35144874  0.42278646  1
  O  O183  1  0.74603105  0.35775408  0.42499290  1
  O  O184  1  0.42181928  0.48461791  0.42640065  1
  O  O185  1  0.92337779  0.49527302  0.42396489  1
  O  O186  1  0.18376380  0.49108060  0.07769650  1
  O  O187  1  0.68002341  0.48480325  0.07756162  1
  O  O188  1  0.06411656  0.64188459  0.07583121  1
  O  O189  1  0.56676061  0.64301647  0.07670360  1
  O  O190  1  0.25556343  0.87405575  0.07829466  1
  O  O191  1  0.75109456  0.85600978  0.07034746  1
  O  O192  1  0.17903729  0.87540552  0.57609825  1
  O  O193  1  0.68474035  0.87912788  0.57641095  1
  O  O194  1  0.25032558  0.64289210  0.56953896  1
  O  O195  1  0.75587209  0.63654301  0.57690094  1
  O  O196  1  0.06519849  0.48936267  0.57604858  1
  O  O197  1  0.56409322  0.48817681  0.57388347  1
  O  O198  1  0.15817234  0.83863679  0.26542113  1
  O  O199  1  0.65471302  0.85051339  0.25451386  1
  O  O200  1  0.26827176  0.69421977  0.25932704  1
  O  O201  1  0.77045175  0.69136422  0.25826874  1
  O  O202  1  0.08112145  0.46554128  0.25908829  1
  O  O203  1  0.58897828  0.47652537  0.25413811  1
  O  O204  1  0.15305104  0.45691612  0.75412752  1
  O  O205  1  0.66106742  0.47904972  0.76400262  1
  O  O206  1  0.08902419  0.70130911  0.75411031  1
  O  O207  1  0.58823608  0.69779996  0.76243755  1
  O  O208  1  0.26945576  0.84530866  0.75857343  1
  O  O209  1  0.77088246  0.84277691  0.75825187  1
