# generated using pymatgen
data_Na6Zr4Sc4Si5S7O48
_symmetry_space_group_name_H-M   'P 1'
_cell_length_a   18.04943630
_cell_length_b   9.00869208
_cell_length_c   23.44597045
_cell_angle_alpha   89.99112629
_cell_angle_beta   89.89552179
_cell_angle_gamma   119.97799694
_symmetry_Int_Tables_number   1
_chemical_formula_structural   Na6Zr4Sc4Si5S7O48
_chemical_formula_sum   'Na18 Zr12 Sc12 Si15 S21 O144'
_cell_volume   3302.32207766
_cell_formula_units_Z   3
loop_
 _symmetry_equiv_pos_site_id
 _symmetry_equiv_pos_as_xyz
  1  'x, y, z'
loop_
 _atom_site_type_symbol
 _atom_site_label
 _atom_site_symmetry_multiplicity
 _atom_site_fract_x
 _atom_site_fract_y
 _atom_site_fract_z
 _atom_site_occupancy
  Na  Na0  1  0.00060815  0.63193600  0.25447845  1
  Na  Na1  1  0.49619130  0.62945179  0.25084659  1
  Na  Na2  1  0.99588958  0.36521506  0.75009437  1
  Na  Na3  1  0.50310720  0.36451692  0.75321604  1
  Na  Na4  1  0.66390114  0.30217867  0.91709464  1
  Na  Na5  1  0.16523163  0.02387766  0.42475838  1
  Na  Na6  1  0.00162138  0.99673449  0.50463657  1
  Na  Na7  1  0.50440550  0.99729489  0.50267248  1
  Na  Na8  1  0.00524724  0.00928666  0.99679581  1
  Na  Na9  1  0.50215522  0.00928600  0.99890592  1
  Na  Na10  1  0.33164107  0.32570223  0.83600664  1
  Na  Na11  1  0.83168035  0.33062630  0.82309570  1
  Na  Na12  1  0.33948100  0.34394006  0.32797647  1
  Na  Na13  1  0.82885606  0.33466965  0.33874901  1
  Na  Na14  1  0.18042429  0.66105976  0.16720843  1
  Na  Na15  1  0.67159904  0.65919133  0.16390283  1
  Na  Na16  1  0.17267092  0.68562401  0.66662880  1
  Na  Na17  1  0.67865168  0.68716874  0.67329375  1
  Zr  Zr18  1  0.49847263  0.00958973  0.35055244  1
  Zr  Zr19  1  0.99831076  0.98621741  0.84997185  1
  Zr  Zr20  1  0.00023696  0.98754154  0.64992279  1
  Zr  Zr21  1  0.50641914  0.99914043  0.64435031  1
  Zr  Zr22  1  0.00046489  0.01275005  0.14097910  1
  Zr  Zr23  1  0.49971514  0.01313834  0.14890066  1
  Zr  Zr24  1  0.32768856  0.32233788  0.97681589  1
  Zr  Zr25  1  0.82826489  0.33457649  0.47830106  1
  Zr  Zr26  1  0.16541086  0.66477818  0.01782179  1
  Zr  Zr27  1  0.66519853  0.65410034  0.02230881  1
  Zr  Zr28  1  0.16488396  0.67644670  0.52460356  1
  Zr  Zr29  1  0.66414272  0.66213636  0.51988675  1
  Sc  Sc30  1  0.99689239  0.99042328  0.35551447  1
  Sc  Sc31  1  0.50374296  0.01343105  0.85208495  1
  Sc  Sc32  1  0.32414359  0.33148242  0.67948062  1
  Sc  Sc33  1  0.82304458  0.31441753  0.69255644  1
  Sc  Sc34  1  0.33037211  0.34411385  0.18803826  1
  Sc  Sc35  1  0.82286162  0.31725372  0.17899453  1
  Sc  Sc36  1  0.82976321  0.31762865  0.98583691  1
  Sc  Sc37  1  0.33206737  0.34491630  0.48827358  1
  Sc  Sc38  1  0.17027730  0.66445194  0.31569172  1
  Sc  Sc39  1  0.66566132  0.64572873  0.31511636  1
  Sc  Sc40  1  0.16752630  0.68798650  0.81451679  1
  Sc  Sc41  1  0.66786584  0.66248077  0.81111288  1
  Si  Si42  1  0.35156202  0.70883720  0.25048684  1
  Si  Si43  1  0.49950943  0.30107808  0.24938795  1
  Si  Si44  1  0.64472945  0.29277828  0.75129952  1
  Si  Si45  1  0.00145608  0.69928271  0.74918676  1
  Si  Si46  1  0.85250369  0.99592614  0.75062574  1
  Si  Si47  1  0.18526467  0.04765837  0.58153057  1
  Si  Si48  1  0.69105706  0.04298559  0.58369447  1
  Si  Si49  1  0.33302716  0.62810676  0.58361469  1
  Si  Si50  1  0.82982093  0.03943274  0.08301735  1
  Si  Si51  1  0.19150302  0.34085346  0.08421226  1
  Si  Si52  1  0.68533251  0.32588877  0.08149703  1
  Si  Si53  1  0.52070484  0.37629875  0.91382163  1
  Si  Si54  1  0.16239334  0.95707892  0.91709072  1
  Si  Si55  1  0.66361151  0.36848942  0.41678977  1
  Si  Si56  1  0.02167476  0.66330262  0.41261850  1
  S  S57  1  0.14380342  0.99786324  0.25107507  1
  S  S58  1  0.64795588  0.00208181  0.25105398  1
  S  S59  1  0.85617811  0.71075543  0.25003381  1
  S  S60  1  0.99885829  0.29103093  0.25126175  1
  S  S61  1  0.14812436  0.29416905  0.75117051  1
  S  S62  1  0.49744183  0.70448969  0.75127768  1
  S  S63  1  0.35498699  0.00071055  0.74962533  1
  S  S64  1  0.47815995  0.33300285  0.58423593  1
  S  S65  1  0.97688169  0.33018570  0.58363687  1
  S  S66  1  0.83299024  0.62393148  0.58341574  1
  S  S67  1  0.47767024  0.62470658  0.08374915  1
  S  S68  1  0.97917305  0.62326080  0.08512695  1
  S  S69  1  0.33206083  0.04190289  0.08381718  1
  S  S70  1  0.31243266  0.66879346  0.91521738  1
  S  S71  1  0.81278388  0.66537611  0.91738248  1
  S  S72  1  0.01930372  0.37551625  0.91556722  1
  S  S73  1  0.66708870  0.95783840  0.91621197  1
  S  S74  1  0.31234846  0.95923317  0.41694373  1
  S  S75  1  0.81184202  0.95551424  0.41508430  1
  S  S76  1  0.16704997  0.37297540  0.41575350  1
  S  S77  1  0.51948919  0.66334029  0.41536101  1
  O  O78  1  0.10377773  0.02198233  0.30354250  1
  O  O79  1  0.60618874  0.02579312  0.30250487  1
  O  O80  1  0.41543446  0.79884315  0.30602142  1
  O  O81  1  0.91021988  0.79574272  0.30119344  1
  O  O82  1  0.48870440  0.18077076  0.30527559  1
  O  O83  1  0.98890552  0.18642385  0.30196712  1
  O  O84  1  0.10642503  0.18657409  0.80264133  1
  O  O85  1  0.60026136  0.17867102  0.80953397  1
  O  O86  1  0.48450676  0.78510316  0.80218765  1
  O  O87  1  0.99041244  0.79767483  0.80516958  1
  O  O88  1  0.40769261  0.02293092  0.80122243  1
  O  O89  1  0.91687049  0.03070710  0.80615026  1
  O  O90  1  0.39425679  0.97692618  0.69766663  1
  O  O91  1  0.90316849  0.97654800  0.69437500  1
  O  O92  1  0.09426024  0.21418925  0.69944903  1
  O  O93  1  0.57854913  0.19391026  0.69766492  1
  O  O94  1  0.01909212  0.82657050  0.69414765  1
  O  O95  1  0.50663125  0.80782214  0.69898631  1
  O  O96  1  0.40171941  0.82632121  0.19416027  1
  O  O97  1  0.89868650  0.81446241  0.19852897  1
  O  O98  1  0.00890352  0.20635327  0.19936277  1
  O  O99  1  0.51708863  0.21013592  0.19421446  1
  O  O100  1  0.08728944  0.97052309  0.20124742  1
  O  O101  1  0.59399089  0.97430409  0.19947525  1
  O  O102  1  0.44100181  0.35833219  0.63699832  1
  O  O103  1  0.94194978  0.36041571  0.63585068  1
  O  O104  1  0.24480332  0.13234700  0.63739361  1
  O  O105  1  0.74804482  0.12839551  0.63932772  1
  O  O106  1  0.31985427  0.51147815  0.63986935  1
  O  O107  1  0.82190005  0.52373080  0.63443390  1
  O  O108  1  0.44139710  0.52311926  0.13679083  1
  O  O109  1  0.94167339  0.52410834  0.13836743  1
  O  O110  1  0.32113207  0.12053607  0.13525151  1
  O  O111  1  0.82082619  0.12890961  0.14084882  1
  O  O112  1  0.24634890  0.36252238  0.14089666  1
  O  O113  1  0.74434214  0.35913124  0.13816203  1
  O  O114  1  0.23476159  0.31153955  0.02748892  1
  O  O115  1  0.73017672  0.30936679  0.02296486  1
  O  O116  1  0.42494204  0.53933604  0.03308231  1
  O  O117  1  0.92699264  0.54479904  0.03413944  1
  O  O118  1  0.34458948  0.14561368  0.03162313  1
  O  O119  1  0.85133092  0.16041444  0.02707486  1
  O  O120  1  0.22896279  0.14911619  0.52152978  1
  O  O121  1  0.73538666  0.15858138  0.52611400  1
  O  O122  1  0.35077362  0.54409444  0.52680287  1
  O  O123  1  0.84534133  0.54545318  0.53069178  1
  O  O124  1  0.42683827  0.31259772  0.53277476  1
  O  O125  1  0.92520268  0.31163273  0.53196316  1
  O  O126  1  0.26980228  0.68885817  0.96771761  1
  O  O127  1  0.77314451  0.69137887  0.96948870  1
  O  O128  1  0.07419461  0.46188118  0.96737654  1
  O  O129  1  0.58495702  0.47061355  0.96880578  1
  O  O130  1  0.15390228  0.83989740  0.97361296  1
  O  O131  1  0.65831648  0.85763908  0.96850096  1
  O  O132  1  0.27234752  0.85424545  0.46855588  1
  O  O133  1  0.77141424  0.85064923  0.46709512  1
  O  O134  1  0.15536045  0.45213328  0.46700746  1
  O  O135  1  0.65409563  0.46817718  0.47246505  1
  O  O136  1  0.08697517  0.70409404  0.46667326  1
  O  O137  1  0.57378704  0.68586593  0.46670335  1
  O  O138  1  0.06486658  0.64452175  0.35329302  1
  O  O139  1  0.56179464  0.64789751  0.36291421  1
  O  O140  1  0.25842602  0.87591980  0.36576759  1
  O  O141  1  0.75983719  0.87769070  0.36382025  1
  O  O142  1  0.17884948  0.47782309  0.36399551  1
  O  O143  1  0.67892897  0.48773018  0.36063299  1
  O  O144  1  0.06207280  0.47591082  0.86353985  1
  O  O145  1  0.56306866  0.48599295  0.85607082  1
  O  O146  1  0.17795029  0.86821602  0.86163762  1
  O  O147  1  0.67886814  0.87833730  0.86504278  1
  O  O148  1  0.25913229  0.64046827  0.86450137  1
  O  O149  1  0.75938897  0.64002577  0.86657852  1
  O  O150  1  0.01529721  0.84304815  0.40705853  1
  O  O151  1  0.51116294  0.81896849  0.41196816  1
  O  O152  1  0.39810850  0.97473668  0.41129665  1
  O  O153  1  0.89869830  0.97423533  0.40950562  1
  O  O154  1  0.08930248  0.19752414  0.40868101  1
  O  O155  1  0.57963504  0.17627221  0.41185859  1
  O  O156  1  0.01124026  0.20329234  0.91291408  1
  O  O157  1  0.51340889  0.18463829  0.91154128  1
  O  O158  1  0.07889337  0.98216704  0.91354076  1
  O  O159  1  0.58860506  0.97584054  0.91238641  1
  O  O160  1  0.39801290  0.82205288  0.91085441  1
  O  O161  1  0.89895506  0.82223007  0.91245837  1
  O  O162  1  0.48805245  0.17928405  0.58843460  1
  O  O163  1  0.98719293  0.17635764  0.58736732  1
  O  O164  1  0.08995265  0.02851745  0.58661051  1
  O  O165  1  0.59461884  0.02165354  0.58829934  1
  O  O166  1  0.41506770  0.82146146  0.59154275  1
  O  O167  1  0.90992873  0.80008803  0.58628692  1
  O  O168  1  0.48733127  0.79789148  0.08893120  1
  O  O169  1  0.99026800  0.79891208  0.09179742  1
  O  O170  1  0.40905727  0.02006374  0.08743151  1
  O  O171  1  0.91451043  0.01270897  0.09143161  1
  O  O172  1  0.09486343  0.16702015  0.09119458  1
  O  O173  1  0.59031593  0.15301578  0.08791315  1
  O  O174  1  0.34987414  0.16173479  0.74519716  1
  O  O175  1  0.85247158  0.17618545  0.74601814  1
  O  O176  1  0.23364493  0.30991776  0.74597215  1
  O  O177  1  0.73894475  0.31493849  0.74640749  1
  O  O178  1  0.42277591  0.52633204  0.74511508  1
  O  O179  1  0.91873076  0.51227327  0.74259316  1
  O  O180  1  0.34712765  0.52240635  0.24569307  1
  O  O181  1  0.85121409  0.54010296  0.24583740  1
  O  O182  1  0.41513868  0.31992699  0.24335820  1
  O  O183  1  0.92377676  0.31710713  0.24563264  1
  O  O184  1  0.22968582  0.14799299  0.24472689  1
  O  O185  1  0.73369337  0.15785298  0.24598666  1
  O  O186  1  0.32163598  0.51398794  0.92284800  1
  O  O187  1  0.82130346  0.51041339  0.92335565  1
  O  O188  1  0.42666518  0.35776710  0.92539824  1
  O  O189  1  0.93541918  0.36476570  0.92244828  1
  O  O190  1  0.24938273  0.14686597  0.92211666  1
  O  O191  1  0.74281732  0.13747914  0.92106182  1
  O  O192  1  0.32030517  0.13116149  0.42151536  1
  O  O193  1  0.82335530  0.13036964  0.42203834  1
  O  O194  1  0.24279222  0.34699588  0.41954154  1
  O  O195  1  0.75042407  0.35217353  0.42173408  1
  O  O196  1  0.43475302  0.50566879  0.42125578  1
  O  O197  1  0.92741397  0.49613699  0.42262185  1
  O  O198  1  0.17582763  0.50533223  0.07611312  1
  O  O199  1  0.67413925  0.49725837  0.07788299  1
  O  O200  1  0.06646956  0.64364705  0.07853787  1
  O  O201  1  0.56498400  0.64556709  0.07687275  1
  O  O202  1  0.25496417  0.86684799  0.07680187  1
  O  O203  1  0.74544006  0.85130569  0.07545986  1
  O  O204  1  0.17398258  0.85292998  0.57782809  1
  O  O205  1  0.67626419  0.84785873  0.57317037  1
  O  O206  1  0.24586458  0.63996458  0.57366085  1
  O  O207  1  0.75582387  0.64437214  0.57555374  1
  O  O208  1  0.06498935  0.48369457  0.57526070  1
  O  O209  1  0.56574571  0.48896731  0.57749450  1
  O  O210  1  0.14938255  0.83847210  0.25576606  1
  O  O211  1  0.65466690  0.84581025  0.25771880  1
  O  O212  1  0.25691674  0.68969461  0.25738496  1
  O  O213  1  0.77082897  0.69432781  0.25554518  1
  O  O214  1  0.07721680  0.46495733  0.25454423  1
  O  O215  1  0.58274803  0.49613479  0.25565380  1
  O  O216  1  0.15452529  0.46357348  0.75781607  1
  O  O217  1  0.64728529  0.47771618  0.75447933  1
  O  O218  1  0.08554551  0.67383657  0.75548003  1
  O  O219  1  0.57616564  0.69129364  0.75472400  1
  O  O220  1  0.26852117  0.84688943  0.75563683  1
  O  O221  1  0.75855646  0.83001798  0.75737405  1
