# generated using pymatgen
data_NaYZrSi(SO6)2
_symmetry_space_group_name_H-M   'P 1'
_cell_length_a   9.10607858
_cell_length_b   9.14300755
_cell_length_c   23.95179905
_cell_angle_alpha   90.29917957
_cell_angle_beta   90.00000000
_cell_angle_gamma   119.86647933
_symmetry_Int_Tables_number   1
_chemical_formula_structural   NaYZrSi(SO6)2
_chemical_formula_sum   'Na6 Y6 Zr6 Si6 S12 O72'
_cell_volume   1729.27521786
_cell_formula_units_Z   6
loop_
 _symmetry_equiv_pos_site_id
 _symmetry_equiv_pos_as_xyz
  1  'x, y, z'
loop_
 _atom_site_type_symbol
 _atom_site_label
 _atom_site_symmetry_multiplicity
 _atom_site_fract_x
 _atom_site_fract_y
 _atom_site_fract_z
 _atom_site_occupancy
  Na  Na0  1  0.02393766  0.01106518  0.50228323  1
  Na  Na1  1  0.98712753  0.01106518  0.00228323  1
  Na  Na2  1  0.68929818  0.33211213  0.83504380  1
  Na  Na3  1  0.64281495  0.33211213  0.33504380  1
  Na  Na4  1  0.34074529  0.69277406  0.16826541  1
  Na  Na5  1  0.35202777  0.69277406  0.66826541  1
  Y  Y6  1  0.99827896  0.99746752  0.64788266  1
  Y  Y7  1  0.99918856  0.99746752  0.14788266  1
  Y  Y8  1  0.67597387  0.32541889  0.98079633  1
  Y  Y9  1  0.64944602  0.32541889  0.48079633  1
  Y  Y10  1  0.33691619  0.66795763  0.31419708  1
  Y  Y11  1  0.33104044  0.66795763  0.81419708  1
  Zr  Zr12  1  0.02264804  0.01341962  0.35254835  1
  Zr  Zr13  1  0.99077158  0.01341962  0.85254835  1
  Zr  Zr14  1  0.65728613  0.30912049  0.68542981  1
  Zr  Zr15  1  0.65183536  0.30912049  0.18542981  1
  Zr  Zr16  1  0.33117968  0.66447722  0.01871302  1
  Zr  Zr17  1  0.33329653  0.66447722  0.51871302  1
  Si  Si18  1  0.29618127  0.99901159  0.24821998  1
  Si  Si19  1  0.70283032  0.99901159  0.74821998  1
  Si  Si20  1  0.36785372  0.03016183  0.58190502  1
  Si  Si21  1  0.66230912  0.03016183  0.08190502  1
  Si  Si22  1  0.04210311  0.37454504  0.91551847  1
  Si  Si23  1  0.33244093  0.37454504  0.41551847  1
  S  S24  1  0.71171490  0.70458225  0.25030425  1
  S  S25  1  0.99435635  0.29075652  0.25047210  1
  S  S26  1  0.29640018  0.29075652  0.75047210  1
  S  S27  1  0.99286735  0.70458225  0.75030425  1
  S  S28  1  0.96179749  0.33898900  0.58293200  1
  S  S29  1  0.66188550  0.62272665  0.58367874  1
  S  S30  1  0.96084215  0.62272665  0.08367874  1
  S  S31  1  0.37719251  0.33898900  0.08293200  1
  S  S32  1  0.62830831  0.67071369  0.91694989  1
  S  S33  1  0.32571901  0.95665415  0.91719175  1
  S  S34  1  0.63093414  0.95665415  0.41719175  1
  S  S35  1  0.04240438  0.67071369  0.41694989  1
  O  O36  1  0.20065049  0.02549198  0.30490944  1
  O  O37  1  0.81504292  0.79062853  0.30103770  1
  O  O38  1  0.96902138  0.18360153  0.30072710  1
  O  O39  1  0.21458015  0.18360153  0.80072710  1
  O  O40  1  0.97558560  0.79062853  0.80103770  1
  O  O41  1  0.82484149  0.02549198  0.80490944  1
  O  O42  1  0.79473378  0.98171204  0.69403180  1
  O  O43  1  0.19599622  0.21150916  0.69992867  1
  O  O44  1  0.01916178  0.80661983  0.70010052  1
  O  O45  1  0.78745805  0.80661983  0.20010052  1
  O  O46  1  0.01551294  0.21150916  0.19992867  1
  O  O47  1  0.18697825  0.98171204  0.19403180  1
  O  O48  1  0.87839571  0.36283781  0.63370762  1
  O  O49  1  0.49104666  0.12902638  0.63855330  1
  O  O50  1  0.64092395  0.51968016  0.63392341  1
  O  O51  1  0.87875721  0.51968016  0.13392341  1
  O  O52  1  0.63798072  0.12902638  0.13855330  1
  O  O53  1  0.48444310  0.36283781  0.13370762  1
  O  O54  1  0.45637534  0.31893500  0.03254080  1
  O  O55  1  0.85915689  0.54694133  0.03305079  1
  O  O56  1  0.68408474  0.14455532  0.02878768  1
  O  O57  1  0.46047159  0.14455532  0.52878768  1
  O  O58  1  0.68778544  0.54694133  0.53305079  1
  O  O59  1  0.86256066  0.31893500  0.53254080  1
  O  O60  1  0.54692380  0.69850171  0.96754269  1
  O  O61  1  0.16153288  0.47202467  0.97170390  1
  O  O62  1  0.30854773  0.85148602  0.96749303  1
  O  O63  1  0.54293730  0.85148602  0.46749303  1
  O  O64  1  0.31049080  0.47202467  0.47170390  1
  O  O65  1  0.15157691  0.69850171  0.46754269  1
  O  O66  1  0.12164560  0.65074249  0.36652358  1
  O  O67  1  0.52677784  0.88279231  0.36691914  1
  O  O68  1  0.34714643  0.48027689  0.36090260  1
  O  O69  1  0.13312946  0.48027689  0.86090260  1
  O  O70  1  0.35601346  0.88279231  0.86691914  1
  O  O71  1  0.52909589  0.65074249  0.86652358  1
  O  O72  1  0.02368371  0.82485066  0.41169018  1
  O  O73  1  0.79707738  0.96314617  0.41156014  1
  O  O74  1  0.15469636  0.18365349  0.41055885  1
  O  O75  1  0.02895714  0.18365349  0.91055885  1
  O  O76  1  0.16606879  0.96314617  0.91156014  1
  O  O77  1  0.80116694  0.82485066  0.91169018  1
  O  O78  1  0.98362861  0.19131936  0.58895115  1
  O  O79  1  0.18109931  0.00708629  0.58779962  1
  O  O80  1  0.80794103  0.79428597  0.58860181  1
  O  O81  1  0.98634494  0.79428597  0.08860181  1
  O  O82  1  0.82598698  0.00708629  0.08779962  1
  O  O83  1  0.20769075  0.19131936  0.08895115  1
  O  O84  1  0.69427072  0.17841497  0.74367607  1
  O  O85  1  0.46873132  0.30823967  0.74492173  1
  O  O86  1  0.83585531  0.53654507  0.74418446  1
  O  O87  1  0.70069076  0.53654507  0.24418446  1
  O  O88  1  0.83950935  0.30823967  0.24492173  1
  O  O89  1  0.48414525  0.17841497  0.24367607  1
  O  O90  1  0.64535753  0.52110536  0.92385133  1
  O  O91  1  0.85281798  0.34821079  0.91888781  1
  O  O92  1  0.46962963  0.12864765  0.92344580  1
  O  O93  1  0.65901902  0.12864765  0.42344580  1
  O  O94  1  0.49539381  0.34821079  0.41888781  1
  O  O95  1  0.87574884  0.52110536  0.42385133  1
  O  O96  1  0.36277455  0.49558753  0.07851045  1
  O  O97  1  0.13220898  0.63593600  0.07756573  1
  O  O98  1  0.48677998  0.84392627  0.07544522  1
  O  O99  1  0.35714529  0.84392627  0.57544522  1
  O  O100  1  0.50372602  0.63593600  0.57756573  1
  O  O101  1  0.13281198  0.49558753  0.57851045  1
  O  O102  1  0.32411655  0.83956934  0.25421650  1
  O  O103  1  0.53952491  0.68101257  0.25512090  1
  O  O104  1  0.14301166  0.45914620  0.25629659  1
  O  O105  1  0.31613354  0.45914620  0.75629659  1
  O  O106  1  0.14148667  0.68101257  0.75512090  1
  O  O107  1  0.51545179  0.83956934  0.75421650  1
