# generated using pymatgen
data_Na7Ca2Ta2Si3(PO8)3
_symmetry_space_group_name_H-M   'P 1'
_cell_length_a   9.26382846
_cell_length_b   9.26627940
_cell_length_c   22.58206818
_cell_angle_alpha   90.07438172
_cell_angle_beta   89.96849221
_cell_angle_gamma   119.89189708
_symmetry_Int_Tables_number   1
_chemical_formula_structural   Na7Ca2Ta2Si3(PO8)3
_chemical_formula_sum   'Na21 Ca6 Ta6 Si9 P9 O72'
_cell_volume   1680.59058715
_cell_formula_units_Z   3
loop_
 _symmetry_equiv_pos_site_id
 _symmetry_equiv_pos_as_xyz
  1  'x, y, z'
loop_
 _atom_site_type_symbol
 _atom_site_label
 _atom_site_symmetry_multiplicity
 _atom_site_fract_x
 _atom_site_fract_y
 _atom_site_fract_z
 _atom_site_occupancy
  Na  Na0  1  0.62529323  0.98484933  0.25990426  1
  Na  Na1  1  0.34662386  0.36732656  0.25510600  1
  Na  Na2  1  0.02976901  0.65305530  0.25472139  1
  Na  Na3  1  0.65612450  0.62766440  0.74546397  1
  Na  Na4  1  0.98291426  0.35495506  0.74023291  1
  Na  Na5  1  0.36785082  0.01878582  0.74167083  1
  Na  Na6  1  0.00712401  0.66824762  0.58539071  1
  Na  Na7  1  0.67143338  0.00011473  0.58325309  1
  Na  Na8  1  0.27077807  0.94077427  0.08710285  1
  Na  Na9  1  0.66846176  0.71767036  0.07721350  1
  Na  Na10  1  0.05431527  0.33699224  0.08843576  1
  Na  Na11  1  0.98308315  0.68712960  0.90701645  1
  Na  Na12  1  0.31935337  0.29461782  0.90781246  1
  Na  Na13  1  0.95799597  0.30992541  0.42840928  1
  Na  Na14  1  0.35665660  0.03397914  0.42479988  1
  Na  Na15  1  0.00276716  0.00400400  0.50213805  1
  Na  Na16  1  0.97434978  0.98297005  0.99424840  1
  Na  Na17  1  0.66791828  0.33095320  0.82071493  1
  Na  Na18  1  0.66583387  0.33994855  0.34756757  1
  Na  Na19  1  0.31711575  0.66745253  0.17258564  1
  Na  Na20  1  0.32621430  0.65223806  0.66295125  1
  Ca  Ca21  1  0.99370708  0.99776842  0.85124407  1
  Ca  Ca22  1  0.99869894  0.99723568  0.14411923  1
  Ca  Ca23  1  0.66574253  0.33521286  0.67360113  1
  Ca  Ca24  1  0.66083786  0.33410856  0.49032565  1
  Ca  Ca25  1  0.33408958  0.66867813  0.02248681  1
  Ca  Ca26  1  0.33577579  0.66820273  0.32008091  1
  Ta  Ta27  1  0.99834193  0.00237316  0.35053835  1
  Ta  Ta28  1  0.00953548  0.00441314  0.65209847  1
  Ta  Ta29  1  0.67018056  0.33310157  0.19103685  1
  Ta  Ta30  1  0.66949460  0.33701010  0.97503458  1
  Ta  Ta31  1  0.33852595  0.66816234  0.51382099  1
  Ta  Ta32  1  0.33640456  0.66723208  0.81576976  1
  Si  Si33  1  0.29816407  0.00512079  0.24617244  1
  Si  Si34  1  0.99651092  0.29403197  0.24544301  1
  Si  Si35  1  0.29957061  0.30236964  0.75620391  1
  Si  Si36  1  0.00342293  0.69894874  0.75492525  1
  Si  Si37  1  0.98536192  0.33361743  0.58257072  1
  Si  Si38  1  0.35100917  0.01607344  0.58184932  1
  Si  Si39  1  0.94883882  0.61619743  0.08301270  1
  Si  Si40  1  0.62901797  0.66394018  0.92245521  1
  Si  Si41  1  0.64082562  0.96848740  0.41197523  1
  P  P42  1  0.71177554  0.70130604  0.24785314  1
  P  P43  1  0.69838648  0.99292822  0.75100263  1
  P  P44  1  0.66945579  0.65308012  0.58661650  1
  P  P45  1  0.66416477  0.05641824  0.08299157  1
  P  P46  1  0.38938838  0.33234382  0.08299627  1
  P  P47  1  0.03618908  0.37949512  0.91936446  1
  P  P48  1  0.34465182  0.96606275  0.91947571  1
  P  P49  1  0.32500207  0.36115223  0.41099201  1
  P  P50  1  0.03724823  0.67590715  0.41362698  1
  O  O51  1  0.18949295  0.02544830  0.30453199  1
  O  O52  1  0.83594313  0.80500574  0.30074877  1
  O  O53  1  0.97194768  0.16063246  0.30296992  1
  O  O54  1  0.22860024  0.20760173  0.81651876  1
  O  O55  1  0.97507430  0.77092137  0.81462898  1
  O  O56  1  0.80057508  0.02396003  0.80542211  1
  O  O57  1  0.78700121  0.96677816  0.69526862  1
  O  O58  1  0.16142651  0.18545674  0.70183211  1
  O  O59  1  0.01779480  0.82779758  0.69865088  1
  O  O60  1  0.77745922  0.79349069  0.19005575  1
  O  O61  1  0.01860119  0.21899155  0.18515633  1
  O  O62  1  0.19527321  0.97567599  0.18653216  1
  O  O63  1  0.92719686  0.39652194  0.63978806  1
  O  O64  1  0.46823487  0.07791965  0.63947750  1
  O  O65  1  0.62909866  0.55899823  0.64484988  1
  O  O66  1  0.83601359  0.50283274  0.14145071  1
  O  O67  1  0.66385851  0.15593443  0.14046707  1
  O  O68  1  0.49129502  0.33153806  0.13883547  1
  O  O69  1  0.49053318  0.33089879  0.02659499  1
  O  O70  1  0.83711894  0.50190329  0.02408455  1
  O  O71  1  0.66247776  0.15967543  0.02856213  1
  O  O72  1  0.41718265  0.12048593  0.52236062  1
  O  O73  1  0.71942390  0.57541210  0.53722024  1
  O  O74  1  0.86013842  0.27922575  0.52704980  1
  O  O75  1  0.54646921  0.66864106  0.98339858  1
  O  O76  1  0.12352257  0.45740608  0.97707471  1
  O  O77  1  0.31978974  0.86944652  0.97620472  1
  O  O78  1  0.52352846  0.83876622  0.46786497  1
  O  O79  1  0.31010096  0.47236917  0.46128457  1
  O  O80  1  0.16392870  0.69213003  0.46519335  1
  O  O81  1  0.10206492  0.65164608  0.35498775  1
  O  O82  1  0.54456490  0.89670326  0.35157520  1
  O  O83  1  0.33542528  0.43775241  0.35120863  1
  O  O84  1  0.13702589  0.50428045  0.86522540  1
  O  O85  1  0.35846890  0.86414053  0.86432881  1
  O  O86  1  0.49664051  0.64259221  0.86441228  1
  O  O87  1  0.04091059  0.84856054  0.41261344  1
  O  O88  1  0.82649650  0.97536882  0.40939930  1
  O  O89  1  0.15173723  0.18681220  0.41234272  1
  O  O90  1  0.01921225  0.21020379  0.91196378  1
  O  O91  1  0.19938448  0.99798710  0.91252460  1
  O  O92  1  0.81888699  0.80632052  0.91772053  1
  O  O93  1  0.99942491  0.16519098  0.59826113  1
  O  O94  1  0.15724922  0.98103932  0.59565682  1
  O  O95  1  0.82070373  0.83618965  0.59414151  1
  O  O96  1  0.95553502  0.79208166  0.07473272  1
  O  O97  1  0.82261474  0.04512078  0.07832358  1
  O  O98  1  0.21856977  0.17579647  0.07759063  1
  O  O99  1  0.66251361  0.13606870  0.74137073  1
  O  O100  1  0.48338705  0.33339677  0.74325471  1
  O  O101  1  0.85215323  0.51147581  0.74503278  1
  O  O102  1  0.71072495  0.52890119  0.24789291  1
  O  O103  1  0.81454966  0.29621924  0.24620405  1
  O  O104  1  0.47924146  0.18960515  0.24548700  1
  O  O105  1  0.62784053  0.47632953  0.91988878  1
  O  O106  1  0.85952669  0.36995800  0.91783668  1
  O  O107  1  0.51120461  0.14052240  0.92046424  1
  O  O108  1  0.67010552  0.15435196  0.42108708  1
  O  O109  1  0.46685433  0.32590995  0.42101949  1
  O  O110  1  0.86603884  0.52803021  0.42615371  1
  O  O111  1  0.37706467  0.49044597  0.08866192  1
  O  O112  1  0.12694213  0.62683222  0.09096841  1
  O  O113  1  0.50653412  0.88643445  0.08863847  1
  O  O114  1  0.31999889  0.82033897  0.56991222  1
  O  O115  1  0.51557708  0.67545383  0.56966947  1
  O  O116  1  0.17307205  0.49187607  0.56508958  1
  O  O117  1  0.33566613  0.85408762  0.25277020  1
  O  O118  1  0.53430107  0.66453230  0.25732018  1
  O  O119  1  0.14809519  0.48015410  0.25357857  1
  O  O120  1  0.30070158  0.48659089  0.75851329  1
  O  O121  1  0.18909497  0.70413008  0.75781256  1
  O  O122  1  0.52386581  0.82210147  0.75719582  1
