# generated using pymatgen
data_Na2TaIn3Si2(SO6)4
_symmetry_space_group_name_H-M   'P 1'
_cell_length_a   8.92431345
_cell_length_b   8.90676003
_cell_length_c   23.30368812
_cell_angle_alpha   90.38054095
_cell_angle_beta   89.44847634
_cell_angle_gamma   120.00074950
_symmetry_Int_Tables_number   1
_chemical_formula_structural   Na2TaIn3Si2(SO6)4
_chemical_formula_sum   'Na6 Ta3 In9 Si6 S12 O72'
_cell_volume   1604.07802510
_cell_formula_units_Z   3
loop_
 _symmetry_equiv_pos_site_id
 _symmetry_equiv_pos_as_xyz
  1  'x, y, z'
loop_
 _atom_site_type_symbol
 _atom_site_label
 _atom_site_symmetry_multiplicity
 _atom_site_fract_x
 _atom_site_fract_y
 _atom_site_fract_z
 _atom_site_occupancy
  Na  Na0  1  0.00250791  0.98512518  0.49580049  1
  Na  Na1  1  0.00190359  0.97066918  0.99564138  1
  Na  Na2  1  0.63545608  0.32454202  0.83315540  1
  Na  Na3  1  0.69482132  0.34097407  0.33051815  1
  Na  Na4  1  0.30852544  0.65360247  0.15554605  1
  Na  Na5  1  0.32600511  0.64695264  0.67127276  1
  Ta  Ta6  1  0.66949072  0.34746528  0.97778603  1
  Ta  Ta7  1  0.31323019  0.65626846  0.31239761  1
  Ta  Ta8  1  0.34432081  0.66739787  0.81961581  1
  In  In9  1  0.99692863  0.99432456  0.34937498  1
  In  In10  1  0.01366816  0.99814095  0.85373186  1
  In  In11  1  0.00990414  0.01153950  0.65451701  1
  In  In12  1  0.99760635  0.99787890  0.14359988  1
  In  In13  1  0.65725737  0.33521996  0.68630387  1
  In  In14  1  0.69050829  0.34169351  0.18413815  1
  In  In15  1  0.67733961  0.34223808  0.47805280  1
  In  In16  1  0.33434865  0.67787089  0.01755176  1
  In  In17  1  0.32062648  0.66831127  0.51665884  1
  Si  Si18  1  0.98992645  0.27579196  0.25052109  1
  Si  Si19  1  0.29426421  0.30095851  0.75009828  1
  Si  Si20  1  0.96660421  0.63224395  0.08329377  1
  Si  Si21  1  0.62958572  0.67457788  0.91997340  1
  Si  Si22  1  0.33901282  0.96599720  0.91898402  1
  Si  Si23  1  0.03501178  0.67214666  0.41784208  1
  S  S24  1  0.30115647  0.99911691  0.25076544  1
  S  S25  1  0.69409911  0.69791997  0.25195956  1
  S  S26  1  0.00501802  0.69965047  0.74872246  1
  S  S27  1  0.70000577  0.99438444  0.75057050  1
  S  S28  1  0.95815899  0.32863641  0.58417842  1
  S  S29  1  0.37374726  0.04011116  0.58160008  1
  S  S30  1  0.66774931  0.63750359  0.58274471  1
  S  S31  1  0.66786715  0.04647802  0.08195183  1
  S  S32  1  0.38197983  0.33337315  0.08321867  1
  S  S33  1  0.03815366  0.37813669  0.91678098  1
  S  S34  1  0.61957418  0.95388982  0.41690167  1
  S  S35  1  0.33532298  0.37905814  0.41617937  1
  O  O36  1  0.22508006  0.02192475  0.30384343  1
  O  O37  1  0.80340645  0.76967026  0.30298586  1
  O  O38  1  0.97285966  0.17789898  0.30995949  1
  O  O39  1  0.20098739  0.18006347  0.80387287  1
  O  O40  1  0.96477841  0.77326844  0.79882506  1
  O  O41  1  0.80474542  0.01683654  0.80063303  1
  O  O42  1  0.76619264  0.95602371  0.69674880  1
  O  O43  1  0.19065361  0.23630426  0.68919603  1
  O  O44  1  0.03107178  0.80036289  0.69503364  1
  O  O45  1  0.76589936  0.80324904  0.20033526  1
  O  O46  1  0.03778213  0.20403760  0.19326412  1
  O  O47  1  0.19089486  0.95206492  0.20034481  1
  O  O48  1  0.87414594  0.35109083  0.63608102  1
  O  O49  1  0.47467814  0.12319317  0.63372958  1
  O  O50  1  0.64260857  0.53200493  0.63437697  1
  O  O51  1  0.88428279  0.53412457  0.14243037  1
  O  O52  1  0.64039763  0.11758081  0.13602609  1
  O  O53  1  0.47724233  0.34383672  0.13537727  1
  O  O54  1  0.47616072  0.31963057  0.02975721  1
  O  O55  1  0.83972950  0.51765077  0.02691259  1
  O  O56  1  0.67319669  0.15124651  0.03121978  1
  O  O57  1  0.45756552  0.14342494  0.52899299  1
  O  O58  1  0.69241189  0.55722988  0.53004044  1
  O  O59  1  0.85959452  0.31199063  0.53142146  1
  O  O60  1  0.54087261  0.68745570  0.97710874  1
  O  O61  1  0.13977288  0.44788514  0.96883209  1
  O  O62  1  0.29746000  0.84968782  0.97420791  1
  O  O63  1  0.54609378  0.85535564  0.47066536  1
  O  O64  1  0.31937649  0.45810539  0.47025123  1
  O  O65  1  0.14214385  0.69983827  0.47577409  1
  O  O66  1  0.14843938  0.65491572  0.36163777  1
  O  O67  1  0.51526222  0.85792866  0.36614257  1
  O  O68  1  0.35328762  0.49049197  0.36518948  1
  O  O69  1  0.12792354  0.49219196  0.86501452  1
  O  O70  1  0.35865071  0.86072060  0.86075635  1
  O  O71  1  0.49873945  0.63541520  0.86282110  1
  O  O72  1  0.01713622  0.84314479  0.41056591  1
  O  O73  1  0.79687742  0.98291509  0.41278737  1
  O  O74  1  0.17981154  0.20755679  0.41175616  1
  O  O75  1  0.00398472  0.20283874  0.90738566  1
  O  O76  1  0.18449019  0.00708887  0.91317099  1
  O  O77  1  0.81445364  0.83839208  0.90772768  1
  O  O78  1  0.97045642  0.16842271  0.58683753  1
  O  O79  1  0.19715798  0.01770366  0.58480278  1
  O  O80  1  0.82592221  0.81220039  0.58853659  1
  O  O81  1  0.97311151  0.82004626  0.08302812  1
  O  O82  1  0.83402196  0.04780024  0.08183608  1
  O  O83  1  0.21191152  0.17419392  0.08162359  1
  O  O84  1  0.68051905  0.14815390  0.74382318  1
  O  O85  1  0.49109578  0.33080888  0.74720035  1
  O  O86  1  0.85870524  0.52019472  0.74204790  1
  O  O87  1  0.65429054  0.51679337  0.24609416  1
  O  O88  1  0.83123271  0.31475331  0.24985943  1
  O  O89  1  0.47368124  0.15002349  0.24360548  1
  O  O90  1  0.64403335  0.49460676  0.92520144  1
  O  O91  1  0.86937385  0.37538509  0.92111471  1
  O  O92  1  0.52615254  0.15211531  0.92634869  1
  O  O93  1  0.62114302  0.12201576  0.41873343  1
  O  O94  1  0.49374533  0.36507850  0.41673946  1
  O  O95  1  0.85086537  0.48994803  0.41558691  1
  O  O96  1  0.36686333  0.48925764  0.07953716  1
  O  O97  1  0.15230964  0.64181575  0.07917397  1
  O  O98  1  0.52110738  0.86776949  0.07994607  1
  O  O99  1  0.36211213  0.86739480  0.57968581  1
  O  O100  1  0.51042100  0.65472932  0.57774331  1
  O  O101  1  0.13515495  0.48432493  0.58180366  1
  O  O102  1  0.32742483  0.84187034  0.26079301  1
  O  O103  1  0.52359507  0.69136396  0.26385218  1
  O  O104  1  0.17151422  0.47948078  0.26270275  1
  O  O105  1  0.31283829  0.49669436  0.76143053  1
  O  O106  1  0.16598760  0.69105693  0.75705614  1
  O  O107  1  0.52042291  0.83717005  0.75810325  1
