# generated using pymatgen
data_Na14Zn5Ge3(PO4)12
_symmetry_space_group_name_H-M   'P 1'
_cell_length_a   17.79062930
_cell_length_b   8.89133382
_cell_length_c   21.76546339
_cell_angle_alpha   90.06084140
_cell_angle_beta   89.92843247
_cell_angle_gamma   119.91665513
_symmetry_Int_Tables_number   1
_chemical_formula_structural   Na14Zn5Ge3(PO4)12
_chemical_formula_sum   'Na42 Zn15 Ge9 P36 O144'
_cell_volume   2984.14901699
_cell_formula_units_Z   3
loop_
 _symmetry_equiv_pos_site_id
 _symmetry_equiv_pos_as_xyz
  1  'x, y, z'
loop_
 _atom_site_type_symbol
 _atom_site_label
 _atom_site_symmetry_multiplicity
 _atom_site_fract_x
 _atom_site_fract_y
 _atom_site_fract_z
 _atom_site_occupancy
  Na  Na0  1  0.18537580  0.36094773  0.24765280  1
  Na  Na1  1  0.68652157  0.36309278  0.24738805  1
  Na  Na2  1  0.99370083  0.62931698  0.24770042  1
  Na  Na3  1  0.49407244  0.62841723  0.24713319  1
  Na  Na4  1  0.31876475  0.62843753  0.74749929  1
  Na  Na5  1  0.81948066  0.62814767  0.74773434  1
  Na  Na6  1  0.18527133  0.01243921  0.74751477  1
  Na  Na7  1  0.68503336  0.01229785  0.74725165  1
  Na  Na8  1  0.15706823  0.34379196  0.57930206  1
  Na  Na9  1  0.65712097  0.34395060  0.57925889  1
  Na  Na10  1  0.01460673  0.68499286  0.57975584  1
  Na  Na11  1  0.51453692  0.68476314  0.57973847  1
  Na  Na12  1  0.32786688  0.96972134  0.57902783  1
  Na  Na13  1  0.82788817  0.96956874  0.57923009  1
  Na  Na14  1  0.15467641  0.96697064  0.07939017  1
  Na  Na15  1  0.65520639  0.96649525  0.08175951  1
  Na  Na16  1  0.32779915  0.68438710  0.07955896  1
  Na  Na17  1  0.01684383  0.34635011  0.08120711  1
  Na  Na18  1  0.51710400  0.34472976  0.07869117  1
  Na  Na19  1  0.48213259  0.67090501  0.91714912  1
  Na  Na20  1  0.98556072  0.67557009  0.91433897  1
  Na  Na21  1  0.35444325  0.04076603  0.91711417  1
  Na  Na22  1  0.16522714  0.28981730  0.91752240  1
  Na  Na23  1  0.66368066  0.29646876  0.91456303  1
  Na  Na24  1  0.47994204  0.29171737  0.41740512  1
  Na  Na25  1  0.97996239  0.29159938  0.41718679  1
  Na  Na26  1  0.16603650  0.04000433  0.41730606  1
  Na  Na27  1  0.66617647  0.04001391  0.41749959  1
  Na  Na28  1  0.35402317  0.66695576  0.41767372  1
  Na  Na29  1  0.85412126  0.66719066  0.41741872  1
  Na  Na30  1  0.99972004  0.00025397  0.49587613  1
  Na  Na31  1  0.49971347  0.00026969  0.49598276  1
  Na  Na32  1  0.98632330  0.98964397  0.99546281  1
  Na  Na33  1  0.49985596  0.00103567  0.99622133  1
  Na  Na34  1  0.34048539  0.33447661  0.83075752  1
  Na  Na35  1  0.84172228  0.32394372  0.82900044  1
  Na  Na36  1  0.33257725  0.31888555  0.33086169  1
  Na  Na37  1  0.83305603  0.31967711  0.33108504  1
  Na  Na38  1  0.17174159  0.67840427  0.16469191  1
  Na  Na39  1  0.67974789  0.68056345  0.16172002  1
  Na  Na40  1  0.16086745  0.65647366  0.66443111  1
  Na  Na41  1  0.66050273  0.65574833  0.66462556  1
  Zn  Zn42  1  0.99900847  0.00062618  0.34761271  1
  Zn  Zn43  1  0.49908425  0.00066677  0.34809258  1
  Zn  Zn44  1  0.99617399  0.00116152  0.85066701  1
  Zn  Zn45  1  0.49972765  0.00213176  0.84801740  1
  Zn  Zn46  1  0.33681777  0.33369198  0.68248162  1
  Zn  Zn47  1  0.83659726  0.33362337  0.68210675  1
  Zn  Zn48  1  0.33257776  0.32588433  0.18243095  1
  Zn  Zn49  1  0.83308150  0.32791273  0.18357259  1
  Zn  Zn50  1  0.33372366  0.33261444  0.98617968  1
  Zn  Zn51  1  0.33398885  0.33276136  0.48598321  1
  Zn  Zn52  1  0.83405367  0.33280832  0.48595656  1
  Zn  Zn53  1  0.16598545  0.66576501  0.01549353  1
  Zn  Zn54  1  0.67103966  0.66790690  0.01679115  1
  Zn  Zn55  1  0.16693820  0.66727876  0.51524454  1
  Zn  Zn56  1  0.66696856  0.66734716  0.51528050  1
  Ge  Ge57  1  0.99975912  0.00236354  0.65204987  1
  Ge  Ge58  1  0.50036648  0.00303388  0.65226115  1
  Ge  Ge59  1  0.99479983  0.99461863  0.14947035  1
  Ge  Ge60  1  0.49935875  0.99875639  0.15155999  1
  Ge  Ge61  1  0.83428892  0.32963822  0.98236148  1
  Ge  Ge62  1  0.16887226  0.67185711  0.31419194  1
  Ge  Ge63  1  0.66934352  0.67242389  0.31406795  1
  Ge  Ge64  1  0.16114738  0.65909720  0.81519587  1
  Ge  Ge65  1  0.66818795  0.66679861  0.81567402  1
  P  P66  1  0.14575029  0.99315913  0.25096179  1
  P  P67  1  0.64693222  0.99428349  0.25205663  1
  P  P68  1  0.35033057  0.71036304  0.25177781  1
  P  P69  1  0.85108381  0.71280671  0.25145378  1
  P  P70  1  0.00193303  0.29747447  0.25177719  1
  P  P71  1  0.50271335  0.29807619  0.25159738  1
  P  P72  1  0.14364688  0.29758694  0.75290772  1
  P  P73  1  0.64529635  0.30020736  0.75201036  1
  P  P74  1  0.00276907  0.70652637  0.75235214  1
  P  P75  1  0.50368515  0.70714587  0.75271696  1
  P  P76  1  0.35043493  -0.00516248  0.75242290  1
  P  P77  1  0.85172515  -0.00451870  0.75217280  1
  P  P78  1  0.48193837  0.32539390  0.58497798  1
  P  P79  1  0.98196193  0.32550437  0.58498366  1
  P  P80  1  0.18024559  0.03667059  0.58672158  1
  P  P81  1  0.68022221  0.03651912  0.58658796  1
  P  P82  1  0.33747757  0.63877841  0.58680512  1
  P  P83  1  0.83743840  0.63870250  0.58671154  1
  P  P84  1  0.48178915  0.63844896  0.08671355  1
  P  P85  1  0.97629948  0.63204834  0.08484084  1
  P  P86  1  0.33760573  0.03620545  0.08492373  1
  P  P87  1  0.83617051  0.04334540  0.08446586  1
  P  P88  1  0.17969882  0.32291342  0.08677010  1
  P  P89  1  0.68595207  0.32953552  0.08570512  1
  P  P90  1  0.31078957  0.66446935  0.91536506  1
  P  P91  1  0.81241932  0.66076379  0.91775948  1
  P  P92  1  0.01729772  0.37431123  0.91917368  1
  P  P93  1  0.52234331  0.38071428  0.91644033  1
  P  P94  1  0.16739120  0.95807697  0.91526162  1
  P  P95  1  0.67207136  0.96321137  0.91840684  1
  P  P96  1  0.31122698  0.95697367  0.41620473  1
  P  P97  1  0.81133391  0.95717899  0.41626188  1
  P  P98  1  0.16747930  0.37724189  0.41514439  1
  P  P99  1  0.66750707  0.37737023  0.41513405  1
  P  P100  1  0.02151457  0.66554069  0.41514751  1
  P  P101  1  0.52162460  0.66543904  0.41500504  1
  O  O102  1  0.10663489  0.02177185  0.30900676  1
  O  O103  1  0.60669161  0.02184539  0.30966684  1
  O  O104  1  0.40487576  0.78659194  0.30905242  1
  O  O105  1  0.90430237  0.78541434  0.30962388  1
  O  O106  1  0.49146561  0.19679831  0.30999715  1
  O  O107  1  0.99126834  0.19763142  0.31053254  1
  O  O108  1  0.10546801  0.18760423  0.80990227  1
  O  O109  1  0.60677875  0.19050603  0.80923156  1
  O  O110  1  0.48905613  0.78604771  0.81058348  1
  O  O111  1  0.99011814  0.78781547  0.80996736  1
  O  O112  1  0.40097111  0.01712058  0.81097531  1
  O  O113  1  0.90505777  0.01950341  0.80807615  1
  O  O114  1  0.39584615  0.96092873  0.69484227  1
  O  O115  1  0.89270090  0.95791615  0.69270621  1
  O  O116  1  0.08628940  0.21026497  0.69366741  1
  O  O117  1  0.58728621  0.21129848  0.69324086  1
  O  O118  1  0.02155139  0.83184202  0.69460921  1
  O  O119  1  0.52203074  0.83286837  0.69505607  1
  O  O120  1  0.39479674  0.82612438  0.19288533  1
  O  O121  1  0.89612451  0.83341416  0.19389809  1
  O  O122  1  0.01883795  0.20781784  0.19402221  1
  O  O123  1  0.52101977  0.20914715  0.19358200  1
  O  O124  1  0.08269707  0.95406404  0.19332911  1
  O  O125  1  0.58407781  0.95735322  0.19410982  1
  O  O126  1  0.43943758  0.36163202  0.63900198  1
  O  O127  1  0.93953335  0.36166926  0.63905415  1
  O  O128  1  0.23621085  0.11870204  0.64354081  1
  O  O129  1  0.73613831  0.11862401  0.64338380  1
  O  O130  1  0.32135282  0.52531530  0.64339649  1
  O  O131  1  0.82138509  0.52556900  0.64335570  1
  O  O132  1  0.43978137  0.52737710  0.14343392  1
  O  O133  1  0.93831004  0.52264014  0.14202546  1
  O  O134  1  0.31981383  0.12115090  0.13896264  1
  O  O135  1  0.81905826  0.12263076  0.14034013  1
  O  O136  1  0.23636624  0.35593341  0.14332494  1
  O  O137  1  0.73668116  0.35158745  0.14398953  1
  O  O138  1  0.21670140  0.28471121  0.02817114  1
  O  O139  1  0.72880966  0.29124350  0.02708933  1
  O  O140  1  0.42562711  0.56679376  0.02806753  1
  O  O141  1  0.91969396  0.54381452  0.02515858  1
  O  O142  1  0.35845590  0.14414933  0.02509197  1
  O  O143  1  0.85864368  0.17145929  0.02662137  1
  O  O144  1  0.21690112  0.14873713  0.52825182  1
  O  O145  1  0.71686789  0.14860070  0.52814730  1
  O  O146  1  0.35746251  0.56619741  0.52821251  1
  O  O147  1  0.85729842  0.56583322  0.52815439  1
  O  O148  1  0.42763432  0.28301726  0.52534916  1
  O  O149  1  0.92764384  0.28306922  0.52536856  1
  O  O150  1  0.27168445  0.69207010  0.97387586  1
  O  O151  1  0.77024343  0.68409807  0.97346416  1
  O  O152  1  0.06939403  0.45069750  0.97787510  1
  O  O153  1  0.57333872  0.45521220  0.97568418  1
  O  O154  1  0.15311732  0.85077106  0.97340613  1
  O  O155  1  0.65504574  0.85382249  0.97562533  1
  O  O156  1  0.27398371  0.85384472  0.47559668  1
  O  O157  1  0.77393436  0.85383602  0.47559058  1
  O  O158  1  0.15395331  0.45606314  0.47367293  1
  O  O159  1  0.65393455  0.45617035  0.47363766  1
  O  O160  1  0.07444052  0.69334556  0.47369412  1
  O  O161  1  0.57447568  0.69333917  0.47358667  1
  O  O162  1  0.06707493  0.63704676  0.35627115  1
  O  O163  1  0.56727724  0.63707654  0.35614277  1
  O  O164  1  0.24877410  0.86324475  0.35950945  1
  O  O165  1  0.74883599  0.86360666  0.35950977  1
  O  O166  1  0.18136056  0.49667068  0.35638740  1
  O  O167  1  0.68138467  0.49662577  0.35628988  1
  O  O168  1  0.06037263  0.50216956  0.86240270  1
  O  O169  1  0.57098024  0.50818800  0.86002511  1
  O  O170  1  0.18063421  0.86435612  0.85645182  1
  O  O171  1  0.68708755  0.87901632  0.85851774  1
  O  O172  1  0.24932495  0.63484290  0.85717816  1
  O  O173  1  0.75438047  0.62427878  0.85723616  1
  O  O174  1  0.01175897  0.82774605  0.41052480  1
  O  O175  1  0.51171184  0.82752956  0.41045525  1
  O  O176  1  0.40177127  0.97572800  0.41058067  1
  O  O177  1  0.90183137  0.97590990  0.41064930  1
  O  O178  1  0.08658625  0.19556478  0.41075622  1
  O  O179  1  0.58649121  0.19568016  0.41084280  1
  O  O180  1  0.00875875  0.19686727  0.91118117  1
  O  O181  1  0.51252407  0.19885687  0.91026610  1
  O  O182  1  0.08716860  0.98006437  0.91056118  1
  O  O183  1  0.59298484  0.98941082  0.91164346  1
  O  O184  1  0.40193503  0.82637388  0.91067626  1
  O  O185  1  0.90494791  0.81036237  0.91130819  1
  O  O186  1  0.48801419  0.15286487  0.59341372  1
  O  O187  1  0.98818047  0.15308014  0.59333093  1
  O  O188  1  0.08750500  0.02306145  0.59322725  1
  O  O189  1  0.58741933  0.02279526  0.59307395  1
  O  O190  1  0.42351072  0.82395918  0.59362014  1
  O  O191  1  0.92370842  0.82363811  0.59329864  1
  O  O192  1  0.48871841  0.82509257  0.09267428  1
  O  O193  1  0.98446763  0.81773480  0.08849727  1
  O  O194  1  0.42470513  0.02515177  0.09276609  1
  O  O195  1  0.92372662  0.03754404  0.08948638  1
  O  O196  1  0.08701167  0.14987798  0.09320740  1
  O  O197  1  0.59375083  0.15364025  0.08850346  1
  O  O198  1  0.33437893  0.14678605  0.74503297  1
  O  O199  1  0.83334757  0.14452197  0.74455628  1
  O  O200  1  0.23569354  0.32576671  0.74521353  1
  O  O201  1  0.73669595  0.32446007  0.74503376  1
  O  O202  1  0.42381991  0.52927957  0.74435899  1
  O  O203  1  0.92298556  0.52822874  0.74459098  1
  O  O204  1  0.33732186  0.52680381  0.24477704  1
  O  O205  1  0.83841500  0.52982459  0.24388174  1
  O  O206  1  0.42682120  0.33022057  0.24427139  1
  O  O207  1  0.92672238  0.33211778  0.24521922  1
  O  O208  1  0.23497221  0.15282659  0.24326789  1
  O  O209  1  0.73572051  0.15392282  0.24455599  1
  O  O210  1  0.31714167  0.49770274  0.91543506  1
  O  O211  1  0.81650647  0.48331520  0.92121571  1
  O  O212  1  0.43252370  0.36745226  0.91601259  1
  O  O213  1  0.92661968  0.36916176  0.92269339  1
  O  O214  1  0.25142109  0.13600575  0.91519451  1
  O  O215  1  0.75630366  0.15009772  0.92251430  1
  O  O216  1  0.31746917  0.13642935  0.41669639  1
  O  O217  1  0.81749006  0.13654449  0.41675927  1
  O  O218  1  0.25100467  0.36478532  0.41553309  1
  O  O219  1  0.75094213  0.36472141  0.41553151  1
  O  O220  1  0.43208151  0.49861531  0.41553035  1
  O  O221  1  0.93198475  0.49872842  0.41569627  1
  O  O222  1  0.16637803  0.48103722  0.08160390  1
  O  O223  1  0.66822033  0.47913727  0.07866838  1
  O  O224  1  0.06892408  0.66038364  0.07822797  1
  O  O225  1  0.57360863  0.66427478  0.08192185  1
  O  O226  1  0.25946118  0.85032115  0.08065510  1
  O  O227  1  0.75762582  0.86431614  0.07589202  1
  O  O228  1  0.16671251  0.85201837  0.58173527  1
  O  O229  1  0.66667719  0.85185356  0.58170569  1
  O  O230  1  0.25875721  0.66599383  0.58181724  1
  O  O231  1  0.75874800  0.66600548  0.58178842  1
  O  O232  1  0.07463413  0.48136592  0.58035935  1
  O  O233  1  0.57459106  0.48126729  0.58036106  1
  O  O234  1  0.14891473  0.81771701  0.25377988  1
  O  O235  1  0.64914811  0.81826921  0.25381728  1
  O  O236  1  0.25760189  0.69393186  0.25445306  1
  O  O237  1  0.75802931  0.69502226  0.25426989  1
  O  O238  1  0.09022409  0.48155455  0.25238619  1
  O  O239  1  0.59051192  0.48175968  0.25231887  1
  O  O240  1  0.15076064  0.48285824  0.75614740  1
  O  O241  1  0.65379941  0.48574128  0.75476107  1
  O  O242  1  0.09036183  0.69959088  0.75444509  1
  O  O243  1  0.59201426  0.70409050  0.75564127  1
  O  O244  1  0.25885269  0.81939378  0.75309921  1
  O  O245  1  0.75918354  0.81822431  0.75518722  1
