# generated using pymatgen
data_Na14Ca4Al4Si5S7O48
_symmetry_space_group_name_H-M   'P 1'
_cell_length_a   18.29838991
_cell_length_b   9.02658236
_cell_length_c   22.17501994
_cell_angle_alpha   89.81019392
_cell_angle_beta   89.57426828
_cell_angle_gamma   119.32921188
_symmetry_Int_Tables_number   1
_chemical_formula_structural   Na14Ca4Al4Si5S7O48
_chemical_formula_sum   'Na42 Ca12 Al12 Si15 S21 O144'
_cell_volume   3193.01604098
_cell_formula_units_Z   3
loop_
 _symmetry_equiv_pos_site_id
 _symmetry_equiv_pos_as_xyz
  1  'x, y, z'
loop_
 _atom_site_type_symbol
 _atom_site_label
 _atom_site_symmetry_multiplicity
 _atom_site_fract_x
 _atom_site_fract_y
 _atom_site_fract_z
 _atom_site_occupancy
  Na  Na0  1  0.80910569  0.00273696  0.24361397  1
  Na  Na1  1  0.18310372  0.35189495  0.25455444  1
  Na  Na2  1  0.67692950  0.34772003  0.25011096  1
  Na  Na3  1  0.01157213  0.65136122  0.24358544  1
  Na  Na4  1  0.50082541  0.64538810  0.23068718  1
  Na  Na5  1  0.32274281  0.61877518  0.74833091  1
  Na  Na6  1  0.00110977  0.35702941  0.73184288  1
  Na  Na7  1  0.50889733  0.37470344  0.74259126  1
  Na  Na8  1  0.18265362  0.01379303  0.74997947  1
  Na  Na9  1  0.67508264  0.00160254  0.75463753  1
  Na  Na10  1  0.14934511  0.31929124  0.58332189  1
  Na  Na11  1  0.65833053  0.32219974  0.58026509  1
  Na  Na12  1  0.32223061  0.97387307  0.59238609  1
  Na  Na13  1  0.83403409  0.98741107  0.58980503  1
  Na  Na14  1  0.16162503  0.99539286  0.06899378  1
  Na  Na15  1  0.64857172  0.97353587  0.07308601  1
  Na  Na16  1  0.33510348  0.68062429  0.08555604  1
  Na  Na17  1  0.81739427  0.66601985  0.08042701  1
  Na  Na18  1  0.48047639  0.67401985  0.91999736  1
  Na  Na19  1  0.98562980  0.67483108  0.91611580  1
  Na  Na20  1  0.34431631  0.03740693  0.91134642  1
  Na  Na21  1  0.84422573  0.02379422  0.91190495  1
  Na  Na22  1  0.16953005  0.27458814  0.91613493  1
  Na  Na23  1  0.66831953  0.26866780  0.91687030  1
  Na  Na24  1  0.48746817  0.30000838  0.42076206  1
  Na  Na25  1  0.98423218  0.29344852  0.43140839  1
  Na  Na26  1  0.16759081  0.06978214  0.42050055  1
  Na  Na27  1  0.66660060  0.05800824  0.42045830  1
  Na  Na28  1  0.34857732  0.66448753  0.41844467  1
  Na  Na29  1  0.84181440  0.65389278  0.41913350  1
  Na  Na30  1  0.01130990  0.01627872  0.50973714  1
  Na  Na31  1  0.51722185  0.00108593  0.51127020  1
  Na  Na32  1  0.01595334  0.03526454  0.00768291  1
  Na  Na33  1  0.51112541  0.00536745  0.00526911  1
  Na  Na34  1  0.32887086  0.33617559  0.82668750  1
  Na  Na35  1  0.81064684  0.32814249  0.82400568  1
  Na  Na36  1  0.31501860  0.29948494  0.32536724  1
  Na  Na37  1  0.80925732  0.31256407  0.33526652  1
  Na  Na38  1  0.17249710  0.67130994  0.16537715  1
  Na  Na39  1  0.65554123  0.64511535  0.15890934  1
  Na  Na40  1  0.15632257  0.66457480  0.66060730  1
  Na  Na41  1  0.66474778  0.67169929  0.66866093  1
  Ca  Ca42  1  0.01628698  0.02158707  0.35010960  1
  Ca  Ca43  1  0.50822555  0.01555255  0.35000931  1
  Ca  Ca44  1  0.00675803  0.99940520  0.84938464  1
  Ca  Ca45  1  0.51607448  0.00204487  0.84679249  1
  Ca  Ca46  1  0.33122125  0.32727459  0.67534104  1
  Ca  Ca47  1  0.82542644  0.33669532  0.17271166  1
  Ca  Ca48  1  0.33026723  0.33273536  0.99292521  1
  Ca  Ca49  1  0.82326654  0.31477592  0.98684775  1
  Ca  Ca50  1  0.32144577  0.32868641  0.48804348  1
  Ca  Ca51  1  0.82924769  0.32730276  0.49507437  1
  Ca  Ca52  1  0.66311575  0.66335756  0.31107583  1
  Ca  Ca53  1  0.16379478  0.66252596  0.80990604  1
  Al  Al54  1  0.01315300  0.01200843  0.64955036  1
  Al  Al55  1  0.52991799  0.01621669  0.66551225  1
  Al  Al56  1  0.01894987  0.00961222  0.15543734  1
  Al  Al57  1  0.51413103  0.01639554  0.14793403  1
  Al  Al58  1  0.82360775  0.30765879  0.67304067  1
  Al  Al59  1  0.32330339  0.33089835  0.17186118  1
  Al  Al60  1  0.16357553  0.65123069  0.01529341  1
  Al  Al61  1  0.63681326  0.64366664  0.02305006  1
  Al  Al62  1  0.14374337  0.63168595  0.52603215  1
  Al  Al63  1  0.66237475  0.66659528  0.51795114  1
  Al  Al64  1  0.17879418  0.69384354  0.31618119  1
  Al  Al65  1  0.66422748  0.66667343  0.80938227  1
  Si  Si66  1  0.16173944  0.00541062  0.24855061  1
  Si  Si67  1  0.65005663  0.00237772  0.24981004  1
  Si  Si68  1  0.14860038  0.29910093  0.74982678  1
  Si  Si69  1  0.66521460  0.32104094  0.74896791  1
  Si  Si70  1  0.50150366  0.69297531  0.75760692  1
  Si  Si71  1  0.97899360  0.31616570  0.58714313  1
  Si  Si72  1  0.16918367  0.99908057  0.58113370  1
  Si  Si73  1  0.67641600  0.01240033  0.58236810  1
  Si  Si74  1  0.47775726  0.64020974  0.08697669  1
  Si  Si75  1  0.17589176  0.33756322  0.08401999  1
  Si  Si76  1  0.66867673  0.34052048  0.08225046  1
  Si  Si77  1  0.16782732  0.95376142  0.92039851  1
  Si  Si78  1  0.66816878  0.93554817  0.91878147  1
  Si  Si79  1  0.16775871  0.40266552  0.41629729  1
  Si  Si80  1  0.66821309  0.38046291  0.41942680  1
  S  S81  1  0.34524879  0.69262384  0.25223415  1
  S  S82  1  0.86286728  0.72114727  0.24674949  1
  S  S83  1  0.00138800  0.29618510  0.24736083  1
  S  S84  1  0.48825672  0.28472764  0.24450450  1
  S  S85  1  0.98897745  0.69368977  0.74412820  1
  S  S86  1  0.36074588  0.99953803  0.74666971  1
  S  S87  1  0.84699854  0.00291687  0.75025885  1
  S  S88  1  0.49477614  0.33553810  0.57948465  1
  S  S89  1  0.33373963  0.66057936  0.58084534  1
  S  S90  1  0.83404871  0.63982510  0.58422263  1
  S  S91  1  0.99419653  0.65799968  0.08473782  1
  S  S92  1  0.33650884  0.03083057  0.08600755  1
  S  S93  1  0.84078413  0.01578871  0.08616814  1
  S  S94  1  0.31211551  0.67133971  0.92099843  1
  S  S95  1  0.80605530  0.66096364  0.91464354  1
  S  S96  1  0.02028561  0.37548827  0.92190981  1
  S  S97  1  0.52507358  0.38497658  0.91386598  1
  S  S98  1  0.30778667  0.95528192  0.41547668  1
  S  S99  1  0.81325318  0.95733892  0.41866640  1
  S  S100  1  0.02720219  0.66402152  0.41363439  1
  S  S101  1  0.51971705  0.66448500  0.42159784  1
  O  O102  1  0.13607880  0.06440523  0.31108822  1
  O  O103  1  0.61744338  0.01402339  0.31722511  1
  O  O104  1  0.39118840  0.76622243  0.30863142  1
  O  O105  1  0.90245399  0.80115212  0.30429524  1
  O  O106  1  0.48185491  0.21460684  0.30640738  1
  O  O107  1  0.98707880  0.21530907  0.30801321  1
  O  O108  1  0.11400575  0.22164406  0.81704785  1
  O  O109  1  0.63913353  0.20632131  0.81074195  1
  O  O110  1  0.47560031  0.74232374  0.82130147  1
  O  O111  1  0.98168640  0.74968488  0.80582664  1
  O  O112  1  0.40033051  0.00513268  0.80526070  1
  O  O113  1  0.89343846  0.02534771  0.80704060  1
  O  O114  1  0.41578542  0.00358986  0.69472183  1
  O  O115  1  0.89212675  0.98646547  0.69784026  1
  O  O116  1  0.08392543  0.16597133  0.69927157  1
  O  O117  1  0.59252349  0.22081071  0.69635633  1
  O  O118  1  0.98814340  0.81253216  0.69859476  1
  O  O119  1  0.51871910  0.84790312  0.70928546  1
  O  O120  1  0.38810961  0.79513289  0.19905787  1
  O  O121  1  0.91474401  0.82922402  0.19424154  1
  O  O122  1  0.00567141  0.17919696  0.20198541  1
  O  O123  1  0.48959326  0.16743143  0.19921460  1
  O  O124  1  0.08648787  0.95814613  0.19823873  1
  O  O125  1  0.58528117  0.00798778  0.19973085  1
  O  O126  1  0.45611589  0.35718127  0.63432297  1
  O  O127  1  0.92250225  0.33888634  0.64100417  1
  O  O128  1  0.23607755  0.07470414  0.63659895  1
  O  O129  1  0.74879837  0.11569452  0.63404097  1
  O  O130  1  0.32365184  0.55091036  0.63341454  1
  O  O131  1  0.82104914  0.50070282  0.62635523  1
  O  O132  1  0.42135838  0.50509135  0.14159620  1
  O  O133  1  0.95661143  0.56061395  0.14050108  1
  O  O134  1  0.32355681  0.14390176  0.12872520  1
  O  O135  1  0.83246417  0.10502596  0.13943527  1
  O  O136  1  0.24768307  0.37971743  0.13652942  1
  O  O137  1  0.73128467  0.40083479  0.14074734  1
  O  O138  1  0.20288326  0.27771874  0.02295243  1
  O  O139  1  0.70912858  0.28187308  0.02735509  1
  O  O140  1  0.42884240  0.58781089  0.02355937  1
  O  O141  1  0.93988970  0.57651477  0.03229807  1
  O  O142  1  0.35302866  0.10901329  0.02484160  1
  O  O143  1  0.85511164  0.11935378  0.03092309  1
  O  O144  1  0.20321845  0.12983058  0.52287600  1
  O  O145  1  0.70283048  0.12287576  0.52048780  1
  O  O146  1  0.34739068  0.58603217  0.52505374  1
  O  O147  1  0.85250953  0.59849382  0.52277775  1
  O  O148  1  0.44312715  0.31702438  0.52574663  1
  O  O149  1  0.92960306  0.27411043  0.52389797  1
  O  O150  1  0.25999079  0.66090584  0.97594552  1
  O  O151  1  0.76525657  0.66262470  0.97166719  1
  O  O152  1  0.07880112  0.47123476  0.97244554  1
  O  O153  1  0.57263732  0.47769779  0.96757066  1
  O  O154  1  0.16870489  0.82992151  0.97724751  1
  O  O155  1  0.66633084  0.83085694  0.98098756  1
  O  O156  1  0.26408339  0.86506441  0.46989217  1
  O  O157  1  0.76198571  0.85934493  0.47237992  1
  O  O158  1  0.16519042  0.50240115  0.47737901  1
  O  O159  1  0.66985968  0.50942310  0.47398118  1
  O  O160  1  0.07467452  0.66453001  0.46698486  1
  O  O161  1  0.57730501  0.68081671  0.47155132  1
  O  O162  1  0.07306137  0.66923643  0.35637467  1
  O  O163  1  0.55522117  0.65597466  0.36299049  1
  O  O164  1  0.25734691  0.87305465  0.35980946  1
  O  O165  1  0.76967793  0.87848275  0.36184530  1
  O  O166  1  0.16948836  0.51341415  0.35552688  1
  O  O167  1  0.67155816  0.45809206  0.35223797  1
  O  O168  1  0.05622408  0.45701883  0.86385425  1
  O  O169  1  0.57025843  0.47363970  0.85761546  1
  O  O170  1  0.16962872  0.87727608  0.85461713  1
  O  O171  1  0.67280880  0.83186487  0.85933211  1
  O  O172  1  0.26719742  0.66371335  0.86535643  1
  O  O173  1  0.75502837  0.64708173  0.86119159  1
  O  O174  1  0.01688190  0.81775827  0.41640899  1
  O  O175  1  0.50571212  0.81351847  0.42530174  1
  O  O176  1  0.39020787  0.96042964  0.41126435  1
  O  O177  1  0.89515048  0.95861505  0.42161798  1
  O  O178  1  0.08396171  0.21273713  0.42070734  1
  O  O179  1  0.58061052  0.19688353  0.42882691  1
  O  O180  1  0.00521054  0.19858932  0.92538109  1
  O  O181  1  0.51573297  0.21180017  0.91665161  1
  O  O182  1  0.08000572  0.96309099  0.92977522  1
  O  O183  1  0.58552342  0.96182030  0.92416076  1
  O  O184  1  0.39191655  0.83400491  0.92544078  1
  O  O185  1  0.89001049  0.81991320  0.91187681  1
  O  O186  1  0.50470240  0.18167237  0.58430668  1
  O  O187  1  0.99022449  0.14717939  0.60100158  1
  O  O188  1  0.07719931  0.98245514  0.59566724  1
  O  O189  1  0.58682195  0.00403035  0.60195911  1
  O  O190  1  0.40427248  0.83517886  0.58767481  1
  O  O191  1  0.90224073  0.80994908  0.60078571  1
  O  O192  1  0.49075447  0.83214206  0.10242349  1
  O  O193  1  0.00349365  0.83367610  0.09029167  1
  O  O194  1  0.40555283  0.99902585  0.10259062  1
  O  O195  1  0.91351736  0.98305486  0.09298747  1
  O  O196  1  0.08589184  0.16974306  0.10363408  1
  O  O197  1  0.57657836  0.17282385  0.09378784  1
  O  O198  1  0.34917472  0.15039430  0.74422041  1
  O  O199  1  0.83773825  0.16061099  0.74367935  1
  O  O200  1  0.24203689  0.31736952  0.74525868  1
  O  O201  1  0.75239475  0.32467914  0.72648751  1
  O  O202  1  0.42563393  0.50744880  0.74014635  1
  O  O203  1  0.91943379  0.51792936  0.73656801  1
  O  O204  1  0.33515773  0.51623716  0.24719828  1
  O  O205  1  0.85810551  0.55258816  0.24496951  1
  O  O206  1  0.41693269  0.31813858  0.23716689  1
  O  O207  1  0.93104214  0.32844288  0.23611109  1
  O  O208  1  0.24979315  0.17412715  0.22699223  1
  O  O209  1  0.74464724  0.17070023  0.24540416  1
  O  O210  1  0.32566800  0.52276792  0.92096690  1
  O  O211  1  0.82253273  0.51230574  0.91326343  1
  O  O212  1  0.44087189  0.37168066  0.91440072  1
  O  O213  1  0.94010960  0.37619006  0.92955469  1
  O  O214  1  0.25288306  0.14199080  0.92171042  1
  O  O215  1  0.75329315  0.12500728  0.91498402  1
  O  O216  1  0.32271697  0.13400114  0.41350046  1
  O  O217  1  0.82715811  0.13352669  0.41876517  1
  O  O218  1  0.25242949  0.38211540  0.41208456  1
  O  O219  1  0.75365301  0.36266353  0.42173448  1
  O  O220  1  0.43769894  0.50596890  0.42763402  1
  O  O221  1  0.94338442  0.50956516  0.41255414  1
  O  O222  1  0.17157350  0.51741252  0.07483968  1
  O  O223  1  0.66325406  0.51277149  0.06630145  1
  O  O224  1  0.08002831  0.67843227  0.07703916  1
  O  O225  1  0.57352709  0.66635196  0.08191593  1
  O  O226  1  0.25678078  0.86341563  0.08681076  1
  O  O227  1  0.76232351  0.84965572  0.08253141  1
  O  O228  1  0.16248504  0.81438738  0.56675772  1
  O  O229  1  0.67263310  0.82550704  0.57366338  1
  O  O230  1  0.25332869  0.66796368  0.57708587  1
  O  O231  1  0.75340039  0.64719195  0.58371564  1
  O  O232  1  0.07549609  0.47837960  0.58227497  1
  O  O233  1  0.58133937  0.48936507  0.57367363  1
  O  O234  1  0.16270273  0.82094942  0.25789158  1
  O  O235  1  0.65538883  0.82825108  0.23738939  1
  O  O236  1  0.25759212  0.67197976  0.25574596  1
  O  O237  1  0.77855645  0.70502941  0.24147425  1
  O  O238  1  0.08212254  0.46064857  0.24459141  1
  O  O239  1  0.56903726  0.45116043  0.23902402  1
  O  O240  1  0.15229240  0.48177118  0.73677253  1
  O  O241  1  0.66678016  0.50422426  0.75821617  1
  O  O242  1  0.07108292  0.69373419  0.73850190  1
  O  O243  1  0.59145870  0.68728211  0.75686458  1
  O  O244  1  0.27860615  0.84206666  0.74117906  1
  O  O245  1  0.76077123  0.85239251  0.75342007  1
