# generated using pymatgen
data_Na14Ca5Ti3(PO4)12
_symmetry_space_group_name_H-M   'P 1'
_cell_length_a   18.48611527
_cell_length_b   9.25614464
_cell_length_c   22.35413411
_cell_angle_alpha   90.05398750
_cell_angle_beta   89.99540650
_cell_angle_gamma   119.75131688
_symmetry_Int_Tables_number   1
_chemical_formula_structural   Na14Ca5Ti3(PO4)12
_chemical_formula_sum   'Na42 Ca15 Ti9 P36 O144'
_cell_volume   3320.83187187
_cell_formula_units_Z   3
loop_
 _symmetry_equiv_pos_site_id
 _symmetry_equiv_pos_as_xyz
  1  'x, y, z'
loop_
 _atom_site_type_symbol
 _atom_site_label
 _atom_site_symmetry_multiplicity
 _atom_site_fract_x
 _atom_site_fract_y
 _atom_site_fract_z
 _atom_site_occupancy
  Na  Na0  1  0.18506341  0.35975996  0.24473444  1
  Na  Na1  1  0.68536326  0.36069110  0.24449230  1
  Na  Na2  1  0.99522314  0.63562392  0.24523842  1
  Na  Na3  1  0.49625892  0.63479322  0.24476586  1
  Na  Na4  1  0.31909060  0.62925960  0.74561503  1
  Na  Na5  1  0.82049018  0.62970365  0.74669429  1
  Na  Na6  1  0.18109862  0.00890446  0.74596342  1
  Na  Na7  1  0.68104498  0.00852228  0.74580440  1
  Na  Na8  1  0.15944780  0.33706560  0.58233182  1
  Na  Na9  1  0.65986374  0.33782312  0.58220183  1
  Na  Na10  1  0.00944395  0.68248971  0.58313810  1
  Na  Na11  1  0.50949550  0.68174334  0.58287954  1
  Na  Na12  1  0.33062541  0.97849782  0.58233488  1
  Na  Na13  1  0.83084593  0.97831955  0.58267259  1
  Na  Na14  1  0.15252775  0.97151807  0.07933076  1
  Na  Na15  1  0.65871087  0.97270024  0.08109859  1
  Na  Na16  1  0.33039975  0.67739369  0.08001752  1
  Na  Na17  1  0.01253656  0.34617304  0.08169747  1
  Na  Na18  1  0.51475986  0.33969435  0.07927403  1
  Na  Na19  1  0.48520450  0.67721697  0.91475518  1
  Na  Na20  1  0.98736314  0.67481468  0.91238853  1
  Na  Na21  1  0.35405557  0.03478409  0.91430707  1
  Na  Na22  1  0.16206594  0.28918126  0.91434150  1
  Na  Na23  1  0.66435394  0.29506879  0.91243971  1
  Na  Na24  1  0.48305858  0.29300803  0.41556540  1
  Na  Na25  1  0.98268295  0.29240145  0.41559924  1
  Na  Na26  1  0.16275952  0.03618518  0.41553579  1
  Na  Na27  1  0.66284845  0.03637839  0.41537543  1
  Na  Na28  1  0.35476320  0.67076583  0.41540841  1
  Na  Na29  1  0.85444039  0.67064720  0.41527384  1
  Na  Na30  1  0.99975040  0.99992339  0.50015513  1
  Na  Na31  1  0.49994311  0.00030514  0.49988187  1
  Na  Na32  1  0.98126973  0.98179664  0.99843881  1
  Na  Na33  1  0.50105512  0.00157220  0.99937311  1
  Na  Na34  1  0.34119744  0.33350761  0.83002299  1
  Na  Na35  1  0.84308682  0.31830660  0.83290144  1
  Na  Na36  1  0.33355014  0.31733965  0.33030449  1
  Na  Na37  1  0.83325350  0.31640812  0.33044062  1
  Na  Na38  1  0.17364907  0.67890418  0.16775483  1
  Na  Na39  1  0.68029950  0.68293307  0.16483268  1
  Na  Na40  1  0.15988850  0.65441125  0.66792389  1
  Na  Na41  1  0.65938635  0.65380987  0.66828751  1
  Ca  Ca42  1  0.99809874  0.00148092  0.34504428  1
  Ca  Ca43  1  0.49843374  0.00166282  0.34514395  1
  Ca  Ca44  1  0.99515922  0.00215047  0.84999946  1
  Ca  Ca45  1  0.50054678  0.00446824  0.84572250  1
  Ca  Ca46  1  0.33663459  0.33260743  0.68347276  1
  Ca  Ca47  1  0.83701866  0.33368054  0.68324183  1
  Ca  Ca48  1  0.33338276  0.32515369  0.18254670  1
  Ca  Ca49  1  0.83341499  0.33185371  0.18333445  1
  Ca  Ca50  1  0.33326470  0.33200065  0.98420210  1
  Ca  Ca51  1  0.33432209  0.33367409  0.48523845  1
  Ca  Ca52  1  0.83381040  0.33301157  0.48512171  1
  Ca  Ca53  1  0.16717224  0.66679820  0.01707200  1
  Ca  Ca54  1  0.67056228  0.66741030  0.01718225  1
  Ca  Ca55  1  0.16701085  0.66738908  0.51730424  1
  Ca  Ca56  1  0.66700009  0.66750237  0.51726479  1
  Ti  Ti57  1  0.99955644  0.00406950  0.65510071  1
  Ti  Ti58  1  0.50018901  0.00450309  0.65600919  1
  Ti  Ti59  1  0.99550536  0.99653806  0.15273599  1
  Ti  Ti60  1  0.49720464  0.99341906  0.15538594  1
  Ti  Ti61  1  0.83226985  0.32919143  0.98508897  1
  Ti  Ti62  1  0.16927795  0.67071428  0.31560230  1
  Ti  Ti63  1  0.66971695  0.67191566  0.31517371  1
  Ti  Ti64  1  0.15957521  0.65686505  0.81717447  1
  Ti  Ti65  1  0.67064574  0.66659793  0.81766667  1
  P  P66  1  0.14492770  0.98647542  0.25063671  1
  P  P67  1  0.64725582  0.98889191  0.25291639  1
  P  P68  1  0.34628380  0.70437183  0.25232649  1
  P  P69  1  0.84697271  0.70858227  0.25181251  1
  P  P70  1  0.00664171  0.30900203  0.25158115  1
  P  P71  1  0.50817166  0.31037842  0.25123079  1
  P  P72  1  0.14556557  0.30446481  0.75355486  1
  P  P73  1  0.64810635  0.30973454  0.75245166  1
  P  P74  1  0.00579755  0.70861229  0.75296650  1
  P  P75  1  0.50685194  0.70751132  0.75375721  1
  P  P76  1  0.34397821  0.98418863  0.75311463  1
  P  P77  1  0.84502704  0.98561396  0.75089703  1
  P  P78  1  0.48704849  0.31961140  0.58348769  1
  P  P79  1  0.98732632  0.32018294  0.58328429  1
  P  P80  1  0.17238151  0.02646415  0.58709587  1
  P  P81  1  0.67228933  0.02646083  0.58710531  1
  P  P82  1  0.34051415  0.65477138  0.58761571  1
  P  P83  1  0.84055905  0.65465548  0.58724267  1
  P  P84  1  0.48658518  0.65201708  0.08752861  1
  P  P85  1  0.97713780  0.64070389  0.08386355  1
  P  P86  1  0.34100907  0.02615823  0.08372329  1
  P  P87  1  0.83940852  0.04526438  0.08372702  1
  P  P88  1  0.17225577  0.31699296  0.08799607  1
  P  P89  1  0.68021047  0.31877378  0.08493569  1
  P  P90  1  0.31101054  0.66022131  0.91366307  1
  P  P91  1  0.81313682  0.65035097  0.91567693  1
  P  P92  1  0.01481163  0.37548085  0.91989550  1
  P  P93  1  0.52044002  0.38056280  0.91553100  1
  P  P94  1  0.16931498  0.96321453  0.91370990  1
  P  P95  1  0.67431020  0.96956913  0.91800504  1
  P  P96  1  0.31175481  0.96115679  0.41521075  1
  P  P97  1  0.81182558  0.96130169  0.41529061  1
  P  P98  1  0.16931490  0.37655316  0.41337673  1
  P  P99  1  0.66931657  0.37693169  0.41325372  1
  P  P100  1  0.01939655  0.66277496  0.41326811  1
  P  P101  1  0.51939825  0.66274014  0.41329739  1
  O  O102  1  0.11032703  0.00799440  0.30940871  1
  O  O103  1  0.61179383  0.00803292  0.31164889  1
  O  O104  1  0.39349095  0.76906156  0.31038607  1
  O  O105  1  0.89317772  0.77038157  0.31036705  1
  O  O106  1  0.49805240  0.22326634  0.31036409  1
  O  O107  1  0.99795672  0.22366552  0.31107923  1
  O  O108  1  0.11304913  0.20694556  0.81113035  1
  O  O109  1  0.61580495  0.21485743  0.81054503  1
  O  O110  1  0.49523797  0.77539621  0.81268628  1
  O  O111  1  0.99728875  0.78242195  0.81124473  1
  O  O112  1  0.38807657  0.00422256  0.81220984  1
  O  O113  1  0.89267872  0.00708230  0.80730976  1
  O  O114  1  0.40152549  0.97613543  0.70077441  1
  O  O115  1  0.89730062  0.97327251  0.69571425  1
  O  O116  1  0.08598224  0.19902008  0.69961581  1
  O  O117  1  0.58765669  0.20236118  0.69930119  1
  O  O118  1  0.01544011  0.83397395  0.69995470  1
  O  O119  1  0.51614501  0.83581740  0.70154114  1
  O  O120  1  0.40116611  0.82678363  0.19906227  1
  O  O121  1  0.90229239  0.83355000  0.19937524  1
  O  O122  1  0.01017328  0.19346866  0.19888759  1
  O  O123  1  0.51452904  0.19832255  0.19848063  1
  O  O124  1  0.08022370  0.96474050  0.19764557  1
  O  O125  1  0.58303947  0.97107162  0.20047030  1
  O  O126  1  0.44061007  0.35483454  0.63187364  1
  O  O127  1  0.94096073  0.35464182  0.63196751  1
  O  O128  1  0.22874394  0.11175831  0.64062532  1
  O  O129  1  0.72888937  0.11228647  0.64044065  1
  O  O130  1  0.32579724  0.54057420  0.64085305  1
  O  O131  1  0.82624293  0.54156515  0.64073217  1
  O  O132  1  0.44347195  0.54186160  0.14117225  1
  O  O133  1  0.94419919  0.54127072  0.14110327  1
  O  O134  1  0.32376951  0.11739710  0.13282095  1
  O  O135  1  0.82665450  0.12057530  0.13895889  1
  O  O136  1  0.22865354  0.34707240  0.14173481  1
  O  O137  1  0.72527058  0.33838947  0.14315437  1
  O  O138  1  0.20798745  0.28369987  0.03023239  1
  O  O139  1  0.73565067  0.30548372  0.03046065  1
  O  O140  1  0.43424752  0.58379127  0.02964598  1
  O  O141  1  0.91845117  0.53369307  0.02882173  1
  O  O142  1  0.35983534  0.12215608  0.02374172  1
  O  O143  1  0.84970118  0.17337457  0.02901205  1
  O  O144  1  0.20829221  0.13045090  0.52912248  1
  O  O145  1  0.70775599  0.13021103  0.52905519  1
  O  O146  1  0.35803207  0.58488296  0.52954032  1
  O  O147  1  0.85737893  0.58354894  0.52921615  1
  O  O148  1  0.43869256  0.28036975  0.52335419  1
  O  O149  1  0.93878562  0.28115314  0.52328302  1
  O  O150  1  0.27471288  0.67183874  0.97338453  1
  O  O151  1  0.77181373  0.66866081  0.97060602  1
  O  O152  1  0.06056805  0.44807313  0.97790031  1
  O  O153  1  0.56053668  0.45134661  0.97585716  1
  O  O154  1  0.16404076  0.87537117  0.97240573  1
  O  O155  1  0.65796943  0.87054178  0.97542560  1
  O  O156  1  0.27532846  0.87744536  0.47458364  1
  O  O157  1  0.77531896  0.87753782  0.47467480  1
  O  O158  1  0.16438249  0.45375007  0.47203917  1
  O  O159  1  0.66438564  0.45395453  0.47202145  1
  O  O160  1  0.06330792  0.67402038  0.47195762  1
  O  O161  1  0.56299249  0.67380646  0.47211568  1
  O  O162  1  0.07646092  0.66219043  0.35843440  1
  O  O163  1  0.57629241  0.66205949  0.35858515  1
  O  O164  1  0.25270252  0.84145461  0.36213970  1
  O  O165  1  0.75284159  0.84183548  0.36225205  1
  O  O166  1  0.16943205  0.49108803  0.35869477  1
  O  O167  1  0.66959457  0.49125276  0.35858234  1
  O  O168  1  0.06876270  0.49941441  0.86557296  1
  O  O169  1  0.58257616  0.50527784  0.86446737  1
  O  O170  1  0.16874987  0.84783844  0.85920282  1
  O  O171  1  0.68300778  0.86783421  0.86273374  1
  O  O172  1  0.25015657  0.65569918  0.86078593  1
  O  O173  1  0.75768803  0.64128518  0.85783930  1
  O  O174  1  0.00783058  0.81637179  0.41028177  1
  O  O175  1  0.50733275  0.81587573  0.41048450  1
  O  O176  1  0.39969091  0.98346378  0.41090249  1
  O  O177  1  0.89978643  0.98367038  0.41113501  1
  O  O178  1  0.09258447  0.20089003  0.41022915  1
  O  O179  1  0.59235513  0.20130445  0.41027559  1
  O  O180  1  0.00657042  0.20542724  0.91164169  1
  O  O181  1  0.51051079  0.20621696  0.91015939  1
  O  O182  1  0.09316886  0.98772024  0.91082858  1
  O  O183  1  0.59963725  0.99857147  0.90954279  1
  O  O184  1  0.39884201  0.81405615  0.90954314  1
  O  O185  1  0.90288098  0.79050101  0.91090952  1
  O  O186  1  0.49119192  0.15549186  0.59742019  1
  O  O187  1  0.99216160  0.15654909  0.59663944  1
  O  O188  1  0.08487480  0.01653787  0.59583551  1
  O  O189  1  0.58465909  0.01614410  0.59623579  1
  O  O190  1  0.42218697  0.82960523  0.59749369  1
  O  O191  1  0.92283098  0.82902967  0.59629011  1
  O  O192  1  0.49179084  0.82786675  0.09733243  1
  O  O193  1  0.98173947  0.81534793  0.08748518  1
  O  O194  1  0.42460065  0.01984169  0.09712333  1
  O  O195  1  0.92426209  0.04521684  0.08575033  1
  O  O196  1  0.08500568  0.15054800  0.09801218  1
  O  O197  1  0.59586261  0.14771414  0.08380003  1
  O  O198  1  0.32514231  0.12584305  0.74485289  1
  O  O199  1  0.82398432  0.12454009  0.74360080  1
  O  O200  1  0.23423517  0.33502883  0.74314809  1
  O  O201  1  0.73594079  0.33616010  0.74258037  1
  O  O202  1  0.43070348  0.53813425  0.74321021  1
  O  O203  1  0.92933644  0.53847411  0.74437429  1
  O  O204  1  0.33303339  0.52935949  0.24199366  1
  O  O205  1  0.83384693  0.53378159  0.24160296  1
  O  O206  1  0.43702835  0.34733013  0.24320557  1
  O  O207  1  0.93669519  0.34903315  0.24436233  1
  O  O208  1  0.22963014  0.13937661  0.24143754  1
  O  O209  1  0.73180808  0.14149972  0.24393072  1
  O  O210  1  0.31321357  0.49608309  0.90751272  1
  O  O211  1  0.81191287  0.47738329  0.91727181  1
  O  O212  1  0.43702728  0.37799125  0.90785792  1
  O  O213  1  0.92988907  0.37673215  0.91985672  1
  O  O214  1  0.25223173  0.12953723  0.90773993  1
  O  O215  1  0.75595917  0.14606291  0.92266005  1
  O  O216  1  0.31184778  0.12707674  0.40836166  1
  O  O217  1  0.81201509  0.12732163  0.40853136  1
  O  O218  1  0.25162472  0.37230697  0.40742920  1
  O  O219  1  0.75149080  0.37208492  0.40747996  1
  O  O220  1  0.43546211  0.49793929  0.40766056  1
  O  O221  1  0.93563107  0.49821246  0.40755572  1
  O  O222  1  0.15669875  0.46564278  0.08461423  1
  O  O223  1  0.66038808  0.45917484  0.07718560  1
  O  O224  1  0.06668985  0.67332786  0.07555774  1
  O  O225  1  0.57599976  0.68034704  0.08459397  1
  O  O226  1  0.26821297  0.84514121  0.08306740  1
  O  O227  1  0.76442892  0.87456260  0.07443272  1
  O  O228  1  0.15690548  0.84691525  0.58410577  1
  O  O229  1  0.65676038  0.84686440  0.58414797  1
  O  O230  1  0.26589584  0.68514262  0.58406346  1
  O  O231  1  0.76606428  0.68547020  0.58394978  1
  O  O232  1  0.07755471  0.46622202  0.58229844  1
  O  O233  1  0.57733763  0.46545619  0.58231708  1
  O  O234  1  0.14717723  0.81832450  0.25043930  1
  O  O235  1  0.64830724  0.81948097  0.25152301  1
  O  O236  1  0.25921364  0.69511572  0.25283442  1
  O  O237  1  0.75954232  0.69817521  0.25258254  1
  O  O238  1  0.09307285  0.47759294  0.24884202  1
  O  O239  1  0.59366723  0.48060053  0.24928528  1
  O  O240  1  0.14938116  0.47839703  0.75638966  1
  O  O241  1  0.65346246  0.48494152  0.75433695  1
  O  O242  1  0.08976642  0.70191217  0.75273518  1
  O  O243  1  0.59203764  0.70709932  0.75426716  1
  O  O244  1  0.25969286  0.81259841  0.75036073  1
  O  O245  1  0.75991333  0.81282770  0.75165997  1
