# generated using pymatgen
data_MgZn2Co2(PO5)2
_symmetry_space_group_name_H-M   'P 1'
_cell_length_a   5.76649881
_cell_length_b   6.96706728
_cell_length_c   8.12356090
_cell_angle_alpha   89.16533185
_cell_angle_beta   42.58739607
_cell_angle_gamma   73.39369356
_symmetry_Int_Tables_number   1
_chemical_formula_structural   MgZn2Co2(PO5)2
_chemical_formula_sum   'Mg1 Zn2 Co2 P2 O10'
_cell_volume   201.76399959
_cell_formula_units_Z   1
loop_
 _symmetry_equiv_pos_site_id
 _symmetry_equiv_pos_as_xyz
  1  'x, y, z'
loop_
 _atom_site_type_symbol
 _atom_site_label
 _atom_site_symmetry_multiplicity
 _atom_site_fract_x
 _atom_site_fract_y
 _atom_site_fract_z
 _atom_site_occupancy
  Mg  Mg0  1  0.96446270  0.25696985  0.48709140  1
  Zn  Zn1  1  0.22443893  0.25887323  0.83165811  1
  Zn  Zn2  1  0.60834244  0.75065353  0.22515974  1
  Co  Co3  1  0.37001559  0.52409798  0.06029598  1
  Co  Co4  1  0.64100809  0.94893436  0.87883930  1
  P  P5  1  0.58596997  0.23741772  0.32989904  1
  P  P6  1  0.43635741  0.73429882  0.67590582  1
  O  O7  1  0.52995402  0.07727879  0.23779165  1
  O  O8  1  0.67883100  0.39242141  0.16575463  1
  O  O9  1  0.46751858  0.93015143  0.73233300  1
  O  O10  1  0.19104545  0.65367550  0.91339702  1
  O  O11  1  0.83667845  0.55202143  0.45292480  1
  O  O12  1  0.25213125  0.79740545  0.59713875  1
  O  O13  1  0.19088672  0.34990674  0.61377477  1
  O  O14  1  0.88345308  0.14525591  0.30931455  1
  O  O15  1  0.49219380  0.74789800  0.06215178  1
  O  O16  1  0.56201253  0.24320083  0.84191965  1
