# generated using pymatgen
data_Na6Sc3NbSi2(PO6)4
_symmetry_space_group_name_H-M   'P 1'
_cell_length_a   9.06344310
_cell_length_b   9.06751344
_cell_length_c   22.75804406
_cell_angle_alpha   89.98591893
_cell_angle_beta   90.02464874
_cell_angle_gamma   119.92520062
_symmetry_Int_Tables_number   1
_chemical_formula_structural   Na6Sc3NbSi2(PO6)4
_chemical_formula_sum   'Na18 Sc9 Nb3 Si6 P12 O72'
_cell_volume   1620.96557922
_cell_formula_units_Z   3
loop_
 _symmetry_equiv_pos_site_id
 _symmetry_equiv_pos_as_xyz
  1  'x, y, z'
loop_
 _atom_site_type_symbol
 _atom_site_label
 _atom_site_symmetry_multiplicity
 _atom_site_fract_x
 _atom_site_fract_y
 _atom_site_fract_z
 _atom_site_occupancy
  Na  Na0  1  0.99666926  0.99196040  0.50238222  1
  Na  Na1  1  0.98466444  0.99310731  0.99639594  1
  Na  Na2  1  0.66321525  0.33355554  0.82962965  1
  Na  Na3  1  0.66300712  0.33547117  0.32924750  1
  Na  Na4  1  0.33362192  0.65928769  0.16339174  1
  Na  Na5  1  0.33199688  0.66451253  0.66616337  1
  Na  Na6  1  0.64145324  0.00882700  0.24755490  1
  Na  Na7  1  0.99695878  0.35844871  0.74800141  1
  Na  Na8  1  0.36289429  0.00522811  0.75035492  1
  Na  Na9  1  0.30084656  0.33335138  0.58630509  1
  Na  Na10  1  0.66831711  0.96793441  0.58425739  1
  Na  Na11  1  0.29722929  0.96353017  0.08337452  1
  Na  Na12  1  0.03673549  0.33664849  0.08240120  1
  Na  Na13  1  0.97528316  0.67972978  0.91593730  1
  Na  Na14  1  0.32250337  0.29441155  0.91495570  1
  Na  Na15  1  0.96239383  0.29418848  0.41691157  1
  Na  Na16  1  0.33470670  0.03554266  0.41512988  1
  Na  Na17  1  0.70105534  0.67113650  0.41783514  1
  Sc  Sc18  1  0.00215682  0.00101173  0.34791639  1
  Sc  Sc19  1  0.99929147  0.00326989  0.85197961  1
  Sc  Sc20  1  0.00206321  0.99778755  0.65138594  1
  Sc  Sc21  1  0.99859956  0.99131674  0.14992450  1
  Sc  Sc22  1  0.66486629  0.34228058  0.68479803  1
  Sc  Sc23  1  0.66252261  0.33796929  0.18651398  1
  Sc  Sc24  1  0.66691038  0.33064686  0.48423982  1
  Sc  Sc25  1  0.33984583  0.66798032  0.01657331  1
  Sc  Sc26  1  0.33256604  0.67006366  0.51857830  1
  Nb  Nb27  1  0.66734762  0.33030331  0.97799656  1
  Nb  Nb28  1  0.33239449  0.67121087  0.31147314  1
  Nb  Nb29  1  0.33830306  0.66294246  0.81631065  1
  Si  Si30  1  0.29434847  0.00586195  0.25003257  1
  Si  Si31  1  0.29559975  0.29457373  0.75001368  1
  Si  Si32  1  0.63052915  0.67233147  0.91894110  1
  Si  Si33  1  0.04225004  0.37325067  0.91853596  1
  Si  Si34  1  0.33366719  0.95557040  0.91801495  1
  Si  Si35  1  0.62786215  0.95981527  0.41772868  1
  P  P36  1  0.70720872  0.70530904  0.25150396  1
  P  P37  1  0.00196683  0.29453811  0.24976354  1
  P  P38  1  0.00062834  0.70604020  0.75139586  1
  P  P39  1  0.70508705  0.99773429  0.74910072  1
  P  P40  1  0.96141973  0.33356092  0.58398108  1
  P  P41  1  0.37178374  0.03921469  0.58372085  1
  P  P42  1  0.66851936  0.62887730  0.58187184  1
  P  P43  1  0.95506104  0.62299916  0.08358989  1
  P  P44  1  0.66674023  0.04293243  0.08484517  1
  P  P45  1  0.37642498  0.33521248  0.08360690  1
  P  P46  1  0.33247829  0.37754583  0.41684933  1
  P  P47  1  0.04397800  0.66726144  0.41635790  1
  O  O48  1  0.21059305  0.02605511  0.31019967  1
  O  O49  1  0.80952394  0.78695195  0.30802013  1
  O  O50  1  0.97093117  0.18379276  0.30547081  1
  O  O51  1  0.21161111  0.17944840  0.80809562  1
  O  O52  1  0.97363421  0.78304690  0.80714382  1
  O  O53  1  0.81925637  0.02884469  0.80228320  1
  O  O54  1  0.78009135  0.96682257  0.69249458  1
  O  O55  1  0.17473786  0.21558347  0.69146913  1
  O  O56  1  0.03434655  0.82203487  0.69754790  1
  O  O57  1  0.78316671  0.82591575  0.19835051  1
  O  O58  1  0.03236157  0.21519135  0.19448582  1
  O  O59  1  0.17790583  0.96561443  0.19126339  1
  O  O60  1  0.87657764  0.35716840  0.63883010  1
  O  O61  1  0.48634938  0.12277084  0.63806492  1
  O  O62  1  0.63694083  0.51071144  0.63480956  1
  O  O63  1  0.86831823  0.50682265  0.13610878  1
  O  O64  1  0.64019556  0.12664500  0.13951198  1
  O  O65  1  0.48747390  0.35644608  0.13670161  1
  O  O66  1  0.46661518  0.30869764  0.02787257  1
  O  O67  1  0.84333289  0.53109548  0.02719465  1
  O  O68  1  0.69032621  0.16415255  0.03021156  1
  O  O69  1  0.45484560  0.15155940  0.52786194  1
  O  O70  1  0.69201159  0.54615966  0.52544861  1
  O  O71  1  0.84943268  0.30570339  0.52811521  1
  O  O72  1  0.53728907  0.69462918  0.97419667  1
  O  O73  1  0.15574972  0.45796194  0.97614539  1
  O  O74  1  0.29933945  0.84160567  0.97589496  1
  O  O75  1  0.53922620  0.83852027  0.47425690  1
  O  O76  1  0.30069686  0.45519001  0.47226893  1
  O  O77  1  0.15769290  0.69724134  0.46971768  1
  O  O78  1  0.13418080  0.63749086  0.36214135  1
  O  O79  1  0.49858086  0.85795116  0.36018465  1
  O  O80  1  0.35805877  0.49597191  0.36331573  1
  O  O81  1  0.13176972  0.50213030  0.85987241  1
  O  O82  1  0.36605752  0.86681755  0.85869894  1
  O  O83  1  0.49742649  0.63005458  0.86122546  1
  O  O84  1  0.02466858  0.82640858  0.40978551  1
  O  O85  1  0.81579523  0.97868791  0.41048779  1
  O  O86  1  0.17381160  0.19788783  0.41027731  1
  O  O87  1  0.02528959  0.19004503  0.90986375  1
  O  O88  1  0.17110820  0.98228456  0.91018756  1
  O  O89  1  0.82146713  0.82370814  0.90993976  1
  O  O90  1  0.97469722  0.16787070  0.58734383  1
  O  O91  1  0.19613765  0.02818037  0.58865819  1
  O  O92  1  0.82317458  0.81025767  0.58807876  1
  O  O93  1  0.97558124  0.80311656  0.08639432  1
  O  O94  1  0.83408272  0.03708002  0.08697559  1
  O  O95  1  0.19814631  0.16933383  0.08647278  1
  O  O96  1  0.68443062  0.15819528  0.74327390  1
  O  O97  1  0.48177627  0.30842124  0.74376199  1
  O  O98  1  0.85031807  0.52167883  0.74397768  1
  O  O99  1  0.68505859  0.52854798  0.24468417  1
  O  O100  1  0.84176338  0.31195903  0.24404749  1
  O  O101  1  0.49152094  0.15803218  0.24517454  1
  O  O102  1  0.63704927  0.49076947  0.92523258  1
  O  O103  1  0.85634781  0.36807607  0.92450879  1
  O  O104  1  0.50464943  0.14932259  0.92558323  1
  O  O105  1  0.63982485  0.14672007  0.41992925  1
  O  O106  1  0.49652701  0.36356268  0.42073329  1
  O  O107  1  0.86571309  0.50505131  0.42024987  1
  O  O108  1  0.34863508  0.48904350  0.07918562  1
  O  O109  1  0.13437337  0.64092496  0.07856861  1
  O  O110  1  0.50364936  0.86968036  0.07818917  1
  O  O111  1  0.36108315  0.86385254  0.57757346  1
  O  O112  1  0.50257049  0.64197578  0.57795171  1
  O  O113  1  0.14326206  0.48839388  0.57770069  1
  O  O114  1  0.31387878  0.82785473  0.25903280  1
  O  O115  1  0.52540734  0.69114707  0.25952215  1
  O  O116  1  0.16458661  0.47347244  0.25981689  1
  O  O117  1  0.30527356  0.48418581  0.75747688  1
  O  O118  1  0.16818604  0.69177675  0.75621363  1
  O  O119  1  0.52026754  0.83947719  0.75656470  1
