# generated using pymatgen
data_Na6Mg5NbP3(SO6)6
_symmetry_space_group_name_H-M   'P 1'
_cell_length_a   8.82831239
_cell_length_b   8.83651050
_cell_length_c   22.47673536
_cell_angle_alpha   89.82946487
_cell_angle_beta   90.00000000
_cell_angle_gamma   119.96931492
_symmetry_Int_Tables_number   1
_chemical_formula_structural   Na6Mg5NbP3(SO6)6
_chemical_formula_sum   'Na12 Mg10 Nb2 P6 S12 O72'
_cell_volume   1518.98677532
_cell_formula_units_Z   2
loop_
 _symmetry_equiv_pos_site_id
 _symmetry_equiv_pos_as_xyz
  1  'x, y, z'
loop_
 _atom_site_type_symbol
 _atom_site_label
 _atom_site_symmetry_multiplicity
 _atom_site_fract_x
 _atom_site_fract_y
 _atom_site_fract_z
 _atom_site_occupancy
  Na  Na0  1  0.30347760  0.33499792  0.58089380  1
  Na  Na1  1  0.67060677  0.97242856  0.58950331  1
  Na  Na2  1  0.30182279  0.97242856  0.08950331  1
  Na  Na3  1  0.03152132  0.33499792  0.08089380  1
  Na  Na4  1  0.96498924  0.66324853  0.91121245  1
  Na  Na5  1  0.69825829  0.66324853  0.41121245  1
  Na  Na6  1  0.02088447  0.00940695  0.49506420  1
  Na  Na7  1  0.98852248  0.00940695  0.99506420  1
  Na  Na8  1  0.67308261  0.32222731  0.82750122  1
  Na  Na9  1  0.64914570  0.32222731  0.32750122  1
  Na  Na10  1  0.35295554  0.67521346  0.16581066  1
  Na  Na11  1  0.32225692  0.67521346  0.66581066  1
  Mg  Mg12  1  0.01460449  0.00735902  0.34878222  1
  Mg  Mg13  1  0.99275453  0.00735902  0.84878222  1
  Mg  Mg14  1  0.99209280  0.98505684  0.65627098  1
  Mg  Mg15  1  0.99296404  0.98505684  0.15627098  1
  Mg  Mg16  1  0.67741035  0.33582744  0.68885848  1
  Mg  Mg17  1  0.65841809  0.33582744  0.18885848  1
  Mg  Mg18  1  0.66716171  0.32872254  0.97979559  1
  Mg  Mg19  1  0.66156182  0.32872254  0.47979559  1
  Mg  Mg20  1  0.33888423  0.66052256  0.01439990  1
  Mg  Mg21  1  0.32163733  0.66052256  0.51439990  1
  Nb  Nb22  1  0.33760956  0.66454689  0.31077147  1
  Nb  Nb23  1  0.32693632  0.66454689  0.81077147  1
  P  P24  1  0.29694516  0.00479614  0.24911813  1
  P  P25  1  0.71720275  0.70684211  0.25322586  1
  P  P26  1  0.98963936  0.70684211  0.75322586  1
  P  P27  1  0.70785098  0.00479614  0.74911813  1
  P  P28  1  0.03943870  0.36744850  0.92005352  1
  P  P29  1  0.32800880  0.36744850  0.42005352  1
  S  S30  1  0.99557317  0.29016841  0.24921039  1
  S  S31  1  0.29459524  0.29016841  0.74921039  1
  S  S32  1  0.96034028  0.33470838  0.58289673  1
  S  S33  1  0.37283901  0.04046628  0.58312534  1
  S  S34  1  0.66941021  0.62859288  0.58197093  1
  S  S35  1  0.95918368  0.62859288  0.08197093  1
  S  S36  1  0.66762826  0.04046628  0.08312534  1
  S  S37  1  0.37436910  0.33470838  0.08289673  1
  S  S38  1  0.62690954  0.66695977  0.91763217  1
  S  S39  1  0.33401403  0.96105546  0.91820791  1
  S  S40  1  0.62704043  0.96105546  0.41820791  1
  S  S41  1  0.04004923  0.66695977  0.41763217  1
  O  O42  1  0.20751598  0.02569394  0.30257521  1
  O  O43  1  0.80915774  0.78849194  0.31147547  1
  O  O44  1  0.97544934  0.18685777  0.30186848  1
  O  O45  1  0.21140843  0.18685777  0.80186848  1
  O  O46  1  0.97933420  0.78849194  0.81147547  1
  O  O47  1  0.81817796  0.02569394  0.80257521  1
  O  O48  1  0.76851387  0.96405659  0.69005168  1
  O  O49  1  0.19157921  0.22359365  0.69396492  1
  O  O50  1  0.03771289  0.81939853  0.69778865  1
  O  O51  1  0.78168565  0.81939853  0.19778865  1
  O  O52  1  0.03201445  0.22359365  0.19396492  1
  O  O53  1  0.19554272  0.96405659  0.19005168  1
  O  O54  1  0.87720204  0.35497610  0.63644583  1
  O  O55  1  0.48275338  0.12140181  0.63611811  1
  O  O56  1  0.64072056  0.51466559  0.63382141  1
  O  O57  1  0.87394603  0.51466559  0.13382141  1
  O  O58  1  0.63864942  0.12140181  0.13611811  1
  O  O59  1  0.47777505  0.35497610  0.13644583  1
  O  O60  1  0.45547205  0.30726741  0.02969354  1
  O  O61  1  0.86034657  0.54963888  0.02664467  1
  O  O62  1  0.69471569  0.14891724  0.02925293  1
  O  O63  1  0.45420255  0.14891724  0.52925293  1
  O  O64  1  0.68929331  0.54963888  0.52664467  1
  O  O65  1  0.85179636  0.30726741  0.52969354  1
  O  O66  1  0.54645340  0.69246721  0.97059764  1
  O  O67  1  0.14142208  0.45253833  0.97715377  1
  O  O68  1  0.30899998  0.85465094  0.97240066  1
  O  O69  1  0.54564995  0.85465094  0.47240066  1
  O  O70  1  0.31111525  0.45253833  0.47715377  1
  O  O71  1  0.14601281  0.69246721  0.47059764  1
  O  O72  1  0.13088765  0.64895836  0.36393715  1
  O  O73  1  0.51250498  0.86955610  0.36477555  1
  O  O74  1  0.34917268  0.49741354  0.36570698  1
  O  O75  1  0.14823987  0.49741354  0.86570698  1
  O  O76  1  0.35705012  0.86955610  0.86477555  1
  O  O77  1  0.51806971  0.64895836  0.86393715  1
  O  O78  1  0.01409629  0.81963984  0.41200692  1
  O  O79  1  0.79749574  0.97035258  0.41053554  1
  O  O80  1  0.16650045  0.19058899  0.41117143  1
  O  O81  1  0.02408854  0.19058899  0.91117143  1
  O  O82  1  0.17285684  0.97035258  0.91053554  1
  O  O83  1  0.80554354  0.81963984  0.91200692  1
  O  O84  1  0.98271958  0.17604939  0.58778384  1
  O  O85  1  0.19779872  0.02624953  0.58894028  1
  O  O86  1  0.82396426  0.80743802  0.58721350  1
  O  O87  1  0.98347376  0.80743802  0.08721350  1
  O  O88  1  0.82845081  0.02624953  0.08894028  1
  O  O89  1  0.19332981  0.17604939  0.08778384  1
  O  O90  1  0.66873538  0.15404664  0.74426656  1
  O  O91  1  0.47262561  0.31934537  0.74303507  1
  O  O92  1  0.83674238  0.52156993  0.74660828  1
  O  O93  1  0.68482855  0.52156993  0.24660828  1
  O  O94  1  0.84672076  0.31934537  0.24303507  1
  O  O95  1  0.48531226  0.15404664  0.24426656  1
  O  O96  1  0.64049238  0.50620198  0.92105241  1
  O  O97  1  0.86445100  0.36857953  0.91852198  1
  O  O98  1  0.49125839  0.13384516  0.92101056  1
  O  O99  1  0.64258777  0.13384516  0.42101056  1
  O  O100  1  0.50412953  0.36857953  0.41852198  1
  O  O101  1  0.86571060  0.50620198  0.42105241  1
  O  O102  1  0.35017290  0.49050489  0.07821886  1
  O  O103  1  0.14082757  0.64951023  0.07843950  1
  O  O104  1  0.50682359  0.86452506  0.07660882  1
  O  O105  1  0.35770048  0.86452506  0.57660882  1
  O  O106  1  0.50868166  0.64951023  0.57843950  1
  O  O107  1  0.14033099  0.49050489  0.57821886  1
  O  O108  1  0.31114215  0.82960750  0.26156382  1
  O  O109  1  0.52062560  0.68559900  0.26089184  1
  O  O110  1  0.16096566  0.47323950  0.25688587  1
  O  O111  1  0.31227284  0.47323950  0.75688587  1
  O  O112  1  0.16497240  0.68559900  0.76089184  1
  O  O113  1  0.51846435  0.82960750  0.76156382  1
