# generated using pymatgen
data_Na6MgMo2(NO3)2
_symmetry_space_group_name_H-M   'P 1'
_cell_length_a   5.43602720
_cell_length_b   6.41082976
_cell_length_c   7.64840398
_cell_angle_alpha   88.15855862
_cell_angle_beta   91.03960790
_cell_angle_gamma   91.66350551
_symmetry_Int_Tables_number   1
_chemical_formula_structural   Na6MgMo2(NO3)2
_chemical_formula_sum   'Na6 Mg1 Mo2 N2 O6'
_cell_volume   266.25319382
_cell_formula_units_Z   1
loop_
 _symmetry_equiv_pos_site_id
 _symmetry_equiv_pos_as_xyz
  1  'x, y, z'
loop_
 _atom_site_type_symbol
 _atom_site_label
 _atom_site_symmetry_multiplicity
 _atom_site_fract_x
 _atom_site_fract_y
 _atom_site_fract_z
 _atom_site_occupancy
  Na  Na0  1  0.49597400  0.83518100  0.99512800  1
  Na  Na1  1  0.53997200  0.33485700  0.26707700  1
  Na  Na2  1  0.52101900  0.32858500  0.74035600  1
  Na  Na3  1  0.03720800  0.58683400  0.78061300  1
  Na  Na4  1  0.05750700  0.21892300  0.46280400  1
  Na  Na5  1  0.00487700  0.69726500  0.23517400  1
  Mg  Mg6  1  0.90377400  0.96125500  0.71012900  1
  Mo  Mo7  1  0.47736100  0.82341600  0.49606800  1
  Mo  Mo8  1  0.98910700  0.18014200  0.01605100  1
  N  N9  1  0.66680300  0.18672400  0.01013800  1
  N  N10  1  0.15114300  0.83523300  0.52730300  1
  O  O11  1  0.63964900  0.71757600  0.71622900  1
  O  O12  1  0.08324400  0.24492400  0.76573100  1
  O  O13  1  0.12687700  0.34386100  0.19761700  1
  O  O14  1  0.56981600  0.69522200  0.29098300  1
  O  O15  1  0.05507000  0.88088300  0.96100200  1
  O  O16  1  0.65165600  0.09787000  0.53295200  1
