# generated using pymatgen
data_Na2Mn3Cl8
_symmetry_space_group_name_H-M   'P 1'
_cell_length_a   7.80678312
_cell_length_b   7.80683917
_cell_length_c   7.81197587
_cell_angle_alpha   56.64622596
_cell_angle_beta   56.64584141
_cell_angle_gamma   56.67726411
_symmetry_Int_Tables_number   1
_chemical_formula_structural   Na2Mn3Cl8
_chemical_formula_sum   'Na2 Mn3 Cl8'
_cell_volume   310.66295942
_cell_formula_units_Z   1
loop_
 _symmetry_equiv_pos_site_id
 _symmetry_equiv_pos_as_xyz
  1  'x, y, z'
loop_
 _atom_site_type_symbol
 _atom_site_label
 _atom_site_symmetry_multiplicity
 _atom_site_fract_x
 _atom_site_fract_y
 _atom_site_fract_z
 _atom_site_occupancy
  Na  Na0  1  0.15851934  0.15852695  0.15895809  1
  Na  Na1  1  0.84148066  0.84147305  0.84104191  1
  Mn  Mn2  1  0.50000000  0.50000000  0.00000000  1
  Mn  Mn3  1  -0.00000000  0.50000000  0.50000000  1
  Mn  Mn4  1  0.50000000  -0.00000000  0.50000000  1
  Cl  Cl5  1  0.40491758  0.40493223  0.40483745  1
  Cl  Cl6  1  0.59508242  0.59506777  0.59516255  1
  Cl  Cl7  1  0.89824428  0.42161162  0.89879702  1
  Cl  Cl8  1  0.89855183  0.89853528  0.42152657  1
  Cl  Cl9  1  0.42160899  0.89823361  0.89880681  1
  Cl  Cl10  1  0.57839101  0.10176639  0.10119319  1
  Cl  Cl11  1  0.10175572  0.57838838  0.10120298  1
  Cl  Cl12  1  0.10144817  0.10146472  0.57847343  1
