# generated using pymatgen
data_CsSn2Br5
_symmetry_space_group_name_H-M   'P 1'
_cell_length_a   8.55200926
_cell_length_b   8.55369818
_cell_length_c   9.93815489
_cell_angle_alpha   115.49337958
_cell_angle_beta   115.48414952
_cell_angle_gamma   89.99999243
_symmetry_Int_Tables_number   1
_chemical_formula_structural   CsSn2Br5
_chemical_formula_sum   'Cs2 Sn4 Br10'
_cell_volume   576.85795691
_cell_formula_units_Z   2
loop_
 _symmetry_equiv_pos_site_id
 _symmetry_equiv_pos_as_xyz
  1  'x, y, z'
loop_
 _atom_site_type_symbol
 _atom_site_label
 _atom_site_symmetry_multiplicity
 _atom_site_fract_x
 _atom_site_fract_y
 _atom_site_fract_z
 _atom_site_occupancy
  Cs  Cs0  1  0.24989650  0.25000000  0.50000000  1
  Cs  Cs1  1  0.75010350  0.75000000  0.50000000  1
  Sn  Sn2  1  0.68496344  0.18497573  0.99984802  1
  Sn  Sn3  1  0.81488457  0.68497573  0.99984802  1
  Sn  Sn4  1  0.18511543  0.31502427  0.00015198  1
  Sn  Sn5  1  0.31503656  0.81502427  0.00015198  1
  Br  Br6  1  0.96569001  0.46550527  0.25278048  1
  Br  Br7  1  0.71270623  0.21290244  0.74722974  1
  Br  Br8  1  0.03430999  0.53449473  0.74721952  1
  Br  Br9  1  0.21290853  0.03449473  0.74721952  1
  Br  Br10  1  0.53452351  0.71290244  0.74722974  1
  Br  Br11  1  0.78709147  0.96550527  0.25278048  1
  Br  Br12  1  0.50000000  0.50000000  -0.00000000  1
  Br  Br13  1  0.00000000  -0.00000000  -0.00000000  1
  Br  Br14  1  0.28729377  0.78709756  0.25277026  1
  Br  Br15  1  0.46547649  0.28709756  0.25277026  1
