# generated using pymatgen
data_Na3YGe3(PO4)6
_symmetry_space_group_name_H-M   'P 1'
_cell_length_a   8.63043778
_cell_length_b   8.64861791
_cell_length_c   22.16061462
_cell_angle_alpha   89.89147972
_cell_angle_beta   90.08714147
_cell_angle_gamma   120.33159137
_symmetry_Int_Tables_number   1
_chemical_formula_structural   Na3YGe3(PO4)6
_chemical_formula_sum   'Na9 Y3 Ge9 P18 O72'
_cell_volume   1427.67796170
_cell_formula_units_Z   3
loop_
 _symmetry_equiv_pos_site_id
 _symmetry_equiv_pos_as_xyz
  1  'x, y, z'
loop_
 _atom_site_type_symbol
 _atom_site_label
 _atom_site_symmetry_multiplicity
 _atom_site_fract_x
 _atom_site_fract_y
 _atom_site_fract_z
 _atom_site_occupancy
  Na  Na0  1  0.36118170  0.35520536  0.24880245  1
  Na  Na1  1  0.63250008  0.62865005  0.75025185  1
  Na  Na2  1  0.96756371  0.29616747  0.41624154  1
  Na  Na3  1  0.00045471  0.99204317  0.50251735  1
  Na  Na4  1  0.00007422  0.00028959  0.00017218  1
  Na  Na5  1  0.66747035  0.32470260  0.83645249  1
  Na  Na6  1  0.66688166  0.33391376  0.33130121  1
  Na  Na7  1  0.33220176  0.67553072  0.16312525  1
  Na  Na8  1  0.32401982  0.66784001  0.66501388  1
  Y  Y9  1  0.99810840  0.98857066  0.35745914  1
  Y  Y10  1  0.66738433  0.32545294  0.68576108  1
  Y  Y11  1  0.67469579  0.33309969  0.17735005  1
  Ge  Ge12  1  0.00186355  0.00154887  0.85674973  1
  Ge  Ge13  1  0.00224907  0.00133792  0.64632174  1
  Ge  Ge14  1  0.99827372  0.99689612  0.14520869  1
  Ge  Ge15  1  0.66676182  0.33303129  0.98162932  1
  Ge  Ge16  1  0.66107350  0.33369743  0.48290362  1
  Ge  Ge17  1  0.33335939  0.66597819  0.01518081  1
  Ge  Ge18  1  0.33589494  0.66794328  0.52003726  1
  Ge  Ge19  1  0.33498263  0.67335426  0.31303996  1
  Ge  Ge20  1  0.32806155  0.66757288  0.81621726  1
  P  P21  1  0.28695283  0.98781026  0.24854453  1
  P  P22  1  0.70069800  0.71197312  0.24834151  1
  P  P23  1  0.00623346  0.29750673  0.25186572  1
  P  P24  1  0.27201142  0.28577477  0.75381385  1
  P  P25  1  0.01550884  0.72931712  0.75361687  1
  P  P26  1  0.71627441  0.99249723  0.75471285  1
  P  P27  1  0.96798184  0.33273931  0.58009093  1
  P  P28  1  0.36512494  0.03173259  0.58040228  1
  P  P29  1  0.66687501  0.63295062  0.58217320  1
  P  P30  1  0.97159763  0.63683349  0.07791379  1
  P  P31  1  0.66551274  0.02943461  0.07830960  1
  P  P32  1  0.36493821  0.33489465  0.07970708  1
  P  P33  1  0.62154823  0.66435665  0.91605721  1
  P  P34  1  0.04306344  0.37816439  0.91650933  1
  P  P35  1  0.33510690  0.95626023  0.91643144  1
  P  P36  1  0.60550493  0.95565502  0.42026359  1
  P  P37  1  0.35126492  0.39515833  0.41948761  1
  P  P38  1  0.04690839  0.65614195  0.42122637  1
  O  O39  1  0.21677596  0.02875321  0.30510052  1
  O  O40  1  0.80464269  0.78150145  0.30618805  1
  O  O41  1  0.98336620  0.19977072  0.31097167  1
  O  O42  1  0.18993168  0.16937608  0.81019880  1
  O  O43  1  0.97643939  0.81153018  0.80930035  1
  O  O44  1  0.83126916  0.01897482  0.81087703  1
  O  O45  1  0.79385532  0.95539805  0.69585585  1
  O  O46  1  0.16422172  0.20467839  0.69429526  1
  O  O47  1  0.04210338  0.83709181  0.69408988  1
  O  O48  1  0.79161935  0.82988045  0.19126129  1
  O  O49  1  0.04218503  0.20752497  0.19586237  1
  O  O50  1  0.16823438  0.96005356  0.19129977  1
  O  O51  1  0.90011828  0.37583231  0.63668332  1
  O  O52  1  0.47325353  0.09708917  0.63792517  1
  O  O53  1  0.62628024  0.52954363  0.64117132  1
  O  O54  1  0.91415289  0.53421906  0.13677469  1
  O  O55  1  0.61912403  0.08739763  0.13668156  1
  O  O56  1  0.46495458  0.37653273  0.13944602  1
  O  O57  1  0.46050893  0.29692446  0.02646549  1
  O  O58  1  0.83817830  0.54211121  0.02424156  1
  O  O59  1  0.70496602  0.16228567  0.02449264  1
  O  O60  1  0.45553113  0.16044475  0.52534013  1
  O  O61  1  0.70365079  0.54027652  0.52779505  1
  O  O62  1  0.84369869  0.29624107  0.52344512  1
  O  O63  1  0.53550994  0.70095357  0.97047225  1
  O  O64  1  0.16446108  0.46221148  0.97174944  1
  O  O65  1  0.29770349  0.83501632  0.97149273  1
  O  O66  1  0.52178593  0.83836827  0.47578673  1
  O  O67  1  0.31514309  0.48237730  0.47366745  1
  O  O68  1  0.16270565  0.68027992  0.47630791  1
  O  O69  1  0.12551251  0.62119213  0.36230006  1
  O  O70  1  0.49813428  0.87338737  0.36085500  1
  O  O71  1  0.37513223  0.49890623  0.35887719  1
  O  O72  1  0.12482198  0.49727494  0.85909293  1
  O  O73  1  0.37272037  0.87520395  0.85918304  1
  O  O74  1  0.50638242  0.62952856  0.85728631  1
  O  O75  1  0.02405984  0.81709668  0.42229673  1
  O  O76  1  0.79579393  0.98691705  0.41969330  1
  O  O77  1  0.18315133  0.21026940  0.41917547  1
  O  O78  1  0.02431668  0.18969319  0.90990734  1
  O  O79  1  0.16542489  0.97559203  0.90959656  1
  O  O80  1  0.81155014  0.83451363  0.90992964  1
  O  O81  1  0.98075478  0.16020694  0.58810377  1
  O  O82  1  0.17911325  0.01824420  0.58788927  1
  O  O83  1  0.83941313  0.82072817  0.58880650  1
  O  O84  1  0.98349816  0.82164117  0.08546370  1
  O  O85  1  0.83887629  0.01755129  0.08651482  1
  O  O86  1  0.17749444  0.16179427  0.08694016  1
  O  O87  1  0.69385990  0.15467800  0.75275088  1
  O  O88  1  0.46278151  0.31644983  0.75093504  1
  O  O89  1  0.84653245  0.54397544  0.75046181  1
  O  O90  1  0.66371517  0.52055073  0.24322960  1
  O  O91  1  0.84812416  0.32630718  0.24713414  1
  O  O92  1  0.47390227  0.15135470  0.24299461  1
  O  O93  1  0.63950978  0.49515760  0.92398735  1
  O  O94  1  0.85474743  0.35885390  0.92420500  1
  O  O95  1  0.50427617  0.14557813  0.92447785  1
  O  O96  1  0.62540617  0.14580754  0.42507083  1
  O  O97  1  0.52148347  0.37893561  0.42561295  1
  O  O98  1  0.85765292  0.48107185  0.42578381  1
  O  O99  1  0.34575808  0.50088903  0.06817002  1
  O  O100  1  0.15788176  0.65653461  0.06721805  1
  O  O101  1  0.49983701  0.84220046  0.06713070  1
  O  O102  1  0.34191834  0.84368622  0.57149704  1
  O  O103  1  0.50185122  0.65557040  0.57207913  1
  O  O104  1  0.15793050  0.49738885  0.57155058  1
  O  O105  1  0.29509285  0.81316662  0.25575152  1
  O  O106  1  0.51358535  0.70024587  0.25442233  1
  O  O107  1  0.18690915  0.48337477  0.25604602  1
  O  O108  1  0.29292883  0.47724645  0.75885573  1
  O  O109  1  0.18520691  0.71111745  0.75946243  1
  O  O110  1  0.52645725  0.81681848  0.75948376  1
