# generated using pymatgen
data_Na4LaAlSi2SO12
_symmetry_space_group_name_H-M   'P 1'
_cell_length_a   9.29012599
_cell_length_b   9.23745969
_cell_length_c   22.45405300
_cell_angle_alpha   89.94147313
_cell_angle_beta   90.17185052
_cell_angle_gamma   119.54189628
_symmetry_Int_Tables_number   1
_chemical_formula_structural   Na4LaAlSi2SO12
_chemical_formula_sum   'Na24 La6 Al6 Si12 S6 O72'
_cell_volume   1676.42389018
_cell_formula_units_Z   6
loop_
 _symmetry_equiv_pos_site_id
 _symmetry_equiv_pos_as_xyz
  1  'x, y, z'
loop_
 _atom_site_type_symbol
 _atom_site_label
 _atom_site_symmetry_multiplicity
 _atom_site_fract_x
 _atom_site_fract_y
 _atom_site_fract_z
 _atom_site_occupancy
  Na  Na0  1  0.64741219  0.00037412  0.25737852  1
  Na  Na1  1  0.35234962  0.37109419  0.24731269  1
  Na  Na2  1  0.99493632  0.62935470  0.26257560  1
  Na  Na3  1  0.62529167  0.62500282  0.72324894  1
  Na  Na4  1  0.99063371  0.34931765  0.74728169  1
  Na  Na5  1  0.38923996  0.02314104  0.74535784  1
  Na  Na6  1  0.31232122  0.33388674  0.59239289  1
  Na  Na7  1  0.04221982  0.72127236  0.57536836  1
  Na  Na8  1  0.66562307  0.94509124  0.59081466  1
  Na  Na9  1  0.28323886  0.97212043  0.07933071  1
  Na  Na10  1  0.67332390  0.68852558  0.09830726  1
  Na  Na11  1  0.04943896  0.33847140  0.09631947  1
  Na  Na12  1  0.98982549  0.66999669  0.92565992  1
  Na  Na13  1  0.68769622  0.04100369  0.90053794  1
  Na  Na14  1  0.31662898  0.28922027  0.92348219  1
  Na  Na15  1  0.95473570  0.30665884  0.40674560  1
  Na  Na16  1  0.32800508  0.01949589  0.41808138  1
  Na  Na17  1  0.70160844  0.66609116  0.42441728  1
  Na  Na18  1  0.99197430  0.97528837  0.49971278  1
  Na  Na19  1  0.02038894  0.01199073  0.00239837  1
  Na  Na20  1  0.65414953  0.30955547  0.82900960  1
  Na  Na21  1  0.67563081  0.34017518  0.33662217  1
  Na  Na22  1  0.32307117  0.64704752  0.17699489  1
  Na  Na23  1  0.35180532  0.67863176  0.65932862  1
  La  La24  1  0.01204372  0.02125397  0.83695951  1
  La  La25  1  0.99697897  0.99941361  0.17322803  1
  La  La26  1  0.66809357  0.33243665  0.99123245  1
  La  La27  1  0.32248046  0.65503412  0.02209365  1
  La  La28  1  0.34193085  0.68491391  0.50858140  1
  La  La29  1  0.33511643  0.66311593  0.80940417  1
  Al  Al30  1  0.94469920  0.97276637  0.34730619  1
  Al  Al31  1  0.00228944  0.99327391  0.64579022  1
  Al  Al32  1  0.63948922  0.31558977  0.67802031  1
  Al  Al33  1  0.68803039  0.37890125  0.19037816  1
  Al  Al34  1  0.66235925  0.32885991  0.48444460  1
  Al  Al35  1  0.32586460  0.67137662  0.32323896  1
  Si  Si36  1  0.66866567  0.68841648  0.25416176  1
  Si  Si37  1  0.00153267  0.31352300  0.25488060  1
  Si  Si38  1  0.30758815  0.29499697  0.73780380  1
  Si  Si39  1  0.70846715  0.01778334  0.73558558  1
  Si  Si40  1  0.36980705  0.05294154  0.58077898  1
  Si  Si41  1  0.68187486  0.61822001  0.58232722  1
  Si  Si42  1  0.96926956  0.64035075  0.09144703  1
  Si  Si43  1  0.37663059  0.33178192  0.09563775  1
  Si  Si44  1  0.01498472  0.34829391  0.91336287  1
  Si  Si45  1  0.33186648  0.97868211  0.91600028  1
  Si  Si46  1  0.63619135  0.97678453  0.41737780  1
  Si  Si47  1  0.02587197  0.67998275  0.41415543  1
  S  S48  1  0.31492508  0.99087453  0.25586792  1
  S  S49  1  0.98786560  0.69032787  0.73991812  1
  S  S50  1  0.94141242  0.32110770  0.58022661  1
  S  S51  1  0.66942751  0.03236615  0.09324478  1
  S  S52  1  0.65386807  0.67247446  0.91587405  1
  S  S53  1  0.32973313  0.35731395  0.41512805  1
  O  O54  1  0.21357120  0.01233277  0.30162078  1
  O  O55  1  0.82160052  0.80137166  0.29975435  1
  O  O56  1  0.97129126  0.15454199  0.29917063  1
  O  O57  1  0.25910729  0.21943324  0.80532682  1
  O  O58  1  0.97226744  0.75148872  0.79901842  1
  O  O59  1  0.78927297  0.04463292  0.80242505  1
  O  O60  1  0.82622592  0.99262080  0.68625074  1
  O  O61  1  0.16760034  0.16438180  0.69024301  1
  O  O62  1  0.99430094  0.80514486  0.69215084  1
  O  O63  1  0.71761252  0.79411018  0.19184953  1
  O  O64  1  0.05866752  0.27158778  0.19152692  1
  O  O65  1  0.23642010  0.96457462  0.19663051  1
  O  O66  1  0.85919610  0.33720698  0.63331032  1
  O  O67  1  0.48432923  0.14366678  0.63808164  1
  O  O68  1  0.67329717  0.50273674  0.63889652  1
  O  O69  1  0.84996380  0.52130684  0.14466199  1
  O  O70  1  0.67719709  0.14495575  0.14122737  1
  O  O71  1  0.50143827  0.32605928  0.14764724  1
  O  O72  1  0.43537128  0.31982389  0.02761244  1
  O  O73  1  0.89174701  0.57196165  0.02502983  1
  O  O74  1  0.66834990  0.09772673  0.03300697  1
  O  O75  1  0.46722552  0.16637893  0.52150585  1
  O  O76  1  0.69663453  0.52592051  0.52115967  1
  O  O77  1  0.84628972  0.31245089  0.52461771  1
  O  O78  1  0.56811613  0.67600526  0.97076965  1
  O  O79  1  0.12355192  0.44026000  0.97316859  1
  O  O80  1  0.33429332  0.88214452  0.97732458  1
  O  O81  1  0.59767776  0.87175700  0.47980752  1
  O  O82  1  0.29309789  0.40928010  0.47302467  1
  O  O83  1  0.13056872  0.73665855  0.47707261  1
  O  O84  1  0.14518315  0.65484553  0.36604216  1
  O  O85  1  0.49093602  0.86097742  0.36872329  1
  O  O86  1  0.34699615  0.47808458  0.36813688  1
  O  O87  1  0.11675708  0.44370517  0.85283077  1
  O  O88  1  0.34564554  0.88330063  0.85624110  1
  O  O89  1  0.56204412  0.67808250  0.86240163  1
  O  O90  1  0.99692478  0.84127955  0.39793863  1
  O  O91  1  0.82199158  0.00747294  0.40057476  1
  O  O92  1  0.19238359  0.18690317  0.40218665  1
  O  O93  1  0.98445056  0.15880525  0.91788037  1
  O  O94  1  0.15673768  0.97918151  0.91732853  1
  O  O95  1  0.82071186  0.81753581  0.91644945  1
  O  O96  1  0.95684815  0.16752096  0.58084449  1
  O  O97  1  0.17858137  0.02977347  0.58667952  1
  O  O98  1  0.84590083  0.81106352  0.58901109  1
  O  O99  1  0.98699258  0.82546511  0.09595799  1
  O  O100  1  0.81988977  0.01368818  0.09339676  1
  O  O101  1  0.19004829  0.17082651  0.09980346  1
  O  O102  1  0.69352070  0.18869226  0.72781414  1
  O  O103  1  0.49801028  0.32576165  0.73247859  1
  O  O104  1  0.84684943  0.52039861  0.73382333  1
  O  O105  1  0.66112209  0.50540192  0.24899898  1
  O  O106  1  0.82819804  0.32612160  0.24786390  1
  O  O107  1  0.48459321  0.13686425  0.25656329  1
  O  O108  1  0.66286150  0.51838540  0.91121093  1
  O  O109  1  0.83896022  0.34620083  0.91059273  1
  O  O110  1  0.49025779  0.16624983  0.91280727  1
  O  O111  1  0.64857662  0.16211236  0.42552779  1
  O  O112  1  0.49106173  0.35624052  0.41746249  1
  O  O113  1  0.84754483  0.50322746  0.41957746  1
  O  O114  1  0.37620704  0.50836310  0.10163781  1
  O  O115  1  0.14911587  0.65046130  0.09877318  1
  O  O116  1  0.51811730  0.86861998  0.10024408  1
  O  O117  1  0.34735978  0.86334796  0.58150914  1
  O  O118  1  0.51125712  0.63302150  0.58352078  1
  O  O119  1  0.11148131  0.46860264  0.57783662  1
  O  O120  1  0.32698920  0.83485722  0.26556162  1
  O  O121  1  0.48859613  0.66437636  0.27413132  1
  O  O122  1  0.15866760  0.49377970  0.27432288  1
  O  O123  1  0.31526610  0.47552139  0.73024560  1
  O  O124  1  0.14462815  0.68435716  0.73515789  1
  O  O125  1  0.52454410  0.85203562  0.73288221  1
