# generated using pymatgen
data_Na14Sc4Ta4Si11SO48
_symmetry_space_group_name_H-M   'P 1'
_cell_length_a   18.30980891
_cell_length_b   9.13888552
_cell_length_c   22.38564803
_cell_angle_alpha   89.91707064
_cell_angle_beta   89.99270182
_cell_angle_gamma   120.00732246
_symmetry_Int_Tables_number   1
_chemical_formula_structural   Na14Sc4Ta4Si11SO48
_chemical_formula_sum   'Na42 Sc12 Ta12 Si33 S3 O144'
_cell_volume   3243.72955223
_cell_formula_units_Z   3
loop_
 _symmetry_equiv_pos_site_id
 _symmetry_equiv_pos_as_xyz
  1  'x, y, z'
loop_
 _atom_site_type_symbol
 _atom_site_label
 _atom_site_symmetry_multiplicity
 _atom_site_fract_x
 _atom_site_fract_y
 _atom_site_fract_z
 _atom_site_occupancy
  Na  Na0  1  0.32563614  0.99973387  0.24983208  1
  Na  Na1  1  0.82644855  0.00032842  0.24975567  1
  Na  Na2  1  0.32176546  0.63263829  0.74820874  1
  Na  Na3  1  0.82599386  0.65076234  0.74864196  1
  Na  Na4  1  0.49234633  0.35958809  0.74763634  1
  Na  Na5  1  0.68003000  0.00505673  0.75188271  1
  Na  Na6  1  0.15001813  0.32226778  0.58378682  1
  Na  Na7  1  0.65366064  0.32895209  0.58101464  1
  Na  Na8  1  0.01506685  0.70812008  0.58547647  1
  Na  Na9  1  0.50842229  0.68498086  0.58268510  1
  Na  Na10  1  0.33151609  0.98306129  0.58274393  1
  Na  Na11  1  0.84166524  0.97468251  0.58635185  1
  Na  Na12  1  0.14424527  0.95303971  0.08034960  1
  Na  Na13  1  0.64406187  0.95307892  0.08011911  1
  Na  Na14  1  0.33228022  0.71341436  0.08344999  1
  Na  Na15  1  0.83239168  0.71340923  0.08404977  1
  Na  Na16  1  0.02509857  0.33640897  0.08339456  1
  Na  Na17  1  0.52471508  0.33575797  0.08347718  1
  Na  Na18  1  0.48531181  0.68206210  0.91389860  1
  Na  Na19  1  0.98734188  0.67979630  0.91408529  1
  Na  Na20  1  0.35504321  0.02707556  0.91435925  1
  Na  Na21  1  0.85415419  0.02859350  0.91433581  1
  Na  Na22  1  0.15998770  0.29691546  0.91804744  1
  Na  Na23  1  0.65872623  0.28982623  0.91485401  1
  Na  Na24  1  0.47521708  0.28681977  0.41574138  1
  Na  Na25  1  0.97669821  0.28788204  0.41632469  1
  Na  Na26  1  0.16755014  0.04659003  0.42099348  1
  Na  Na27  1  0.66759318  0.04651680  0.41888138  1
  Na  Na28  1  0.35604035  0.66349734  0.41636197  1
  Na  Na29  1  0.85727041  0.66435335  0.41609365  1
  Na  Na30  1  0.00216156  0.00084333  0.49983548  1
  Na  Na31  1  0.49899662  0.99847887  0.49370556  1
  Na  Na32  1  0.00081368  0.00227725  0.00070232  1
  Na  Na33  1  0.49991625  0.99975239  0.99963385  1
  Na  Na34  1  0.33219365  0.32201550  0.82757033  1
  Na  Na35  1  0.84088757  0.33526967  0.83190220  1
  Na  Na36  1  0.33811981  0.34996414  0.33709215  1
  Na  Na37  1  0.83896450  0.35128097  0.33649190  1
  Na  Na38  1  0.16332341  0.64959253  0.16321124  1
  Na  Na39  1  0.66329093  0.64940902  0.16311650  1
  Na  Na40  1  0.16238807  0.67758060  0.66879024  1
  Na  Na41  1  0.66700459  0.66702453  0.66690914  1
  Sc  Sc42  1  0.99331680  0.99506802  0.35340947  1
  Sc  Sc43  1  0.49280786  0.99444672  0.35261822  1
  Sc  Sc44  1  0.99445425  0.99199719  0.85138529  1
  Sc  Sc45  1  0.50032862  0.00115013  0.85216165  1
  Sc  Sc46  1  0.99764809  0.98938123  0.64836072  1
  Sc  Sc47  1  0.99569854  0.00539907  0.14624467  1
  Sc  Sc48  1  0.49546821  0.00519572  0.14598748  1
  Sc  Sc49  1  0.33348880  0.32518426  0.68126832  1
  Sc  Sc50  1  0.33458619  0.33397756  0.48064453  1
  Sc  Sc51  1  0.83367463  0.33134079  0.47906297  1
  Sc  Sc52  1  0.16670085  0.66630237  0.02120398  1
  Sc  Sc53  1  0.66738346  0.66651278  0.02161164  1
  Ta  Ta54  1  0.49826780  0.99775982  0.64902223  1
  Ta  Ta55  1  0.83680180  0.33635633  0.68551477  1
  Ta  Ta56  1  0.33792161  0.34582865  0.18701527  1
  Ta  Ta57  1  0.83822420  0.34639441  0.18698388  1
  Ta  Ta58  1  0.33369570  0.33563039  0.97815482  1
  Ta  Ta59  1  0.83338233  0.33386598  0.97842749  1
  Ta  Ta60  1  0.16555444  0.66690869  0.52021819  1
  Ta  Ta61  1  0.66712461  0.66607641  0.52035138  1
  Ta  Ta62  1  0.16508851  0.65382446  0.31292385  1
  Ta  Ta63  1  0.66498204  0.65427977  0.31265737  1
  Ta  Ta64  1  0.16624952  0.67475806  0.81621670  1
  Ta  Ta65  1  0.66638993  0.66815796  0.81442949  1
  Si  Si66  1  0.35167032  0.70374462  0.25026645  1
  Si  Si67  1  0.85182061  0.70410432  0.25034945  1
  Si  Si68  1  0.99977748  0.29614889  0.24969426  1
  Si  Si69  1  0.49961592  0.29600926  0.24961043  1
  Si  Si70  1  0.64790454  0.29658508  0.75094559  1
  Si  Si71  1  0.00240918  0.70262806  0.74959387  1
  Si  Si72  1  0.49837647  0.70176596  0.75245287  1
  Si  Si73  1  0.35010470  0.99826747  0.75275469  1
  Si  Si74  1  0.85217882  0.00238647  0.75029394  1
  Si  Si75  1  0.48115624  0.33197820  0.58280731  1
  Si  Si76  1  0.98071003  0.33262069  0.58075843  1
  Si  Si77  1  0.18619460  0.04121239  0.58024800  1
  Si  Si78  1  0.68660408  0.04029904  0.58254994  1
  Si  Si79  1  0.33278316  0.62643871  0.58405796  1
  Si  Si80  1  0.83325778  0.62527169  0.58094284  1
  Si  Si81  1  0.47968666  0.62698008  0.08213454  1
  Si  Si82  1  0.97966791  0.62711690  0.08187017  1
  Si  Si83  1  0.33244083  0.04565610  0.08450356  1
  Si  Si84  1  0.83254211  0.04525270  0.08487826  1
  Si  Si85  1  0.18826498  0.33030139  0.08338604  1
  Si  Si86  1  0.68830430  0.33005662  0.08342203  1
  Si  Si87  1  0.31201161  0.66557747  0.91793230  1
  Si  Si88  1  0.81212768  0.66475750  0.91847104  1
  Si  Si89  1  0.02118739  0.37459840  0.91945790  1
  Si  Si90  1  0.52045986  0.37595143  0.91896079  1
  Si  Si91  1  0.16715748  0.96260029  0.91964494  1
  Si  Si92  1  0.66699814  0.95987426  0.91973203  1
  Si  Si93  1  0.31023690  0.95658988  0.41463955  1
  Si  Si94  1  0.81042447  0.95568112  0.41499350  1
  Si  Si95  1  0.16654772  0.37267149  0.41823683  1
  Si  Si96  1  0.66654344  0.37257058  0.41720762  1
  Si  Si97  1  0.02201513  0.66849392  0.41562071  1
  Si  Si98  1  0.52286645  0.66948665  0.41666647  1
  S  S99  1  0.14874795  -0.00000305  0.25002819  1
  S  S100  1  0.64888040  0.00013830  0.25027190  1
  S  S101  1  0.14774929  0.29890699  0.75138470  1
  O  O102  1  0.10909769  0.01979546  0.30421687  1
  O  O103  1  0.60911380  0.01952130  0.30440425  1
  O  O104  1  0.40592960  0.78323164  0.31091234  1
  O  O105  1  0.90589553  0.78367200  0.31091466  1
  O  O106  1  0.48191178  0.17712640  0.30837973  1
  O  O107  1  0.98142952  0.17695187  0.30840430  1
  O  O108  1  0.10566148  0.19998967  0.80547706  1
  O  O109  1  0.61058884  0.18208319  0.80970447  1
  O  O110  1  0.48766560  0.79115570  0.81079949  1
  O  O111  1  0.98265102  0.78205252  0.80807603  1
  O  O112  1  0.40763534  0.02585769  0.81091463  1
  O  O113  1  0.90441796  0.02679022  0.81093092  1
  O  O114  1  0.40188490  0.97424676  0.69419419  1
  O  O115  1  0.89127152  0.96189689  0.69197647  1
  O  O116  1  0.09939563  0.21939483  0.69648474  1
  O  O117  1  0.58517940  0.19840223  0.69332287  1
  O  O118  1  0.01453203  0.80914777  0.68910721  1
  O  O119  1  0.51288547  0.82877323  0.69390021  1
  O  O120  1  0.39351816  0.82373020  0.19181007  1
  O  O121  1  0.89321680  0.82347146  0.19169907  1
  O  O122  1  0.01393475  0.21576355  0.18920690  1
  O  O123  1  0.51429720  0.21619106  0.18920955  1
  O  O124  1  0.09921000  0.98014467  0.19538895  1
  O  O125  1  0.59910072  0.97995767  0.19548212  1
  O  O126  1  0.44389233  0.37510163  0.64157091  1
  O  O127  1  0.92869151  0.36165440  0.63700088  1
  O  O128  1  0.25152808  0.12351336  0.63539101  1
  O  O129  1  0.74813130  0.13527738  0.64039519  1
  O  O130  1  0.31362015  0.51096700  0.64325165  1
  O  O131  1  0.81775270  0.50105075  0.63979149  1
  O  O132  1  0.42792310  0.50231997  0.13969302  1
  O  O133  1  0.92787989  0.50260756  0.13945680  1
  O  O134  1  0.32314130  0.14310851  0.14333237  1
  O  O135  1  0.82327341  0.14335247  0.14345196  1
  O  O136  1  0.25060221  0.34795107  0.13930032  1
  O  O137  1  0.75070705  0.34797420  0.13925882  1
  O  O138  1  0.23682865  0.31210768  0.02255924  1
  O  O139  1  0.73726081  0.31238743  0.02255072  1
  O  O140  1  0.41948562  0.52933727  0.02284301  1
  O  O141  1  0.91948370  0.52865236  0.02251274  1
  O  O142  1  0.34306284  0.16659571  0.02510016  1
  O  O143  1  0.84291825  0.16587726  0.02521129  1
  O  O144  1  0.22671195  0.15453810  0.52037596  1
  O  O145  1  0.72249972  0.15507281  0.52339609  1
  O  O146  1  0.35623424  0.55220615  0.52596284  1
  O  O147  1  0.84728988  0.53990236  0.52252547  1
  O  O148  1  0.42285767  0.28979013  0.52403435  1
  O  O149  1  0.92284901  0.29485870  0.52190788  1
  O  O150  1  0.26978171  0.69631003  0.97633001  1
  O  O151  1  0.77147076  0.69716247  0.97697454  1
  O  O152  1  0.07600771  0.45269617  0.97931929  1
  O  O153  1  0.57792907  0.45980170  0.97708587  1
  O  O154  1  0.14777100  0.84605488  0.97812468  1
  O  O155  1  0.65245435  0.84612392  0.97813230  1
  O  O156  1  0.25971820  0.83586910  0.47360979  1
  O  O157  1  0.76080069  0.83657743  0.47500251  1
  O  O158  1  0.15460296  0.46885719  0.47750837  1
  O  O159  1  0.65708485  0.47344062  0.47626723  1
  O  O160  1  0.07948444  0.68453236  0.47569703  1
  O  O161  1  0.58021701  0.68643643  0.47776377  1
  O  O162  1  0.07566000  0.65049845  0.35988232  1
  O  O163  1  0.57644198  0.65174155  0.36094013  1
  O  O164  1  0.25203925  0.85813768  0.35603335  1
  O  O165  1  0.75158278  0.85683885  0.35682954  1
  O  O166  1  0.17696538  0.49765154  0.36060833  1
  O  O167  1  0.67640163  0.49678099  0.35989291  1
  O  O168  1  0.07254010  0.50669565  0.86303465  1
  O  O169  1  0.56847012  0.49942906  0.85907926  1
  O  O170  1  0.18350387  0.86270556  0.86209574  1
  O  O171  1  0.67951333  0.86116822  0.86021051  1
  O  O172  1  0.24989331  0.63447520  0.85876230  1
  O  O173  1  0.75043155  0.63826798  0.85885437  1
  O  O174  1  0.01832165  0.84183790  0.41357685  1
  O  O175  1  0.51901159  0.84279384  0.41451175  1
  O  O176  1  0.40166960  0.96580703  0.41537878  1
  O  O177  1  0.90170069  0.96606502  0.41565918  1
  O  O178  1  0.08169178  0.19048080  0.41373497  1
  O  O179  1  0.58099427  0.19116179  0.41445382  1
  O  O180  1  0.00842505  0.18737070  0.91030316  1
  O  O181  1  0.50717515  0.18826385  0.91179241  1
  O  O182  1  0.08882773  0.99371326  0.90796137  1
  O  O183  1  0.58721753  0.98856036  0.91327896  1
  O  O184  1  0.40658210  0.82572624  0.91201601  1
  O  O185  1  0.90685110  0.82558567  0.91182646  1
  O  O186  1  0.49477958  0.16604912  0.59177882  1
  O  O187  1  0.99622262  0.17573649  0.59237731  1
  O  O188  1  0.09232631  0.01729954  0.58772114  1
  O  O189  1  0.59121915  0.01308540  0.59399754  1
  O  O190  1  0.41681668  0.82091342  0.59258539  1
  O  O191  1  0.91382550  0.81390342  0.58770275  1
  O  O192  1  0.48536613  0.80884321  0.08604481  1
  O  O193  1  0.98510872  0.80871472  0.08572602  1
  O  O194  1  0.41881160  0.03535254  0.08410891  1
  O  O195  1  0.91894503  0.03538092  0.08413571  1
  O  O196  1  0.09773407  0.15728255  0.08585533  1
  O  O197  1  0.59785212  0.15719196  0.08584562  1
  O  O198  1  0.34187209  0.16473037  0.74463274  1
  O  O199  1  0.83468705  0.16302009  0.74252724  1
  O  O200  1  0.23423830  0.32357226  0.74892910  1
  O  O201  1  0.74249688  0.32233866  0.74010905  1
  O  O202  1  0.41613477  0.51627344  0.74573263  1
  O  O203  1  0.91444490  0.51320352  0.74193732  1
  O  O204  1  0.33647622  0.51005279  0.24294130  1
  O  O205  1  0.83635829  0.51015199  0.24288348  1
  O  O206  1  0.41165070  0.30870271  0.24398741  1
  O  O207  1  0.91180682  0.30938792  0.24387837  1
  O  O208  1  0.23618348  0.15091057  0.24610547  1
  O  O209  1  0.73617418  0.15070027  0.24625537  1
  O  O210  1  0.31672106  0.48809892  0.92019027  1
  O  O211  1  0.81725314  0.48839000  0.91934452  1
  O  O212  1  0.42754087  0.36700728  0.92039578  1
  O  O213  1  0.92754958  0.36396988  0.92055352  1
  O  O214  1  0.25652072  0.14581627  0.92094025  1
  O  O215  1  0.75654382  0.14515276  0.92025374  1
  O  O216  1  0.31837473  0.14131161  0.41676700  1
  O  O217  1  0.81605501  0.13799727  0.41738634  1
  O  O218  1  0.25358408  0.36820954  0.41910021  1
  O  O219  1  0.75227888  0.36386893  0.41739514  1
  O  O220  1  0.43188946  0.49848275  0.41818832  1
  O  O221  1  0.93068469  0.49747349  0.41725083  1
  O  O222  1  0.18276019  0.50164374  0.08300872  1
  O  O223  1  0.68272381  0.50116435  0.08296488  1
  O  O224  1  0.06959263  0.63502935  0.08261332  1
  O  O225  1  0.56963428  0.63473739  0.08263116  1
  O  O226  1  0.24786276  0.86162882  0.08291077  1
  O  O227  1  0.74806147  0.86130950  0.08366441  1
  O  O228  1  0.17494082  0.84770603  0.57521796  1
  O  O229  1  0.67783881  0.85059123  0.57975236  1
  O  O230  1  0.25018882  0.65393990  0.57622855  1
  O  O231  1  0.74614817  0.64022146  0.57924854  1
  O  O232  1  0.07338595  0.50948860  0.57937023  1
  O  O233  1  0.57706795  0.49980781  0.57672151  1
  O  O234  1  0.16084451  0.84896921  0.25371820  1
  O  O235  1  0.66078187  0.84882615  0.25395398  1
  O  O236  1  0.25728711  0.69084561  0.25616349  1
  O  O237  1  0.75725602  0.69118834  0.25633652  1
  O  O238  1  0.08168639  0.48949487  0.25714471  1
  O  O239  1  0.58129582  0.48970820  0.25734535  1
  O  O240  1  0.15669339  0.47260493  0.75506200  1
  O  O241  1  0.65537100  0.48448484  0.75422240  1
  O  O242  1  0.08531348  0.67746040  0.75830458  1
  O  O243  1  0.58656913  0.69073113  0.75458872  1
  O  O244  1  0.25936193  0.81596074  0.75539006  1
  O  O245  1  0.75555134  0.83019360  0.75711117  1
