# generated using pymatgen
data_Na12Ca4Ta2Si3(PO6)6
_symmetry_space_group_name_H-M   'P 1'
_cell_length_a   9.38226567
_cell_length_b   9.38226532
_cell_length_c   22.81180993
_cell_angle_alpha   90.00000000
_cell_angle_beta   90.00000000
_cell_angle_gamma   120.00000121
_symmetry_Int_Tables_number   1
_chemical_formula_structural   Na12Ca4Ta2Si3(PO6)6
_chemical_formula_sum   'Na24 Ca8 Ta4 Si6 P12 O72'
_cell_volume   1739.02492661
_cell_formula_units_Z   2
loop_
 _symmetry_equiv_pos_site_id
 _symmetry_equiv_pos_as_xyz
  1  'x, y, z'
loop_
 _atom_site_type_symbol
 _atom_site_label
 _atom_site_symmetry_multiplicity
 _atom_site_fract_x
 _atom_site_fract_y
 _atom_site_fract_z
 _atom_site_occupancy
  Na  Na0  1  0.64887200  0.00821954  0.24542666  1
  Na  Na1  1  0.35934754  0.35112800  0.24542666  1
  Na  Na2  1  0.99178046  0.64065246  0.24542666  1
  Na  Na3  1  0.64887200  0.64065246  0.74542666  1
  Na  Na4  1  0.99178046  0.35112800  0.74542666  1
  Na  Na5  1  0.35934754  0.00821954  0.74542666  1
  Na  Na6  1  0.29456904  0.33992207  0.57815269  1
  Na  Na7  1  0.04535403  0.70543096  0.57815269  1
  Na  Na8  1  0.66007793  0.95464597  0.57815269  1
  Na  Na9  1  0.29456904  0.95464597  0.07815269  1
  Na  Na10  1  0.66007793  0.70543096  0.07815269  1
  Na  Na11  1  0.04535403  0.33992207  0.07815269  1
  Na  Na12  1  0.98452054  0.69449107  0.91544649  1
  Na  Na13  1  0.70996954  0.01547946  0.91544649  1
  Na  Na14  1  0.30550893  0.29003046  0.91544649  1
  Na  Na15  1  0.98452054  0.29003046  0.41544649  1
  Na  Na16  1  0.30550893  0.01547946  0.41544649  1
  Na  Na17  1  0.70996954  0.69449107  0.41544649  1
  Na  Na18  1  0.00000000  0.00000000  0.49370561  1
  Na  Na19  1  0.00000000  0.00000000  0.99370561  1
  Na  Na20  1  0.66666700  0.33333300  0.82941628  1
  Na  Na21  1  0.66666700  0.33333300  0.32941628  1
  Na  Na22  1  0.33333300  0.66666700  0.16166840  1
  Na  Na23  1  0.33333300  0.66666700  0.66166840  1
  Ca  Ca24  1  0.00000000  0.00000000  0.34671223  1
  Ca  Ca25  1  0.00000000  0.00000000  0.84671223  1
  Ca  Ca26  1  0.00000000  0.00000000  0.65040202  1
  Ca  Ca27  1  0.00000000  0.00000000  0.15040202  1
  Ca  Ca28  1  0.66666700  0.33333300  0.68308529  1
  Ca  Ca29  1  0.66666700  0.33333300  0.18308529  1
  Ca  Ca30  1  0.33333300  0.66666700  0.01436944  1
  Ca  Ca31  1  0.33333300  0.66666700  0.51436944  1
  Ta  Ta32  1  0.66666700  0.33333300  0.97809919  1
  Ta  Ta33  1  0.66666700  0.33333300  0.47809919  1
  Ta  Ta34  1  0.33333300  0.66666700  0.32339473  1
  Ta  Ta35  1  0.33333300  0.66666700  0.82339473  1
  Si  Si36  1  0.63021821  0.65991447  0.92068898  1
  Si  Si37  1  0.02969527  0.36978179  0.92068898  1
  Si  Si38  1  0.34008553  0.97030473  0.92068898  1
  Si  Si39  1  0.63021821  0.97030473  0.42068898  1
  Si  Si40  1  0.34008553  0.36978179  0.42068898  1
  Si  Si41  1  0.02969527  0.65991447  0.42068898  1
  P  P42  1  0.30681194  0.98656458  0.25277331  1
  P  P43  1  0.67975264  0.69318806  0.25277331  1
  P  P44  1  0.01343542  0.32024736  0.25277331  1
  P  P45  1  0.30681194  0.32024736  0.75277331  1
  P  P46  1  0.01343542  0.69318806  0.75277331  1
  P  P47  1  0.67975264  0.98656458  0.75277331  1
  P  P48  1  0.95550386  0.33099950  0.58194371  1
  P  P49  1  0.37549663  0.04449614  0.58194371  1
  P  P50  1  0.66900050  0.62450337  0.58194371  1
  P  P51  1  0.95550386  0.62450337  0.08194371  1
  P  P52  1  0.66900050  0.04449614  0.08194371  1
  P  P53  1  0.37549663  0.33099950  0.08194371  1
  O  O54  1  0.22552672  0.01308341  0.30623119  1
  O  O55  1  0.78755669  0.77447328  0.30623119  1
  O  O56  1  0.98691659  0.21244331  0.30623119  1
  O  O57  1  0.22552672  0.21244331  0.80623119  1
  O  O58  1  0.98691659  0.77447328  0.80623119  1
  O  O59  1  0.78755669  0.01308341  0.80623119  1
  O  O60  1  0.75203956  0.95362230  0.69674087  1
  O  O61  1  0.20158274  0.24796044  0.69674087  1
  O  O62  1  0.04637770  0.79841726  0.69674087  1
  O  O63  1  0.75203956  0.79841726  0.19674087  1
  O  O64  1  0.04637770  0.24796044  0.19674087  1
  O  O65  1  0.20158274  0.95362230  0.19674087  1
  O  O66  1  0.87910134  0.34254124  0.63894336  1
  O  O67  1  0.46344090  0.12089866  0.63894336  1
  O  O68  1  0.65745876  0.53655910  0.63894336  1
  O  O69  1  0.87910134  0.53655910  0.13894336  1
  O  O70  1  0.65745876  0.12089866  0.13894336  1
  O  O71  1  0.46344090  0.34254124  0.13894336  1
  O  O72  1  0.48713413  0.32891413  0.02827215  1
  O  O73  1  0.84178100  0.51286587  0.02827215  1
  O  O74  1  0.67108587  0.15821900  0.02827215  1
  O  O75  1  0.48713413  0.15821900  0.52827215  1
  O  O76  1  0.67108587  0.51286587  0.52827215  1
  O  O77  1  0.84178100  0.32891413  0.52827215  1
  O  O78  1  0.56225565  0.69586976  0.97899835  1
  O  O79  1  0.13361311  0.43774435  0.97899835  1
  O  O80  1  0.30413024  0.86638689  0.97899835  1
  O  O81  1  0.56225565  0.86638689  0.47899835  1
  O  O82  1  0.30413024  0.43774435  0.47899835  1
  O  O83  1  0.13361311  0.69586976  0.47899835  1
  O  O84  1  0.13917197  0.63528044  0.36480996  1
  O  O85  1  0.49610747  0.86082803  0.36480996  1
  O  O86  1  0.36471956  0.50389253  0.36480996  1
  O  O87  1  0.13917197  0.50389253  0.86480996  1
  O  O88  1  0.36471956  0.86082803  0.86480996  1
  O  O89  1  0.49610747  0.63528044  0.86480996  1
  O  O90  1  0.99182947  0.80589770  0.40841888  1
  O  O91  1  0.81406823  0.00817053  0.40841888  1
  O  O92  1  0.19410230  0.18593177  0.40841888  1
  O  O93  1  0.99182947  0.18593177  0.90841888  1
  O  O94  1  0.19410230  0.00817053  0.90841888  1
  O  O95  1  0.81406823  0.80589770  0.90841888  1
  O  O96  1  0.95844573  0.16741102  0.57637284  1
  O  O97  1  0.20896529  0.04155427  0.57637284  1
  O  O98  1  0.83258898  0.79103471  0.57637284  1
  O  O99  1  0.95844573  0.79103471  0.07637284  1
  O  O100  1  0.83258898  0.04155427  0.07637284  1
  O  O101  1  0.20896529  0.16741102  0.07637284  1
  O  O102  1  0.64899556  0.13354633  0.74882451  1
  O  O103  1  0.48455177  0.35100444  0.74882451  1
  O  O104  1  0.86645367  0.51544823  0.74882451  1
  O  O105  1  0.64899556  0.51544823  0.24882451  1
  O  O106  1  0.86645367  0.35100444  0.24882451  1
  O  O107  1  0.48455177  0.13354633  0.24882451  1
  O  O108  1  0.62824998  0.47875863  0.92394011  1
  O  O109  1  0.85050965  0.37175002  0.92394011  1
  O  O110  1  0.52124137  0.14949035  0.92394011  1
  O  O111  1  0.62824998  0.14949035  0.42394011  1
  O  O112  1  0.52124137  0.37175002  0.42394011  1
  O  O113  1  0.85050965  0.47875863  0.42394011  1
  O  O114  1  0.35441733  0.48358280  0.07892300  1
  O  O115  1  0.12916447  0.64558267  0.07892300  1
  O  O116  1  0.51641720  0.87083553  0.07892300  1
  O  O117  1  0.35441733  0.87083553  0.57892300  1
  O  O118  1  0.51641720  0.64558267  0.57892300  1
  O  O119  1  0.12916447  0.48358280  0.57892300  1
  O  O120  1  0.31911566  0.82366447  0.26147521  1
  O  O121  1  0.50454781  0.68088434  0.26147521  1
  O  O122  1  0.17633553  0.49545219  0.26147521  1
  O  O123  1  0.31911566  0.49545219  0.76147521  1
  O  O124  1  0.17633553  0.68088434  0.76147521  1
  O  O125  1  0.50454781  0.82366447  0.76147521  1
