# generated using pymatgen
data_Na6La4Nb4Si7S5O48
_symmetry_space_group_name_H-M   'P 1'
_cell_length_a   18.48656515
_cell_length_b   9.21461317
_cell_length_c   23.68319946
_cell_angle_alpha   90.24802382
_cell_angle_beta   89.50146519
_cell_angle_gamma   119.99057791
_symmetry_Int_Tables_number   1
_chemical_formula_structural   Na6La4Nb4Si7S5O48
_chemical_formula_sum   'Na18 La12 Nb12 Si21 S15 O144'
_cell_volume   3494.05006334
_cell_formula_units_Z   3
loop_
 _symmetry_equiv_pos_site_id
 _symmetry_equiv_pos_as_xyz
  1  'x, y, z'
loop_
 _atom_site_type_symbol
 _atom_site_label
 _atom_site_symmetry_multiplicity
 _atom_site_fract_x
 _atom_site_fract_y
 _atom_site_fract_z
 _atom_site_occupancy
  Na  Na0  1  0.00304397  0.61472883  0.25832768  1
  Na  Na1  1  0.49846507  0.62949469  0.26363426  1
  Na  Na2  1  0.99760819  0.37221668  0.75334991  1
  Na  Na3  1  0.50357106  0.39188111  0.75387508  1
  Na  Na4  1  0.33099385  0.98450866  0.57232138  1
  Na  Na5  1  0.82962140  0.67436753  0.07554423  1
  Na  Na6  1  0.00223457  0.97596543  0.50354425  1
  Na  Na7  1  0.50094296  0.01672492  0.49326073  1
  Na  Na8  1  0.99472774  0.98122652  0.99479657  1
  Na  Na9  1  0.50360013  0.02997279  0.00718446  1
  Na  Na10  1  0.32357296  0.36010539  0.82818575  1
  Na  Na11  1  0.83155443  0.33394675  0.83788456  1
  Na  Na12  1  0.33302751  0.33204225  0.34120198  1
  Na  Na13  1  0.82161875  0.28764826  0.33033687  1
  Na  Na14  1  0.17293313  0.65232531  0.17793631  1
  Na  Na15  1  0.66420129  0.66510192  0.16941685  1
  Na  Na16  1  0.16331113  0.66708687  0.66058697  1
  Na  Na17  1  0.67292504  0.69537440  0.66761537  1
  La  La18  1  0.50743889  0.99416579  0.64113810  1
  La  La19  1  0.00630689  0.01786461  0.14312858  1
  La  La20  1  0.33662436  0.34955029  0.68701045  1
  La  La21  1  0.82067716  0.32932389  0.68423037  1
  La  La22  1  0.32145597  0.31561465  0.18746923  1
  La  La23  1  0.83629373  0.32502850  0.18857996  1
  La  La24  1  0.66451134  0.64339713  0.00506641  1
  La  La25  1  0.16094109  0.68179292  0.50462565  1
  La  La26  1  0.17741711  0.66848067  0.31989966  1
  La  La27  1  0.66806885  0.68300465  0.32537027  1
  La  La28  1  0.16632776  0.64191404  0.82125511  1
  La  La29  1  0.67661580  0.68486698  0.81840232  1
  Nb  Nb30  1  0.98916034  0.00788626  0.35770069  1
  Nb  Nb31  1  0.50187318  0.98045488  0.35938355  1
  Nb  Nb32  1  0.99349411  0.01768851  0.85363723  1
  Nb  Nb33  1  0.49022008  0.97194713  0.85755136  1
  Nb  Nb34  1  0.00003696  0.99973482  0.64304974  1
  Nb  Nb35  1  0.50061119  0.00491393  0.14613389  1
  Nb  Nb36  1  0.34314373  0.33043520  0.98069385  1
  Nb  Nb37  1  0.83494613  0.34788908  0.98547825  1
  Nb  Nb38  1  0.33546720  0.32102187  0.48615381  1
  Nb  Nb39  1  0.83481723  0.35530021  0.47636208  1
  Nb  Nb40  1  0.16845503  0.67013250  0.01457174  1
  Nb  Nb41  1  0.66631908  0.65020387  0.51095385  1
  Si  Si42  1  0.63952310  0.99833989  0.24931255  1
  Si  Si43  1  0.36219981  0.72257213  0.24975048  1
  Si  Si44  1  0.00246993  0.30084167  0.25392761  1
  Si  Si45  1  0.13938760  0.27468878  0.74883696  1
  Si  Si46  1  0.50264656  0.70456003  0.75317971  1
  Si  Si47  1  0.85815289  0.00308102  0.74638591  1
  Si  Si48  1  0.48718994  0.34278766  0.58387404  1
  Si  Si49  1  0.18511775  0.03939025  0.58559117  1
  Si  Si50  1  0.83071302  0.63240717  0.58210607  1
  Si  Si51  1  0.98651715  0.63249682  0.08262007  1
  Si  Si52  1  0.33222310  0.03110413  0.08251644  1
  Si  Si53  1  0.68479076  0.32861974  0.08523056  1
  Si  Si54  1  0.31426449  0.65012820  0.91954363  1
  Si  Si55  1  0.82876152  0.67050768  0.91863176  1
  Si  Si56  1  0.01225946  0.36754911  0.91840358  1
  Si  Si57  1  0.51156131  0.34926822  0.90915720  1
  Si  Si58  1  0.32592439  0.98231742  0.41876707  1
  Si  Si59  1  0.81380694  0.97781686  0.42075072  1
  Si  Si60  1  0.66557669  0.36274779  0.41408406  1
  Si  Si61  1  0.01020783  0.67245479  0.40882991  1
  Si  Si62  1  0.51154256  0.65313313  0.41904637  1
  S  S63  1  0.14165013  0.00144181  0.25748712  1
  S  S64  1  0.85723397  0.71812610  0.25378998  1
  S  S65  1  0.50227889  0.28028801  0.24823758  1
  S  S66  1  0.64133345  0.27907088  0.75814915  1
  S  S67  1  0.00179311  0.72698778  0.74882585  1
  S  S68  1  0.35828683  0.99822477  0.75462211  1
  S  S69  1  0.98132863  0.32454899  0.58493009  1
  S  S70  1  0.69040903  0.02918475  0.57340260  1
  S  S71  1  0.32842070  0.63006950  0.57664915  1
  S  S72  1  0.47854526  0.63373621  0.08250549  1
  S  S73  1  0.83005762  0.02965462  0.07637149  1
  S  S74  1  0.18946304  0.34866277  0.07353952  1
  S  S75  1  0.16977652  0.97444280  0.92158239  1
  S  S76  1  0.66555300  0.99470077  0.91751605  1
  S  S77  1  0.16595191  0.33582739  0.41771257  1
  O  O78  1  0.08666004  0.99449022  0.30404198  1
  O  O79  1  0.58544558  0.99321673  0.30678706  1
  O  O80  1  0.41576290  0.82388657  0.30698568  1
  O  O81  1  0.90527904  0.83264747  0.30189177  1
  O  O82  1  0.50085293  0.18498295  0.29724917  1
  O  O83  1  0.00432219  0.18525855  0.30957171  1
  O  O84  1  0.08430287  0.16973276  0.80657594  1
  O  O85  1  0.58691856  0.17638798  0.80520197  1
  O  O86  1  0.50409868  0.82308621  0.80983072  1
  O  O87  1  0.00007671  0.82041855  0.79894735  1
  O  O88  1  0.40616536  0.97999100  0.80286126  1
  O  O89  1  0.90990123  0.00611624  0.80727896  1
  O  O90  1  0.39699834  0.99431921  0.70059464  1
  O  O91  1  0.91597001  0.99979085  0.69288516  1
  O  O92  1  0.08416558  0.16273994  0.69301074  1
  O  O93  1  0.60548137  0.20285112  0.70296491  1
  O  O94  1  0.00076021  0.81037218  0.69494272  1
  O  O95  1  0.49945601  0.80200437  0.69735618  1
  O  O96  1  0.41577413  0.83446657  0.19228538  1
  O  O97  1  0.89795337  0.79739827  0.19959200  1
  O  O98  1  0.99976106  0.19862516  0.19715288  1
  O  O99  1  0.50013977  0.19170887  0.19309571  1
  O  O100  1  0.10718914  0.00872936  0.20192862  1
  O  O101  1  0.58412669  0.00646447  0.19306468  1
  O  O102  1  0.45872165  0.36675742  0.64607418  1
  O  O103  1  0.94418770  0.33978663  0.63893746  1
  O  O104  1  0.24433665  0.12365344  0.63901257  1
  O  O105  1  0.72431175  0.08709330  0.63104537  1
  O  O106  1  0.32895644  0.55586917  0.63119804  1
  O  O107  1  0.80969171  0.52463888  0.63958696  1
  O  O108  1  0.44011599  0.53999501  0.13469180  1
  O  O109  1  0.96161133  0.55076438  0.14426801  1
  O  O110  1  0.30837940  0.09702807  0.13855983  1
  O  O111  1  0.83107344  0.10675288  0.13070544  1
  O  O112  1  0.22497888  0.36420703  0.13008602  1
  O  O113  1  0.74617357  0.36711082  0.13752306  1
  O  O114  1  0.24483067  0.34340722  0.02986078  1
  O  O115  1  0.73719215  0.31332649  0.02820737  1
  O  O116  1  0.42651114  0.53499769  0.03239730  1
  O  O117  1  0.91375321  0.49910195  0.03609772  1
  O  O118  1  0.34446705  0.16853840  0.03076323  1
  O  O119  1  0.82726694  0.12934976  0.02852388  1
  O  O120  1  0.23650127  0.15900188  0.52918795  1
  O  O121  1  0.74726736  0.15010484  0.53155347  1
  O  O122  1  0.32600284  0.52382541  0.52908956  1
  O  O123  1  0.84568208  0.52319493  0.53114638  1
  O  O124  1  0.41363847  0.32880038  0.53742955  1
  O  O125  1  0.93057550  0.31360934  0.53613273  1
  O  O126  1  0.26278568  0.68938934  0.96817945  1
  O  O127  1  0.79959519  0.71764330  0.97711356  1
  O  O128  1  0.08659408  0.48732935  0.96420229  1
  O  O129  1  0.56477172  0.40994089  0.96606029  1
  O  O130  1  0.15894784  0.85934690  0.96906897  1
  O  O131  1  0.64688638  0.88699150  0.96698332  1
  O  O132  1  0.29460960  0.87786693  0.47729089  1
  O  O133  1  0.76227555  0.83243355  0.46791482  1
  O  O134  1  0.14765303  0.40705031  0.46740048  1
  O  O135  1  0.65300725  0.46454683  0.46819821  1
  O  O136  1  0.06495095  0.72465148  0.46538563  1
  O  O137  1  0.58455217  0.68206263  0.46475255  1
  O  O138  1  0.04668533  0.62619248  0.35474667  1
  O  O139  1  0.53202246  0.60494038  0.35756575  1
  O  O140  1  0.26174838  0.90641418  0.36763502  1
  O  O141  1  0.76616920  0.93074777  0.36169314  1
  O  O142  1  0.18125757  0.43660287  0.36676092  1
  O  O143  1  0.69150186  0.47849738  0.35962673  1
  O  O144  1  0.03513807  0.45974982  0.85750907  1
  O  O145  1  0.54574666  0.46670032  0.85496833  1
  O  O146  1  0.18910028  0.91621137  0.86914136  1
  O  O147  1  0.68065530  0.92428086  0.86634517  1
  O  O148  1  0.26447481  0.60364645  0.86129214  1
  O  O149  1  0.76591136  0.62679061  0.86714615  1
  O  O150  1  0.99000938  0.82550285  0.39679930  1
  O  O151  1  0.50614574  0.82921802  0.41357632  1
  O  O152  1  0.41864883  0.00860530  0.40296935  1
  O  O153  1  0.90959130  0.99940588  0.41051112  1
  O  O154  1  0.09001222  0.16270225  0.40924042  1
  O  O155  1  0.58437770  0.17674594  0.40716037  1
  O  O156  1  0.00684746  0.17941904  0.91127230  1
  O  O157  1  0.48960266  0.15491274  0.89807086  1
  O  O158  1  0.09496052  0.99117261  0.91784706  1
  O  O159  1  0.59013335  0.01746059  0.90934046  1
  O  O160  1  0.40940606  0.81818039  0.91027270  1
  O  O161  1  0.92460377  0.82687956  0.90280038  1
  O  O162  1  0.48335803  0.16345760  0.57495224  1
  O  O163  1  0.98511010  0.16273017  0.58683533  1
  O  O164  1  0.09095804  0.02296738  0.59119732  1
  O  O165  1  0.60773329  0.01769870  0.56819735  1
  O  O166  1  0.40517495  0.79828886  0.57097374  1
  O  O167  1  0.91796902  0.81647773  0.59121941  1
  O  O168  1  0.47969862  0.79761566  0.08305369  1
  O  O169  1  0.98344454  0.80424175  0.07387823  1
  O  O170  1  0.41765936  0.01947275  0.08963394  1
  O  O171  1  0.90668842  0.01481838  0.07043283  1
  O  O172  1  0.10650024  0.19805742  0.06842005  1
  O  O173  1  0.59130309  0.15630167  0.09037804  1
  O  O174  1  0.36217081  0.16097747  0.76212930  1
  O  O175  1  0.86025488  0.18144564  0.74976615  1
  O  O176  1  0.22997748  0.29520269  0.75352712  1
  O  O177  1  0.72480136  0.29440454  0.76422295  1
  O  O178  1  0.41968996  0.52304580  0.76228689  1
  O  O179  1  0.92700262  0.55512166  0.75009374  1
  O  O180  1  0.36215732  0.54458060  0.24905208  1
  O  O181  1  0.86057926  0.56272229  0.26141444  1
  O  O182  1  0.42679411  0.30033145  0.24836941  1
  O  O183  1  0.91967785  0.31697786  0.26272307  1
  O  O184  1  0.22525856  0.15337202  0.26434840  1
  O  O185  1  0.72982278  0.16255450  0.25214462  1
  O  O186  1  0.33244658  0.49968343  0.93791155  1
  O  O187  1  0.84032264  0.50341498  0.93031953  1
  O  O188  1  0.41709092  0.32854757  0.92796722  1
  O  O189  1  0.91869520  0.32149893  0.93942127  1
  O  O190  1  0.24289775  0.14573130  0.93527474  1
  O  O191  1  0.73907104  0.16376138  0.92529916  1
  O  O192  1  0.34038321  0.17516431  0.43129191  1
  O  O193  1  0.83598240  0.16609243  0.44028479  1
  O  O194  1  0.23896847  0.31282896  0.42543117  1
  O  O195  1  0.74310326  0.33214559  0.43567669  1
  O  O196  1  0.41729076  0.51151510  0.44016184  1
  O  O197  1  0.91617246  0.50747415  0.42596618  1
  O  O198  1  0.17990039  0.50055873  0.06681390  1
  O  O199  1  0.67562086  0.49413538  0.07674199  1
  O  O200  1  0.07776445  0.65422465  0.06097147  1
  O  O201  1  0.56345277  0.66234916  0.07593574  1
  O  O202  1  0.25228838  0.84971805  0.06176652  1
  O  O203  1  0.75619741  0.85885950  0.07621714  1
  O  O204  1  0.17495444  0.85444949  0.57804026  1
  O  O205  1  0.68096272  0.86126690  0.56669099  1
  O  O206  1  0.25481756  0.65338082  0.57635726  1
  O  O207  1  0.75209757  0.65727587  0.56413554  1
  O  O208  1  0.06774683  0.46537145  0.58042474  1
  O  O209  1  0.57766877  0.50635135  0.56565234  1
  O  O210  1  0.14782173  0.84809544  0.25634784  1
  O  O211  1  0.63550281  0.81785526  0.24456764  1
  O  O212  1  0.27141678  0.70400948  0.24666636  1
  O  O213  1  0.77212499  0.69083208  0.25411062  1
  O  O214  1  0.08521014  0.48509550  0.25153086  1
  O  O215  1  0.57714914  0.44874728  0.24509576  1
  O  O216  1  0.13551665  0.44908272  0.74713654  1
  O  O217  1  0.64747722  0.44457167  0.75807652  1
  O  O218  1  0.07738572  0.70944205  0.74823208  1
  O  O219  1  0.58518036  0.68564704  0.75117360  1
  O  O220  1  0.27198991  0.85716852  0.75713989  1
  O  O221  1  0.76894505  0.83751101  0.74485016  1
