# generated using pymatgen
data_NaLaGeP2SO12
_symmetry_space_group_name_H-M   'P 1'
_cell_length_a   8.78770437
_cell_length_b   9.24934133
_cell_length_c   23.17751519
_cell_angle_alpha   84.80909902
_cell_angle_beta   90.00000000
_cell_angle_gamma   118.36227183
_symmetry_Int_Tables_number   1
_chemical_formula_structural   NaLaGeP2SO12
_chemical_formula_sum   'Na6 La6 Ge6 P12 S6 O72'
_cell_volume   1648.95612424
_cell_formula_units_Z   6
loop_
 _symmetry_equiv_pos_site_id
 _symmetry_equiv_pos_as_xyz
  1  'x, y, z'
loop_
 _atom_site_type_symbol
 _atom_site_label
 _atom_site_symmetry_multiplicity
 _atom_site_fract_x
 _atom_site_fract_y
 _atom_site_fract_z
 _atom_site_occupancy
  Na  Na0  1  0.97273259  0.96540597  0.49371650  1
  Na  Na1  1  0.99267338  0.96540597  0.99371650  1
  Na  Na2  1  0.63939959  0.29873897  0.82704950  1
  Na  Na3  1  0.65934038  0.29873897  0.32704950  1
  Na  Na4  1  0.30606559  0.63207297  0.16038350  1
  Na  Na5  1  0.32600638  0.63207297  0.66038350  1
  La  La6  1  0.99605780  0.00839338  0.63876602  1
  La  La7  1  0.01233558  0.00839338  0.13876602  1
  La  La8  1  0.66272480  0.34172638  0.97209902  1
  La  La9  1  0.67900258  0.34172638  0.47209902  1
  La  La10  1  0.32939080  0.67506038  0.30543302  1
  La  La11  1  0.34566858  0.67506038  0.80543302  1
  Ge  Ge12  1  0.02435456  0.03511304  0.35765748  1
  Ge  Ge13  1  0.01075848  0.03511304  0.85765748  1
  Ge  Ge14  1  0.69102156  0.36844604  0.69099048  1
  Ge  Ge15  1  0.67742548  0.36844604  0.19099048  1
  Ge  Ge16  1  0.35768756  0.70178004  0.02432448  1
  Ge  Ge17  1  0.34409148  0.70178004  0.52432448  1
  P  P18  1  0.31501420  0.05362375  0.25256925  1
  P  P19  1  0.97153797  0.27207216  0.24825831  1
  P  P20  1  0.30053419  0.27207216  0.74825831  1
  P  P21  1  0.73860955  0.05362375  0.75256925  1
  P  P22  1  0.98168120  0.38695675  0.58590225  1
  P  P23  1  0.63820497  0.60540516  0.58159131  1
  P  P24  1  0.96720119  0.60540516  0.08159131  1
  P  P25  1  0.40527655  0.38695675  0.08590225  1
  P  P26  1  0.64834720  0.72029075  0.91923625  1
  P  P27  1  0.30487097  0.93873916  0.91492531  1
  P  P28  1  0.63386719  0.93873916  0.41492531  1
  P  P29  1  0.07194255  0.72029075  0.41923625  1
  S  S30  1  0.71789192  0.67954196  0.24952472  1
  S  S31  1  0.96165003  0.67954196  0.74952472  1
  S  S32  1  0.38455892  0.01287496  0.58285772  1
  S  S33  1  0.62831703  0.01287496  0.08285772  1
  S  S34  1  0.05122492  0.34620896  0.91619172  1
  S  S35  1  0.29498303  0.34620896  0.41619172  1
  O  O36  1  0.21178011  0.06157625  0.30778776  1
  O  O37  1  0.80434759  0.75051474  0.30129105  1
  O  O38  1  0.94854701  0.16126438  0.30929626  1
  O  O39  1  0.21271737  0.16126438  0.80929626  1
  O  O40  1  0.94616716  0.75051474  0.80129105  1
  O  O41  1  0.84979614  0.06157625  0.80778776  1
  O  O42  1  0.80981034  0.02129415  0.69894534  1
  O  O43  1  0.19525737  0.18887109  0.69844765  1
  O  O44  1  0.98427252  0.77996299  0.69486274  1
  O  O45  1  0.79569047  0.77996299  0.19486274  1
  O  O46  1  0.99361372  0.18887109  0.19844765  1
  O  O47  1  0.21148381  0.02129415  0.19894534  1
  O  O48  1  0.87844711  0.39490925  0.64112076  1
  O  O49  1  0.47101459  0.08384774  0.63462405  1
  O  O50  1  0.61521401  0.49459738  0.64262926  1
  O  O51  1  0.87938437  0.49459738  0.14262926  1
  O  O52  1  0.61283416  0.08384774  0.13462405  1
  O  O53  1  0.51646314  0.39490925  0.14112076  1
  O  O54  1  0.47647734  0.35462715  0.03227834  1
  O  O55  1  0.86192437  0.52220409  0.03178065  1
  O  O56  1  0.65093952  0.11329599  0.02819574  1
  O  O57  1  0.46235747  0.11329599  0.52819574  1
  O  O58  1  0.66028072  0.52220409  0.53178065  1
  O  O59  1  0.87815081  0.35462715  0.53227834  1
  O  O60  1  0.54511311  0.72824325  0.97445476  1
  O  O61  1  0.13768059  0.41718174  0.96795805  1
  O  O62  1  0.28188001  0.82793138  0.97596326  1
  O  O63  1  0.54605037  0.82793138  0.47596326  1
  O  O64  1  0.27950016  0.41718174  0.46795805  1
  O  O65  1  0.18312914  0.72824325  0.47445476  1
  O  O66  1  0.14314334  0.68796115  0.36561234  1
  O  O67  1  0.52859037  0.85553809  0.36511465  1
  O  O68  1  0.31760552  0.44662999  0.36152974  1
  O  O69  1  0.12902347  0.44662999  0.86152974  1
  O  O70  1  0.32694672  0.85553809  0.86511465  1
  O  O71  1  0.54481681  0.68796115  0.86561234  1
  O  O72  1  0.07857120  0.89486425  0.41084840  1
  O  O73  1  0.81682937  0.94165142  0.40945210  1
  O  O74  1  0.12000379  0.18528269  0.41410523  1
  O  O75  1  0.06527890  0.18528269  0.91410523  1
  O  O76  1  0.12482205  0.94165142  0.90945210  1
  O  O77  1  0.81629305  0.89486425  0.91084840  1
  O  O78  1  0.03653014  0.25435445  0.59543535  1
  O  O79  1  0.19824476  0.96394474  0.58360904  1
  O  O80  1  0.78351339  0.78226862  0.58542680  1
  O  O81  1  0.99875523  0.78226862  0.08542680  1
  O  O82  1  0.76569998  0.96394474  0.08360904  1
  O  O83  1  0.21782431  0.25435445  0.09543535  1
  O  O84  1  0.74523820  0.22819725  0.74418140  1
  O  O85  1  0.48349637  0.27498442  0.74278510  1
  O  O86  1  0.78667079  0.51861569  0.74743823  1
  O  O87  1  0.73194590  0.51861569  0.24743823  1
  O  O88  1  0.79148905  0.27498442  0.24278510  1
  O  O89  1  0.48296005  0.22819725  0.24418140  1
  O  O90  1  0.70319714  0.58768745  0.92876835  1
  O  O91  1  0.86491176  0.29727774  0.91694204  1
  O  O92  1  0.45018039  0.11560162  0.91875980  1
  O  O93  1  0.66542223  0.11560162  0.41875980  1
  O  O94  1  0.43236698  0.29727774  0.41694204  1
  O  O95  1  0.88449131  0.58768745  0.42876835  1
  O  O96  1  0.41190420  0.56153125  0.07751540  1
  O  O97  1  0.15016237  0.60831842  0.07611910  1
  O  O98  1  0.45333679  0.85194969  0.08077223  1
  O  O99  1  0.39861190  0.85194969  0.58077223  1
  O  O100  1  0.45815505  0.60831842  0.57611910  1
  O  O101  1  0.14962605  0.56153125  0.57751540  1
  O  O102  1  0.36986314  0.92102145  0.26210235  1
  O  O103  1  0.53157776  0.63061174  0.25027604  1
  O  O104  1  0.11684639  0.44893562  0.25209380  1
  O  O105  1  0.33208823  0.44893562  0.75209380  1
  O  O106  1  0.09903298  0.63061174  0.75027604  1
  O  O107  1  0.55115731  0.92102145  0.76210235  1
