# generated using pymatgen
data_MgMn6(OF)6
_symmetry_space_group_name_H-M   'P 1'
_cell_length_a   5.76047855
_cell_length_b   8.16148126
_cell_length_c   6.09700256
_cell_angle_alpha   100.83535680
_cell_angle_beta   114.04142934
_cell_angle_gamma   71.70785561
_symmetry_Int_Tables_number   1
_chemical_formula_structural   MgMn6(OF)6
_chemical_formula_sum   'Mg1 Mn6 O6 F6'
_cell_volume   247.95238084
_cell_formula_units_Z   1
loop_
 _symmetry_equiv_pos_site_id
 _symmetry_equiv_pos_as_xyz
  1  'x, y, z'
loop_
 _atom_site_type_symbol
 _atom_site_label
 _atom_site_symmetry_multiplicity
 _atom_site_fract_x
 _atom_site_fract_y
 _atom_site_fract_z
 _atom_site_occupancy
  Mg  Mg0  1  0.96854195  0.65630341  0.15893940  1
  Mn  Mn1  1  0.60164598  0.07037521  0.39559966  1
  Mn  Mn2  1  0.48040866  0.66722361  0.15928165  1
  Mn  Mn3  1  0.45309971  0.29089589  0.89270735  1
  Mn  Mn4  1  0.98832779  0.67593479  0.68018836  1
  Mn  Mn5  1  0.00098543  0.32646016  0.33696697  1
  Mn  Mn6  1  0.00169264  0.99994649  0.01252192  1
  O  O7  1  0.79223540  0.15558888  0.18828079  1
  O  O8  1  0.74274656  0.79410430  0.36790198  1
  O  O9  1  0.74048119  0.48574642  0.08373006  1
  O  O10  1  0.21535509  0.54115654  0.96949888  1
  O  O11  1  0.29725939  0.18714756  0.55153371  1
  O  O12  1  0.19474897  0.83587132  0.84617424  1
  F  F13  1  0.79421645  0.49931231  0.55403775  1
  F  F14  1  0.76032789  0.82286491  0.90345261  1
  F  F15  1  0.80671851  0.15097099  0.74427144  1
  F  F16  1  0.20457382  0.82851008  0.28431450  1
  F  F17  1  0.19738656  0.51764139  0.44351063  1
  F  F18  1  0.25924803  0.16894674  0.09375509  1
