# generated using pymatgen
data_Na7La2In2SiP5O24
_symmetry_space_group_name_H-M   'P 1'
_cell_length_a   9.45769604
_cell_length_b   9.42881211
_cell_length_c   22.92327801
_cell_angle_alpha   89.90722521
_cell_angle_beta   90.03290401
_cell_angle_gamma   119.92706868
_symmetry_Int_Tables_number   1
_chemical_formula_structural   Na7La2In2SiP5O24
_chemical_formula_sum   'Na21 La6 In6 Si3 P15 O72'
_cell_volume   1771.60867380
_cell_formula_units_Z   3
loop_
 _symmetry_equiv_pos_site_id
 _symmetry_equiv_pos_as_xyz
  1  'x, y, z'
loop_
 _atom_site_type_symbol
 _atom_site_label
 _atom_site_symmetry_multiplicity
 _atom_site_fract_x
 _atom_site_fract_y
 _atom_site_fract_z
 _atom_site_occupancy
  Na  Na0  1  0.36930809  0.37115498  0.25348625  1
  Na  Na1  1  0.00367093  0.63424710  0.24998337  1
  Na  Na2  1  0.63334932  0.65155817  0.75056086  1
  Na  Na3  1  0.99884647  0.36203240  0.75855150  1
  Na  Na4  1  0.35994327  0.98276392  0.75116004  1
  Na  Na5  1  0.30296844  0.33267480  0.57594127  1
  Na  Na6  1  0.04441280  0.69159734  0.57682208  1
  Na  Na7  1  0.64571615  0.96191205  0.58323221  1
  Na  Na8  1  0.30194939  0.96902683  0.08366456  1
  Na  Na9  1  0.68030573  0.69795981  0.08344094  1
  Na  Na10  1  0.03123895  0.34563298  0.08560758  1
  Na  Na11  1  0.96227371  0.66556564  0.92195285  1
  Na  Na12  1  0.70305820  0.03574644  0.91392284  1
  Na  Na13  1  0.96404943  0.29524560  0.41092731  1
  Na  Na14  1  0.32986084  0.03111521  0.41659217  1
  Na  Na15  1  0.98967620  0.98183898  0.49913169  1
  Na  Na16  1  0.01422039  0.00932586  0.00772328  1
  Na  Na17  1  0.65063566  0.32731169  0.83063922  1
  Na  Na18  1  0.66644952  0.33242490  0.33109270  1
  Na  Na19  1  0.34378704  0.68379960  0.16591746  1
  Na  Na20  1  0.34335359  0.68249635  0.66579407  1
  La  La21  1  0.01038304  0.01215016  0.85219536  1
  La  La22  1  0.00128270  0.00149423  0.65512552  1
  La  La23  1  0.66351687  0.32588208  0.67533041  1
  La  La24  1  0.66989459  0.32315720  0.18357114  1
  La  La25  1  0.65799034  0.33655493  0.98767231  1
  La  La26  1  0.66251518  0.34217661  0.47916803  1
  In  In27  1  0.98954188  0.99285200  0.35047205  1
  In  In28  1  0.99249682  0.99593522  0.15595378  1
  In  In29  1  0.33292178  0.66134468  0.01757479  1
  In  In30  1  0.34229824  0.67043094  0.50856722  1
  In  In31  1  0.34510832  0.67444843  0.31397511  1
  In  In32  1  0.33466624  0.66321364  0.82041722  1
  Si  Si33  1  0.67836406  0.99680462  0.75268185  1
  Si  Si34  1  0.34729789  0.00909605  0.57873610  1
  Si  Si35  1  0.98665809  0.65453768  0.08496202  1
  P  P36  1  0.28696948  0.99293312  0.25421717  1
  P  P37  1  0.69917976  0.70395954  0.25003574  1
  P  P38  1  0.01311718  0.30518463  0.25447619  1
  P  P39  1  0.31865319  0.32453845  0.74599352  1
  P  P40  1  0.00328452  0.68117432  0.75355244  1
  P  P41  1  0.98887332  0.34051970  0.57780287  1
  P  P42  1  0.65955836  0.64895706  0.58555459  1
  P  P43  1  0.66938195  0.01474087  0.07855082  1
  P  P44  1  0.34600783  0.33143409  0.09117654  1
  P  P45  1  0.62964712  0.66734260  0.91763847  1
  P  P46  1  0.03343874  0.37390642  0.91991799  1
  P  P47  1  0.33616072  0.95659000  0.91906666  1
  P  P48  1  0.63688564  0.96117260  0.41474575  1
  P  P49  1  0.31709137  0.35935993  0.41042018  1
  P  P50  1  0.04799528  0.67607181  0.41057739  1
  O  O51  1  0.20281155  0.01054866  0.30968828  1
  O  O52  1  0.81032976  0.79574381  0.30156133  1
  O  O53  1  0.99894819  0.20800296  0.31049877  1
  O  O54  1  0.22441079  0.19547027  0.79417276  1
  O  O55  1  0.98536364  0.77149463  0.80705090  1
  O  O56  1  0.79789029  0.02060714  0.80860264  1
  O  O57  1  0.76565448  0.98180261  0.69280684  1
  O  O58  1  0.23478182  0.25598506  0.68667145  1
  O  O59  1  0.02626932  0.78248983  0.69746567  1
  O  O60  1  0.77173498  0.79202710  0.19124080  1
  O  O61  1  0.01653648  0.21277195  0.19898495  1
  O  O62  1  0.18332995  0.97307073  0.19902819  1
  O  O63  1  0.91633587  0.36611443  0.63464741  1
  O  O64  1  0.44961265  0.08999462  0.63936015  1
  O  O65  1  0.64500649  0.56764831  0.64528459  1
  O  O66  1  0.89703261  0.52938687  0.14035598  1
  O  O67  1  0.62412462  0.09872730  0.12733814  1
  O  O68  1  0.44967589  0.36054168  0.14671003  1
  O  O69  1  0.42486500  0.28778673  0.04040581  1
  O  O70  1  0.86764534  0.57244964  0.02769284  1
  O  O71  1  0.69845071  0.11281440  0.02164932  1
  O  O72  1  0.44254757  0.13365335  0.52395546  1
  O  O73  1  0.69241067  0.55212388  0.53817174  1
  O  O74  1  0.87632726  0.32149077  0.52552296  1
  O  O75  1  0.53269361  0.65795443  0.97349151  1
  O  O76  1  0.12397526  0.46383007  0.97616389  1
  O  O77  1  0.33955522  0.86508115  0.97481484  1
  O  O78  1  0.56374682  0.87429571  0.47354076  1
  O  O79  1  0.31448010  0.45031229  0.46667563  1
  O  O80  1  0.14970147  0.69473327  0.46631570  1
  O  O81  1  0.13584805  0.66227855  0.35538070  1
  O  O82  1  0.52491475  0.86785393  0.36335277  1
  O  O83  1  0.32948018  0.45835618  0.35488976  1
  O  O84  1  0.12664038  0.46024015  0.86313699  1
  O  O85  1  0.33593732  0.86645926  0.86262875  1
  O  O86  1  0.54128112  0.66613274  0.86082330  1
  O  O87  1  0.03207984  0.83336980  0.41072017  1
  O  O88  1  0.81336366  0.98638733  0.41190170  1
  O  O89  1  0.15414398  0.18957257  0.41325067  1
  O  O90  1  -0.00032312  0.19545889  0.92338026  1
  O  O91  1  0.17800996  0.96746623  0.92283818  1
  O  O92  1  0.79852710  0.82893991  0.92190073  1
  O  O93  1  0.00647904  0.18645484  0.57960816  1
  O  O94  1  0.16031663  0.97881450  0.57999401  1
  O  O95  1  0.80109480  0.82742569  0.58235503  1
  O  O96  1  0.00691164  0.83873118  0.09107011  1
  O  O97  1  0.82923400  0.01073717  0.09035240  1
  O  O98  1  0.16767151  0.18592958  0.09537836  1
  O  O99  1  0.65166575  0.15629971  0.75224047  1
  O  O100  1  0.49676751  0.36153489  0.74838674  1
  O  O101  1  0.85085383  0.50900282  0.75129731  1
  O  O102  1  0.68221795  0.53017553  0.25087912  1
  O  O103  1  0.86917096  0.34075761  0.25441681  1
  O  O104  1  0.45627297  0.15047640  0.25206095  1
  O  O105  1  0.66322168  0.52220436  0.91485878  1
  O  O106  1  0.86576099  0.36864610  0.91646868  1
  O  O107  1  0.49259206  0.12762695  0.91641694  1
  O  O108  1  0.65598714  0.13583963  0.41293556  1
  O  O109  1  0.45996416  0.32308286  0.40909147  1
  O  O110  1  0.87937555  0.51815424  0.41137796  1
  O  O111  1  0.33646007  0.48967651  0.08166668  1
  O  O112  1  0.17223788  0.67703560  0.08116659  1
  O  O113  1  0.52617573  0.83438623  0.07697584  1
  O  O114  1  0.33973299  0.83086012  0.57396721  1
  O  O115  1  0.49463599  0.64480877  0.57552529  1
  O  O116  1  0.16156455  0.49405302  0.57138953  1
  O  O117  1  0.30300149  0.83547257  0.25414290  1
  O  O118  1  0.52160518  0.67715246  0.25315709  1
  O  O119  1  0.17588914  0.47619366  0.25170304  1
  O  O120  1  0.31550418  0.48591104  0.75512898  1
  O  O121  1  0.15689669  0.66127075  0.75716462  1
  O  O122  1  0.49766567  0.82838778  0.75514256  1
