# generated using pymatgen
data_H2Pb3O4
_symmetry_space_group_name_H-M   'P 1'
_cell_length_a   8.12809742
_cell_length_b   8.12809742
_cell_length_c   9.29739807
_cell_angle_alpha   90.00000000
_cell_angle_beta   90.00000000
_cell_angle_gamma   90.00000000
_symmetry_Int_Tables_number   1
_chemical_formula_structural   H2Pb3O4
_chemical_formula_sum   'H8 Pb12 O16'
_cell_volume   614.24160030
_cell_formula_units_Z   4
loop_
 _symmetry_equiv_pos_site_id
 _symmetry_equiv_pos_as_xyz
  1  'x, y, z'
loop_
 _atom_site_type_symbol
 _atom_site_label
 _atom_site_symmetry_multiplicity
 _atom_site_fract_x
 _atom_site_fract_y
 _atom_site_fract_z
 _atom_site_occupancy
  H  H0  1  0.66358429  0.82505083  0.74197650  1
  H  H1  1  0.33641571  0.17494917  0.74197650  1
  H  H2  1  0.67494917  0.83641571  0.24197650  1
  H  H3  1  0.17494917  0.66358429  0.25802350  1
  H  H4  1  0.82505083  0.33641571  0.25802350  1
  H  H5  1  0.83641571  0.32505083  0.75802350  1
  H  H6  1  0.16358429  0.67494917  0.75802350  1
  H  H7  1  0.32505083  0.16358429  0.24197650  1
  Pb  Pb8  1  0.50000000  0.50000000  0.78009196  1
  Pb  Pb9  1  0.50000000  0.50000000  0.21990804  1
  Pb  Pb10  1  0.00000000  -0.00000000  0.71990804  1
  Pb  Pb11  1  0.00000000  -0.00000000  0.28009196  1
  Pb  Pb12  1  0.80052871  0.62353271  0.50209841  1
  Pb  Pb13  1  0.19947129  0.37646729  0.50209841  1
  Pb  Pb14  1  0.87646729  0.69947129  0.00209841  1
  Pb  Pb15  1  0.37646729  0.80052871  0.49790159  1
  Pb  Pb16  1  0.62353271  0.19947129  0.49790159  1
  Pb  Pb17  1  0.69947129  0.12353271  0.99790159  1
  Pb  Pb18  1  0.30052871  0.87646729  0.99790159  1
  Pb  Pb19  1  0.12353271  0.30052871  0.00209841  1
  O  O20  1  0.80736071  0.91804171  0.87337040  1
  O  O21  1  0.19263929  0.08195829  0.87337040  1
  O  O22  1  0.58195829  0.69263929  0.37337040  1
  O  O23  1  0.08195829  0.80736071  0.12662960  1
  O  O24  1  0.25293223  0.10910695  0.17140041  1
  O  O25  1  0.10910695  0.74706777  0.82859959  1
  O  O26  1  0.89089305  0.25293223  0.82859959  1
  O  O27  1  0.75293223  0.39089305  0.32859959  1
  O  O28  1  0.24706777  0.60910695  0.32859959  1
  O  O29  1  0.74706777  0.89089305  0.17140041  1
  O  O30  1  0.39089305  0.24706777  0.67140041  1
  O  O31  1  0.60910695  0.75293223  0.67140041  1
  O  O32  1  0.41804171  0.30736071  0.37337040  1
  O  O33  1  0.30736071  0.58195829  0.62662960  1
  O  O34  1  0.69263929  0.41804171  0.62662960  1
  O  O35  1  0.91804171  0.19263929  0.12662960  1
