# generated using pymatgen
data_Na8La2Hf2Si5SO24
_symmetry_space_group_name_H-M   'P 1'
_cell_length_a   9.52958715
_cell_length_b   9.52056020
_cell_length_c   23.10788095
_cell_angle_alpha   90.13494851
_cell_angle_beta   89.73586855
_cell_angle_gamma   120.06236436
_symmetry_Int_Tables_number   1
_chemical_formula_structural   Na8La2Hf2Si5SO24
_chemical_formula_sum   'Na24 La6 Hf6 Si15 S3 O72'
_cell_volume   1814.46862586
_cell_formula_units_Z   3
loop_
 _symmetry_equiv_pos_site_id
 _symmetry_equiv_pos_as_xyz
  1  'x, y, z'
loop_
 _atom_site_type_symbol
 _atom_site_label
 _atom_site_symmetry_multiplicity
 _atom_site_fract_x
 _atom_site_fract_y
 _atom_site_fract_z
 _atom_site_occupancy
  Na  Na0  1  0.64992938  0.00548203  0.25373200  1
  Na  Na1  1  0.34885050  0.35844511  0.24693786  1
  Na  Na2  1  0.00112045  0.64427622  0.24939967  1
  Na  Na3  1  0.63837854  0.63540904  0.74208297  1
  Na  Na4  1  0.98854503  0.35370971  0.74568979  1
  Na  Na5  1  0.36841161  0.01360849  0.74610664  1
  Na  Na6  1  0.30086311  0.33839811  0.59297396  1
  Na  Na7  1  0.03822724  0.70287802  0.58450998  1
  Na  Na8  1  0.66558786  0.95909910  0.58522626  1
  Na  Na9  1  0.27936243  0.96529927  0.08186047  1
  Na  Na10  1  0.67114708  0.68296671  0.09501466  1
  Na  Na11  1  0.05146449  0.33943311  0.09288528  1
  Na  Na12  1  0.98511715  0.67266369  0.91127909  1
  Na  Na13  1  0.70905702  0.05246501  0.89939591  1
  Na  Na14  1  0.31298081  0.27627595  0.91553545  1
  Na  Na15  1  0.95171180  0.29776506  0.40801472  1
  Na  Na16  1  0.32867772  0.01469932  0.41494765  1
  Na  Na17  1  0.71271506  0.67993522  0.41961972  1
  Na  Na18  1  0.98313305  0.98105415  0.50460243  1
  Na  Na19  1  0.03605264  0.01544751  0.99854184  1
  Na  Na20  1  0.66890196  0.32071320  0.82805940  1
  Na  Na21  1  0.67541957  0.32971688  0.33259849  1
  Na  Na22  1  0.31924479  0.64887177  0.17065820  1
  Na  Na23  1  0.33696608  0.66666187  0.66633069  1
  La  La24  1  0.99562745  0.99474670  0.34214863  1
  La  La25  1  0.00793618  0.00524343  0.83650955  1
  La  La26  1  0.00511167  0.99918588  0.16063083  1
  La  La27  1  0.66772401  0.33487592  0.97995352  1
  La  La28  1  0.31566140  0.65674695  0.01742249  1
  La  La29  1  0.33523428  0.67537745  0.52071094  1
  Hf  Hf30  1  -0.00031719  0.99933334  0.64994008  1
  Hf  Hf31  1  0.66795024  0.33366081  0.68304579  1
  Hf  Hf32  1  0.66474141  0.34292240  0.18499510  1
  Hf  Hf33  1  0.67699949  0.33039368  0.48664364  1
  Hf  Hf34  1  0.33064989  0.67903031  0.31870325  1
  Hf  Hf35  1  0.31991785  0.66659177  0.80900658  1
  Si  Si36  1  0.32506167  0.00367986  0.25093624  1
  Si  Si37  1  0.67198265  0.67905353  0.25106691  1
  Si  Si38  1  0.00111773  0.32548922  0.25055229  1
  Si  Si39  1  0.30944560  0.31003784  0.74768397  1
  Si  Si40  1  0.99543929  0.69209658  0.74868593  1
  Si  Si41  1  0.69149132  0.99799540  0.74821053  1
  Si  Si42  1  0.95386981  0.31702540  0.58624080  1
  Si  Si43  1  0.36971396  0.05253419  0.58492559  1
  Si  Si44  1  0.68107751  0.62886967  0.58449185  1
  Si  Si45  1  0.96335606  0.63595032  0.08400659  1
  Si  Si46  1  0.36633534  0.33164536  0.08410103  1
  Si  Si47  1  0.03430959  0.36416228  0.91141348  1
  Si  Si48  1  0.33360158  0.96383709  0.91375912  1
  Si  Si49  1  0.63583924  0.97611765  0.41945375  1
  Si  Si50  1  0.02306306  0.65922835  0.42030265  1
  S  S51  1  0.67056709  0.03807428  0.08729743  1
  S  S52  1  0.62507137  0.66887150  0.91085516  1
  S  S53  1  0.34481184  0.37052016  0.41681698  1
  O  O54  1  0.25461839  0.05793607  0.30585065  1
  O  O55  1  0.80044152  0.75137560  0.30448999  1
  O  O56  1  0.95235806  0.20155319  0.30559360  1
  O  O57  1  0.25691764  0.20713415  0.80768428  1
  O  O58  1  0.94889860  0.74610642  0.80906109  1
  O  O59  1  0.79485946  0.04479098  0.80777744  1
  O  O60  1  0.79999878  0.97132778  0.69659164  1
  O  O61  1  0.17188814  0.20110922  0.69664014  1
  O  O62  1  0.02512174  0.82783608  0.69733463  1
  O  O63  1  0.73995256  0.80109740  0.19544233  1
  O  O64  1  0.04990216  0.25389017  0.19426222  1
  O  O65  1  0.20100634  0.94931052  0.19624329  1
  O  O66  1  0.85487456  0.33211730  0.64093791  1
  O  O67  1  0.48080273  0.15181480  0.64011280  1
  O  O68  1  0.67292638  0.52054642  0.64005651  1
  O  O69  1  0.84278094  0.51863860  0.13680129  1
  O  O70  1  0.67206572  0.14005347  0.13690414  1
  O  O71  1  0.47718777  0.31831406  0.13702399  1
  O  O72  1  0.44170950  0.31852069  0.02174297  1
  O  O73  1  0.87951471  0.55669372  0.02184629  1
  O  O74  1  0.67786236  0.11869275  0.03192419  1
  O  O75  1  0.46518999  0.16019880  0.52581483  1
  O  O76  1  0.69512876  0.53404658  0.52534068  1
  O  O77  1  0.84409104  0.30300909  0.52725588  1
  O  O78  1  0.55189548  0.67553803  0.96720455  1
  O  O79  1  0.12523276  0.43806759  0.97343523  1
  O  O80  1  0.33199457  0.88131741  0.97638247  1
  O  O81  1  0.56886604  0.87199086  0.47885617  1
  O  O82  1  0.32368285  0.43945341  0.47128619  1
  O  O83  1  0.12176694  0.68317441  0.47997932  1
  O  O84  1  0.13233064  0.64668729  0.36587935  1
  O  O85  1  0.51234311  0.86597671  0.36574432  1
  O  O86  1  0.34940874  0.47137643  0.36664537  1
  O  O87  1  0.15449381  0.48151220  0.85785068  1
  O  O88  1  0.33257709  0.84494959  0.85990562  1
  O  O89  1  0.52526260  0.66950119  0.86158650  1
  O  O90  1  0.00140844  0.81955980  0.41429922  1
  O  O91  1  0.82224885  0.01204783  0.41169604  1
  O  O92  1  0.20500389  0.20228000  0.41197664  1
  O  O93  1  0.00509974  0.17907622  0.91035706  1
  O  O94  1  0.16726906  0.97610506  0.91329562  1
  O  O95  1  0.78983992  0.81195778  0.90913067  1
  O  O96  1  0.96074983  0.14691842  0.58971885  1
  O  O97  1  0.18916321  0.03907514  0.58956244  1
  O  O98  1  0.84845733  0.81025472  0.58880919  1
  O  O99  1  0.97816789  0.81575727  0.08676009  1
  O  O100  1  0.81455910  0.01856438  0.08953031  1
  O  O101  1  0.18023980  0.17583393  0.08693785  1
  O  O102  1  0.65882069  0.15088038  0.73773546  1
  O  O103  1  0.49410056  0.34259489  0.73623720  1
  O  O104  1  0.84721340  0.50601582  0.73774788  1
  O  O105  1  0.64460812  0.49491196  0.23992148  1
  O  O106  1  0.84416249  0.35135123  0.24024172  1
  O  O107  1  0.51096584  0.15170947  0.23916239  1
  O  O108  1  0.63177360  0.51581375  0.90705338  1
  O  O109  1  0.86280321  0.36612674  0.90565283  1
  O  O110  1  0.50006330  0.14136189  0.90582325  1
  O  O111  1  0.63310612  0.15082247  0.42127988  1
  O  O112  1  0.50046681  0.36826577  0.41705584  1
  O  O113  1  0.84352440  0.48711468  0.42065442  1
  O  O114  1  0.37192442  0.50676557  0.09263949  1
  O  O115  1  0.14094463  0.64830231  0.09320507  1
  O  O116  1  0.51925465  0.87735211  0.09153823  1
  O  O117  1  0.34891117  0.87039690  0.58707378  1
  O  O118  1  0.51789799  0.64562786  0.58619426  1
  O  O119  1  0.13707329  0.47432524  0.58615835  1
  O  O120  1  0.34230747  0.84146410  0.26293260  1
  O  O121  1  0.49101539  0.65047362  0.26647939  1
  O  O122  1  0.16112610  0.50536340  0.26283969  1
  O  O123  1  0.31907356  0.48865465  0.75143125  1
  O  O124  1  0.16733400  0.68530478  0.75198109  1
  O  O125  1  0.51411245  0.82733906  0.75288471  1
