# generated using pymatgen
data_Na2Zn5Ge3(SO4)12
_symmetry_space_group_name_H-M   'P 1'
_cell_length_a   17.07820363
_cell_length_b   8.54927265
_cell_length_c   22.24784756
_cell_angle_alpha   90.11557880
_cell_angle_beta   89.89237732
_cell_angle_gamma   120.04180008
_symmetry_Int_Tables_number   1
_chemical_formula_structural   Na2Zn5Ge3(SO4)12
_chemical_formula_sum   'Na6 Zn15 Ge9 S36 O144'
_cell_volume   2811.93840624
_cell_formula_units_Z   3
loop_
 _symmetry_equiv_pos_site_id
 _symmetry_equiv_pos_as_xyz
  1  'x, y, z'
loop_
 _atom_site_type_symbol
 _atom_site_label
 _atom_site_symmetry_multiplicity
 _atom_site_fract_x
 _atom_site_fract_y
 _atom_site_fract_z
 _atom_site_occupancy
  Na  Na0  1  0.00018847  0.00014023  0.50135485  1
  Na  Na1  1  0.50222520  0.00350877  0.99916241  1
  Na  Na2  1  0.33453570  0.33473949  0.83071130  1
  Na  Na3  1  0.83217678  0.33164422  0.83162272  1
  Na  Na4  1  0.33228133  0.33352097  0.33739826  1
  Na  Na5  1  0.83449994  0.33326678  0.33369494  1
  Zn  Zn6  1  0.00086304  0.00161203  0.35418186  1
  Zn  Zn7  1  0.50082063  0.00075287  0.85171679  1
  Zn  Zn8  1  0.00001762  0.99961169  0.64751141  1
  Zn  Zn9  1  0.50359818  0.00438810  0.14818520  1
  Zn  Zn10  1  0.33140569  0.33075663  0.68202919  1
  Zn  Zn11  1  0.83525520  0.33639301  0.68270252  1
  Zn  Zn12  1  0.83105979  0.33167062  0.18233875  1
  Zn  Zn13  1  0.33130768  0.33153687  0.98139811  1
  Zn  Zn14  1  0.83520887  0.33436981  0.98443873  1
  Zn  Zn15  1  0.33560061  0.33736618  0.48639650  1
  Zn  Zn16  1  0.83145118  0.33031402  0.48549286  1
  Zn  Zn17  1  0.16335267  0.66082410  0.31163558  1
  Zn  Zn18  1  0.67016505  0.66983823  0.31199813  1
  Zn  Zn19  1  0.16979655  0.67116538  0.80945001  1
  Zn  Zn20  1  0.66329147  0.66234065  0.80868483  1
  Ge  Ge21  1  0.50063572  0.99808695  0.35402912  1
  Ge  Ge22  1  0.99869366  0.99876335  0.84898264  1
  Ge  Ge23  1  0.50014199  0.99973826  0.65008996  1
  Ge  Ge24  1  0.99603596  0.99795409  0.14975177  1
  Ge  Ge25  1  0.33456868  0.33373310  0.18276775  1
  Ge  Ge26  1  0.16258269  0.66679289  0.01564558  1
  Ge  Ge27  1  0.67103235  0.66744047  0.01626583  1
  Ge  Ge28  1  0.16613089  0.66493232  0.52010529  1
  Ge  Ge29  1  0.66662333  0.66748669  0.52043895  1
  S  S30  1  0.14749112  0.00529470  0.24657333  1
  S  S31  1  0.64422992  -0.00013071  0.25161459  1
  S  S32  1  0.35488122  0.70620294  0.24890089  1
  S  S33  1  0.85575412  0.70878627  0.24980502  1
  S  S34  1  0.99888398  0.28768303  0.24923373  1
  S  S35  1  0.49787084  0.28990093  0.24957684  1
  S  S36  1  0.14481031  0.28827853  0.75122009  1
  S  S37  1  0.64567301  0.28808239  0.74917455  1
  S  S38  1  0.99963246  0.71015035  0.75102806  1
  S  S39  1  0.49828767  0.70916901  0.74926187  1
  S  S40  1  0.35619993  0.00285705  0.74936933  1
  S  S41  1  0.85508890  0.00086821  0.75089360  1
  S  S42  1  0.48389780  0.33205868  0.58294887  1
  S  S43  1  0.98368207  0.33809977  0.58118246  1
  S  S44  1  0.18579043  0.03273727  0.58018276  1
  S  S45  1  0.68174319  0.03155974  0.58368649  1
  S  S46  1  0.33404845  0.63603565  0.58359452  1
  S  S47  1  0.83064177  0.62901464  0.58045397  1
  S  S48  1  0.48127037  0.62360030  0.08209690  1
  S  S49  1  0.98449265  0.63622302  0.08320090  1
  S  S50  1  0.33034507  0.03637570  0.08168283  1
  S  S51  1  0.83308074  0.03171260  0.08339479  1
  S  S52  1  0.18431149  0.33292466  0.08456881  1
  S  S53  1  0.68568377  0.33945349  0.08018184  1
  S  S54  1  0.31024430  0.66699444  0.91829100  1
  S  S55  1  0.81541613  0.67199746  0.91441178  1
  S  S56  1  0.02137832  0.37075764  0.91536075  1
  S  S57  1  0.52236625  0.37828117  0.91744330  1
  S  S58  1  0.16334356  0.95661500  0.91487026  1
  S  S59  1  0.66726220  0.95500664  0.91815331  1
  S  S60  1  0.31424887  0.95726765  0.41414267  1
  S  S61  1  0.81051657  0.95586008  0.41814038  1
  S  S62  1  0.16802420  0.37886379  0.41774617  1
  S  S63  1  0.66399856  0.37210787  0.41480986  1
  S  S64  1  0.02198505  0.66599413  0.41716164  1
  S  S65  1  0.52138841  0.66975196  0.41539268  1
  O  O66  1  0.11330074  0.04815662  0.30038447  1
  O  O67  1  0.60151793  0.03933918  0.30823612  1
  O  O68  1  0.41377149  0.78166445  0.30484786  1
  O  O69  1  0.91311888  0.79103303  0.30250717  1
  O  O70  1  0.47662521  0.17099049  0.30501262  1
  O  O71  1  0.98360411  0.17563872  0.30244116  1
  O  O72  1  0.10377932  0.16827925  0.80899539  1
  O  O73  1  0.60667104  0.17738866  0.80321697  1
  O  O74  1  0.48208934  0.78728203  0.80348148  1
  O  O75  1  0.98060005  0.79160155  0.80895337  1
  O  O76  1  0.41134754  0.03497634  0.80346226  1
  O  O77  1  0.91526645  0.04002231  0.80871580  1
  O  O78  1  0.39869899  0.97108334  0.69291080  1
  O  O79  1  0.89684152  0.97420858  0.69801735  1
  O  O80  1  0.09035972  0.20572037  0.69812870  1
  O  O81  1  0.58690842  0.20293138  0.69294084  1
  O  O82  1  0.01262777  0.81905920  0.69803981  1
  O  O83  1  0.51430448  0.82583860  0.69298460  1
  O  O84  1  0.39578648  0.81291469  0.19522163  1
  O  O85  1  0.89741245  0.82439637  0.19239589  1
  O  O86  1  0.01582755  0.20341705  0.19233129  1
  O  O87  1  0.50968792  0.20888489  0.19519137  1
  O  O88  1  0.09028328  0.97609406  0.19146339  1
  O  O89  1  0.58983502  0.97255519  0.19793425  1
  O  O90  1  0.44751229  0.37183721  0.63639433  1
  O  O91  1  0.94592135  0.37272016  0.63542046  1
  O  O92  1  0.24005138  0.10665562  0.63463486  1
  O  O93  1  0.73799751  0.10499215  0.63705799  1
  O  O94  1  0.31477751  0.52406475  0.63712487  1
  O  O95  1  0.81373043  0.52052457  0.63470458  1
  O  O96  1  0.44047994  0.50565738  0.13926621  1
  O  O97  1  0.94861670  0.52500259  0.13685508  1
  O  O98  1  0.31241202  0.11721947  0.13839344  1
  O  O99  1  0.81478971  0.10472541  0.13762798  1
  O  O100  1  0.24502659  0.37344478  0.13970463  1
  O  O101  1  0.73910389  0.37356190  0.13506691  1
  O  O102  1  0.22168727  0.29396811  0.03184890  1
  O  O103  1  0.72608661  0.30884967  0.02657535  1
  O  O104  1  0.42357159  0.54090504  0.03011586  1
  O  O105  1  0.93070950  0.56473457  0.02883417  1
  O  O106  1  0.34619117  0.14951760  0.02924931  1
  O  O107  1  0.85222556  0.14192559  0.02965863  1
  O  O108  1  0.22564683  0.14289662  0.52607999  1
  O  O109  1  0.71741120  0.13930826  0.52926685  1
  O  O110  1  0.35295610  0.56428327  0.52926837  1
  O  O111  1  0.84506145  0.55000134  0.52592511  1
  O  O112  1  0.42992988  0.29555228  0.52838170  1
  O  O113  1  0.92917720  0.30787659  0.52698803  1
  O  O114  1  0.26773993  0.70042414  0.97640717  1
  O  O115  1  0.77696026  0.70916025  0.97166826  1
  O  O116  1  0.07912023  0.44892142  0.97313402  1
  O  O117  1  0.58031141  0.46248787  0.97470052  1
  O  O118  1  0.14559897  0.84292926  0.97237443  1
  O  O119  1  0.65113276  0.83846417  0.97600459  1
  O  O120  1  0.27613687  0.84412030  0.46962247  1
  O  O121  1  0.76715430  0.83689745  0.47418627  1
  O  O122  1  0.15272907  0.46450962  0.47404663  1
  O  O123  1  0.64599483  0.45079260  0.47040074  1
  O  O124  1  0.08102003  0.69829514  0.47290387  1
  O  O125  1  0.57839833  0.70627040  0.47115675  1
  O  O126  1  0.06237688  0.63999810  0.36272263  1
  O  O127  1  0.56116636  0.64043697  0.36195398  1
  O  O128  1  0.25993429  0.87761768  0.36040232  1
  O  O129  1  0.75716531  0.87546206  0.36411621  1
  O  O130  1  0.18135501  0.48581665  0.36375285  1
  O  O131  1  0.67857942  0.48032870  0.36114102  1
  O  O132  1  0.06310183  0.48549608  0.86365401  1
  O  O133  1  0.56390969  0.48742882  0.86436950  1
  O  O134  1  0.17973233  0.87432811  0.86307378  1
  O  O135  1  0.67980964  0.87108091  0.86506540  1
  O  O136  1  0.25560279  0.64059873  0.86539888  1
  O  O137  1  0.75824867  0.64082981  0.86253203  1
  O  O138  1  0.01569966  0.83200538  0.41484439  1
  O  O139  1  0.51390636  0.83938677  0.40972907  1
  O  O140  1  0.40668094  0.96887787  0.40796720  1
  O  O141  1  0.89979954  0.96903532  0.41642446  1
  O  O142  1  0.08495796  0.20031594  0.41575977  1
  O  O143  1  0.57772370  0.18867889  0.40902753  1
  O  O144  1  0.01468918  0.18946976  0.90985632  1
  O  O145  1  0.51509876  0.19940852  0.91584428  1
  O  O146  1  0.07941272  0.96948625  0.90960625  1
  O  O147  1  0.58438746  0.96775702  0.91699007  1
  O  O148  1  0.39939859  0.83150259  0.91716457  1
  O  O149  1  0.90633550  0.84219705  0.90921551  1
  O  O150  1  0.49599079  0.17083906  0.59212434  1
  O  O151  1  0.99690300  0.18154745  0.58693437  1
  O  O152  1  0.09397196  0.00502088  0.58608888  1
  O  O153  1  0.58892775  0.00937650  0.59254044  1
  O  O154  1  0.41550007  0.82149730  0.59258860  1
  O  O155  1  0.90884341  0.81242384  0.58604874  1
  O  O156  1  0.49086829  0.80226877  0.09060983  1
  O  O157  1  0.99702437  0.82282376  0.09253108  1
  O  O158  1  0.40893638  0.01399979  0.09039269  1
  O  O159  1  0.91591402  0.01045653  0.09177567  1
  O  O160  1  0.09398758  0.17014730  0.09577270  1
  O  O161  1  0.59339876  0.18194145  0.08579843  1
  O  O162  1  0.34825429  0.16537133  0.74172544  1
  O  O163  1  0.84848754  0.16600308  0.74811879  1
  O  O164  1  0.23413169  0.30121300  0.74870679  1
  O  O165  1  0.73478703  0.30323202  0.74117483  1
  O  O166  1  0.41675527  0.53089591  0.74145876  1
  O  O167  1  0.91681107  0.53159215  0.74855123  1
  O  O168  1  0.34799649  0.51950050  0.24307892  1
  O  O169  1  0.84818348  0.53074003  0.24192364  1
  O  O170  1  0.41075936  0.30238042  0.24381642  1
  O  O171  1  0.91715402  0.30179633  0.24114265  1
  O  O172  1  0.24071733  0.17825060  0.23776073  1
  O  O173  1  0.73304320  0.16600433  0.24906314  1
  O  O174  1  0.31772046  0.50426532  0.92569085  1
  O  O175  1  0.82689051  0.51477025  0.92318862  1
  O  O176  1  0.43279380  0.36202975  0.92434977  1
  O  O177  1  0.93182696  0.35045346  0.92471608  1
  O  O178  1  0.24292359  0.13614347  0.92354100  1
  O  O179  1  0.74840005  0.13364885  0.92550312  1
  O  O180  1  0.32806258  0.13962468  0.42205964  1
  O  O181  1  0.81841813  0.13395247  0.42523010  1
  O  O182  1  0.24893661  0.36125693  0.42467965  1
  O  O183  1  0.74200099  0.34696654  0.42250724  1
  O  O184  1  0.43070933  0.51272359  0.42352611  1
  O  O185  1  0.93241200  0.50446550  0.42384249  1
  O  O186  1  0.17533177  0.49671428  0.07739667  1
  O  O187  1  0.67845245  0.50958580  0.07259763  1
  O  O188  1  0.07790708  0.65427448  0.07413194  1
  O  O189  1  0.57123231  0.63691189  0.07669674  1
  O  O190  1  0.24588171  0.85549713  0.07563594  1
  O  O191  1  0.75064245  0.84657065  0.07461334  1
  O  O192  1  0.17961089  0.84905831  0.57234839  1
  O  O193  1  0.67068851  0.84473813  0.57477291  1
  O  O194  1  0.25152733  0.65570738  0.57430100  1
  O  O195  1  0.74448109  0.64214563  0.57343092  1
  O  O196  1  0.07658746  0.50879352  0.57432805  1
  O  O197  1  0.57642142  0.49924575  0.57352906  1
  O  O198  1  0.15939517  0.84958684  0.25119390  1
  O  O199  1  0.65081302  0.83943831  0.26030966  1
  O  O200  1  0.26604114  0.68230840  0.25818414  1
  O  O201  1  0.76784705  0.69667391  0.25311474  1
  O  O202  1  0.08091524  0.46404241  0.25214918  1
  O  O203  1  0.57449074  0.46710790  0.25864380  1
  O  O204  1  0.15158485  0.46283792  0.76015751  1
  O  O205  1  0.65164307  0.46377529  0.75276599  1
  O  O206  1  0.08028396  0.69719784  0.75996434  1
  O  O207  1  0.58055042  0.69804584  0.75251967  1
  O  O208  1  0.26834701  0.83820595  0.75248214  1
  O  O209  1  0.76799414  0.83960259  0.76009394  1
