# generated using pymatgen
data_HfTa(PO4)3
_symmetry_space_group_name_H-M   'P 1'
_cell_length_a   8.84362192
_cell_length_b   8.84362163
_cell_length_c   22.71997871
_cell_angle_alpha   90.00000000
_cell_angle_beta   90.00000000
_cell_angle_gamma   120.00000108
_symmetry_Int_Tables_number   1
_chemical_formula_structural   HfTa(PO4)3
_chemical_formula_sum   'Hf6 Ta6 P18 O72'
_cell_volume   1538.85913790
_cell_formula_units_Z   6
loop_
 _symmetry_equiv_pos_site_id
 _symmetry_equiv_pos_as_xyz
  1  'x, y, z'
loop_
 _atom_site_type_symbol
 _atom_site_label
 _atom_site_symmetry_multiplicity
 _atom_site_fract_x
 _atom_site_fract_y
 _atom_site_fract_z
 _atom_site_occupancy
  Hf  Hf0  1  0.00000000  0.00000000  0.35798465  1
  Hf  Hf1  1  0.00000000  0.00000000  0.85798465  1
  Hf  Hf2  1  0.66666700  0.33333300  0.69131765  1
  Hf  Hf3  1  0.66666700  0.33333300  0.19131765  1
  Hf  Hf4  1  0.33333300  0.66666700  0.02465165  1
  Hf  Hf5  1  0.33333300  0.66666700  0.52465165  1
  Ta  Ta6  1  0.00000000  -0.00000000  0.64307973  1
  Ta  Ta7  1  0.00000000  -0.00000000  0.14307973  1
  Ta  Ta8  1  0.66666700  0.33333300  0.97641273  1
  Ta  Ta9  1  0.66666700  0.33333300  0.47641273  1
  Ta  Ta10  1  0.33333300  0.66666700  0.30974673  1
  Ta  Ta11  1  0.33333300  0.66666700  0.80974673  1
  P  P12  1  0.28092093  0.99556713  0.25011494  1
  P  P13  1  0.71464620  0.71907907  0.25011494  1
  P  P14  1  0.00443287  0.28535380  0.25011494  1
  P  P15  1  0.28092093  0.28535380  0.75011494  1
  P  P16  1  0.00443287  0.71907907  0.75011494  1
  P  P17  1  0.71464620  0.99556713  0.75011494  1
  P  P18  1  0.94758793  0.32890013  0.58344794  1
  P  P19  1  0.38131320  0.05241207  0.58344794  1
  P  P20  1  0.67109987  0.61868680  0.58344794  1
  P  P21  1  0.94758793  0.61868680  0.08344794  1
  P  P22  1  0.67109987  0.05241207  0.08344794  1
  P  P23  1  0.38131320  0.32890013  0.08344794  1
  P  P24  1  0.61425393  0.66223413  0.91678194  1
  P  P25  1  0.04797920  0.38574607  0.91678194  1
  P  P26  1  0.33776587  0.95202080  0.91678194  1
  P  P27  1  0.61425393  0.95202080  0.41678194  1
  P  P28  1  0.33776587  0.38574607  0.41678194  1
  P  P29  1  0.04797920  0.66223413  0.41678194  1
  O  O30  1  0.19812866  0.02458572  0.30427810  1
  O  O31  1  0.82645707  0.80187134  0.30427810  1
  O  O32  1  0.97541428  0.17354293  0.30427810  1
  O  O33  1  0.19812866  0.17354293  0.80427810  1
  O  O34  1  0.97541428  0.80187134  0.80427810  1
  O  O35  1  0.82645707  0.02458572  0.80427810  1
  O  O36  1  0.80176907  0.96528703  0.69513117  1
  O  O37  1  0.16351796  0.19823093  0.69513117  1
  O  O38  1  0.03471297  0.83648204  0.69513117  1
  O  O39  1  0.80176907  0.83648204  0.19513117  1
  O  O40  1  0.03471297  0.19823093  0.19513117  1
  O  O41  1  0.16351796  0.96528703  0.19513117  1
  O  O42  1  0.86479566  0.35791872  0.63761110  1
  O  O43  1  0.49312407  0.13520434  0.63761110  1
  O  O44  1  0.64208128  0.50687593  0.63761110  1
  O  O45  1  0.86479566  0.50687593  0.13761110  1
  O  O46  1  0.64208128  0.13520434  0.13761110  1
  O  O47  1  0.49312407  0.35791872  0.13761110  1
  O  O48  1  0.46843607  0.29862003  0.02846417  1
  O  O49  1  0.83018496  0.53156393  0.02846417  1
  O  O50  1  0.70137997  0.16981504  0.02846417  1
  O  O51  1  0.46843607  0.16981504  0.52846417  1
  O  O52  1  0.70137997  0.53156393  0.52846417  1
  O  O53  1  0.83018496  0.29862003  0.52846417  1
  O  O54  1  0.53146166  0.69125272  0.97094510  1
  O  O55  1  0.15979007  0.46853834  0.97094510  1
  O  O56  1  0.30874728  0.84020993  0.97094510  1
  O  O57  1  0.53146166  0.84020993  0.47094510  1
  O  O58  1  0.30874728  0.46853834  0.47094510  1
  O  O59  1  0.15979007  0.69125272  0.47094510  1
  O  O60  1  0.13510207  0.63195403  0.36179817  1
  O  O61  1  0.49685096  0.86489793  0.36179817  1
  O  O62  1  0.36804597  0.50314904  0.36179817  1
  O  O63  1  0.13510207  0.50314904  0.86179817  1
  O  O64  1  0.36804597  0.86489793  0.86179817  1
  O  O65  1  0.49685096  0.63195403  0.86179817  1
  O  O66  1  0.02137346  0.81762518  0.40657226  1
  O  O67  1  0.79625172  0.97862654  0.40657226  1
  O  O68  1  0.18237482  0.20374828  0.40657226  1
  O  O69  1  0.02137346  0.20374828  0.90657226  1
  O  O70  1  0.18237482  0.97862654  0.90657226  1
  O  O71  1  0.79625172  0.81762518  0.90657226  1
  O  O72  1  0.96380269  0.16229907  0.59354873  1
  O  O73  1  0.19849638  0.03619731  0.59354873  1
  O  O74  1  0.83770093  0.80150362  0.59354873  1
  O  O75  1  0.96380269  0.80150362  0.09354873  1
  O  O76  1  0.83770093  0.03619731  0.09354873  1
  O  O77  1  0.19849638  0.16229907  0.09354873  1
  O  O78  1  0.68804046  0.15095818  0.73990526  1
  O  O79  1  0.46291872  0.31195954  0.73990526  1
  O  O80  1  0.84904182  0.53708128  0.73990526  1
  O  O81  1  0.68804046  0.53708128  0.23990526  1
  O  O82  1  0.84904182  0.31195954  0.23990526  1
  O  O83  1  0.46291872  0.15095818  0.23990526  1
  O  O84  1  0.63046969  0.49563207  0.92688173  1
  O  O85  1  0.86516338  0.36953031  0.92688173  1
  O  O86  1  0.50436793  0.13483662  0.92688173  1
  O  O87  1  0.63046969  0.13483662  0.42688173  1
  O  O88  1  0.50436793  0.36953031  0.42688173  1
  O  O89  1  0.86516338  0.49563207  0.42688173  1
  O  O90  1  0.35470646  0.48429218  0.07323926  1
  O  O91  1  0.12958472  0.64529354  0.07323926  1
  O  O92  1  0.51570782  0.87041528  0.07323926  1
  O  O93  1  0.35470646  0.87041528  0.57323926  1
  O  O94  1  0.51570782  0.64529354  0.57323926  1
  O  O95  1  0.12958472  0.48429218  0.57323926  1
  O  O96  1  0.29713569  0.82896607  0.26021573  1
  O  O97  1  0.53182938  0.70286431  0.26021573  1
  O  O98  1  0.17103393  0.46817062  0.26021573  1
  O  O99  1  0.29713569  0.46817062  0.76021573  1
  O  O100  1  0.17103393  0.70286431  0.76021573  1
  O  O101  1  0.53182938  0.82896607  0.76021573  1
