# generated using pymatgen
data_CsAsSe2
_symmetry_space_group_name_H-M   'P 1'
_cell_length_a   6.81427886
_cell_length_b   9.85769995
_cell_length_c   16.83956484
_cell_angle_alpha   90.00000000
_cell_angle_beta   90.00000000
_cell_angle_gamma   90.00000000
_symmetry_Int_Tables_number   1
_chemical_formula_structural   CsAsSe2
_chemical_formula_sum   'Cs8 As8 Se16'
_cell_volume   1131.16604874
_cell_formula_units_Z   8
loop_
 _symmetry_equiv_pos_site_id
 _symmetry_equiv_pos_as_xyz
  1  'x, y, z'
loop_
 _atom_site_type_symbol
 _atom_site_label
 _atom_site_symmetry_multiplicity
 _atom_site_fract_x
 _atom_site_fract_y
 _atom_site_fract_z
 _atom_site_occupancy
  Cs  Cs0  1  0.85974252  0.19832713  0.07958168  1
  Cs  Cs1  1  0.35974252  0.30167287  0.92041832  1
  Cs  Cs2  1  0.14025748  0.69832713  0.42041832  1
  Cs  Cs3  1  0.64025748  0.80167287  0.57958168  1
  Cs  Cs4  1  0.14025748  0.80167287  0.92041832  1
  Cs  Cs5  1  0.64025748  0.69832713  0.07958168  1
  Cs  Cs6  1  0.85974252  0.30167287  0.57958168  1
  Cs  Cs7  1  0.35974252  0.19832713  0.42041832  1
  As  As8  1  0.23440234  0.96889827  0.71248171  1
  As  As9  1  0.76559766  0.03110173  0.28751829  1
  As  As10  1  0.26559766  0.46889827  0.71248171  1
  As  As11  1  0.23440234  0.53110173  0.21248171  1
  As  As12  1  0.73440234  0.96889827  0.78751829  1
  As  As13  1  0.73440234  0.53110173  0.28751829  1
  As  As14  1  0.76559766  0.46889827  0.78751829  1
  As  As15  1  0.26559766  0.03110173  0.21248171  1
  Se  Se16  1  0.48712392  0.87446156  0.28226617  1
  Se  Se17  1  0.98712392  0.62553844  0.71773383  1
  Se  Se18  1  0.51287608  0.37446156  0.21773383  1
  Se  Se19  1  0.98712392  0.87446156  0.21773383  1
  Se  Se20  1  0.01287608  0.12553844  0.78226617  1
  Se  Se21  1  0.51287608  0.12553844  0.71773383  1
  Se  Se22  1  0.01287608  0.37446156  0.28226617  1
  Se  Se23  1  0.48712392  0.62553844  0.78226617  1
  Se  Se24  1  0.36099360  0.02469297  0.08030133  1
  Se  Se25  1  0.86099360  0.47530703  0.91969867  1
  Se  Se26  1  0.63900640  0.52469297  0.41969867  1
  Se  Se27  1  0.13900640  0.97530703  0.58030133  1
  Se  Se28  1  0.63900640  0.97530703  0.91969867  1
  Se  Se29  1  0.13900640  0.52469297  0.08030133  1
  Se  Se30  1  0.36099360  0.47530703  0.58030133  1
  Se  Se31  1  0.86099360  0.02469297  0.41969867  1
